data_PCOD9441737
_publ_section_title
;
Structure prediction by ZEFSAII (Michael W. Deem and Ramdas Pophale) SiO2 
 PCOD9441737
Probable space group: P N N M
;
_chemical_formula_sum "Si O2"
_cell_formula_units_Z 40
_cell_length_a 7.933928
_cell_length_b 8.066571
_cell_length_c 28.467090
_cell_angle_alpha 90.000000
_cell_angle_beta 90.000000
_cell_angle_gamma 90.000000
_cell_volume 1821.882189
_symmetry_space_group_name_H-M "P N N M"
_symmetry_group_IT_number 58
_symmetry_cell_setting 'orthorhombic'
loop_
_space_group_symop_operation_xyz
x,y,z
-x,-y,z
1/2+x,1/2-y,1/2-z
1/2-x,1/2+y,1/2-z
-x,-y,-z
x,y,-z
1/2-x,1/2+y,1/2+z
1/2+x,1/2-y,1/2+z
loop_
_atom_site_type_symbol
_atom_site_label
_atom_site_fract_x
_atom_site_fract_y
_atom_site_fract_z
Si Si1 0.382643 0.747097 0.000000
Si Si2 0.738570 0.402905 0.220635
Si Si3 0.734239 0.231936 0.400412
Si Si4 0.000000 0.500000 0.575460
Si Si5 0.000000 0.000000 0.353318
Si Si6 0.763704 0.604340 0.000000
Si Si7 0.579914 0.249118 0.304302
O O1 0.390158 0.870811 0.044164
O O2 0.569081 0.665711 0.000000
O O3 0.249717 0.596271 0.000000
O O4 0.590039 0.373746 0.182813
O O5 0.668401 0.387568 0.272908
O O6 0.817505 0.582034 0.209675
O O7 0.889959 0.277471 0.211478
O O8 0.665723 0.183539 0.451878
O O9 0.597720 0.261614 0.360113
O O10 0.861531 0.387352 0.399585
O O11 0.855619 0.079735 0.384986
#
# Coordination Sequence:
#
# PCOD9441737 Si02
#       7
#     4   8   8   4   4   4   8
#     4   8  14  26  46  72 105 145 186 241 287 331
#     4  10  21  38  57  82 115 148 189 237 284 342
#     4  10  19  31  52  82 114 151 190 235 285 338
#     4   9  16  26  44  76 110 138 188 238 284 333
#     4  10  20  35  56  78 110 145 184 228 286 352
#     4   9  16  30  50  75 113 151 192 233 279 338
#     4  10  21  36  57  82 115 152 190 234 288 342
#
# _framework density 21.955317000000001
#
# number of rings (size 3 to 8) (size 9 to 14) (size 15 to 20)
#    0.000    2.400    0.000    5.400    0.000    3.200 
#    0.000    0.000    0.000   10.800    0.000    0.000 
#    0.000   58.400    0.000    0.000    0.000    0.500 
#
# Total GULP energy -223253.285118 kJ/mol
# GULP energy per Si atom -5581.332128 kJ/mol
# Density = 2.190535 g / cm^3
# Si number density = 21.955317 Si / 1000 Ang^3
#
#
#
# Elastic Constant Matrix: (Units=GPa)
#
#
# Indices 1 2 3 4 5 6 
#
# 1 59.5290 1.1675 35.1884 0.0000 0.0000 0.0000
# 2 1.1675 77.9488 25.4237 0.0000 0.0000 0.0000
# 3 35.1884 25.4237 149.3447 0.0000 0.0000 0.0000
# 4 0.0000 0.0000 0.0000 15.5052 0.0000 0.0000
# 5 0.0000 0.0000 0.0000 0.0000 51.9773 0.0000
# 6 0.0000 0.0000 0.0000 0.0000 0.0000 8.8994
#
#
#
# Elastic Compliance Matrix: (Units=1/GPa)
#
#
# Indices 1 2 3 4 5 6 
#
# 1 0.019638 0.001286 -0.004846 0.000000 0.000000 0.000000
# 2 0.001286 0.013667 -0.002630 0.000000 0.000000 0.000000
# 3 -0.004846 -0.002630 0.008285 0.000000 0.000000 0.000000
# 4 0.000000 0.000000 0.000000 0.064494 0.000000 0.000000
# 5 0.000000 0.000000 0.000000 0.000000 0.019239 0.000000
# 6 0.000000 0.000000 0.000000 0.000000 0.000000 0.112367
#
#
# Mechanical properties :
#
#
# Convention : Reuss Voigt Hill
#
# Bulk Modulus (GPa) = 34.23262 45.59798 39.91530
# Shear Modulus (GPa) = 19.24505 30.27924 24.76215
#
# Velocity S-wave (km/s) = 2.96388 3.71769 3.36198
# Velocity P-wave (km/s) = 5.22863 6.26434 5.76977
#
# Compressibility (1/GPa) = 0.02921191
#
# Stress axis : x y z
#
# Youngs Moduli (GPa) = 50.92200 73.16687 120.69394
#
# Poissons Ratio (x) = -0.09412 0.58489
# Poissons Ratio (y) = -0.06551 0.31740
# Poissons Ratio (z) = 0.24677 0.19241
#
# Static dielectric constant tensor:
#      x y z
#    x 1.771110 0.000000 0.000000 
#    y 0.000000 1.884240 0.000000 
#    z 0.000000 0.000000 1.832370 
# 
# From -- ./inp_files/33208.got.cif
#   From: 2010.05.17/outbox.cif.g08.bks.cpg/sg58_17_cif.got.tgz:33208.got - 2010.06.03 14:20:14.
