data_PCOD9441568
_publ_section_title
;
Structure prediction by ZEFSAII (Michael W. Deem and Ramdas Pophale) SiO2 
 PCOD9441568
Probable space group: P N N M
;
_chemical_formula_sum "Si O2"
_cell_formula_units_Z 56
_cell_length_a 18.855299
_cell_length_b 21.403077
_cell_length_c 8.708589
_cell_angle_alpha 90.000000
_cell_angle_beta 90.000000
_cell_angle_gamma 90.000000
_cell_volume 3514.450511
_symmetry_space_group_name_H-M "P N N M"
_symmetry_group_IT_number 58
_symmetry_cell_setting 'orthorhombic'
loop_
_space_group_symop_operation_xyz
x,y,z
-x,-y,z
1/2+x,1/2-y,1/2-z
1/2-x,1/2+y,1/2-z
-x,-y,-z
x,y,-z
1/2-x,1/2+y,1/2+z
1/2+x,1/2-y,1/2+z
loop_
_atom_site_type_symbol
_atom_site_label
_atom_site_fract_x
_atom_site_fract_y
_atom_site_fract_z
Si Si1 0.416968 0.994818 0.815197
Si Si2 0.204594 0.185732 0.181946
Si Si3 0.780642 0.192500 0.816830
Si Si4 0.844164 0.627589 0.182599
Si Si5 0.845883 0.373650 0.314836
Si Si6 0.423929 0.248215 0.682469
Si Si7 0.421703 0.750195 0.818316
O O1 0.378226 0.059532 0.774387
O O2 0.500000 0.000000 0.776221
O O3 0.381435 0.935855 0.734593
O O4 0.411783 0.986506 0.000000
O O5 0.246222 0.249075 0.227355
O O6 0.262420 0.133305 0.225159
O O7 0.129909 0.193808 0.266224
O O8 0.192420 0.183550 0.000000
O O9 0.733724 0.134984 0.758868
O O10 0.864313 0.198717 0.786772
O O11 0.770157 0.200555 0.000000
O O12 0.891093 0.686340 0.241615
O O13 0.838211 0.631333 0.000000
O O14 0.851497 0.365594 0.500000
O O15 0.889736 0.317458 0.237438
O O16 0.435495 0.245249 0.500000
O O17 0.497969 0.259162 0.765595
O O18 0.417490 0.757941 0.000000
#
# Coordination Sequence:
#
# PCOD9441568 Si02
#       7
#     8   8   8   8   8   8   8
#     4  10  20  33  48  67  93 126 160 189 222 268
#     4   9  16  28  45  65  90 118 152 190 226 268
#     4   9  17  30  47  66  90 120 151 184 227 276
#     4  11  21  32  47  67  93 124 158 194 227 264
#     4   9  18  31  47  67  93 126 157 187 225 270
#     4  10  19  30  47  71  96 120 149 189 232 274
#     4  11  20  30  46  67  93 123 153 188 232 277
#
# _framework density 15.934212
#
# number of rings (size 3 to 8) (size 9 to 14) (size 15 to 20)
#    0.000    2.143    0.000    6.429    0.000    4.286 
#    0.000    0.000    0.000    0.000    0.000    1.000 
#    0.000    8.000    0.000    0.000    0.000    0.000 
#
# Total GULP energy -312182.157823 kJ/mol
# GULP energy per Si atom -5574.681390 kJ/mol
# Density = 1.589794 g / cm^3
# Si number density = 15.934212 Si / 1000 Ang^3
#
#
#
# Elastic Constant Matrix: (Units=GPa)
#
#
# Indices 1 2 3 4 5 6 
#
# 1 134.5705 52.4260 42.0527 0.0000 0.0000 0.0000
# 2 52.4260 63.1984 25.6327 0.0000 0.0000 0.0000
# 3 42.0527 25.6327 54.6412 0.0000 0.0000 0.0000
# 4 0.0000 0.0000 0.0000 19.9187 0.0000 0.0000
# 5 0.0000 0.0000 0.0000 0.0000 25.4823 0.0000
# 6 0.0000 0.0000 0.0000 0.0000 0.0000 25.9489
#
#
#
# Elastic Compliance Matrix: (Units=1/GPa)
#
#
# Indices 1 2 3 4 5 6 
#
# 1 0.012298 -0.007858 -0.005779 0.000000 0.000000 0.000000
# 2 -0.007858 0.024562 -0.005475 0.000000 0.000000 0.000000
# 3 -0.005779 -0.005475 0.025317 0.000000 0.000000 0.000000
# 4 0.000000 0.000000 0.000000 0.050204 0.000000 0.000000
# 5 0.000000 0.000000 0.000000 0.000000 0.039243 0.000000
# 6 0.000000 0.000000 0.000000 0.000000 0.000000 0.038537
#
#
# Mechanical properties :
#
#
# Convention : Reuss Voigt Hill
#
# Bulk Modulus (GPa) = 41.74584 54.73701 48.24143
# Shear Modulus (GPa) = 21.15333 23.08988 22.12161
#
# Velocity S-wave (km/s) = 3.64750 3.81080 3.73004
# Velocity P-wave (km/s) = 6.63285 7.33413 6.99229
#
# Compressibility (1/GPa) = 0.02395448
#
# Stress axis : x y z
#
# Youngs Moduli (GPa) = 81.31245 40.71253 39.49966
#
# Poissons Ratio (x) = 0.31993 0.22825
# Poissons Ratio (y) = 0.63897 0.21625
# Poissons Ratio (z) = 0.46987 0.22289
#
# Static dielectric constant tensor:
#      x y z
#    x 1.566820 0.000000 0.000000 
#    y 0.000000 1.516270 0.000000 
#    z 0.000000 0.000000 1.534290 
# 
# From -- ./inp_files/8140.got.cif
#   From: 2010.05.17/outbox.cif.g08.bks.cpg/sg58_5_cif.got.tgz:8140.got - 2010.06.03 14:20:14.
