data_PCOD9441811
_publ_section_title
;
Structure prediction by ZEFSAII (Michael W. Deem and Ramdas Pophale) SiO2 
 PCOD9441811
Probable space group: P N N M
;
_chemical_formula_sum "Si O2"
_cell_formula_units_Z 64
_cell_length_a 23.305242
_cell_length_b 14.801338
_cell_length_c 9.028057
_cell_angle_alpha 90.000000
_cell_angle_beta 90.000000
_cell_angle_gamma 90.000000
_cell_volume 3114.217104
_symmetry_space_group_name_H-M "P N N M"
_symmetry_group_IT_number 58
_symmetry_cell_setting 'orthorhombic'
loop_
_space_group_symop_operation_xyz
x,y,z
-x,-y,z
1/2+x,1/2-y,1/2-z
1/2-x,1/2+y,1/2-z
-x,-y,-z
x,y,-z
1/2-x,1/2+y,1/2+z
1/2+x,1/2-y,1/2+z
loop_
_atom_site_type_symbol
_atom_site_label
_atom_site_fract_x
_atom_site_fract_y
_atom_site_fract_z
Si Si1 0.676641 0.455785 0.822510
Si Si2 0.597472 0.159858 0.830245
Si Si3 0.963223 0.374898 0.329274
Si Si4 0.317087 0.361935 0.326688
Si Si5 0.869914 0.487407 0.176114
Si Si6 0.550645 0.683747 0.673594
Si Si7 0.563205 0.361977 0.179320
Si Si8 0.779023 0.334693 0.819797
O O1 0.700907 0.548095 0.757139
O O2 0.611114 0.434912 0.780092
O O3 0.716692 0.371700 0.779112
O O4 0.678190 0.461661 0.000000
O O5 0.532066 0.122508 0.827734
O O6 0.589548 0.263304 0.779240
O O7 0.635134 0.087766 0.742198
O O8 0.617654 0.163076 0.000000
O O9 0.944862 0.386665 0.500000
O O10 0.930497 0.445589 0.227445
O O11 0.947994 0.276229 0.266866
O O12 0.301921 0.369305 0.500000
O O13 0.386317 0.357719 0.315369
O O14 0.293442 0.266181 0.268039
O O15 0.823951 0.412162 0.227986
O O16 0.866851 0.492786 0.000000
O O17 0.539680 0.703316 0.500000
O O18 0.497755 0.627875 0.741253
O O19 0.555032 0.361013 0.000000
O O20 0.783168 0.331018 0.000000
#
# Coordination Sequence:
#
# PCOD9441811 Si02
#       8
#     8   8   8   8   8   8   8   8
#     4  10  22  41  64  86 112 153 198 237 285 343
#     4   9  19  33  49  76 113 150 187 231 285 341
#     4  10  19  32  51  78 115 153 190 235 283 338
#     4  10  21  40  63  87 117 150 187 236 293 345
#     4  11  20  32  52  79 111 151 195 237 285 339
#     4  10  19  34  59  87 116 153 191 233 291 348
#     4   9  20  38  57  82 118 155 191 238 292 344
#     4   9  20  40  60  81 115 154 191 236 288 345
#
# _framework density 20.550910999999999
#
# number of rings (size 3 to 8) (size 9 to 14) (size 15 to 20)
#    0.000    2.250    1.250    2.250    0.000    7.000 
#    0.000    5.625    0.000    0.000    0.000    0.000 
#    0.000    0.000    0.000    0.000    0.000    0.000 
#
# Total GULP energy -357196.264658 kJ/mol
# GULP energy per Si atom -5581.191635 kJ/mol
# Density = 2.050414 g / cm^3
# Si number density = 20.550911 Si / 1000 Ang^3
#
#
#
# Elastic Constant Matrix: (Units=GPa)
#
#
# Indices 1 2 3 4 5 6 
#
# 1 34.1231 20.1608 13.6410 0.0000 0.0000 0.0000
# 2 20.1608 53.3001 10.1550 0.0000 0.0000 0.0000
# 3 13.6410 10.1550 23.3035 0.0000 0.0000 0.0000
# 4 0.0000 0.0000 0.0000 29.4495 0.0000 0.0000
# 5 0.0000 0.0000 0.0000 0.0000 11.0981 0.0000
# 6 0.0000 0.0000 0.0000 0.0000 0.0000 19.6927
#
#
#
# Elastic Compliance Matrix: (Units=1/GPa)
#
#
# Indices 1 2 3 4 5 6 
#
# 1 0.045448 -0.013220 -0.020843 0.000000 0.000000 0.000000
# 2 -0.013220 0.024306 -0.002853 0.000000 0.000000 0.000000
# 3 -0.020843 -0.002853 0.056356 0.000000 0.000000 0.000000
# 4 0.000000 0.000000 0.000000 0.033956 0.000000 0.000000
# 5 0.000000 0.000000 0.000000 0.000000 0.090105 0.000000
# 6 0.000000 0.000000 0.000000 0.000000 0.000000 0.050780
#
#
# Mechanical properties :
#
#
# Convention : Reuss Voigt Hill
#
# Bulk Modulus (GPa) = 19.12850 22.07113 20.59982
# Shear Modulus (GPa) = 12.74826 16.49938 14.62382
#
# Velocity S-wave (km/s) = 2.49334 2.83654 2.67046
# Velocity P-wave (km/s) = 4.19726 4.63584 4.42199
#
# Compressibility (1/GPa) = 0.05227801
#
# Stress axis : x y z
#
# Youngs Moduli (GPa) = 22.00300 41.14258 17.74428
#
# Poissons Ratio (x) = 0.54389 0.36984
# Poissons Ratio (y) = 0.29087 0.05063
# Poissons Ratio (z) = 0.45861 0.11740
#
# Static dielectric constant tensor:
#      x y z
#    x 1.756880 0.000000 0.000000 
#    y 0.000000 1.743310 0.000000 
#    z 0.000000 0.000000 1.699500 
# 
# From -- ./inp_files/9954.got.cif
#   From: 2010.05.17/outbox.cif.g08.bks.cpg/sg58_5_cif.got.tgz:9954.got - 2010.06.03 14:20:14.
