data_PCOD9441512
_publ_section_title
;
Structure prediction by ZEFSAII (Michael W. Deem and Ramdas Pophale) SiO2 
 PCOD9441512
Probable space group: P N N M
;
_chemical_formula_sum "Si O2"
_cell_formula_units_Z 52
_cell_length_a 20.988980
_cell_length_b 5.549648
_cell_length_c 19.683362
_cell_angle_alpha 90.000000
_cell_angle_beta 90.000000
_cell_angle_gamma 90.000000
_cell_volume 2292.746564
_symmetry_space_group_name_H-M "P N N M"
_symmetry_group_IT_number 58
_symmetry_cell_setting 'orthorhombic'
loop_
_space_group_symop_operation_xyz
x,y,z
-x,-y,z
1/2+x,1/2-y,1/2-z
1/2-x,1/2+y,1/2-z
-x,-y,-z
x,y,-z
1/2-x,1/2+y,1/2+z
1/2+x,1/2-y,1/2+z
loop_
_atom_site_type_symbol
_atom_site_label
_atom_site_fract_x
_atom_site_fract_y
_atom_site_fract_z
Si Si1 0.410866 0.852609 0.853454
Si Si2 0.922662 0.016217 0.147226
Si Si3 0.259616 0.849502 0.170235
Si Si4 0.922555 0.512507 0.922457
Si Si5 0.540037 0.246419 0.000000
Si Si6 0.761176 0.149827 0.332577
Si Si7 0.906758 0.137958 0.699548
O O1 0.335840 0.859315 0.837065
O O2 0.438490 0.618308 0.816411
O O3 0.435952 0.112045 0.827796
O O4 0.419897 0.785908 0.931777
O O5 0.904776 0.237973 0.097741
O O6 0.897606 0.115777 0.219776
O O7 0.903837 0.742558 0.125176
O O8 0.000000 0.000000 0.152311
O O9 0.249467 0.845765 0.251302
O O10 0.234722 0.600314 0.140279
O O11 0.235284 0.099191 0.140178
O O12 0.000000 0.500000 0.920054
O O13 0.903473 0.565880 0.000000
O O14 0.500000 0.500000 0.000000
O O15 0.500000 0.000000 0.000000
O O16 0.837830 0.137564 0.338087
#
# Coordination Sequence:
#
# PCOD9441512 Si02
#       7
#     8   8   8   8   4   8   8
#     4  10  21  36  53  72  98 134 174 223 271 322
#     4  10  19  29  44  69  98 128 166 202 243 297
#     4   8  14  27  47  71  96 119 152 195 254 309
#     4   9  17  30  46  64  88 123 166 203 229 272
#     4  12  26  42  56  74 100 142 202 240 273 330
#     4   8  14  25  45  73 101 120 145 195 251 318
#     4  10  19  32  51  77 107 130 166 218 278 320
#
# _framework density 22.680221
#
# number of rings (size 3 to 8) (size 9 to 14) (size 15 to 20)
#    0.000    2.615    0.000    2.308    0.000    3.692 
#    0.000    0.000    0.000    0.000    4.000    0.000 
#    0.000    0.000    0.000    0.000    0.000    0.000 
#
# Total GULP energy -289691.503366 kJ/mol
# GULP energy per Si atom -5570.990449 kJ/mol
# Density = 2.262860 g / cm^3
# Si number density = 22.680221 Si / 1000 Ang^3
#
#
#
# Elastic Constant Matrix: (Units=GPa)
#
#
# Indices 1 2 3 4 5 6 
#
# 1 34.6303 16.7909 -82.1539 0.0000 0.0000 0.0000
# 2 16.7909 279.9956 35.3874 0.0000 0.0000 0.0000
# 3 -82.1539 35.3874 -124.7913 0.0000 0.0000 0.0000
# 4 0.0000 0.0000 0.0000 31.0531 0.0000 0.0000
# 5 0.0000 0.0000 0.0000 0.0000 -11.2901 0.0000
# 6 0.0000 0.0000 0.0000 0.0000 0.0000 17.8945
#
#
#
# Elastic Compliance Matrix: (Units=1/GPa)
#
#
# Indices 1 2 3 4 5 6 
#
# 1 0.011291 0.000253 -0.007361 0.000000 0.000000 0.000000
# 2 0.000253 0.003454 0.000813 0.000000 0.000000 0.000000
# 3 -0.007361 0.000813 -0.002937 0.000000 0.000000 0.000000
# 4 0.000000 0.000000 0.000000 0.032203 0.000000 0.000000
# 5 0.000000 0.000000 0.000000 0.000000 -0.088573 0.000000
# 6 0.000000 0.000000 0.000000 0.000000 0.000000 0.055883
#
#
# Mechanical properties :
#
#
# Convention : Reuss Voigt Hill
#
# Bulk Modulus (GPa) = -1276.83280 14.43150 -631.20065
# Shear Modulus (GPa) = 211.41690 22.18551 116.80120
#
# Velocity S-wave (km/s) = 9.66534 3.13099 7.18408
# Velocity P-wave (km/s) = 20.96749 4.40995 14.49462
#
# Compressibility (1/GPa) = -0.00078319
#
# Stress axis : x y z
#
# Youngs Moduli (GPa) = 88.56879 289.55341 -340.49922
#
# Poissons Ratio (x) = -0.07333 -2.50647
# Poissons Ratio (y) = -0.02243 0.27669
# Poissons Ratio (z) = 0.65197 -0.23530
#
# Static dielectric constant tensor:
#      x y z
#    x 1.932820 0.000000 0.000000 
#    y 0.000000 1.917350 0.000000 
#    z 0.000000 0.000000 1.832260 
# 
# From -- ./inp_files/27703.got.cif
#   From: 2010.05.17/outbox.cif.g08.bks.cpg/sg58_14_cif.got.tgz:27703.got - 2010.06.03 14:20:14.
