data_PCOD9441688
_publ_section_title
;
Structure prediction by ZEFSAII (Michael W. Deem and Ramdas Pophale) SiO2 
 PCOD9441688
Probable space group: P N N M
;
_chemical_formula_sum "Si O2"
_cell_formula_units_Z 64
_cell_length_a 23.323407
_cell_length_b 17.782676
_cell_length_c 8.703654
_cell_angle_alpha 90.000000
_cell_angle_beta 90.000000
_cell_angle_gamma 90.000000
_cell_volume 3609.863038
_symmetry_space_group_name_H-M "P N N M"
_symmetry_group_IT_number 58
_symmetry_cell_setting 'orthorhombic'
loop_
_space_group_symop_operation_xyz
x,y,z
-x,-y,z
1/2+x,1/2-y,1/2-z
1/2-x,1/2+y,1/2-z
-x,-y,-z
x,y,-z
1/2-x,1/2+y,1/2+z
1/2+x,1/2-y,1/2+z
loop_
_atom_site_type_symbol
_atom_site_label
_atom_site_fract_x
_atom_site_fract_y
_atom_site_fract_z
Si Si1 0.610838 0.790102 0.817416
Si Si2 0.162150 0.563131 0.175804
Si Si3 0.507582 0.259648 0.316065
Si Si4 0.279722 0.916908 0.814043
Si Si5 0.886192 0.679635 0.675296
Si Si6 0.532456 0.573938 0.686524
Si Si7 0.847275 0.132236 0.185679
Si Si8 0.433797 0.986155 0.168705
O O1 0.651156 0.857611 0.758072
O O2 0.545111 0.789647 0.753181
O O3 0.638163 0.712459 0.758232
O O4 0.607580 0.791783 0.000000
O O5 0.201821 0.498906 0.252481
O O6 0.099912 0.524777 0.194970
O O7 0.178497 0.574493 0.000000
O O8 0.502912 0.255113 0.500000
O O9 0.571097 0.234378 0.265367
O O10 0.495251 0.346120 0.267233
O O11 0.324713 0.851198 0.763616
O O12 0.215111 0.897178 0.769256
O O13 0.284063 0.918942 0.000000
O O14 0.878219 0.707270 0.500000
O O15 0.921026 0.601556 0.669398
O O16 0.500000 0.500000 0.744316
O O17 0.529671 0.572396 0.500000
O O18 0.599631 0.578104 0.728053
O O19 0.847852 0.140407 0.000000
O O20 0.500000 0.000000 0.178986
O O21 0.413213 0.015351 0.000000
#
# Coordination Sequence:
#
# PCOD9441688 Si02
#       8
#     8   8   8   8   8   8   8   8
#     4  11  21  34  53  75 102 134 171 215 265 318
#     4  11  21  32  49  73 101 131 170 216 254 298
#     4  10  19  31  50  76 104 133 170 216 262 310
#     4   9  19  36  54  72 102 143 178 209 256 317
#     4   9  17  29  46  69 100 137 169 199 245 303
#     4   8  15  30  53  79 103 127 160 208 263 311
#     4   9  18  35  58  79 101 134 175 215 260 315
#     4   9  17  29  45  66  95 132 168 200 244 300
#
# _framework density 17.729202999999998
#
# number of rings (size 3 to 8) (size 9 to 14) (size 15 to 20)
#    0.000    2.500    0.000    4.875    0.000    3.750 
#    0.000    1.250    0.000   10.875    0.000    0.000 
#    0.000    0.000    0.000    0.000    0.000    0.000 
#
# Total GULP energy -356452.463162 kJ/mol
# GULP energy per Si atom -5569.569737 kJ/mol
# Density = 1.768885 g / cm^3
# Si number density = 17.729203 Si / 1000 Ang^3
#
#
#
# Elastic Constant Matrix: (Units=GPa)
#
#
# Indices 1 2 3 4 5 6 
#
# 1 140.7516 71.1047 32.7551 0.0000 0.0000 0.0000
# 2 71.1047 84.4328 26.4243 0.0000 0.0000 0.0000
# 3 32.7551 26.4243 51.8873 0.0000 0.0000 0.0000
# 4 0.0000 0.0000 0.0000 20.9218 0.0000 0.0000
# 5 0.0000 0.0000 0.0000 0.0000 21.4284 0.0000
# 6 0.0000 0.0000 0.0000 0.0000 0.0000 19.9895
#
#
#
# Elastic Compliance Matrix: (Units=1/GPa)
#
#
# Indices 1 2 3 4 5 6 
#
# 1 0.012764 -0.009788 -0.003073 0.000000 0.000000 0.000000
# 2 -0.009788 0.021594 -0.004819 0.000000 0.000000 0.000000
# 3 -0.003073 -0.004819 0.023667 0.000000 0.000000 0.000000
# 4 0.000000 0.000000 0.000000 0.047797 0.000000 0.000000
# 5 0.000000 0.000000 0.000000 0.000000 0.046667 0.000000
# 6 0.000000 0.000000 0.000000 0.000000 0.000000 0.050026
#
#
# Mechanical properties :
#
#
# Convention : Reuss Voigt Hill
#
# Bulk Modulus (GPa) = 44.11839 59.73777 51.92808
# Shear Modulus (GPa) = 20.37236 22.25376 21.31306
#
# Velocity S-wave (km/s) = 3.39349 3.54673 3.47096
# Velocity P-wave (km/s) = 6.34768 7.10916 6.73918
#
# Compressibility (1/GPa) = 0.02266628
#
# Stress axis : x y z
#
# Youngs Moduli (GPa) = 78.34245 46.30827 42.25369
#
# Poissons Ratio (x) = 0.45325 0.12986
# Poissons Ratio (y) = 0.76679 0.20360
# Poissons Ratio (z) = 0.24078 0.22314
#
# Static dielectric constant tensor:
#      x y z
#    x 1.581020 0.000000 0.000000 
#    y 0.000000 1.666650 0.000000 
#    z 0.000000 0.000000 1.641960 
# 
# From -- ./inp_files/10163.got.cif
#   From: 2010.05.17/outbox.cif.g08.bks.cpg/sg58_6_cif.got.tgz:10163.got - 2010.06.03 14:20:14.
