data_PCOD9441668
_publ_section_title
;
Structure prediction by ZEFSAII (Michael W. Deem and Ramdas Pophale) SiO2 
 PCOD9441668
Probable space group: P N N M
;
_chemical_formula_sum "Si O2"
_cell_formula_units_Z 48
_cell_length_a 9.237335
_cell_length_b 13.635015
_cell_length_c 15.283255
_cell_angle_alpha 90.000000
_cell_angle_beta 90.000000
_cell_angle_gamma 90.000000
_cell_volume 1924.944327
_symmetry_space_group_name_H-M "P N N M"
_symmetry_group_IT_number 58
_symmetry_cell_setting 'orthorhombic'
loop_
_space_group_symop_operation_xyz
x,y,z
-x,-y,z
1/2+x,1/2-y,1/2-z
1/2-x,1/2+y,1/2-z
-x,-y,-z
x,y,-z
1/2-x,1/2+y,1/2+z
1/2+x,1/2-y,1/2+z
loop_
_atom_site_type_symbol
_atom_site_label
_atom_site_fract_x
_atom_site_fract_y
_atom_site_fract_z
Si Si1 0.393179 0.884784 0.177560
Si Si2 0.083379 0.736280 0.904245
Si Si3 0.569372 0.328025 0.260351
Si Si4 0.711665 0.929524 0.102371
Si Si5 0.126693 0.429471 0.875218
Si Si6 0.151077 0.081005 0.594562
O O1 0.384479 0.772729 0.210699
O O2 0.551092 0.894534 0.132345
O O3 0.376308 0.938098 0.270767
O O4 0.291832 0.951802 0.115816
O O5 0.070923 0.803355 0.818771
O O6 0.929732 0.677529 0.900684
O O7 0.210144 0.655374 0.896464
O O8 0.098033 0.782622 0.000000
O O9 0.680071 0.376684 0.329728
O O10 0.554673 0.399485 0.178450
O O11 0.738323 0.907161 0.000000
O O12 0.276346 0.474116 0.905633
O O13 0.000000 0.500000 0.908676
O O14 0.084455 0.101868 0.500000
#
# Coordination Sequence:
#
# PCOD9441668 Si02
#       6
#     8   8   8   8   8   8
#     4  10  19  34  57  83 116 149 186 232 290 344
#     4   9  18  30  48  75 104 135 172 219 271 327
#     4  11  20  32  54  83 115 148 186 236 285 345
#     4  11  21  37  59  88 119 152 191 242 294 346
#     4   9  13  27  49  72 100 129 166 209 267 320
#     4  10  19  31  49  74 106 138 176 223 273 326
#
# _framework density 24.935787999999999
#
# number of rings (size 3 to 8) (size 9 to 14) (size 15 to 20)
#    0.000    2.000    3.333    4.000    0.000    3.333 
#    0.000    0.000    0.000    4.000    0.000    8.167 
#    0.000    0.000    0.000    0.000    0.000    0.000 
#
# Total GULP energy -267851.869646 kJ/mol
# GULP energy per Si atom -5580.247284 kJ/mol
# Density = 2.487903 g / cm^3
# Si number density = 24.935788 Si / 1000 Ang^3
#
#
#
# Elastic Constant Matrix: (Units=GPa)
#
#
# Indices 1 2 3 4 5 6 
#
# 1 72.7939 50.6028 50.9892 0.0000 0.0000 0.0000
# 2 50.6028 93.8197 53.3531 0.0000 0.0000 0.0000
# 3 50.9892 53.3531 206.8194 0.0000 0.0000 0.0000
# 4 0.0000 0.0000 0.0000 6.4386 0.0000 0.0000
# 5 0.0000 0.0000 0.0000 0.0000 4.9982 0.0000
# 6 0.0000 0.0000 0.0000 0.0000 0.0000 48.5582
#
#
#
# Elastic Compliance Matrix: (Units=1/GPa)
#
#
# Indices 1 2 3 4 5 6 
#
# 1 0.023417 -0.010954 -0.002947 0.000000 0.000000 0.000000
# 2 -0.010954 0.017615 -0.001844 0.000000 0.000000 0.000000
# 3 -0.002947 -0.001844 0.006037 0.000000 0.000000 0.000000
# 4 0.000000 0.000000 0.000000 0.155314 0.000000 0.000000
# 5 0.000000 0.000000 0.000000 0.000000 0.200073 0.000000
# 6 0.000000 0.000000 0.000000 0.000000 0.000000 0.020594
#
#
# Mechanical properties :
#
#
# Convention : Reuss Voigt Hill
#
# Bulk Modulus (GPa) = 64.18715 75.92482 70.05598
# Shear Modulus (GPa) = 10.87589 26.56486 18.72037
#
# Velocity S-wave (km/s) = 2.09070 3.26748 2.74294
# Velocity P-wave (km/s) = 5.62360 6.68951 6.17958
#
# Compressibility (1/GPa) = 0.01557944
#
# Stress axis : x y z
#
# Youngs Moduli (GPa) = 42.70491 56.76885 165.63498
#
# Poissons Ratio (x) = 0.62184 0.48818
# Poissons Ratio (y) = 0.46779 0.30537
# Poissons Ratio (z) = 0.12587 0.10466
#
# Static dielectric constant tensor:
#      x y z
#    x 2.017370 0.000000 0.000000 
#    y 0.000000 2.051440 0.000000 
#    z 0.000000 0.000000 1.957260 
# 
# From -- ./inp_files/21139.got.cif
#   From: 2010.05.17/outbox.cif.g08.bks.cpg/sg58_11_cif.got.tgz:21139.got - 2010.06.03 14:20:14.
