data_PCOD9441818
_publ_section_title
;
Structure prediction by ZEFSAII (Michael W. Deem and Ramdas Pophale) SiO2 
 PCOD9441818
Probable space group: P N N M
;
_chemical_formula_sum "Si O2"
_cell_formula_units_Z 56
_cell_length_a 14.102712
_cell_length_b 20.052535
_cell_length_c 7.437027
_cell_angle_alpha 90.000000
_cell_angle_beta 90.000000
_cell_angle_gamma 90.000000
_cell_volume 2103.154987
_symmetry_space_group_name_H-M "P N N M"
_symmetry_group_IT_number 58
_symmetry_cell_setting 'orthorhombic'
loop_
_space_group_symop_operation_xyz
x,y,z
-x,-y,z
1/2+x,1/2-y,1/2-z
1/2-x,1/2+y,1/2-z
-x,-y,-z
x,y,-z
1/2-x,1/2+y,1/2+z
1/2+x,1/2-y,1/2+z
loop_
_atom_site_type_symbol
_atom_site_label
_atom_site_fract_x
_atom_site_fract_y
_atom_site_fract_z
Si Si1 0.715300 0.148186 0.711722
Si Si2 0.063234 0.713044 0.717591
Si Si3 0.781207 0.505239 0.712627
Si Si4 0.430470 0.358647 0.215423
Si Si5 0.211124 0.208930 0.217737
Si Si6 0.961746 0.429584 0.716788
Si Si7 0.886627 0.925741 0.785625
O O1 0.723574 0.159635 0.500000
O O2 0.675783 0.218093 0.784107
O O3 0.822806 0.136758 0.783139
O O4 0.672088 0.075041 0.730606
O O5 0.055153 0.711888 0.500000
O O6 0.176216 0.709310 0.756962
O O7 0.016484 0.644542 0.786045
O O8 0.031228 0.786159 0.781084
O O9 0.775990 0.513018 0.500000
O O10 0.849321 0.442478 0.744617
O O11 0.678105 0.485800 0.787777
O O12 0.501660 0.417942 0.259791
O O13 0.426046 0.355426 0.000000
O O14 0.157694 0.143778 0.286570
O O15 0.202649 0.205455 0.000000
O O16 0.980098 0.429132 0.500000
O O17 0.000000 0.500000 0.787624
O O18 0.872759 0.927708 0.000000
#
# Coordination Sequence:
#
# PCOD9441818 Si02
#       7
#     8   8   8   8   8   8   8
#     4   9  19  35  53  72 100 139 175 208 251 304
#     4   8  13  27  48  67  91 123 162 202 240 291
#     4  10  20  33  51  77 105 134 168 210 259 306
#     4   9  19  33  51  75  99 131 174 215 251 291
#     4   8  14  29  51  68  88 129 174 202 237 300
#     4   9  16  27  47  75 103 129 159 202 257 306
#     4  10  19  32  52  75 101 134 171 208 253 308
#
# _framework density 26.626660999999999
#
# number of rings (size 3 to 8) (size 9 to 14) (size 15 to 20)
#    0.000    3.000    1.429    1.714    0.000    2.857 
#    0.000    5.000    0.000    2.143    0.000    0.000 
#    0.000    0.000    0.000    0.000    0.000    0.000 
#
# Total GULP energy -312736.443479 kJ/mol
# GULP energy per Si atom -5584.579348 kJ/mol
# Density = 2.656606 g / cm^3
# Si number density = 26.626661 Si / 1000 Ang^3
#
#
#
# Elastic Constant Matrix: (Units=GPa)
#
#
# Indices 1 2 3 4 5 6 
#
# 1 41.7466 10.4435 1.1287 0.0000 0.0000 0.0000
# 2 10.4435 141.9370 -4.6319 0.0000 0.0000 0.0000
# 3 1.1287 -4.6319 77.6686 0.0000 0.0000 0.0000
# 4 0.0000 0.0000 0.0000 10.8756 0.0000 0.0000
# 5 0.0000 0.0000 0.0000 0.0000 37.8883 0.0000
# 6 0.0000 0.0000 0.0000 0.0000 0.0000 49.1315
#
#
#
# Elastic Compliance Matrix: (Units=1/GPa)
#
#
# Indices 1 2 3 4 5 6 
#
# 1 0.024420 -0.001812 -0.000463 0.000000 0.000000 0.000000
# 2 -0.001812 0.007194 0.000455 0.000000 0.000000 0.000000
# 3 -0.000463 0.000455 0.012909 0.000000 0.000000 0.000000
# 4 0.000000 0.000000 0.000000 0.091949 0.000000 0.000000
# 5 0.000000 0.000000 0.000000 0.000000 0.026393 0.000000
# 6 0.000000 0.000000 0.000000 0.000000 0.000000 0.020354
#
#
# Mechanical properties :
#
#
# Convention : Reuss Voigt Hill
#
# Bulk Modulus (GPa) = 24.45974 30.58144 27.52059
# Shear Modulus (GPa) = 24.93947 36.53987 30.73967
#
# Velocity S-wave (km/s) = 3.06377 3.70848 3.40143
# Velocity P-wave (km/s) = 4.66066 5.46327 5.07785
#
# Compressibility (1/GPa) = 0.04088351
#
# Stress axis : x y z
#
# Youngs Moduli (GPa) = 40.95029 139.01334 77.46478
#
# Poissons Ratio (x) = 0.25188 0.03586
# Poissons Ratio (y) = 0.07420 -0.03527
# Poissons Ratio (z) = 0.01896 -0.06330
#
# Static dielectric constant tensor:
#      x y z
#    x 2.176910 0.000000 0.000000 
#    y 0.000000 2.125830 0.000000 
#    z 0.000000 0.000000 1.996650 
# 
# From -- ./inp_files/8122.got.cif
#   From: 2010.05.17/outbox.cif.g08.bks.cpg/sg58_5_cif.got.tgz:8122.got - 2010.06.03 14:20:14.
