data_PCOD9441452
_publ_section_title
;
Structure prediction by ZEFSAII (Michael W. Deem and Ramdas Pophale) SiO2 
 PCOD9441452
Probable space group: P N N M
;
_chemical_formula_sum "Si O2"
_cell_formula_units_Z 48
_cell_length_a 8.907699
_cell_length_b 8.175268
_cell_length_c 33.982143
_cell_angle_alpha 90.000000
_cell_angle_beta 90.000000
_cell_angle_gamma 90.000000
_cell_volume 2474.675707
_symmetry_space_group_name_H-M "P N N M"
_symmetry_group_IT_number 58
_symmetry_cell_setting 'orthorhombic'
loop_
_space_group_symop_operation_xyz
x,y,z
-x,-y,z
1/2+x,1/2-y,1/2-z
1/2-x,1/2+y,1/2-z
-x,-y,-z
x,y,-z
1/2-x,1/2+y,1/2+z
1/2+x,1/2-y,1/2+z
loop_
_atom_site_type_symbol
_atom_site_label
_atom_site_fract_x
_atom_site_fract_y
_atom_site_fract_z
Si Si1 0.357250 0.705188 0.453677
Si Si2 0.184478 0.865573 0.921726
Si Si3 0.414889 0.642180 0.792872
Si Si4 0.862024 0.377938 0.735819
Si Si5 0.675086 0.466218 0.952948
Si Si6 0.662833 0.046758 0.155686
O O1 0.391614 0.721203 0.500000
O O2 0.277673 0.528915 0.447110
O O3 0.513170 0.685118 0.430506
O O4 0.267451 0.868891 0.441627
O O5 0.276820 0.701846 0.931913
O O6 0.215450 0.925765 0.877490
O O7 0.500000 0.500000 0.815887
O O8 0.270917 0.606179 0.766340
O O9 0.551198 0.706372 0.765114
O O10 0.365173 0.784213 0.821773
O O11 0.000000 0.500000 0.744447
O O12 0.806946 0.419737 0.691374
O O13 0.500000 0.500000 0.946360
O O14 0.699370 0.443094 0.000000
O O15 0.500000 0.000000 0.137710
#
# Coordination Sequence:
#
# PCOD9441452 Si02
#       6
#     8   8   8   8   8   8
#     4  10  22  41  65  91 123 168 211 254 315 378
#     4  11  21  39  62  87 126 166 200 253 321 364
#     4  10  18  36  61  83 110 156 195 244 302 362
#     4   9  19  37  57  86 116 149 199 247 299 366
#     4  10  22  38  62  94 122 157 210 257 301 373
#     4   9  22  38  55  84 122 153 196 250 309 367
#
# _framework density 19.396481000000001
#
# number of rings (size 3 to 8) (size 9 to 14) (size 15 to 20)
#    0.000    2.500    0.000    4.500    2.333    2.000 
#   12.000    4.167    0.000    0.000    0.000    0.000 
#    0.000    0.000    0.000    0.000    0.000    0.000 
#
# Total GULP energy -267365.460365 kJ/mol
# GULP energy per Si atom -5570.113758 kJ/mol
# Density = 1.935233 g / cm^3
# Si number density = 19.396481 Si / 1000 Ang^3
#
#
#
# Elastic Constant Matrix: (Units=GPa)
#
#
# Indices 1 2 3 4 5 6 
#
# 1 81.9986 43.4301 58.9987 0.0000 0.0000 0.0000
# 2 43.4301 80.2037 19.2103 0.0000 0.0000 0.0000
# 3 58.9987 19.2103 67.9771 0.0000 0.0000 0.0000
# 4 0.0000 0.0000 0.0000 14.7135 0.0000 0.0000
# 5 0.0000 0.0000 0.0000 0.0000 10.3881 0.0000
# 6 0.0000 0.0000 0.0000 0.0000 0.0000 24.2562
#
#
#
# Elastic Compliance Matrix: (Units=1/GPa)
#
#
# Indices 1 2 3 4 5 6 
#
# 1 0.047130 -0.016865 -0.036139 0.000000 0.000000 0.000000
# 2 -0.016865 0.019408 0.009153 0.000000 0.000000 0.000000
# 3 -0.036139 0.009153 0.043491 0.000000 0.000000 0.000000
# 4 0.000000 0.000000 0.000000 0.067965 0.000000 0.000000
# 5 0.000000 0.000000 0.000000 0.000000 0.096264 0.000000
# 6 0.000000 0.000000 0.000000 0.000000 0.000000 0.041227
#
#
# Mechanical properties :
#
#
# Convention : Reuss Voigt Hill
#
# Bulk Modulus (GPa) = 44.79132 52.60642 48.69887
# Shear Modulus (GPa) = 12.17641 17.10758 14.64200
#
# Velocity S-wave (km/s) = 2.50824 2.97306 2.75049
# Velocity P-wave (km/s) = 5.61525 6.24227 5.93704
#
# Compressibility (1/GPa) = 0.02232576
#
# Stress axis : x y z
#
# Youngs Moduli (GPa) = 21.21770 51.52424 22.99351
#
# Poissons Ratio (x) = 0.86895 0.83097
# Poissons Ratio (y) = 0.35784 -0.21045
# Poissons Ratio (z) = 0.76680 -0.47158
#
# Static dielectric constant tensor:
#      x y z
#    x 1.675220 0.000000 0.000000 
#    y 0.000000 1.824520 0.000000 
#    z 0.000000 0.000000 1.668190 
# 
# From -- ./inp_files/34544.got.cif
#   From: 2010.05.17/outbox.cif.g08.bks.cpg/sg58_18_cif.got.tgz:34544.got - 2010.06.03 14:20:14.
