data_PCOD9441185
_publ_section_title
;
Structure prediction by ZEFSAII (Michael W. Deem and Ramdas Pophale) SiO2 
 PCOD9441185
Probable space group: P N N M
;
_chemical_formula_sum "Si O2"
_cell_formula_units_Z 56
_cell_length_a 20.510871
_cell_length_b 15.920176
_cell_length_c 7.602272
_cell_angle_alpha 90.000000
_cell_angle_beta 90.000000
_cell_angle_gamma 90.000000
_cell_volume 2482.420631
_symmetry_space_group_name_H-M "P N N M"
_symmetry_group_IT_number 58
_symmetry_cell_setting 'orthorhombic'
loop_
_space_group_symop_operation_xyz
x,y,z
-x,-y,z
1/2+x,1/2-y,1/2-z
1/2-x,1/2+y,1/2-z
-x,-y,-z
x,y,-z
1/2-x,1/2+y,1/2+z
1/2+x,1/2-y,1/2+z
loop_
_atom_site_type_symbol
_atom_site_label
_atom_site_fract_x
_atom_site_fract_y
_atom_site_fract_z
Si Si1 0.638478 0.156097 0.288120
Si Si2 0.268856 1.000000 0.794193
Si Si3 0.925989 0.180855 0.785888
Si Si4 0.574011 0.319145 0.714112
Si Si5 0.000000 0.400937 0.201053
Si Si6 0.121818 1.000000 0.216364
Si Si7 0.361522 0.156097 0.711880
O O1 0.638485 0.155892 0.500000
O O2 0.692059 0.086281 0.243688
O O3 0.631621 0.253944 0.232885
O O4 0.568802 0.123001 0.219349
O O5 0.196308 0.000000 0.718109
O O6 0.307941 0.086281 0.756312
O O7 0.259194 1.000000 0.000000
O O8 0.912014 0.086319 0.727415
O O9 0.868379 0.246056 0.732885
O O10 1.000000 0.206458 0.733007
O O11 0.925866 0.180343 0.000000
O O12 0.574134 0.319657 0.500000
O O13 0.587986 0.413681 0.772585
O O14 0.931198 0.376999 0.280651
O O15 0.000000 0.500000 0.187414
O O16 1.000000 0.365931 0.000000
O O17 0.120030 1.000000 0.000000
O O18 0.361515 0.155892 0.500000
#
# Coordination Sequence:
#
# PCOD9441185 Si02
#       7
#     8   8   8   8   8   8   8
#     4  10  18  31  54  80 101 127 171 219 256 297
#     4  11  23  35  46  70 113 152 169 192 248 315
#     4   9  16  29  54  81 100 125 168 221 267 299
#     4   9  16  29  54  81 100 125 168 221 267 299
#     4   9  14  24  46  73  99 121 152 213 265 282
#     4   9  19  33  47  72 110 140 165 206 258 308
#     4  10  18  31  54  80 101 127 171 219 256 297
#
# _framework density 22.558626
#
# number of rings (size 3 to 8) (size 9 to 14) (size 15 to 20)
#    0.000    2.429    2.857    0.857    0.000    2.857 
#    0.000    1.429    0.000    1.714    0.000    0.000 
#    0.000    6.857    0.000    0.000    0.000    0.000 
#
# Total GULP energy -311961.146415 kJ/mol
# GULP energy per Si atom -5570.734757 kJ/mol
# Density = 2.250728 g / cm^3
# Si number density = 22.558626 Si / 1000 Ang^3
#
#
#
# Elastic Constant Matrix: (Units=GPa)
#
#
# Indices 1 2 3 4 5 6 
#
# 1 78.2568 37.7591 -2.0017 0.0000 0.0000 0.0000
# 2 37.7591 166.9526 4.5759 0.0000 0.0000 0.0000
# 3 -2.0017 4.5759 45.3122 0.0000 0.0000 0.0000
# 4 0.0000 0.0000 0.0000 -2.6848 0.0000 0.0000
# 5 0.0000 0.0000 0.0000 0.0000 4.6069 0.0000
# 6 0.0000 0.0000 0.0000 0.0000 0.0000 59.9419
#
#
#
# Elastic Compliance Matrix: (Units=1/GPa)
#
#
# Indices 1 2 3 4 5 6 
#
# 1 0.014386 -0.003280 0.000967 0.000000 0.000000 0.000000
# 2 -0.003280 0.006754 -0.000827 0.000000 0.000000 0.000000
# 3 0.000967 -0.000827 0.022195 0.000000 0.000000 0.000000
# 4 0.000000 0.000000 0.000000 -0.372465 0.000000 0.000000
# 5 0.000000 0.000000 0.000000 0.000000 0.217067 0.000000
# 6 0.000000 0.000000 0.000000 0.000000 0.000000 0.016683
#
#
# Mechanical properties :
#
#
# Convention : Reuss Voigt Hill
#
# Bulk Modulus (GPa) = 26.98712 41.24314 34.11513
# Shear Modulus (GPa) = -65.14858 29.05201 -18.04828
#
# Velocity S-wave (km/s) = -5.37981 3.59255 -2.83160
# Velocity P-wave (km/s) = 5.15759 5.96078 2.11307
#
# Compressibility (1/GPa) = 0.03705471
#
# Stress axis : x y z
#
# Youngs Moduli (GPa) = 69.51289 148.05523 45.05454
#
# Poissons Ratio (x) = 0.48563 -0.04356
# Poissons Ratio (y) = 0.22801 0.03726
# Poissons Ratio (z) = -0.06720 0.12244
#
# Static dielectric constant tensor:
#      x y z
#    x 1.840990 0.000000 0.000000 
#    y 0.000000 1.880290 0.000000 
#    z 0.000000 0.000000 1.874330 
# 
# From -- ./inp_files/9009.got.cif
#   From: 2010.05.17/outbox.cif.g08.bks.cpg/sg58_5_cif.got.tgz:9009.got - 2010.06.03 14:20:14.
