data_PCOD9441829
_publ_section_title
;
Structure prediction by ZEFSAII (Michael W. Deem and Ramdas Pophale) SiO2 
 PCOD9441829
Probable space group: P N N M
;
_chemical_formula_sum "Si O2"
_cell_formula_units_Z 48
_cell_length_a 10.422959
_cell_length_b 29.832124
_cell_length_c 9.241760
_cell_angle_alpha 90.000000
_cell_angle_beta 90.000000
_cell_angle_gamma 90.000000
_cell_volume 2873.623662
_symmetry_space_group_name_H-M "P N N M"
_symmetry_group_IT_number 58
_symmetry_cell_setting 'orthorhombic'
loop_
_space_group_symop_operation_xyz
x,y,z
-x,-y,z
1/2+x,1/2-y,1/2-z
1/2-x,1/2+y,1/2-z
-x,-y,-z
x,y,-z
1/2-x,1/2+y,1/2+z
1/2+x,1/2-y,1/2+z
loop_
_atom_site_type_symbol
_atom_site_label
_atom_site_fract_x
_atom_site_fract_y
_atom_site_fract_z
Si Si1 0.222384 0.612674 0.826815
Si Si2 0.783078 0.283661 0.825743
Si Si3 0.122658 0.969762 0.173681
Si Si4 0.372539 0.026853 0.173888
Si Si5 0.484152 0.281516 0.825767
Si Si6 0.477490 0.385199 0.826898
O O1 0.191503 0.664139 0.788532
O O2 0.140567 0.575102 0.747392
O O3 0.372936 0.605619 0.790609
O O4 0.209715 0.608304 0.000000
O O5 0.634106 0.273607 0.786493
O O6 0.885103 0.251606 0.750095
O O7 0.792231 0.279673 0.000000
O O8 0.108516 0.921619 0.247400
O O9 0.249921 0.996722 0.214908
O O10 0.121593 0.964380 0.000000
O O11 0.000000 0.000000 0.214582
O O12 0.500000 0.000000 0.214264
O O13 0.370931 0.032473 0.000000
O O14 0.452661 0.333347 0.788800
O O15 0.475433 0.277337 0.000000
O O16 0.464202 0.389511 0.000000
#
# Coordination Sequence:
#
# PCOD9441829 Si02
#       6
#     8   8   8   8   8   8
#     4   9  18  34  55  76 101 134 172 210 251 303
#     4   9  19  36  56  79 106 136 173 217 261 309
#     4  10  19  32  52  77 101 129 170 211 245 296
#     4  10  21  36  51  72 105 138 168 207 255 304
#     4   9  19  36  55  78 107 137 173 215 260 312
#     4   9  18  33  54  78 102 131 169 213 256 299
#
# _framework density 16.70365
#
# number of rings (size 3 to 8) (size 9 to 14) (size 15 to 20)
#    0.000    2.667    1.667    2.000    0.000    3.333 
#    3.000    3.333    0.000    0.000    0.000    0.000 
#    0.000    0.000    0.000    0.000    0.000    0.000 
#
# Total GULP energy -267623.630929 kJ/mol
# GULP energy per Si atom -5575.492311 kJ/mol
# Density = 1.666563 g / cm^3
# Si number density = 16.703650 Si / 1000 Ang^3
#
#
#
# Elastic Constant Matrix: (Units=GPa)
#
#
# Indices 1 2 3 4 5 6 
#
# 1 117.1314 91.0934 38.2761 0.0000 0.0000 0.0000
# 2 91.0934 146.7210 48.9298 0.0000 0.0000 0.0000
# 3 38.2761 48.9298 18.9893 0.0000 0.0000 0.0000
# 4 0.0000 0.0000 0.0000 38.7418 0.0000 0.0000
# 5 0.0000 0.0000 0.0000 0.0000 23.8842 0.0000
# 6 0.0000 0.0000 0.0000 0.0000 0.0000 33.8903
#
#
#
# Elastic Compliance Matrix: (Units=1/GPa)
#
#
# Indices 1 2 3 4 5 6 
#
# 1 0.026859 0.009801 -0.079393 0.000000 0.000000 0.000000
# 2 0.009801 0.052018 -0.153790 0.000000 0.000000 0.000000
# 3 -0.079393 -0.153790 0.608964 0.000000 0.000000 0.000000
# 4 0.000000 0.000000 0.000000 0.025812 0.000000 0.000000
# 5 0.000000 0.000000 0.000000 0.000000 0.041869 0.000000
# 6 0.000000 0.000000 0.000000 0.000000 0.000000 0.029507
#
#
# Mechanical properties :
#
#
# Convention : Reuss Voigt Hill
#
# Bulk Modulus (GPa) = 4.14808 71.04891 37.59850
# Shear Modulus (GPa) = 3.81053 26.27276 15.04164
#
# Velocity S-wave (km/s) = 1.51202 3.97025 3.00409
# Velocity P-wave (km/s) = 2.35308 7.97775 5.88139
#
# Compressibility (1/GPa) = 0.24107541
#
# Stress axis : x y z
#
# Youngs Moduli (GPa) = 37.23107 19.22409 1.64213
#
# Poissons Ratio (x) = -0.18841 0.13037
# Poissons Ratio (y) = -0.36490 0.25254
# Poissons Ratio (z) = 2.95590 2.95648
#
# Static dielectric constant tensor:
#      x y z
#    x 1.551890 0.000000 0.000000 
#    y 0.000000 1.547610 0.000000 
#    z 0.000000 0.000000 1.552720 
# 
# From -- ./inp_files/2889.got.cif
#   From: 2010.05.17/outbox.cif.g08.bks.cpg/sg58_2_cif.got.tgz:2889.got - 2010.06.03 14:20:14.
