data_PCOD9441037
_publ_section_title
;
Structure prediction by ZEFSAII (Michael W. Deem and Ramdas Pophale) SiO2 
 PCOD9441037
Probable space group: P N N M
;
_chemical_formula_sum "Si O2"
_cell_formula_units_Z 64
_cell_length_a 23.378009
_cell_length_b 14.558642
_cell_length_c 9.338214
_cell_angle_alpha 90.000000
_cell_angle_beta 90.000000
_cell_angle_gamma 90.000000
_cell_volume 3178.280406
_symmetry_space_group_name_H-M "P N N M"
_symmetry_group_IT_number 58
_symmetry_cell_setting 'orthorhombic'
loop_
_space_group_symop_operation_xyz
x,y,z
-x,-y,z
1/2+x,1/2-y,1/2-z
1/2-x,1/2+y,1/2-z
-x,-y,-z
x,y,-z
1/2-x,1/2+y,1/2+z
1/2+x,1/2-y,1/2+z
loop_
_atom_site_type_symbol
_atom_site_label
_atom_site_fract_x
_atom_site_fract_y
_atom_site_fract_z
Si Si1 0.673204 0.456551 0.831451
Si Si2 0.590608 0.155579 0.828659
Si Si3 0.961776 0.357783 0.335854
Si Si4 0.314615 0.367555 0.331935
Si Si5 0.851234 0.481400 0.333485
Si Si6 0.552314 0.673173 0.667609
Si Si7 0.560112 0.362624 0.173227
Si Si8 0.775864 0.332199 0.169501
O O1 0.702404 0.540635 0.749942
O O2 0.608643 0.434893 0.784068
O O3 0.710650 0.364534 0.814029
O O4 0.671985 0.478194 0.000000
O O5 0.526942 0.114796 0.804802
O O6 0.583842 0.261275 0.782323
O O7 0.638683 0.084755 0.774557
O O8 0.599887 0.158520 0.000000
O O9 0.962166 0.320410 0.500000
O O10 0.914348 0.435615 0.332221
O O11 0.946197 0.276891 0.227680
O O12 0.300806 0.375877 0.500000
O O13 0.383339 0.362322 0.314904
O O14 0.288852 0.270880 0.278770
O O15 0.832285 0.485343 0.500000
O O16 0.812752 0.410243 0.247148
O O17 0.538019 0.671284 0.500000
O O18 0.501712 0.624656 0.756112
O O19 0.555075 0.363423 0.000000
O O20 0.789942 0.333246 0.000000
#
# Coordination Sequence:
#
# PCOD9441037 Si02
#       8
#     8   8   8   8   8   8   8   8
#     4  10  23  41  62  84 109 146 193 235 279 330
#     4   8  15  28  49  78 111 144 182 226 274 324
#     4   9  16  28  48  77 113 150 188 230 272 322
#     4  10  22  40  62  85 114 148 183 226 284 342
#     4  10  18  29  52  83 110 146 193 235 272 322
#     4  10  19  33  56  85 114 150 187 226 284 346
#     4   9  19  37  57  81 113 150 189 237 284 331
#     4  10  22  41  59  81 115 151 185 232 286 340
#
# _framework density 20.136675
#
# number of rings (size 3 to 8) (size 9 to 14) (size 15 to 20)
#    0.000    2.500    1.250    1.500    0.000    5.500 
#    0.000    7.500    0.000    3.750    0.000    0.000 
#    0.000    0.000    0.000    0.000    0.000    0.000 
#
# Total GULP energy -356884.064482 kJ/mol
# GULP energy per Si atom -5576.313508 kJ/mol
# Density = 2.009084 g / cm^3
# Si number density = 20.136675 Si / 1000 Ang^3
#
#
#
# Elastic Constant Matrix: (Units=GPa)
#
#
# Indices 1 2 3 4 5 6 
#
# 1 26.5305 22.1465 23.2463 0.0000 0.0000 0.0000
# 2 22.1465 73.1904 29.4856 0.0000 0.0000 0.0000
# 3 23.2463 29.4856 29.0483 0.0000 0.0000 0.0000
# 4 0.0000 0.0000 0.0000 23.5077 0.0000 0.0000
# 5 0.0000 0.0000 0.0000 0.0000 -37.8856 0.0000
# 6 0.0000 0.0000 0.0000 0.0000 0.0000 27.9409
#
#
#
# Elastic Compliance Matrix: (Units=1/GPa)
#
#
# Indices 1 2 3 4 5 6 
#
# 1 0.126923 0.004253 -0.105890 0.000000 0.000000 0.000000
# 2 0.004253 0.023258 -0.027012 0.000000 0.000000 0.000000
# 3 -0.105890 -0.027012 0.146584 0.000000 0.000000 0.000000
# 4 0.000000 0.000000 0.000000 0.042539 0.000000 0.000000
# 5 0.000000 0.000000 0.000000 0.000000 -0.026395 0.000000
# 6 0.000000 0.000000 0.000000 0.000000 0.000000 0.035790
#
#
# Mechanical properties :
#
#
# Convention : Reuss Voigt Hill
#
# Bulk Modulus (GPa) = 25.33656 30.94734 28.14195
# Shear Modulus (GPa) = 8.07557 6.30531 7.19044
#
# Velocity S-wave (km/s) = 2.00477 1.77146 1.89171
# Velocity P-wave (km/s) = 4.23891 4.42562 4.33327
#
# Compressibility (1/GPa) = 0.03946865
#
# Stress axis : x y z
#
# Youngs Moduli (GPa) = 7.87878 42.99587 6.82204
#
# Poissons Ratio (x) = -0.18288 0.72238
# Poissons Ratio (y) = -0.03351 0.18428
# Poissons Ratio (z) = 0.83428 1.16141
#
# Static dielectric constant tensor:
#      x y z
#    x 1.740770 0.000000 0.000000 
#    y 0.000000 1.733050 0.000000 
#    z 0.000000 0.000000 1.676790 
# 
# From -- ./inp_files/9953.got.cif
#   From: 2010.05.17/outbox.cif.g08.bks.cpg/sg58_5_cif.got.tgz:9953.got - 2010.06.03 14:20:14.
