data_PCOD9441229
_publ_section_title
;
Structure prediction by ZEFSAII (Michael W. Deem and Ramdas Pophale) SiO2 
 PCOD9441229
Probable space group: P N N M
;
_chemical_formula_sum "Si O2"
_cell_formula_units_Z 64
_cell_length_a 21.272593
_cell_length_b 19.974066
_cell_length_c 7.553351
_cell_angle_alpha 90.000000
_cell_angle_beta 90.000000
_cell_angle_gamma 90.000000
_cell_volume 3209.420174
_symmetry_space_group_name_H-M "P N N M"
_symmetry_group_IT_number 58
_symmetry_cell_setting 'orthorhombic'
loop_
_space_group_symop_operation_xyz
x,y,z
-x,-y,z
1/2+x,1/2-y,1/2-z
1/2-x,1/2+y,1/2-z
-x,-y,-z
x,y,-z
1/2-x,1/2+y,1/2+z
1/2+x,1/2-y,1/2+z
loop_
_atom_site_type_symbol
_atom_site_label
_atom_site_fract_x
_atom_site_fract_y
_atom_site_fract_z
Si Si1 0.186856 0.037603 0.717171
Si Si2 0.434834 0.031325 0.713254
Si Si3 0.122793 0.671026 0.710590
Si Si4 0.604912 0.680557 0.204588
Si Si5 0.809949 0.542539 0.787418
Si Si6 0.252118 0.321980 0.710371
Si Si7 0.765920 0.824895 0.704997
Si Si8 0.061732 0.959802 0.282940
O O1 0.187567 0.038130 0.500000
O O2 0.194328 0.113915 0.780088
O O3 0.248765 0.997737 0.776383
O O4 0.123924 0.000117 0.771912
O O5 0.435349 0.026014 0.500000
O O6 0.423135 0.109243 0.755209
O O7 0.500000 0.000000 0.779000
O O8 0.374341 0.989800 0.779567
O O9 0.131898 0.677541 0.500000
O O10 0.101019 0.744055 0.779984
O O11 0.191930 0.655771 0.787804
O O12 0.679205 0.661988 0.210870
O O13 0.567766 0.617055 0.280099
O O14 0.585366 0.686202 0.000000
O O15 0.797233 0.619640 0.743760
O O16 0.810785 0.536604 0.000000
O O17 0.262421 0.315778 0.500000
O O18 0.230755 0.249636 0.781883
O O19 0.784675 0.818987 0.500000
O O20 0.061995 0.957808 0.500000
O O21 0.000000 0.000000 0.228090
#
# Coordination Sequence:
#
# PCOD9441229 Si02
#       8
#     8   8   8   8   8   8   8   8
#     4   9  15  27  49  71  92 123 161 201 240 279
#     4  10  21  37  55  73  95 131 176 213 249 306
#     4  10  19  30  49  76 104 130 159 205 258 302
#     4   9  17  31  49  73 102 132 167 201 245 300
#     4  10  18  32  53  72  95 127 163 207 251 295
#     4  10  19  29  47  76 104 129 162 208 252 294
#     4   9  17  31  49  72 101 132 169 205 243 293
#     4   9  16  27  47  74  98 123 162 203 233 277
#
# _framework density 19.941296000000001
#
# number of rings (size 3 to 8) (size 9 to 14) (size 15 to 20)
#    0.000    2.500    2.500    0.750    0.000    1.750 
#    0.000    1.250    0.000    3.375    0.000    0.000 
#    0.000    0.000    0.000    0.000    0.000    0.000 
#
# Total GULP energy -357014.288355 kJ/mol
# GULP energy per Si atom -5578.348256 kJ/mol
# Density = 1.989591 g / cm^3
# Si number density = 19.941296 Si / 1000 Ang^3
#
#
#
# Elastic Constant Matrix: (Units=GPa)
#
#
# Indices 1 2 3 4 5 6 
#
# 1 111.0114 83.0561 -0.1698 0.0000 0.0000 0.0000
# 2 83.0561 174.1712 -4.8388 0.0000 0.0000 0.0000
# 3 -0.1698 -4.8388 49.6083 0.0000 0.0000 0.0000
# 4 0.0000 0.0000 0.0000 12.8584 0.0000 0.0000
# 5 0.0000 0.0000 0.0000 0.0000 7.9001 0.0000
# 6 0.0000 0.0000 0.0000 0.0000 0.0000 32.7683
#
#
#
# Elastic Compliance Matrix: (Units=1/GPa)
#
#
# Indices 1 2 3 4 5 6 
#
# 1 0.014023 -0.006704 -0.000606 0.000000 0.000000 0.000000
# 2 -0.006704 0.008962 0.000851 0.000000 0.000000 0.000000
# 3 -0.000606 0.000851 0.020239 0.000000 0.000000 0.000000
# 4 0.000000 0.000000 0.000000 0.077770 0.000000 0.000000
# 5 0.000000 0.000000 0.000000 0.000000 0.126580 0.000000
# 6 0.000000 0.000000 0.000000 0.000000 0.000000 0.030517
#
#
# Mechanical properties :
#
#
# Convention : Reuss Voigt Hill
#
# Bulk Modulus (GPa) = 32.99611 54.54289 43.76950
# Shear Modulus (GPa) = 16.60521 27.82159 22.21340
#
# Velocity S-wave (km/s) = 2.88879 3.73926 3.34119
# Velocity P-wave (km/s) = 5.26397 6.78630 6.07302
#
# Compressibility (1/GPa) = 0.03030660
#
# Stress axis : x y z
#
# Youngs Moduli (GPa) = 71.31250 111.58307 49.40983
#
# Poissons Ratio (x) = 0.74803 0.02994
# Poissons Ratio (y) = 0.47807 -0.04206
# Poissons Ratio (z) = 0.04321 -0.09498
#
# Static dielectric constant tensor:
#      x y z
#    x 1.657310 0.000000 0.000000 
#    y 0.000000 1.738650 0.000000 
#    z 0.000000 0.000000 1.754270 
# 
# From -- ./inp_files/8410.got.cif
#   From: 2010.05.17/outbox.cif.g08.bks.cpg/sg58_5_cif.got.tgz:8410.got - 2010.06.03 14:20:14.
