data_PCOD9441873
_publ_section_title
;
Structure prediction by ZEFSAII (Michael W. Deem and Ramdas Pophale) SiO2 
 PCOD9441873
Probable space group: P N N M
;
_chemical_formula_sum "Si O2"
_cell_formula_units_Z 56
_cell_length_a 14.243561
_cell_length_b 23.186491
_cell_length_c 9.094659
_cell_angle_alpha 90.000000
_cell_angle_beta 90.000000
_cell_angle_gamma 90.000000
_cell_volume 3003.585701
_symmetry_space_group_name_H-M "P N N M"
_symmetry_group_IT_number 58
_symmetry_cell_setting 'orthorhombic'
loop_
_space_group_symop_operation_xyz
x,y,z
-x,-y,z
1/2+x,1/2-y,1/2-z
1/2-x,1/2+y,1/2-z
-x,-y,-z
x,y,-z
1/2-x,1/2+y,1/2+z
1/2+x,1/2-y,1/2+z
loop_
_atom_site_type_symbol
_atom_site_label
_atom_site_fract_x
_atom_site_fract_y
_atom_site_fract_z
Si Si1 0.362098 0.231413 0.333705
Si Si2 0.307156 0.117448 0.824511
Si Si3 0.799886 0.618640 0.175654
Si Si4 0.088524 0.847289 0.674767
Si Si5 0.856158 0.731580 0.334272
Si Si6 0.610940 0.994892 0.325208
Si Si7 0.404990 0.653089 0.325655
O O1 0.400868 0.229735 0.500000
O O2 0.362006 0.169441 0.256328
O O3 0.404451 0.282024 0.235237
O O4 0.252974 0.249877 0.344678
O O5 0.195801 0.124608 0.789972
O O6 0.344955 0.057042 0.766188
O O7 0.317531 0.123257 0.000000
O O8 0.688850 0.623761 0.212133
O O9 0.855339 0.668785 0.261129
O O10 0.840066 0.555805 0.208928
O O11 0.808707 0.629058 0.000000
O O12 0.078354 0.847472 0.500000
O O13 0.996120 0.874064 0.748671
O O14 0.895550 0.731646 0.500000
O O15 0.898287 0.781303 0.232735
O O16 0.623708 0.983523 0.500000
O O17 0.500000 0.000000 0.297258
O O18 0.417035 0.652382 0.500000
#
# Coordination Sequence:
#
# PCOD9441873 Si02
#       7
#     8   8   8   8   8   8   8
#     4   9  17  31  52  77 107 142 176 213 261 316
#     4  10  21  37  56  79 109 144 182 226 270 314
#     4   9  19  36  55  77 108 143 179 223 273 322
#     4  10  19  32  53  81 111 142 178 221 268 321
#     4   9  17  30  51  78 106 139 177 216 261 312
#     4  10  22  40  60  79 101 136 181 225 272 326
#     4  10  20  34  53  79 112 147 180 217 267 324
#
# _framework density 18.644383000000001
#
# number of rings (size 3 to 8) (size 9 to 14) (size 15 to 20)
#    0.000    2.429    0.000    2.143    0.000    7.714 
#    0.000    5.000    0.000    4.286    0.000    0.000 
#    0.000    0.000    0.000    0.000    0.000    0.000 
#
# Total GULP energy -312471.941889 kJ/mol
# GULP energy per Si atom -5579.856105 kJ/mol
# Density = 1.860195 g / cm^3
# Si number density = 18.644383 Si / 1000 Ang^3
#
#
#
# Elastic Constant Matrix: (Units=GPa)
#
#
# Indices 1 2 3 4 5 6 
#
# 1 88.5423 37.6130 42.5417 0.0000 0.0000 0.0000
# 2 37.6130 107.7536 44.2773 0.0000 0.0000 0.0000
# 3 42.5417 44.2773 70.7502 0.0000 0.0000 0.0000
# 4 0.0000 0.0000 0.0000 28.6450 0.0000 0.0000
# 5 0.0000 0.0000 0.0000 0.0000 25.1148 0.0000
# 6 0.0000 0.0000 0.0000 0.0000 0.0000 17.5614
#
#
#
# Elastic Compliance Matrix: (Units=1/GPa)
#
#
# Indices 1 2 3 4 5 6 
#
# 1 0.016272 -0.002234 -0.008386 0.000000 0.000000 0.000000
# 2 -0.002234 0.012800 -0.006667 0.000000 0.000000 0.000000
# 3 -0.008386 -0.006667 0.023349 0.000000 0.000000 0.000000
# 4 0.000000 0.000000 0.000000 0.034910 0.000000 0.000000
# 5 0.000000 0.000000 0.000000 0.000000 0.039817 0.000000
# 6 0.000000 0.000000 0.000000 0.000000 0.000000 0.056943
#
#
# Mechanical properties :
#
#
# Convention : Reuss Voigt Hill
#
# Bulk Modulus (GPa) = 56.03343 57.32336 56.67839
# Shear Modulus (GPa) = 22.26016 23.77183 23.01600
#
# Velocity S-wave (km/s) = 3.45908 3.57461 3.51732
# Velocity P-wave (km/s) = 6.78769 6.91733 6.85282
#
# Compressibility (1/GPa) = 0.01784649
#
# Stress axis : x y z
#
# Youngs Moduli (GPa) = 61.45343 78.12562 42.82753
#
# Poissons Ratio (x) = 0.17454 0.35917
# Poissons Ratio (y) = 0.13729 0.28554
# Poissons Ratio (z) = 0.51538 0.52088
#
# Static dielectric constant tensor:
#      x y z
#    x 1.693230 0.000000 0.000000 
#    y 0.000000 1.597710 0.000000 
#    z 0.000000 0.000000 1.640000 
# 
# From -- ./inp_files/6307.got.cif
#   From: 2010.05.17/outbox.cif.g08.bks.cpg/sg58_4_cif.got.tgz:6307.got - 2010.06.03 14:20:14.
