data_PCOD9441155
_publ_section_title
;
Structure prediction by ZEFSAII (Michael W. Deem and Ramdas Pophale) SiO2 
 PCOD9441155
Probable space group: P N N M
;
_chemical_formula_sum "Si O2"
_cell_formula_units_Z 56
_cell_length_a 18.079525
_cell_length_b 20.185499
_cell_length_c 7.552375
_cell_angle_alpha 90.000000
_cell_angle_beta 90.000000
_cell_angle_gamma 90.000000
_cell_volume 2756.195708
_symmetry_space_group_name_H-M "P N N M"
_symmetry_group_IT_number 58
_symmetry_cell_setting 'orthorhombic'
loop_
_space_group_symop_operation_xyz
x,y,z
-x,-y,z
1/2+x,1/2-y,1/2-z
1/2-x,1/2+y,1/2-z
-x,-y,-z
x,y,-z
1/2-x,1/2+y,1/2+z
1/2+x,1/2-y,1/2+z
loop_
_atom_site_type_symbol
_atom_site_label
_atom_site_fract_x
_atom_site_fract_y
_atom_site_fract_z
Si Si1 0.561371 0.309591 0.294787
Si Si2 0.963365 0.069516 0.783444
Si Si3 0.860395 0.548863 0.211426
Si Si4 0.625609 0.897971 0.283222
Si Si5 0.287802 0.625427 0.796054
Si Si6 0.694902 0.527561 0.710971
Si Si7 0.970462 0.663000 0.217274
O O1 0.539134 0.304243 0.500000
O O2 0.510094 0.367894 0.217677
O O3 0.645746 0.334351 0.289479
O O4 0.550535 0.236320 0.219791
O O5 0.877524 0.067327 0.730477
O O6 0.966471 0.070221 0.000000
O O7 0.000000 0.000000 0.728457
O O8 0.879140 0.474664 0.276415
O O9 0.773629 0.559837 0.246296
O O10 0.913097 0.606767 0.278966
O O11 0.870518 0.546467 0.000000
O O12 0.628357 0.899022 0.500000
O O13 0.704490 0.868952 0.222866
O O14 0.553286 0.857804 0.231210
O O15 0.305409 0.546872 0.787061
O O16 0.286362 0.646108 0.000000
O O17 0.689898 0.519418 0.500000
O O18 0.967862 0.662403 0.000000
#
# Coordination Sequence:
#
# PCOD9441155 Si02
#       7
#     8   8   8   8   8   8   8
#     4  10  19  33  52  71  97 134 174 208 246 304
#     4   9  16  29  49  71  94 126 169 211 239 282
#     4   9  17  31  52  77 103 127 162 214 259 298
#     4   8  15  29  51  76  97 124 167 211 246 290
#     4  10  19  32  51  76 103 129 162 210 261 300
#     4  10  18  31  52  76 100 129 168 208 252 301
#     4   9  17  31  52  75  97 131 174 209 247 299
#
# _framework density 20.31786
#
# number of rings (size 3 to 8) (size 9 to 14) (size 15 to 20)
#    0.000    2.714    1.429    2.143    0.000    1.714 
#    2.571    2.857    0.000   12.000    0.000    0.000 
#    0.000    0.000    0.000    0.000    0.000    0.000 
#
# Total GULP energy -312442.602723 kJ/mol
# GULP energy per Si atom -5579.332191 kJ/mol
# Density = 2.027162 g / cm^3
# Si number density = 20.317860 Si / 1000 Ang^3
#
#
#
# Elastic Constant Matrix: (Units=GPa)
#
#
# Indices 1 2 3 4 5 6 
#
# 1 181.3030 115.1012 -10.7006 0.0000 0.0000 0.0000
# 2 115.1012 125.5893 2.0157 0.0000 0.0000 0.0000
# 3 -10.7006 2.0157 43.0621 0.0000 0.0000 0.0000
# 4 0.0000 0.0000 0.0000 3.5162 0.0000 0.0000
# 5 0.0000 0.0000 0.0000 0.0000 24.8374 0.0000
# 6 0.0000 0.0000 0.0000 0.0000 0.0000 19.6759
#
#
#
# Elastic Compliance Matrix: (Units=1/GPa)
#
#
# Indices 1 2 3 4 5 6 
#
# 1 0.013859 -0.012767 0.004041 0.000000 0.000000 0.000000
# 2 -0.012767 0.019729 -0.004096 0.000000 0.000000 0.000000
# 3 0.004041 -0.004096 0.024418 0.000000 0.000000 0.000000
# 4 0.000000 0.000000 0.000000 0.284394 0.000000 0.000000
# 5 0.000000 0.000000 0.000000 0.000000 0.040262 0.000000
# 6 0.000000 0.000000 0.000000 0.000000 0.000000 0.050824
#
#
# Mechanical properties :
#
#
# Convention : Reuss Voigt Hill
#
# Bulk Modulus (GPa) = 30.89850 62.53189 46.71520
# Shear Modulus (GPa) = 10.64021 25.84178 18.24100
#
# Velocity S-wave (km/s) = 2.29091 3.57020 2.99955
# Velocity P-wave (km/s) = 4.71574 6.91656 5.91933
#
# Compressibility (1/GPa) = 0.03236403
#
# Stress axis : x y z
#
# Youngs Moduli (GPa) = 72.15494 50.68787 40.95295
#
# Poissons Ratio (x) = 0.64711 -0.16551
# Poissons Ratio (y) = 0.92117 0.16774
# Poissons Ratio (z) = -0.29161 0.20761
#
# Static dielectric constant tensor:
#      x y z
#    x 1.719710 0.000000 0.000000 
#    y 0.000000 1.689440 0.000000 
#    z 0.000000 0.000000 1.770660 
# 
# From -- ./inp_files/8178.got.cif
#   From: 2010.05.17/outbox.cif.g08.bks.cpg/sg58_5_cif.got.tgz:8178.got - 2010.06.03 14:20:14.
