data_PCOD9441607
_publ_section_title
;
Structure prediction by ZEFSAII (Michael W. Deem and Ramdas Pophale) SiO2 
 PCOD9441607
Probable space group: P N N M
;
_chemical_formula_sum "Si O2"
_cell_formula_units_Z 64
_cell_length_a 22.177598
_cell_length_b 18.838216
_cell_length_c 9.112098
_cell_angle_alpha 90.000000
_cell_angle_beta 90.000000
_cell_angle_gamma 90.000000
_cell_volume 3806.910451
_symmetry_space_group_name_H-M "P N N M"
_symmetry_group_IT_number 58
_symmetry_cell_setting 'orthorhombic'
loop_
_space_group_symop_operation_xyz
x,y,z
-x,-y,z
1/2+x,1/2-y,1/2-z
1/2-x,1/2+y,1/2-z
-x,-y,-z
x,y,-z
1/2-x,1/2+y,1/2+z
1/2+x,1/2-y,1/2+z
loop_
_atom_site_type_symbol
_atom_site_label
_atom_site_fract_x
_atom_site_fract_y
_atom_site_fract_z
Si Si1 0.264066 0.614256 0.674272
Si Si2 0.351609 0.077680 0.674680
Si Si3 0.111236 0.176521 0.173422
Si Si4 0.190321 0.415261 0.174875
Si Si5 0.021717 0.580373 0.325060
Si Si6 0.909067 0.679349 0.325016
Si Si7 0.430859 0.516910 0.676044
Si Si8 0.684498 0.528138 0.176088
O O1 0.258813 0.601418 0.500000
O O2 0.199100 0.624966 0.745658
O O3 0.316309 0.672130 0.695794
O O4 0.290271 0.544620 0.754190
O O5 0.348145 0.086347 0.500000
O O6 0.417372 0.093525 0.736596
O O7 0.335468 0.994647 0.707358
O O8 0.085597 0.241451 0.264071
O O9 0.084336 0.099167 0.212846
O O10 0.100449 0.187017 0.000000
O O11 0.149684 0.358766 0.258040
O O12 0.261851 0.416327 0.211101
O O13 0.184564 0.404432 0.000000
O O14 0.033271 0.586831 0.500000
O O15 0.000000 0.500000 0.297265
O O16 0.967614 0.632940 0.284041
O O17 0.904445 0.679394 0.500000
O O18 0.500000 0.500000 0.712304
O O19 0.422707 0.509722 0.500000
O O20 0.382107 0.466645 0.756130
O O21 0.681397 0.522314 0.000000
#
# Coordination Sequence:
#
# PCOD9441607 Si02
#       8
#     8   8   8   8   8   8   8   8
#     4   9  17  31  52  74  98 131 165 204 256 307
#     4  10  19  30  50  78 103 131 170 218 261 298
#     4   9  19  35  54  76 103 135 169 212 267 318
#     4   9  18  31  47  71 103 134 167 209 259 307
#     4  10  20  34  49  72 106 142 183 221 256 307
#     4  11  22  33  51  75 101 139 180 219 260 310
#     4   9  18  34  57  82 105 135 175 215 262 321
#     4   9  17  29  48  78 106 128 161 208 256 301
#
# _framework density 16.811534000000002
#
# number of rings (size 3 to 8) (size 9 to 14) (size 15 to 20)
#    0.000    2.500    1.250    3.000    0.000    6.500 
#    0.000    0.000    2.750    0.000    0.000    0.000 
#    0.000    0.000    0.000    0.000    0.000    0.000 
#
# Total GULP energy -356629.959910 kJ/mol
# GULP energy per Si atom -5572.343124 kJ/mol
# Density = 1.677327 g / cm^3
# Si number density = 16.811534 Si / 1000 Ang^3
#
#
#
# Elastic Constant Matrix: (Units=GPa)
#
#
# Indices 1 2 3 4 5 6 
#
# 1 150.3629 44.2874 56.5434 0.0000 0.0000 0.0000
# 2 44.2874 53.2517 28.5003 0.0000 0.0000 0.0000
# 3 56.5434 28.5003 40.7967 0.0000 0.0000 0.0000
# 4 0.0000 0.0000 0.0000 21.2189 0.0000 0.0000
# 5 0.0000 0.0000 0.0000 0.0000 29.8527 0.0000
# 6 0.0000 0.0000 0.0000 0.0000 0.0000 18.3245
#
#
#
# Elastic Compliance Matrix: (Units=1/GPa)
#
#
# Indices 1 2 3 4 5 6 
#
# 1 0.014024 -0.002013 -0.018030 0.000000 0.000000 0.000000
# 2 -0.002013 0.030282 -0.018364 0.000000 0.000000 0.000000
# 3 -0.018030 -0.018364 0.062330 0.000000 0.000000 0.000000
# 4 0.000000 0.000000 0.000000 0.047128 0.000000 0.000000
# 5 0.000000 0.000000 0.000000 0.000000 0.033498 0.000000
# 6 0.000000 0.000000 0.000000 0.000000 0.000000 0.054572
#
#
# Mechanical properties :
#
#
# Convention : Reuss Voigt Hill
#
# Bulk Modulus (GPa) = 33.53404 55.89706 44.71555
# Shear Modulus (GPa) = 15.21662 21.55124 18.38393
#
# Velocity S-wave (km/s) = 3.01180 3.58429 3.31045
# Velocity P-wave (km/s) = 5.66436 7.10288 6.42401
#
# Compressibility (1/GPa) = 0.02982045
#
# Stress axis : x y z
#
# Youngs Moduli (GPa) = 71.30765 33.02339 16.04359
#
# Poissons Ratio (x) = 0.06649 0.28927
# Poissons Ratio (y) = 0.14356 0.29463
# Poissons Ratio (z) = 1.28569 0.60644
#
# Static dielectric constant tensor:
#      x y z
#    x 1.599500 0.000000 0.000000 
#    y 0.000000 1.553610 0.000000 
#    z 0.000000 0.000000 1.556280 
# 
# From -- ./inp_files/9469.got.cif
#   From: 2010.05.17/outbox.cif.g08.bks.cpg/sg58_5_cif.got.tgz:9469.got - 2010.06.03 14:20:14.
