data_PCOD9441827
_publ_section_title
;
Structure prediction by ZEFSAII (Michael W. Deem and Ramdas Pophale) SiO2 
 PCOD9441827
Probable space group: P N N M
;
_chemical_formula_sum "Si O2"
_cell_formula_units_Z 64
_cell_length_a 5.547463
_cell_length_b 21.204310
_cell_length_c 23.497104
_cell_angle_alpha 90.000000
_cell_angle_beta 90.000000
_cell_angle_gamma 90.000000
_cell_volume 2763.967285
_symmetry_space_group_name_H-M "P N N M"
_symmetry_group_IT_number 58
_symmetry_cell_setting 'orthorhombic'
loop_
_space_group_symop_operation_xyz
x,y,z
-x,-y,z
1/2+x,1/2-y,1/2-z
1/2-x,1/2+y,1/2-z
-x,-y,-z
x,y,-z
1/2-x,1/2+y,1/2+z
1/2+x,1/2-y,1/2+z
loop_
_atom_site_type_symbol
_atom_site_label
_atom_site_fract_x
_atom_site_fract_y
_atom_site_fract_z
Si Si1 0.512490 0.772528 0.848269
Si Si2 0.820322 0.270519 0.061265
Si Si3 0.414629 0.898368 0.434513
Si Si4 0.943599 0.157299 0.275565
Si Si5 0.344412 0.658196 0.435900
Si Si6 0.609011 0.093956 0.208367
Si Si7 0.086632 0.069576 0.628156
Si Si8 0.395206 0.585616 0.326203
O O1 0.601039 0.727197 0.797740
O O2 0.680652 0.793918 0.900051
O O3 0.324444 0.728125 0.880912
O O4 0.414670 0.838949 0.825117
O O5 0.025435 0.323505 0.065239
O O6 0.912607 0.198657 0.059164
O O7 0.694761 0.283363 0.000000
O O8 0.412051 0.920257 0.500000
O O9 0.653647 0.928443 0.403876
O O10 0.147332 0.907986 0.408843
O O11 0.693223 0.117928 0.269944
O O12 0.100175 0.114589 0.317337
O O13 0.063229 0.150044 0.212788
O O14 0.260665 0.643902 0.500000
O O15 0.368497 0.600015 0.392783
O O16 0.841833 0.057174 0.184223
O O17 0.354367 0.062274 0.199728
O O18 0.000000 0.000000 0.645993
#
# Coordination Sequence:
#
# PCOD9441827 Si02
#       8
#     8   8   8   8   8   8   8   8
#     4  11  19  33  51  76 109 145 185 219 276 316
#     4  10  19  32  52  76 106 142 183 229 276 318
#     4  11  25  43  61  82 108 142 187 240 290 334
#     4  10  23  35  57  78 114 137 187 229 277 329
#     4  10  20  33  50  77 112 151 191 224 263 324
#     4   9  21  33  52  79 106 140 176 215 267 326
#     4  12  26  43  63  83 105 143 186 240 295 333
#     4   9  20  36  51  76 106 143 177 219 271 316
#
# _framework density 23.15512
#
# number of rings (size 3 to 8) (size 9 to 14) (size 15 to 20)
#    0.750    1.000    2.500    1.875    5.250    2.500 
#    0.000    0.000    0.000    0.000    0.000    0.000 
#    0.000    0.500    0.000    4.500    0.000    0.000 
#
# Total GULP energy -356408.486123 kJ/mol
# GULP energy per Si atom -5568.882596 kJ/mol
# Density = 2.310242 g / cm^3
# Si number density = 23.155120 Si / 1000 Ang^3
#
#
#
# Elastic Constant Matrix: (Units=GPa)
#
#
# Indices 1 2 3 4 5 6 
#
# 1 125.2152 19.0382 29.5489 0.0000 0.0000 0.0000
# 2 19.0382 42.7948 6.2518 0.0000 0.0000 0.0000
# 3 29.5489 6.2518 99.0420 0.0000 0.0000 0.0000
# 4 0.0000 0.0000 0.0000 -18.2051 0.0000 0.0000
# 5 0.0000 0.0000 0.0000 0.0000 27.1263 0.0000
# 6 0.0000 0.0000 0.0000 0.0000 0.0000 32.1749
#
#
#
# Elastic Compliance Matrix: (Units=1/GPa)
#
#
# Indices 1 2 3 4 5 6 
#
# 1 0.009137 -0.003701 -0.002492 0.000000 0.000000 0.000000
# 2 -0.003701 0.025084 -0.000479 0.000000 0.000000 0.000000
# 3 -0.002492 -0.000479 0.010871 0.000000 0.000000 0.000000
# 4 0.000000 0.000000 0.000000 -0.054930 0.000000 0.000000
# 5 0.000000 0.000000 0.000000 0.000000 0.036865 0.000000
# 6 0.000000 0.000000 0.000000 0.000000 0.000000 0.031080
#
#
# Mechanical properties :
#
#
# Convention : Reuss Voigt Hill
#
# Bulk Modulus (GPa) = 31.49949 41.85889 36.67919
# Shear Modulus (GPa) = 60.95086 22.36677 41.65881
#
# Velocity S-wave (km/s) = 5.13615 3.11135 4.24620
# Velocity P-wave (km/s) = 6.98617 5.56994 6.31786
#
# Compressibility (1/GPa) = 0.03174655
#
# Stress axis : x y z
#
# Youngs Moduli (GPa) = 109.44395 39.86657 91.99136
#
# Poissons Ratio (x) = 0.14753 0.22928
# Poissons Ratio (y) = 0.40502 0.04409
# Poissons Ratio (z) = 0.27278 0.01911
#
# Static dielectric constant tensor:
#      x y z
#    x 2.026250 0.000000 0.000000 
#    y 0.000000 1.908670 0.000000 
#    z 0.000000 0.000000 1.931880 
# 
# From -- ./inp_files/31113.got.cif
#   From: 2010.05.17/outbox.cif.g08.bks.cpg/sg58_16_cif.got.tgz:31113.got - 2010.06.03 14:20:14.
