data_PCOD9441365
_publ_section_title
;
Structure prediction by ZEFSAII (Michael W. Deem and Ramdas Pophale) SiO2 
 PCOD9441365
Probable space group: P N N M
;
_chemical_formula_sum "Si O2"
_cell_formula_units_Z 44
_cell_length_a 8.526583
_cell_length_b 14.405922
_cell_length_c 17.456481
_cell_angle_alpha 90.000000
_cell_angle_beta 90.000000
_cell_angle_gamma 90.000000
_cell_volume 2144.236986
_symmetry_space_group_name_H-M "P N N M"
_symmetry_group_IT_number 58
_symmetry_cell_setting 'orthorhombic'
loop_
_space_group_symop_operation_xyz
x,y,z
-x,-y,z
1/2+x,1/2-y,1/2-z
1/2-x,1/2+y,1/2-z
-x,-y,-z
x,y,-z
1/2-x,1/2+y,1/2+z
1/2+x,1/2-y,1/2+z
loop_
_atom_site_type_symbol
_atom_site_label
_atom_site_fract_x
_atom_site_fract_y
_atom_site_fract_z
Si Si1 0.558180 0.632571 0.583330
Si Si2 0.814614 0.360331 0.586862
Si Si3 0.000000 0.500000 0.174543
Si Si4 0.649125 0.811943 0.344176
Si Si5 0.527408 0.239654 0.187516
Si Si6 0.798540 0.544862 0.316995
O O1 0.602796 0.591575 0.500000
O O2 0.372971 0.644931 0.586874
O O3 0.630499 0.734907 0.591128
O O4 0.626728 0.570914 0.652188
O O5 0.872428 0.369585 0.500000
O O6 0.846378 0.454099 0.635075
O O7 0.887257 0.268573 0.626368
O O8 0.936837 0.407620 0.134278
O O9 0.851998 0.523115 0.230681
O O10 0.553898 0.770667 0.270316
O O11 0.834098 0.815197 0.320429
O O12 0.615538 0.142674 0.169674
#
# Coordination Sequence:
#
# PCOD9441365 Si02
#       6
#     8   8   4   8   8   8
#     4  10  22  35  54  82 114 154 190 233 288 347
#     4  11  20  33  53  82 120 149 183 231 287 353
#     4  10  20  38  58  84 112 152 192 250 294 332
#     4  10  20  36  57  77 112 147 198 240 284 347
#     4  10  20  34  53  78 107 153 187 236 286 337
#     4  10  18  34  52  81 114 143 183 222 291 349
#
# _framework density 20.520119000000001
#
# number of rings (size 3 to 8) (size 9 to 14) (size 15 to 20)
#    0.000    1.818    3.636    2.182    0.000    5.818 
#    0.000    0.455    0.000    0.000    0.000    2.545 
#    0.000    0.000    0.000    0.000    0.000    0.000 
#
# Total GULP energy -244979.963893 kJ/mol
# GULP energy per Si atom -5567.726452 kJ/mol
# Density = 2.047341 g / cm^3
# Si number density = 20.520119 Si / 1000 Ang^3
#
#
#
# Elastic Constant Matrix: (Units=GPa)
#
#
# Indices 1 2 3 4 5 6 
#
# 1 88.5359 15.4320 15.1129 0.0000 0.0000 0.0000
# 2 15.4320 72.3866 9.5128 0.0000 0.0000 0.0000
# 3 15.1129 9.5128 34.8479 0.0000 0.0000 0.0000
# 4 0.0000 0.0000 0.0000 -11.2218 0.0000 0.0000
# 5 0.0000 0.0000 0.0000 0.0000 22.1312 0.0000
# 6 0.0000 0.0000 0.0000 0.0000 0.0000 38.7700
#
#
#
# Elastic Compliance Matrix: (Units=1/GPa)
#
#
# Indices 1 2 3 4 5 6 
#
# 1 0.012477 -0.002021 -0.004859 0.000000 0.000000 0.000000
# 2 -0.002021 0.014656 -0.003124 0.000000 0.000000 0.000000
# 3 -0.004859 -0.003124 0.031656 0.000000 0.000000 0.000000
# 4 0.000000 0.000000 0.000000 -0.089113 0.000000 0.000000
# 5 0.000000 0.000000 0.000000 0.000000 0.045185 0.000000
# 6 0.000000 0.000000 0.000000 0.000000 0.000000 0.025793
#
#
# Mechanical properties :
#
#
# Convention : Reuss Voigt Hill
#
# Bulk Modulus (GPa) = 25.78661 30.65397 28.22029
# Shear Modulus (GPa) = 67.94323 20.31672 44.12998
#
# Velocity S-wave (km/s) = 5.76042 3.14998 4.64246
# Velocity P-wave (km/s) = 7.53903 5.31044 6.52065
#
# Compressibility (1/GPa) = 0.03877981
#
# Stress axis : x y z
#
# Youngs Moduli (GPa) = 80.14998 68.23046 31.58924
#
# Poissons Ratio (x) = 0.13791 0.15350
# Poissons Ratio (y) = 0.16201 0.09869
# Poissons Ratio (z) = 0.38946 0.21317
#
# Static dielectric constant tensor:
#      x y z
#    x 1.863980 0.000000 0.000000 
#    y 0.000000 1.765080 0.000000 
#    z 0.000000 0.000000 1.773650 
# 
# From -- ./inp_files/25221.got.cif
#   From: 2010.05.17/outbox.cif.g08.bks.cpg/sg58_13_cif.got.tgz:25221.got - 2010.06.03 14:20:14.
