data_PCOD9441261
_publ_section_title
;
Structure prediction by ZEFSAII (Michael W. Deem and Ramdas Pophale) SiO2 
 PCOD9441261
Probable space group: P N N M
;
_chemical_formula_sum "Si O2"
_cell_formula_units_Z 64
_cell_length_a 22.116450
_cell_length_b 8.360862
_cell_length_c 17.907257
_cell_angle_alpha 90.000000
_cell_angle_beta 90.000000
_cell_angle_gamma 90.000000
_cell_volume 3311.277207
_symmetry_space_group_name_H-M "P N N M"
_symmetry_group_IT_number 58
_symmetry_cell_setting 'orthorhombic'
loop_
_space_group_symop_operation_xyz
x,y,z
-x,-y,z
1/2+x,1/2-y,1/2-z
1/2-x,1/2+y,1/2-z
-x,-y,-z
x,y,-z
1/2-x,1/2+y,1/2+z
1/2+x,1/2-y,1/2+z
loop_
_atom_site_type_symbol
_atom_site_label
_atom_site_fract_x
_atom_site_fract_y
_atom_site_fract_z
Si Si1 0.042330 0.270986 0.245292
Si Si2 0.253221 0.383663 0.816426
Si Si3 0.084251 0.631343 0.283620
Si Si4 0.444679 0.876348 0.418745
Si Si5 0.304787 0.465171 0.583697
Si Si6 0.837378 0.884922 0.230471
Si Si7 0.844546 0.375137 0.866955
Si Si8 0.182634 0.625745 0.587850
O O1 0.063191 0.449673 0.267619
O O2 0.041692 0.271732 0.154655
O O3 0.097775 0.155344 0.265235
O O4 0.975636 0.257377 0.280442
O O5 0.207773 0.268649 0.769735
O O6 0.305307 0.463952 0.767657
O O7 0.215678 0.530781 0.847370
O O8 0.280649 0.280328 0.883440
O O9 0.124202 0.672682 0.211314
O O10 0.124550 0.624283 0.358089
O O11 0.440344 0.795840 0.500000
O O12 0.500000 0.000000 0.420921
O O13 0.387179 0.991896 0.405235
O O14 0.312058 0.526966 0.500000
O O15 0.340915 0.570961 0.643052
O O16 0.328546 0.284910 0.589245
O O17 0.232715 0.485387 0.601372
O O18 0.168015 0.629103 0.500000
#
# Coordination Sequence:
#
# PCOD9441261 Si02
#       8
#     8   8   8   8   8   8   8   8
#     4  10  20  36  57  87 111 147 205 243 275 339
#     4  11  22  34  60  86 117 149 190 238 293 356
#     4  10  19  37  61  83 110 150 197 244 280 342
#     4  10  18  32  54  82 115 153 191 231 276 334
#     4  10  22  36  54  87 125 155 189 235 295 353
#     4  11  21  37  58  87 115 151 192 242 291 344
#     4  11  19  35  59  87 117 155 196 234 283 346
#     4  10  23  41  59  84 116 151 189 245 307 355
#
# _framework density 19.327891000000001
#
# number of rings (size 3 to 8) (size 9 to 14) (size 15 to 20)
#    0.000    1.625    5.000    3.375    1.750    1.500 
#    0.000    3.750    0.000    2.250    0.000    0.000 
#    0.000    0.000    0.000    0.000    0.000    0.000 
#
# Total GULP energy -356992.509363 kJ/mol
# GULP energy per Si atom -5578.007959 kJ/mol
# Density = 1.928390 g / cm^3
# Si number density = 19.327891 Si / 1000 Ang^3
#
#
#
# Elastic Constant Matrix: (Units=GPa)
#
#
# Indices 1 2 3 4 5 6 
#
# 1 77.5814 -2.1735 39.9605 0.0000 0.0000 0.0000
# 2 -2.1735 20.4333 -4.3251 0.0000 0.0000 0.0000
# 3 39.9605 -4.3251 78.0264 0.0000 0.0000 0.0000
# 4 0.0000 0.0000 0.0000 7.8577 0.0000 0.0000
# 5 0.0000 0.0000 0.0000 0.0000 26.2110 0.0000
# 6 0.0000 0.0000 0.0000 0.0000 0.0000 10.8331
#
#
#
# Elastic Compliance Matrix: (Units=1/GPa)
#
#
# Indices 1 2 3 4 5 6 
#
# 1 0.017508 -0.000036 -0.008969 0.000000 0.000000 0.000000
# 2 -0.000036 0.049521 0.002763 0.000000 0.000000 0.000000
# 3 -0.008969 0.002763 0.017563 0.000000 0.000000 0.000000
# 4 0.000000 0.000000 0.000000 0.127264 0.000000 0.000000
# 5 0.000000 0.000000 0.000000 0.000000 0.038152 0.000000
# 6 0.000000 0.000000 0.000000 0.000000 0.000000 0.092310
#
#
# Mechanical properties :
#
#
# Convention : Reuss Voigt Hill
#
# Bulk Modulus (GPa) = 13.86785 26.99610 20.43198
# Shear Modulus (GPa) = 13.19832 18.48563 15.84198
#
# Velocity S-wave (km/s) = 2.61600 3.09596 2.86605
# Velocity P-wave (km/s) = 4.03921 5.17472 4.64182
#
# Compressibility (1/GPa) = 0.07210921
#
# Stress axis : x y z
#
# Youngs Moduli (GPa) = 57.11589 20.19350 56.93919
#
# Poissons Ratio (x) = 0.00073 0.51067
# Poissons Ratio (y) = 0.00206 -0.15735
# Poissons Ratio (z) = 0.51226 -0.05580
#
# Static dielectric constant tensor:
#      x y z
#    x 1.749330 0.000000 0.000000 
#    y 0.000000 1.695630 0.000000 
#    z 0.000000 0.000000 1.691250 
# 
# From -- ./inp_files/27547.got.cif
#   From: 2010.05.17/outbox.cif.g08.bks.cpg/sg58_14_cif.got.tgz:27547.got - 2010.06.03 14:20:14.
