data_PCOD9441023
_publ_section_title
;
Structure prediction by ZEFSAII (Michael W. Deem and Ramdas Pophale) SiO2 
 PCOD9441023
Probable space group: P N N M
;
_chemical_formula_sum "Si O2"
_cell_formula_units_Z 48
_cell_length_a 18.587199
_cell_length_b 7.149943
_cell_length_c 14.569928
_cell_angle_alpha 90.000000
_cell_angle_beta 90.000000
_cell_angle_gamma 90.000000
_cell_volume 1936.305744
_symmetry_space_group_name_H-M "P N N M"
_symmetry_group_IT_number 58
_symmetry_cell_setting 'orthorhombic'
loop_
_space_group_symop_operation_xyz
x,y,z
-x,-y,z
1/2+x,1/2-y,1/2-z
1/2-x,1/2+y,1/2-z
-x,-y,-z
x,y,-z
1/2-x,1/2+y,1/2+z
1/2+x,1/2-y,1/2+z
loop_
_atom_site_type_symbol
_atom_site_label
_atom_site_fract_x
_atom_site_fract_y
_atom_site_fract_z
Si Si1 0.788106 0.141365 0.604114
Si Si2 0.661218 0.608272 0.704788
Si Si3 0.372356 0.785403 0.608416
Si Si4 0.537293 0.202795 0.898950
Si Si5 0.510885 0.711676 0.298442
Si Si6 0.298341 0.907264 0.103914
O O1 0.807177 0.084848 0.500000
O O2 0.834419 0.063107 0.687353
O O3 0.702926 0.104751 0.619615
O O4 0.800153 0.366620 0.610593
O O5 0.647169 0.419603 0.648206
O O6 0.595218 0.747956 0.686290
O O7 0.739874 0.673453 0.673560
O O8 0.385628 0.775534 0.500000
O O9 0.447176 0.834548 0.658226
O O10 0.503374 0.294737 0.810023
O O11 0.621847 0.168193 0.883448
O O12 0.500000 0.000000 0.902483
O O13 0.526902 0.289078 0.000000
O O14 0.500000 0.500000 0.335189
O O15 0.274208 0.864522 0.000000
#
# Coordination Sequence:
#
# PCOD9441023 Si02
#       6
#     8   8   8   8   8   8
#     4   9  17  31  51  73  98 130 168 213 262 310
#     4  10  18  29  50  75 101 131 170 214 258 306
#     4   9  19  35  53  74 102 137 175 214 259 312
#     4  10  20  35  55  78 106 140 177 217 264 318
#     4  10  21  33  50  79 107 138 174 215 264 311
#     4   9  18  32  51  74  99 131 173 216 257 305
#
# _framework density 24.789473999999998
#
# number of rings (size 3 to 8) (size 9 to 14) (size 15 to 20)
#    0.000    2.500    0.000    3.500    0.000    6.000 
#    0.000    2.500    0.000    8.500    0.000    4.667 
#    0.000    0.000    0.000    0.000    0.000    0.000 
#
# Total GULP energy -268412.345185 kJ/mol
# GULP energy per Si atom -5591.923858 kJ/mol
# Density = 2.473305 g / cm^3
# Si number density = 24.789474 Si / 1000 Ang^3
#
#
#
# Elastic Constant Matrix: (Units=GPa)
#
#
# Indices 1 2 3 4 5 6 
#
# 1 92.9237 12.0378 43.9374 0.0000 0.0000 0.0000
# 2 12.0378 72.3362 7.0561 0.0000 0.0000 0.0000
# 3 43.9374 7.0561 96.8703 0.0000 0.0000 0.0000
# 4 0.0000 0.0000 0.0000 -35.3950 0.0000 0.0000
# 5 0.0000 0.0000 0.0000 0.0000 -136.2012 0.0000
# 6 0.0000 0.0000 0.0000 0.0000 0.0000 15.7488
#
#
#
# Elastic Compliance Matrix: (Units=1/GPa)
#
#
# Indices 1 2 3 4 5 6 
#
# 1 0.013907 -0.001711 -0.006183 0.000000 0.000000 0.000000
# 2 -0.001711 0.014134 -0.000253 0.000000 0.000000 0.000000
# 3 -0.006183 -0.000253 0.013146 0.000000 0.000000 0.000000
# 4 0.000000 0.000000 0.000000 -0.028253 0.000000 0.000000
# 5 0.000000 0.000000 0.000000 0.000000 -0.007342 0.000000
# 6 0.000000 0.000000 0.000000 0.000000 0.000000 0.063497
#
#
# Mechanical properties :
#
#
# Convention : Reuss Voigt Hill
#
# Bulk Modulus (GPa) = 40.17454 43.13253 41.65353
# Shear Modulus (GPa) = 53.37268 -17.89622 17.73823
#
# Velocity S-wave (km/s) = 4.64512 -2.68979 2.67789
# Velocity P-wave (km/s) = 6.70902 2.79118 5.13817
#
# Compressibility (1/GPa) = 0.02489138
#
# Stress axis : x y z
#
# Youngs Moduli (GPa) = 71.90769 70.75228 76.06895
#
# Poissons Ratio (x) = 0.12107 0.47034
# Poissons Ratio (y) = 0.12304 0.01928
# Poissons Ratio (z) = 0.44461 0.01793
#
# Static dielectric constant tensor:
#      x y z
#    x 1.999290 0.000000 0.000000 
#    y 0.000000 2.088820 0.000000 
#    z 0.000000 0.000000 1.925410 
# 
# From -- ./inp_files/16362.got.cif
#   From: 2010.05.17/outbox.cif.g08.bks.cpg/sg58_9_cif.got.tgz:16362.got - 2010.06.03 14:20:14.
