data_PCOD9441968
_publ_section_title
;
Structure prediction by ZEFSAII (Michael W. Deem and Ramdas Pophale) SiO2 
 PCOD9441968
Probable space group: P N N M
;
_chemical_formula_sum "Si O2"
_cell_formula_units_Z 48
_cell_length_a 18.947893
_cell_length_b 16.177933
_cell_length_c 8.929740
_cell_angle_alpha 90.000000
_cell_angle_beta 90.000000
_cell_angle_gamma 90.000000
_cell_volume 2737.302349
_symmetry_space_group_name_H-M "P N N M"
_symmetry_group_IT_number 58
_symmetry_cell_setting 'orthorhombic'
loop_
_space_group_symop_operation_xyz
x,y,z
-x,-y,z
1/2+x,1/2-y,1/2-z
1/2-x,1/2+y,1/2-z
-x,-y,-z
x,y,-z
1/2-x,1/2+y,1/2+z
1/2+x,1/2-y,1/2+z
loop_
_atom_site_type_symbol
_atom_site_label
_atom_site_fract_x
_atom_site_fract_y
_atom_site_fract_z
Si Si1 0.293675 0.424262 0.179080
Si Si2 0.955148 0.422892 0.320860
Si Si3 0.459735 0.244983 0.327988
Si Si4 0.051937 0.924415 0.819706
Si Si5 0.210756 0.577683 0.679979
Si Si6 0.211954 0.750820 0.825791
O O1 0.374585 0.433492 0.233814
O O2 0.251287 0.501139 0.247398
O O3 0.267318 0.336083 0.244868
O O4 0.289741 0.423373 0.000000
O O5 0.959271 0.422894 0.500000
O O6 0.982236 0.334647 0.263761
O O7 0.872492 0.430750 0.281814
O O8 0.000000 0.500000 0.262099
O O9 0.480577 0.233317 0.500000
O O10 0.482399 0.336135 0.277076
O O11 0.374000 0.249000 0.321411
O O12 0.066275 0.920424 0.000000
O O13 0.000000 0.000000 0.791505
O O14 0.218251 0.576892 0.500000
O O15 0.235222 0.666499 0.744611
O O16 0.233013 0.751581 0.000000
#
# Coordination Sequence:
#
# PCOD9441968 Si02
#       6
#     8   8   8   8   8   8
#     4  11  21  33  51  76 104 134 170 208 249 302
#     4   9  18  32  50  72  97 127 162 201 246 293
#     4   8  15  28  48  72  95 124 160 197 240 292
#     4   9  18  34  54  74  99 131 166 206 253 301
#     4  10  19  33  53  75 101 133 168 208 254 302
#     4   9  17  32  52  73  98 129 168 210 252 301
#
# _framework density 17.535513000000002
#
# number of rings (size 3 to 8) (size 9 to 14) (size 15 to 20)
#    0.000    2.667    0.000    3.500    0.000    5.333 
#    0.000    1.667    0.000    4.000    0.000    0.000 
#    0.000    0.000    0.000    0.000    0.000    0.000 
#
# Total GULP energy -267530.517100 kJ/mol
# GULP energy per Si atom -5573.552440 kJ/mol
# Density = 1.749560 g / cm^3
# Si number density = 17.535513 Si / 1000 Ang^3
#
#
#
# Elastic Constant Matrix: (Units=GPa)
#
#
# Indices 1 2 3 4 5 6 
#
# 1 30.1126 59.3533 35.3823 0.0000 0.0000 0.0000
# 2 59.3533 214.1066 75.3595 0.0000 0.0000 0.0000
# 3 35.3823 75.3595 79.9110 0.0000 0.0000 0.0000
# 4 0.0000 0.0000 0.0000 34.3768 0.0000 0.0000
# 5 0.0000 0.0000 0.0000 0.0000 33.2479 0.0000
# 6 0.0000 0.0000 0.0000 0.0000 0.0000 32.2954
#
#
#
# Elastic Compliance Matrix: (Units=1/GPa)
#
#
# Indices 1 2 3 4 5 6 
#
# 1 0.102824 -0.018680 -0.027911 0.000000 0.000000 0.000000
# 2 -0.018680 0.010385 -0.001522 0.000000 0.000000 0.000000
# 3 -0.027911 -0.001522 0.026308 0.000000 0.000000 0.000000
# 4 0.000000 0.000000 0.000000 0.029089 0.000000 0.000000
# 5 0.000000 0.000000 0.000000 0.000000 0.030077 0.000000
# 6 0.000000 0.000000 0.000000 0.000000 0.000000 0.030964
#
#
# Mechanical properties :
#
#
# Convention : Reuss Voigt Hill
#
# Bulk Modulus (GPa) = 23.10046 73.81337 48.45692
# Shear Modulus (GPa) = 14.69270 30.25303 22.47286
#
# Velocity S-wave (km/s) = 2.89776 4.15811 3.58378
# Velocity P-wave (km/s) = 4.93945 8.07702 6.69464
#
# Compressibility (1/GPa) = 0.04328918
#
# Stress axis : x y z
#
# Youngs Moduli (GPa) = 9.72531 96.29492 38.01158
#
# Poissons Ratio (x) = 1.79882 1.06096
# Poissons Ratio (y) = 0.18167 0.05786
# Poissons Ratio (z) = 0.27145 0.14658
#
# Static dielectric constant tensor:
#      x y z
#    x 1.584830 0.000000 0.000000 
#    y 0.000000 1.611310 0.000000 
#    z 0.000000 0.000000 1.589920 
# 
# From -- ./inp_files/6027.got.cif
#   From: 2010.05.17/outbox.cif.g08.bks.cpg/sg58_4_cif.got.tgz:6027.got - 2010.06.03 14:20:14.
