data_PCOD9441945
_publ_section_title
;
Structure prediction by ZEFSAII (Michael W. Deem and Ramdas Pophale) SiO2 
 PCOD9441945
Probable space group: P N N M
;
_chemical_formula_sum "Si O2"
_cell_formula_units_Z 64
_cell_length_a 20.376584
_cell_length_b 8.948975
_cell_length_c 18.907727
_cell_angle_alpha 90.000000
_cell_angle_beta 90.000000
_cell_angle_gamma 90.000000
_cell_volume 3447.815336
_symmetry_space_group_name_H-M "P N N M"
_symmetry_group_IT_number 58
_symmetry_cell_setting 'orthorhombic'
loop_
_space_group_symop_operation_xyz
x,y,z
-x,-y,z
1/2+x,1/2-y,1/2-z
1/2-x,1/2+y,1/2-z
-x,-y,-z
x,y,-z
1/2-x,1/2+y,1/2+z
1/2+x,1/2-y,1/2+z
loop_
_atom_site_type_symbol
_atom_site_label
_atom_site_fract_x
_atom_site_fract_y
_atom_site_fract_z
Si Si1 0.677663 0.242576 0.580961
Si Si2 0.636557 0.845795 0.276155
Si Si3 0.479228 0.333036 0.716901
Si Si4 0.023673 0.330112 0.081129
Si Si5 0.709885 0.910759 0.580907
Si Si6 0.059220 0.405850 0.695304
Si Si7 0.732443 0.434587 0.293981
Si Si8 0.305686 0.763341 0.167743
O O1 0.685365 0.293586 0.500000
O O2 0.601926 0.192101 0.590517
O O3 0.699225 0.366811 0.636511
O O4 0.718635 0.089103 0.590698
O O5 0.596341 0.695836 0.265232
O O6 0.660215 0.864506 0.356592
O O7 0.697072 0.860485 0.223379
O O8 0.588210 0.981790 0.254951
O O9 0.500000 0.500000 0.723483
O O10 0.489001 0.274436 0.637464
O O11 0.524328 0.231333 0.766446
O O12 0.000000 0.500000 0.092342
O O13 0.008036 0.291550 0.000000
O O14 0.687370 0.888091 0.500000
O O15 0.774190 0.814901 0.599419
O O16 0.123999 0.342271 0.656828
O O17 0.000000 0.500000 0.658459
O O18 0.691315 0.367853 0.227475
O O19 0.754439 0.607337 0.304570
#
# Coordination Sequence:
#
# PCOD9441945 Si02
#       8
#     8   8   8   8   8   8   8   8
#     4  10  20  34  53  76 104 139 174 211 256 304
#     4   9  19  34  51  69  96 137 170 202 247 302
#     4  11  21  30  46  74  99 122 160 210 254 288
#     4  10  20  34  50  66  95 142 181 202 234 296
#     4  10  20  33  50  74 102 133 170 207 249 302
#     4   9  18  35  53  70  97 131 171 206 247 309
#     4  10  19  33  50  73 100 128 169 209 254 305
#     4  10  20  33  54  75  99 135 170 214 260 303
#
# _framework density 18.562479
#
# number of rings (size 3 to 8) (size 9 to 14) (size 15 to 20)
#    0.000    2.125    0.000    5.625    0.000    7.250 
#    0.000    1.250    0.000    0.750    0.000    2.625 
#    0.000   19.000    0.000    0.000    0.000    0.000 
#
# Total GULP energy -356817.662727 kJ/mol
# GULP energy per Si atom -5575.275980 kJ/mol
# Density = 1.852023 g / cm^3
# Si number density = 18.562479 Si / 1000 Ang^3
#
#
#
# Elastic Constant Matrix: (Units=GPa)
#
#
# Indices 1 2 3 4 5 6 
#
# 1 50.0088 -0.7524 2.6282 0.0000 0.0000 0.0000
# 2 -0.7524 46.0250 1.5541 0.0000 0.0000 0.0000
# 3 2.6282 1.5541 39.0810 0.0000 0.0000 0.0000
# 4 0.0000 0.0000 0.0000 26.3884 0.0000 0.0000
# 5 0.0000 0.0000 0.0000 0.0000 22.2211 0.0000
# 6 0.0000 0.0000 0.0000 0.0000 0.0000 24.4281
#
#
#
# Elastic Compliance Matrix: (Units=1/GPa)
#
#
# Indices 1 2 3 4 5 6 
#
# 1 0.020074 0.000374 -0.001365 0.000000 0.000000 0.000000
# 2 0.000374 0.021764 -0.000891 0.000000 0.000000 0.000000
# 3 -0.001365 -0.000891 0.025715 0.000000 0.000000 0.000000
# 4 0.000000 0.000000 0.000000 0.037896 0.000000 0.000000
# 5 0.000000 0.000000 0.000000 0.000000 0.045002 0.000000
# 6 0.000000 0.000000 0.000000 0.000000 0.000000 0.040936
#
#
# Mechanical properties :
#
#
# Convention : Reuss Voigt Hill
#
# Bulk Modulus (GPa) = 15.67646 15.77497 15.72571
# Shear Modulus (GPa) = 23.10401 23.38649 23.24525
#
# Velocity S-wave (km/s) = 3.53180 3.55333 3.54258
# Velocity P-wave (km/s) = 5.00950 5.03504 5.02229
#
# Compressibility (1/GPa) = 0.06378992
#
# Stress axis : x y z
#
# Youngs Moduli (GPa) = 49.81606 45.94842 38.88767
#
# Poissons Ratio (x) = -0.01720 0.05308
# Poissons Ratio (y) = -0.01864 0.03464
# Poissons Ratio (z) = 0.06799 0.04092
#
# Static dielectric constant tensor:
#      x y z
#    x 1.708610 0.000000 0.000000 
#    y 0.000000 1.663770 0.000000 
#    z 0.000000 0.000000 1.611740 
# 
# From -- ./inp_files/27565.got.cif
#   From: 2010.05.17/outbox.cif.g08.bks.cpg/sg58_14_cif.got.tgz:27565.got - 2010.06.03 14:20:14.
