data_PCOD9441559
_publ_section_title
;
Structure prediction by ZEFSAII (Michael W. Deem and Ramdas Pophale) SiO2 
 PCOD9441559
Probable space group: P N N M
;
_chemical_formula_sum "Si O2"
_cell_formula_units_Z 56
_cell_length_a 14.233904
_cell_length_b 20.332821
_cell_length_c 10.318947
_cell_angle_alpha 90.000000
_cell_angle_beta 90.000000
_cell_angle_gamma 90.000000
_cell_volume 2986.462402
_symmetry_space_group_name_H-M "P N N M"
_symmetry_group_IT_number 58
_symmetry_cell_setting 'orthorhombic'
loop_
_space_group_symop_operation_xyz
x,y,z
-x,-y,z
1/2+x,1/2-y,1/2-z
1/2-x,1/2+y,1/2-z
-x,-y,-z
x,y,-z
1/2-x,1/2+y,1/2+z
1/2+x,1/2-y,1/2+z
loop_
_atom_site_type_symbol
_atom_site_label
_atom_site_fract_x
_atom_site_fract_y
_atom_site_fract_z
Si Si1 0.530471 0.731889 0.850068
Si Si2 0.736984 0.101335 0.850433
Si Si3 0.419177 0.055196 0.360595
Si Si4 0.524367 0.122985 0.144801
Si Si5 0.138566 0.142930 0.343108
Si Si6 0.292626 0.501703 0.850249
Si Si7 0.700458 0.752091 0.652429
O O1 0.468670 0.798392 0.854978
O O2 0.460931 0.674206 0.804577
O O3 0.613871 0.746802 0.751124
O O4 0.561826 0.719712 0.000000
O O5 0.625721 0.092867 0.823201
O O6 0.755262 0.179067 0.841792
O O7 0.796166 0.059207 0.747814
O O8 0.754314 0.081225 0.000000
O O9 0.425568 0.090084 0.500000
O O10 0.444725 0.101876 0.243515
O O11 0.316354 0.024719 0.352277
O O12 0.500000 0.000000 0.359262
O O13 0.498884 0.101540 0.000000
O O14 0.139510 0.143341 0.500000
O O15 0.152857 0.067199 0.304776
O O16 0.225037 0.191293 0.306904
O O17 0.318549 0.485465 0.000000
O O18 0.675534 0.763371 0.500000
#
# Coordination Sequence:
#
# PCOD9441559 Si02
#       7
#     8   8   8   8   8   8   8
#     4  10  20  36  57  82 107 136 183 234 271 317
#     4  10  20  35  55  78 107 143 179 217 267 325
#     4  10  19  30  46  75 109 137 172 219 266 318
#     4  10  19  32  52  76 104 140 176 214 268 329
#     4   9  18  36  59  79 107 147 184 220 271 332
#     4  10  20  34  53  77 108 145 181 220 269 323
#     4  10  20  38  61  82 107 146 187 223 273 329
#
# _framework density 18.751282
#
# number of rings (size 3 to 8) (size 9 to 14) (size 15 to 20)
#    0.000    2.143    2.857    0.857    0.000    3.143 
#    0.000    2.857    0.000    4.286    0.000    0.000 
#    0.000    0.000    0.000    0.000    0.000    0.000 
#
# Total GULP energy -312184.706377 kJ/mol
# GULP energy per Si atom -5574.726900 kJ/mol
# Density = 1.870860 g / cm^3
# Si number density = 18.751282 Si / 1000 Ang^3
#
#
#
# Elastic Constant Matrix: (Units=GPa)
#
#
# Indices 1 2 3 4 5 6 
#
# 1 31.4500 -11.5767 20.7142 0.0000 0.0000 0.0000
# 2 -11.5767 49.8890 27.4862 0.0000 0.0000 0.0000
# 3 20.7142 27.4862 76.2601 0.0000 0.0000 0.0000
# 4 0.0000 0.0000 0.0000 20.9787 0.0000 0.0000
# 5 0.0000 0.0000 0.0000 0.0000 20.4704 0.0000
# 6 0.0000 0.0000 0.0000 0.0000 0.0000 20.3142
#
#
#
# Elastic Compliance Matrix: (Units=1/GPa)
#
#
# Indices 1 2 3 4 5 6 
#
# 1 0.059688 0.028428 -0.026459 0.000000 0.000000 0.000000
# 2 0.028428 0.038551 -0.021616 0.000000 0.000000 0.000000
# 3 -0.026459 -0.021616 0.028091 0.000000 0.000000 0.000000
# 4 0.000000 0.000000 0.000000 0.047667 0.000000 0.000000
# 5 0.000000 0.000000 0.000000 0.000000 0.048851 0.000000
# 6 0.000000 0.000000 0.000000 0.000000 0.000000 0.049227
#
#
# Mechanical properties :
#
#
# Convention : Reuss Voigt Hill
#
# Bulk Modulus (GPa) = 11.48968 25.64960 18.56964
# Shear Modulus (GPa) = 14.68943 20.41769 17.55356
#
# Velocity S-wave (km/s) = 2.80193 3.30338 3.06294
# Velocity P-wave (km/s) = 4.07535 5.31586 4.73639
#
# Compressibility (1/GPa) = 0.08703460
#
# Stress axis : x y z
#
# Youngs Moduli (GPa) = 16.75390 25.93985 35.59851
#
# Poissons Ratio (x) = -0.73742 0.94190
# Poissons Ratio (y) = -0.47628 0.76951
# Poissons Ratio (z) = 0.44329 0.56073
#
# Static dielectric constant tensor:
#      x y z
#    x 1.653050 0.000000 0.000000 
#    y 0.000000 1.690610 0.000000 
#    z 0.000000 0.000000 1.647980 
# 
# From -- ./inp_files/6359.got.cif
#   From: 2010.05.17/outbox.cif.g08.bks.cpg/sg58_4_cif.got.tgz:6359.got - 2010.06.03 14:20:14.
