data_PCOD9441146
_publ_section_title
;
Structure prediction by ZEFSAII (Michael W. Deem and Ramdas Pophale) SiO2 
 PCOD9441146
Probable space group: P N N M
;
_chemical_formula_sum "Si O2"
_cell_formula_units_Z 64
_cell_length_a 13.340474
_cell_length_b 27.324601
_cell_length_c 7.412907
_cell_angle_alpha 90.000000
_cell_angle_beta 90.000000
_cell_angle_gamma 90.000000
_cell_volume 2702.176056
_symmetry_space_group_name_H-M "P N N M"
_symmetry_group_IT_number 58
_symmetry_cell_setting 'orthorhombic'
loop_
_space_group_symop_operation_xyz
x,y,z
-x,-y,z
1/2+x,1/2-y,1/2-z
1/2-x,1/2+y,1/2-z
-x,-y,-z
x,y,-z
1/2-x,1/2+y,1/2+z
1/2+x,1/2-y,1/2+z
loop_
_atom_site_type_symbol
_atom_site_label
_atom_site_fract_x
_atom_site_fract_y
_atom_site_fract_z
Si Si1 0.615758 0.256222 0.781230
Si Si2 0.319614 0.279323 0.720093
Si Si3 0.518475 0.091209 0.279656
Si Si4 0.648524 0.366588 0.209280
Si Si5 0.573599 0.623685 0.288704
Si Si6 0.236758 0.444790 0.217458
Si Si7 0.933857 0.307273 0.798348
Si Si8 0.194424 0.553200 0.219981
O O1 0.703006 0.217517 0.736863
O O2 0.636697 0.311471 0.718779
O O3 0.517367 0.234564 0.695131
O O4 0.603926 0.257117 0.000000
O O5 0.326630 0.278179 0.500000
O O6 0.385162 0.324488 0.787285
O O7 0.347319 0.224952 0.787745
O O8 0.523467 0.091083 0.500000
O O9 0.629948 0.077334 0.218318
O O10 0.482897 0.144873 0.217010
O O11 0.422923 0.057701 0.229561
O O12 0.536429 0.389483 0.216587
O O13 0.735461 0.401884 0.283600
O O14 0.674439 0.360045 0.000000
O O15 0.557952 0.630814 0.500000
O O16 0.664123 0.585376 0.267065
O O17 0.238770 0.501185 0.277337
O O18 0.233404 0.444426 0.000000
O O19 0.900864 0.321831 0.000000
O O20 0.196300 0.553967 0.000000
#
# Coordination Sequence:
#
# PCOD9441146 Si02
#       8
#     8   8   8   8   8   8   8   8
#     4  10  19  32  51  75 103 135 174 215 255 308
#     4   9  18  32  50  72 102 140 172 204 255 316
#     4   9  17  31  56  87 112 137 176 228 278 332
#     4  10  20  35  56  80 107 141 184 229 267 315
#     4  11  22  37  55  76 111 151 185 221 269 328
#     4  10  20  35  57  84 110 138 181 234 282 325
#     4  10  18  31  51  76 105 136 171 204 253 318
#     4   9  18  34  57  83 109 140 180 230 285 329
#
# _framework density 23.684616999999999
#
# number of rings (size 3 to 8) (size 9 to 14) (size 15 to 20)
#    0.000    2.250    1.250    2.250    0.000    5.000 
#    0.000    4.375    0.000    5.250    0.000    0.000 
#    0.000    0.000    0.000    0.000    0.000    0.000 
#
# Total GULP energy -357324.533878 kJ/mol
# GULP energy per Si atom -5583.195842 kJ/mol
# Density = 2.363071 g / cm^3
# Si number density = 23.684617 Si / 1000 Ang^3
#
#
#
# Elastic Constant Matrix: (Units=GPa)
#
#
# Indices 1 2 3 4 5 6 
#
# 1 140.0269 18.4298 0.9574 0.0000 0.0000 0.0000
# 2 18.4298 78.9323 0.9101 0.0000 0.0000 0.0000
# 3 0.9574 0.9101 82.2973 0.0000 0.0000 0.0000
# 4 0.0000 0.0000 0.0000 -2.6004 0.0000 0.0000
# 5 0.0000 0.0000 0.0000 0.0000 2.0577 0.0000
# 6 0.0000 0.0000 0.0000 0.0000 0.0000 40.2851
#
#
#
# Elastic Compliance Matrix: (Units=1/GPa)
#
#
# Indices 1 2 3 4 5 6 
#
# 1 0.007368 -0.001720 -0.000067 0.000000 0.000000 0.000000
# 2 -0.001720 0.013072 -0.000125 0.000000 0.000000 0.000000
# 3 -0.000067 -0.000125 0.012153 0.000000 0.000000 0.000000
# 4 0.000000 0.000000 0.000000 -0.384550 0.000000 0.000000
# 5 0.000000 0.000000 0.000000 0.000000 0.485972 0.000000
# 6 0.000000 0.000000 0.000000 0.000000 0.000000 0.024823
#
#
# Mechanical properties :
#
#
# Convention : Reuss Voigt Hill
#
# Bulk Modulus (GPa) = 34.75633 37.98346 36.36989
# Shear Modulus (GPa) = 29.02733 26.67910 27.85321
#
# Velocity S-wave (km/s) = 3.50462 3.35988 3.43301
# Velocity P-wave (km/s) = 5.57521 5.57886 5.57704
#
# Compressibility (1/GPa) = 0.02877174
#
# Stress axis : x y z
#
# Youngs Moduli (GPa) = 135.71702 76.49919 82.28269
#
# Poissons Ratio (x) = 0.13155 0.00549
# Poissons Ratio (y) = 0.23338 0.01025
# Poissons Ratio (z) = 0.00905 0.00953
#
# Static dielectric constant tensor:
#      x y z
#    x 1.883270 0.000000 0.000000 
#    y 0.000000 1.891130 0.000000 
#    z 0.000000 0.000000 1.932030 
# 
# From -- ./inp_files/4692.got.cif
#   From: 2010.05.17/outbox.cif.g08.bks.cpg/sg58_3_cif.got.tgz:4692.got - 2010.06.03 14:20:14.
