data_PCOD9441528
_publ_section_title
;
Structure prediction by ZEFSAII (Michael W. Deem and Ramdas Pophale) SiO2 
 PCOD9441528
Probable space group: P N N M
;
_chemical_formula_sum "Si O2"
_cell_formula_units_Z 58
_cell_length_a 26.362750
_cell_length_b 14.845166
_cell_length_c 7.468638
_cell_angle_alpha 90.000000
_cell_angle_beta 90.000000
_cell_angle_gamma 90.000000
_cell_volume 2922.921686
_symmetry_space_group_name_H-M "P N N M"
_symmetry_group_IT_number 58
_symmetry_cell_setting 'orthorhombic'
loop_
_space_group_symop_operation_xyz
x,y,z
-x,-y,z
1/2+x,1/2-y,1/2-z
1/2-x,1/2+y,1/2-z
-x,-y,-z
x,y,-z
1/2-x,1/2+y,1/2+z
1/2+x,1/2-y,1/2+z
loop_
_atom_site_type_symbol
_atom_site_label
_atom_site_fract_x
_atom_site_fract_y
_atom_site_fract_z
Si Si1 0.693740 0.355700 0.786247
Si Si2 0.394216 0.156421 0.293833
Si Si3 0.500000 0.000000 0.000000
Si Si4 0.152007 0.466326 0.283204
Si Si5 0.267168 0.453042 0.713556
Si Si6 0.492622 0.857371 0.292198
Si Si7 0.106228 0.273666 0.716238
Si Si8 0.706514 0.747244 0.280003
O O1 0.697820 0.461439 0.750518
O O2 0.643364 0.305453 0.719864
O O3 0.745009 0.306097 0.720502
O O4 0.694134 0.343519 0.000000
O O5 0.397960 0.184793 0.500000
O O6 0.450997 0.166850 0.220969
O O7 0.346446 0.210279 0.215997
O O8 0.379366 0.051526 0.283810
O O9 0.524708 0.064354 0.842157
O O10 0.150940 0.470509 0.500000
O O11 0.210288 0.473877 0.220522
O O12 0.131171 0.369068 0.228548
O O13 0.262702 0.444177 0.500000
O O14 0.286155 0.355962 0.777406
O O15 0.496364 0.886052 0.500000
O O16 0.451514 0.778112 0.280737
O O17 0.105322 0.271008 0.500000
O O18 0.706135 0.750322 0.500000
#
# Coordination Sequence:
#
# PCOD9441528 Si02
#       8
#     8   8   2   8   8   8   8   8
#     4  10  19  34  56  79 108 145 187 229 284 344
#     4  10  21  35  54  78 107 146 190 233 277 333
#     4  12  22  40  60  82 124 158 190 236 312 328
#     4  10  19  29  49  78 109 143 182 220 270 343
#     4  10  19  33  52  80 111 143 184 227 280 341
#     4  11  24  38  55  85 116 155 203 238 277 355
#     4  10  20  36  56  78 109 156 193 230 288 342
#     4   9  17  34  55  77 108 148 183 229 286 342
#
# _framework density 19.843160000000001
#
# number of rings (size 3 to 8) (size 9 to 14) (size 15 to 20)
#    0.000    1.931    3.448    1.034    2.897    2.207 
#    0.000    1.379    0.000    0.828    0.000    5.793 
#    0.000    0.000    0.000    0.000    0.000    0.000 
#
# Total GULP energy -323380.561160 kJ/mol
# GULP energy per Si atom -5575.526917 kJ/mol
# Density = 1.979800 g / cm^3
# Si number density = 19.843160 Si / 1000 Ang^3
#
#
#
# Elastic Constant Matrix: (Units=GPa)
#
#
# Indices 1 2 3 4 5 6 
#
# 1 100.2234 34.1007 8.4080 0.0000 0.0000 0.0000
# 2 34.1007 89.0466 0.0123 0.0000 0.0000 0.0000
# 3 8.4080 0.0123 78.9676 0.0000 0.0000 0.0000
# 4 0.0000 0.0000 0.0000 13.9271 0.0000 0.0000
# 5 0.0000 0.0000 0.0000 0.0000 5.2387 0.0000
# 6 0.0000 0.0000 0.0000 0.0000 0.0000 26.8783
#
#
#
# Elastic Compliance Matrix: (Units=1/GPa)
#
#
# Indices 1 2 3 4 5 6 
#
# 1 0.011591 -0.004439 -0.001234 0.000000 0.000000 0.000000
# 2 -0.004439 0.012930 0.000471 0.000000 0.000000 0.000000
# 3 -0.001234 0.000471 0.012795 0.000000 0.000000 0.000000
# 4 0.000000 0.000000 0.000000 0.071803 0.000000 0.000000
# 5 0.000000 0.000000 0.000000 0.000000 0.190888 0.000000
# 6 0.000000 0.000000 0.000000 0.000000 0.000000 0.037205
#
#
# Mechanical properties :
#
#
# Convention : Reuss Voigt Hill
#
# Bulk Modulus (GPa) = 37.15732 39.25329 38.20531
# Shear Modulus (GPa) = 14.02187 24.25657 19.13922
#
# Velocity S-wave (km/s) = 2.66114 3.50010 3.10905
# Velocity P-wave (km/s) = 5.31116 6.01323 5.67307
#
# Compressibility (1/GPa) = 0.02691260
#
# Stress axis : x y z
#
# Youngs Moduli (GPa) = 86.27013 77.34020 78.15743
#
# Poissons Ratio (x) = 0.34330 0.09641
# Poissons Ratio (y) = 0.38294 -0.03678
# Poissons Ratio (z) = 0.10641 -0.03640
#
# Static dielectric constant tensor:
#      x y z
#    x 1.757210 0.000000 0.000000 
#    y 0.000000 1.679310 0.000000 
#    z 0.000000 0.000000 1.733920 
# 
# From -- ./inp_files/6707.got.cif
#   From: 2010.05.17/outbox.cif.g08.bks.cpg/sg58_4_cif.got.tgz:6707.got - 2010.06.03 14:20:14.
