data_PCOD9441169
_publ_section_title
;
Structure prediction by ZEFSAII (Michael W. Deem and Ramdas Pophale) SiO2 
 PCOD9441169
Probable space group: P N N M
;
_chemical_formula_sum "Si O2"
_cell_formula_units_Z 56
_cell_length_a 21.575975
_cell_length_b 14.781770
_cell_length_c 7.305408
_cell_angle_alpha 90.000000
_cell_angle_beta 90.000000
_cell_angle_gamma 90.000000
_cell_volume 2329.921809
_symmetry_space_group_name_H-M "P N N M"
_symmetry_group_IT_number 58
_symmetry_cell_setting 'orthorhombic'
loop_
_space_group_symop_operation_xyz
x,y,z
-x,-y,z
1/2+x,1/2-y,1/2-z
1/2-x,1/2+y,1/2-z
-x,-y,-z
x,y,-z
1/2-x,1/2+y,1/2+z
1/2+x,1/2-y,1/2+z
loop_
_atom_site_type_symbol
_atom_site_label
_atom_site_fract_x
_atom_site_fract_y
_atom_site_fract_z
Si Si1 0.904777 0.301443 0.284869
Si Si2 0.231647 0.723599 0.780025
Si Si3 0.508652 0.647161 0.222831
Si Si4 0.572096 0.000685 0.223087
Si Si5 0.762834 0.978558 0.722263
Si Si6 0.095809 0.021347 0.722180
Si Si7 0.330136 0.862796 0.205917
O O1 0.916864 0.311999 0.500000
O O2 0.838877 0.250636 0.267358
O O3 0.960884 0.240215 0.211775
O O4 0.901032 0.403914 0.212353
O O5 0.240313 0.620475 0.722587
O O6 0.288624 0.783550 0.709005
O O7 0.235153 0.728031 0.000000
O O8 0.441012 0.611931 0.280388
O O9 0.555298 0.565741 0.273785
O O10 0.507769 0.650960 0.000000
O O11 0.500000 0.000000 0.269784
O O12 0.609817 0.088420 0.289269
O O13 0.577118 0.004345 0.000000
O O14 0.759988 0.985247 0.500000
O O15 0.833871 0.987604 0.781147
O O16 0.718891 0.054939 0.800890
O O17 0.096702 0.023218 0.500000
O O18 0.347610 0.832440 0.000000
#
# Coordination Sequence:
#
# PCOD9441169 Si02
#       7
#     8   8   8   8   8   8   8
#     4  10  18  31  53  76  97 132 177 215 251 306
#     4  10  21  33  49  74 104 136 168 208 261 310
#     4   8  14  24  42  69  96 121 156 202 249 291
#     4   9  18  32  51  75 102 132 170 215 260 306
#     4  10  19  32  51  74 100 132 168 208 251 303
#     4   8  14  25  41  67 100 124 150 201 256 293
#     4  10  20  35  52  74 106 139 170 212 264 311
#
# _framework density 24.035140999999999
#
# number of rings (size 3 to 8) (size 9 to 14) (size 15 to 20)
#    0.000    2.714    1.429    1.714    0.000    2.857 
#    0.000    5.714    0.000    2.571    0.000    6.000 
#    0.000    0.000    0.000    0.000    0.000    0.000 
#
# Total GULP energy -312772.786395 kJ/mol
# GULP energy per Si atom -5585.228328 kJ/mol
# Density = 2.398044 g / cm^3
# Si number density = 24.035141 Si / 1000 Ang^3
#
#
#
# Elastic Constant Matrix: (Units=GPa)
#
#
# Indices 1 2 3 4 5 6 
#
# 1 101.0668 -15.1987 -12.0488 0.0000 0.0000 0.0000
# 2 -15.1987 35.2707 -4.4803 0.0000 0.0000 0.0000
# 3 -12.0488 -4.4803 99.8264 0.0000 0.0000 0.0000
# 4 0.0000 0.0000 0.0000 -1.9541 0.0000 0.0000
# 5 0.0000 0.0000 0.0000 0.0000 3.9024 0.0000
# 6 0.0000 0.0000 0.0000 0.0000 0.0000 38.4721
#
#
#
# Elastic Compliance Matrix: (Units=1/GPa)
#
#
# Indices 1 2 3 4 5 6 
#
# 1 0.010805 0.004849 0.001522 0.000000 0.000000 0.000000
# 2 0.004849 0.030691 0.001963 0.000000 0.000000 0.000000
# 3 0.001522 0.001963 0.010289 0.000000 0.000000 0.000000
# 4 0.000000 0.000000 0.000000 -0.511748 0.000000 0.000000
# 5 0.000000 0.000000 0.000000 0.000000 0.256252 0.000000
# 6 0.000000 0.000000 0.000000 0.000000 0.000000 0.025993
#
#
# Mechanical properties :
#
#
# Convention : Reuss Voigt Hill
#
# Bulk Modulus (GPa) = 14.60849 19.18982 16.89915
# Shear Modulus (GPa) = -29.14295 25.94353 -1.59971
#
# Velocity S-wave (km/s) = -3.48590 3.28899 -0.81671
# Velocity P-wave (km/s) = 3.17975 4.73547 2.48132
#
# Compressibility (1/GPa) = 0.06845333
#
# Stress axis : x y z
#
# Youngs Moduli (GPa) = 92.54860 32.58271 97.18968
#
# Poissons Ratio (x) = -0.15801 -0.14790
# Poissons Ratio (y) = -0.44881 -0.19076
# Poissons Ratio (z) = -0.14084 -0.06395
#
# Static dielectric constant tensor:
#      x y z
#    x 1.899250 0.000000 0.000000 
#    y 0.000000 1.899440 0.000000 
#    z 0.000000 0.000000 1.958550 
# 
# From -- ./inp_files/8990.got.cif
#   From: 2010.05.17/outbox.cif.g08.bks.cpg/sg58_5_cif.got.tgz:8990.got - 2010.06.03 14:20:14.
