data_PCOD9441240
_publ_section_title
;
Structure prediction by ZEFSAII (Michael W. Deem and Ramdas Pophale) SiO2 
 PCOD9441240
Probable space group: P N N M
;
_chemical_formula_sum "Si O2"
_cell_formula_units_Z 64
_cell_length_a 25.031531
_cell_length_b 14.977298
_cell_length_c 8.859608
_cell_angle_alpha 90.000000
_cell_angle_beta 90.000000
_cell_angle_gamma 90.000000
_cell_volume 3321.508672
_symmetry_space_group_name_H-M "P N N M"
_symmetry_group_IT_number 58
_symmetry_cell_setting 'orthorhombic'
loop_
_space_group_symop_operation_xyz
x,y,z
-x,-y,z
1/2+x,1/2-y,1/2-z
1/2-x,1/2+y,1/2-z
-x,-y,-z
x,y,-z
1/2-x,1/2+y,1/2+z
1/2+x,1/2-y,1/2+z
loop_
_atom_site_type_symbol
_atom_site_label
_atom_site_fract_x
_atom_site_fract_y
_atom_site_fract_z
Si Si1 0.929957 0.542477 0.172466
Si Si2 0.297821 0.158186 0.681985
Si Si3 0.715763 0.636226 0.673459
Si Si4 0.995061 0.727898 0.175958
Si Si5 0.612016 0.317198 0.681756
Si Si6 0.087358 0.633037 0.323465
Si Si7 0.690982 0.452469 0.819483
Si Si8 0.157926 0.359530 0.671956
O O1 0.962923 0.633843 0.189654
O O2 0.941730 0.459594 0.279046
O O3 0.870484 0.573290 0.214509
O O4 0.935160 0.511992 0.000000
O O5 0.298694 0.155055 0.500000
O O6 0.292751 0.262380 0.727385
O O7 0.355071 0.129120 0.744431
O O8 0.246172 0.099111 0.728681
O O9 0.695903 0.628794 0.500000
O O10 0.693795 0.555899 0.773331
O O11 0.779549 0.625414 0.669507
O O12 0.950680 0.801533 0.220345
O O13 0.049496 0.713183 0.266136
O O14 0.008191 0.740438 0.000000
O O15 0.616395 0.306078 0.500000
O O16 0.640958 0.406191 0.736802
O O17 0.643923 0.238661 0.767767
O O18 0.094876 0.638977 0.500000
O O19 0.686206 0.441980 0.000000
O O20 0.137079 0.370504 0.500000
#
# Coordination Sequence:
#
# PCOD9441240 Si02
#       8
#     8   8   8   8   8   8   8   8
#     4  10  20  34  53  79 111 151 192 228 278 344
#     4  10  22  41  59  79 116 160 193 228 281 347
#     4  10  21  37  56  81 113 151 191 231 281 342
#     4   9  20  37  56  78 107 149 192 230 279 342
#     4  10  20  35  57  82 110 146 186 226 275 335
#     4  12  24  35  52  81 112 147 190 238 289 334
#     4  11  22  37  59  87 115 149 190 235 286 334
#     4  10  18  32  53  80 112 143 184 233 278 328
#
# _framework density 19.268353000000001
#
# number of rings (size 3 to 8) (size 9 to 14) (size 15 to 20)
#    0.000    1.750    1.250    4.500    0.000    9.000 
#    0.000    0.000    0.000    0.750    0.000    5.250 
#    0.000    0.000    0.000    0.000    0.000    0.000 
#
# Total GULP energy -357150.886994 kJ/mol
# GULP energy per Si atom -5580.482609 kJ/mol
# Density = 1.922450 g / cm^3
# Si number density = 19.268353 Si / 1000 Ang^3
#
#
#
# Elastic Constant Matrix: (Units=GPa)
#
#
# Indices 1 2 3 4 5 6 
#
# 1 30.5478 1.3671 2.5327 0.0000 0.0000 0.0000
# 2 1.3671 57.9029 13.4019 0.0000 0.0000 0.0000
# 3 2.5327 13.4019 29.8663 0.0000 0.0000 0.0000
# 4 0.0000 0.0000 0.0000 41.0901 0.0000 0.0000
# 5 0.0000 0.0000 0.0000 0.0000 -17.7614 0.0000
# 6 0.0000 0.0000 0.0000 0.0000 0.0000 19.8578
#
#
#
# Elastic Compliance Matrix: (Units=1/GPa)
#
#
# Indices 1 2 3 4 5 6 
#
# 1 0.032968 -0.000147 -0.002730 0.000000 0.000000 0.000000
# 2 -0.000147 0.019273 -0.008636 0.000000 0.000000 0.000000
# 3 -0.002730 -0.008636 0.037589 0.000000 0.000000 0.000000
# 4 0.000000 0.000000 0.000000 0.024337 0.000000 0.000000
# 5 0.000000 0.000000 0.000000 0.000000 -0.056302 0.000000
# 6 0.000000 0.000000 0.000000 0.000000 0.000000 0.050358
#
#
# Mechanical properties :
#
#
# Convention : Reuss Voigt Hill
#
# Bulk Modulus (GPa) = 14.96879 16.99115 15.97997
# Shear Modulus (GPa) = 32.56984 15.37164 23.97074
#
# Velocity S-wave (km/s) = 4.11582 2.82754 3.53093
# Velocity P-wave (km/s) = 5.51109 4.41557 4.99346
#
# Compressibility (1/GPa) = 0.06680566
#
# Stress axis : x y z
#
# Youngs Moduli (GPa) = 30.33203 51.88732 26.60340
#
# Poissons Ratio (x) = 0.00760 0.07263
# Poissons Ratio (y) = 0.00445 0.22974
# Poissons Ratio (z) = 0.08281 0.44808
#
# Static dielectric constant tensor:
#      x y z
#    x 1.698530 0.000000 0.000000 
#    y 0.000000 1.702990 0.000000 
#    z 0.000000 0.000000 1.660250 
# 
# From -- ./inp_files/9988.got.cif
#   From: 2010.05.17/outbox.cif.g08.bks.cpg/sg58_5_cif.got.tgz:9988.got - 2010.06.03 14:20:14.
