data_PCOD9441508
_publ_section_title
;
Structure prediction by ZEFSAII (Michael W. Deem and Ramdas Pophale) SiO2 
 PCOD9441508
Probable space group: P N N M
;
_chemical_formula_sum "Si O2"
_cell_formula_units_Z 56
_cell_length_a 29.851659
_cell_length_b 13.902949
_cell_length_c 8.974467
_cell_angle_alpha 90.000000
_cell_angle_beta 90.000000
_cell_angle_gamma 90.000000
_cell_volume 3724.637973
_symmetry_space_group_name_H-M "P N N M"
_symmetry_group_IT_number 58
_symmetry_cell_setting 'orthorhombic'
loop_
_space_group_symop_operation_xyz
x,y,z
-x,-y,z
1/2+x,1/2-y,1/2-z
1/2-x,1/2+y,1/2-z
-x,-y,-z
x,y,-z
1/2-x,1/2+y,1/2+z
1/2+x,1/2-y,1/2+z
loop_
_atom_site_type_symbol
_atom_site_label
_atom_site_fract_x
_atom_site_fract_y
_atom_site_fract_z
Si Si1 0.095958 0.107522 0.321317
Si Si2 0.320542 0.706653 0.676405
Si Si3 0.184688 0.788560 0.821269
Si Si4 0.502630 0.616782 0.171600
Si Si5 0.726529 0.896449 0.821622
Si Si6 0.593673 0.602713 0.322947
Si Si7 0.267295 0.898592 0.678486
O O1 0.095323 0.099307 0.500000
O O2 0.136591 0.172828 0.266992
O O3 0.046786 0.147184 0.275532
O O4 0.101323 0.000946 0.253231
O O5 0.330024 0.698846 0.500000
O O6 0.277626 0.638709 0.708152
O O7 0.303579 0.814643 0.707946
O O8 0.195177 0.685379 0.749229
O O9 0.135253 0.828095 0.788013
O O10 0.221259 0.861362 0.752359
O O11 0.190399 0.784402 0.000000
O O12 0.500000 0.500000 0.173166
O O13 0.546045 0.642709 0.266430
O O14 0.509182 0.646465 0.000000
O O15 0.719690 0.999803 0.748222
O O16 0.720839 0.899498 0.000000
O O17 0.592094 0.588369 0.500000
O O18 0.261606 0.905409 0.500000
#
# Coordination Sequence:
#
# PCOD9441508 Si02
#       7
#     8   8   8   8   8   8   8
#     4  10  19  29  44  66  91 120 151 183 221 264
#     4   9  19  32  45  65  91 118 150 184 218 262
#     4  10  20  32  46  67  93 120 153 188 222 265
#     4   8  16  29  42  61  89 117 147 182 219 263
#     4  10  20  33  48  67  91 120 154 188 224 266
#     4  10  19  29  44  66  91 120 151 183 221 265
#     4  10  20  33  48  67  92 121 152 187 226 265
#
# _framework density 15.035018000000001
#
# number of rings (size 3 to 8) (size 9 to 14) (size 15 to 20)
#    0.000    2.429    0.000    4.714    0.000   12.286 
#    0.000    0.000    0.000    0.000    0.000    1.000 
#    0.000    8.000    0.000    0.000    0.000    0.000 
#
# Total GULP energy -312253.256890 kJ/mol
# GULP energy per Si atom -5575.951016 kJ/mol
# Density = 1.500080 g / cm^3
# Si number density = 15.035018 Si / 1000 Ang^3
#
#
#
# Elastic Constant Matrix: (Units=GPa)
#
#
# Indices 1 2 3 4 5 6 
#
# 1 136.3258 57.0466 70.5307 0.0000 0.0000 0.0000
# 2 57.0466 85.6464 47.4961 0.0000 0.0000 0.0000
# 3 70.5307 47.4961 68.2221 0.0000 0.0000 0.0000
# 4 0.0000 0.0000 0.0000 43.8822 0.0000 0.0000
# 5 0.0000 0.0000 0.0000 0.0000 28.6834 0.0000
# 6 0.0000 0.0000 0.0000 0.0000 0.0000 17.7418
#
#
#
# Elastic Compliance Matrix: (Units=1/GPa)
#
#
# Indices 1 2 3 4 5 6 
#
# 1 0.016075 -0.002428 -0.014928 0.000000 0.000000 0.000000
# 2 -0.002428 0.019386 -0.010986 0.000000 0.000000 0.000000
# 3 -0.014928 -0.010986 0.037740 0.000000 0.000000 0.000000
# 4 0.000000 0.000000 0.000000 0.022788 0.000000 0.000000
# 5 0.000000 0.000000 0.000000 0.000000 0.034863 0.000000
# 6 0.000000 0.000000 0.000000 0.000000 0.000000 0.056364
#
#
# Mechanical properties :
#
#
# Convention : Reuss Voigt Hill
#
# Bulk Modulus (GPa) = 60.54897 71.14898 65.84898
# Shear Modulus (GPa) = 20.04766 25.73621 22.89194
#
# Velocity S-wave (km/s) = 3.65553 4.14182 3.90625
# Velocity P-wave (km/s) = 7.62736 8.38438 8.01481
#
# Compressibility (1/GPa) = 0.01651556
#
# Stress axis : x y z
#
# Youngs Moduli (GPa) = 62.20842 51.58466 26.49740
#
# Poissons Ratio (x) = 0.12527 0.39556
# Poissons Ratio (y) = 0.15107 0.29109
# Poissons Ratio (z) = 0.92866 0.56669
#
# Static dielectric constant tensor:
#      x y z
#    x 1.505210 0.000000 0.000000 
#    y 0.000000 1.475700 0.000000 
#    z 0.000000 0.000000 1.501030 
# 
# From -- ./inp_files/11097.got.cif
#   From: 2010.05.17/outbox.cif.g08.bks.cpg/sg58_6_cif.got.tgz:11097.got - 2010.06.03 14:20:14.
