data_PCOD9441595
_publ_section_title
;
Structure prediction by ZEFSAII (Michael W. Deem and Ramdas Pophale) SiO2 
 PCOD9441595
Probable space group: P N N M
;
_chemical_formula_sum "Si O2"
_cell_formula_units_Z 28
_cell_length_a 10.486761
_cell_length_b 19.511351
_cell_length_c 5.665022
_cell_angle_alpha 90.000000
_cell_angle_beta 90.000000
_cell_angle_gamma 90.000000
_cell_volume 1159.125107
_symmetry_space_group_name_H-M "P N N M"
_symmetry_group_IT_number 58
_symmetry_cell_setting 'orthorhombic'
loop_
_space_group_symop_operation_xyz
x,y,z
-x,-y,z
1/2+x,1/2-y,1/2-z
1/2-x,1/2+y,1/2-z
-x,-y,-z
x,y,-z
1/2-x,1/2+y,1/2+z
1/2+x,1/2-y,1/2+z
loop_
_atom_site_type_symbol
_atom_site_label
_atom_site_fract_x
_atom_site_fract_y
_atom_site_fract_z
Si Si1 0.708920 0.924541 0.500000
Si Si2 0.460833 0.298387 0.500000
Si Si3 0.859072 0.033764 0.749497
Si Si4 0.062505 0.358301 0.000000
Si Si5 0.570866 0.317264 0.000000
Si Si6 0.329832 0.832398 0.000000
O O1 0.758129 0.971877 0.715844
O O2 0.561962 0.906214 0.500000
O O3 0.794813 0.856609 0.500000
O O4 0.516879 0.221165 0.500000
O O5 0.508559 0.333307 0.256133
O O6 0.308825 0.297205 0.500000
O O7 0.852499 0.071914 0.500000
O O8 0.837082 0.068172 0.000000
O O9 0.000000 0.000000 0.754282
O O10 0.136475 0.368380 0.750877
O O11 0.579297 0.235162 0.000000
#
# Coordination Sequence:
#
# PCOD9441595 Si02
#       6
#     4   4   8   4   4   4
#     4  10  19  30  48  78  96 118 160 196 221 304
#     4  10  20  36  43  63  93 130 162 198 224 270
#     4   8  16  28  44  66 100 124 134 182 244 295
#     4  10  21  29  51  66  89 126 161 195 237 259
#     4  10  21  29  51  66  89 126 161 195 237 259
#     4  10  20  36  43  63  93 130 162 198 224 270
#
# _framework density 24.15615
#
# number of rings (size 3 to 8) (size 9 to 14) (size 15 to 20)
#    0.857    1.714    1.429    0.857    4.000    0.000 
#    0.000    0.000    0.000    0.000    0.000    0.000 
#    0.000   27.429    0.000    0.000    0.000    0.000 
#
# Total GULP energy -156304.613891 kJ/mol
# GULP energy per Si atom -5582.307639 kJ/mol
# Density = 2.410117 g / cm^3
# Si number density = 24.156150 Si / 1000 Ang^3
#
#
#
# Elastic Constant Matrix: (Units=GPa)
#
#
# Indices 1 2 3 4 5 6 
#
# 1 121.0661 -0.8998 93.0264 0.0000 0.0000 0.0000
# 2 -0.8998 62.0967 34.4517 0.0000 0.0000 0.0000
# 3 93.0264 34.4517 275.3999 0.0000 0.0000 0.0000
# 4 0.0000 0.0000 0.0000 63.3479 0.0000 0.0000
# 5 0.0000 0.0000 0.0000 0.0000 215.2745 0.0000
# 6 0.0000 0.0000 0.0000 0.0000 0.0000 39.7158
#
#
#
# Elastic Compliance Matrix: (Units=1/GPa)
#
#
# Indices 1 2 3 4 5 6 
#
# 1 0.011504 0.002496 -0.004198 0.000000 0.000000 0.000000
# 2 0.002496 0.017846 -0.003076 0.000000 0.000000 0.000000
# 3 -0.004198 -0.003076 0.005434 0.000000 0.000000 0.000000
# 4 0.000000 0.000000 0.000000 0.015786 0.000000 0.000000
# 5 0.000000 0.000000 0.000000 0.000000 0.004645 0.000000
# 6 0.000000 0.000000 0.000000 0.000000 0.000000 0.025179
#
#
# Mechanical properties :
#
#
# Convention : Reuss Voigt Hill
#
# Bulk Modulus (GPa) = 39.63706 79.07992 59.35849
# Shear Modulus (GPa) = 50.83346 85.79994 68.31670
#
# Velocity S-wave (km/s) = 4.59232 5.96624 5.32378
# Velocity P-wave (km/s) = 6.67559 8.95932 7.90041
#
# Compressibility (1/GPa) = 0.02522892
#
# Stress axis : x y z
#
# Youngs Moduli (GPa) = 86.92302 56.03349 184.02784
#
# Poissons Ratio (x) = -0.13986 0.77260
# Poissons Ratio (y) = -0.21696 0.56600
# Poissons Ratio (z) = 0.36493 0.17234
#
# Static dielectric constant tensor:
#      x y z
#    x 1.922710 0.000000 0.000000 
#    y 0.000000 1.933340 0.000000 
#    z 0.000000 0.000000 1.936850 
# 
# From -- ./inp_files/264.got.cif
#   From: 2010.05.17/outbox.cif.g08.bks.cpg/sg58_1_cif.got.tgz:264.got - 2010.06.03 14:20:14.
