data_PCOD9441246
_publ_section_title
;
Structure prediction by ZEFSAII (Michael W. Deem and Ramdas Pophale) SiO2 
 PCOD9441246
Probable space group: P N N M
;
_chemical_formula_sum "Si O2"
_cell_formula_units_Z 48
_cell_length_a 18.663158
_cell_length_b 17.093757
_cell_length_c 7.656755
_cell_angle_alpha 90.000000
_cell_angle_beta 90.000000
_cell_angle_gamma 90.000000
_cell_volume 2442.684685
_symmetry_space_group_name_H-M "P N N M"
_symmetry_group_IT_number 58
_symmetry_cell_setting 'orthorhombic'
loop_
_space_group_symop_operation_xyz
x,y,z
-x,-y,z
1/2+x,1/2-y,1/2-z
1/2-x,1/2+y,1/2-z
-x,-y,-z
x,y,-z
1/2-x,1/2+y,1/2+z
1/2+x,1/2-y,1/2+z
loop_
_atom_site_type_symbol
_atom_site_label
_atom_site_fract_x
_atom_site_fract_y
_atom_site_fract_z
Si Si1 0.104366 0.821095 0.701223
Si Si2 0.082654 0.992384 0.286182
Si Si3 0.670783 0.840102 0.297617
Si Si4 0.958269 0.745892 0.793345
Si Si5 0.331011 0.645342 0.788933
Si Si6 0.474981 0.085085 0.713834
O O1 0.127350 0.820497 0.500000
O O2 0.112744 0.908461 0.772331
O O3 0.145675 0.750065 0.790750
O O4 0.019822 0.799731 0.708596
O O5 0.082640 0.991134 0.500000
O O6 0.128709 0.066677 0.229176
O O7 0.000000 0.000000 0.231133
O O8 0.676037 0.863723 0.500000
O O9 0.749869 0.849679 0.221427
O O10 0.604373 0.889961 0.223559
O O11 0.880678 0.781194 0.758858
O O12 0.972752 0.656753 0.735873
O O13 0.972213 0.748887 0.000000
O O14 0.328998 0.643254 0.000000
O O15 0.473700 0.083658 0.500000
O O16 0.500000 0.000000 0.772952
#
# Coordination Sequence:
#
# PCOD9441246 Si02
#       6
#     8   8   8   8   8   8
#     4  10  18  32  54  75  99 133 169 206 247 299
#     4   9  16  29  51  77  99 127 172 209 240 299
#     4   9  19  34  52  73 101 135 169 210 261 307
#     4  10  19  31  51  78 102 128 167 209 253 304
#     4  10  19  34  52  72 103 139 170 207 258 306
#     4   8  15  31  52  73  95 125 169 215 249 290
#
# _framework density 19.650509
#
# number of rings (size 3 to 8) (size 9 to 14) (size 15 to 20)
#    0.000    2.667    1.667    2.000    0.000    0.667 
#    3.000    2.500    0.000   12.500    0.000    0.000 
#    0.000    0.000    0.000    0.000    0.000    0.000 
#
# Total GULP energy -267715.218751 kJ/mol
# GULP energy per Si atom -5577.400391 kJ/mol
# Density = 1.960578 g / cm^3
# Si number density = 19.650509 Si / 1000 Ang^3
#
#
#
# Elastic Constant Matrix: (Units=GPa)
#
#
# Indices 1 2 3 4 5 6 
#
# 1 161.4970 99.0412 -0.4435 0.0000 0.0000 0.0000
# 2 99.0412 164.4921 1.0354 0.0000 0.0000 0.0000
# 3 -0.4435 1.0354 38.9745 0.0000 0.0000 0.0000
# 4 0.0000 0.0000 0.0000 16.0300 0.0000 0.0000
# 5 0.0000 0.0000 0.0000 0.0000 15.1739 0.0000
# 6 0.0000 0.0000 0.0000 0.0000 0.0000 21.2640
#
#
#
# Elastic Compliance Matrix: (Units=1/GPa)
#
#
# Indices 1 2 3 4 5 6 
#
# 1 0.009820 -0.005914 0.000269 0.000000 0.000000 0.000000
# 2 -0.005914 0.009642 -0.000323 0.000000 0.000000 0.000000
# 3 0.000269 -0.000323 0.025669 0.000000 0.000000 0.000000
# 4 0.000000 0.000000 0.000000 0.062383 0.000000 0.000000
# 5 0.000000 0.000000 0.000000 0.000000 0.065903 0.000000
# 6 0.000000 0.000000 0.000000 0.000000 0.000000 0.047028
#
#
# Mechanical properties :
#
#
# Convention : Reuss Voigt Hill
#
# Bulk Modulus (GPa) = 30.12599 62.69220 46.40909
# Shear Modulus (GPa) = 20.53832 28.18229 24.36030
#
# Velocity S-wave (km/s) = 3.23643 3.79116 3.52473
# Velocity P-wave (km/s) = 5.41573 7.15099 6.34298
#
# Compressibility (1/GPa) = 0.03319393
#
# Stress axis : x y z
#
# Youngs Moduli (GPa) = 101.83473 103.70926 38.95682
#
# Poissons Ratio (x) = 0.61336 -0.01047
# Poissons Ratio (y) = 0.60228 0.01260
# Poissons Ratio (z) = -0.02738 0.03354
#
# Static dielectric constant tensor:
#      x y z
#    x 1.673340 0.000000 0.000000 
#    y 0.000000 1.678150 0.000000 
#    z 0.000000 0.000000 1.753440 
# 
# From -- ./inp_files/7870.got.cif
#   From: 2010.05.17/outbox.cif.g08.bks.cpg/sg58_4_cif.got.tgz:7870.got - 2010.06.03 14:20:14.
