data_PCOD9441716
_publ_section_title
;
Structure prediction by ZEFSAII (Michael W. Deem and Ramdas Pophale) SiO2 
 PCOD9441716
Probable space group: P N N M
;
_chemical_formula_sum "Si O2"
_cell_formula_units_Z 58
_cell_length_a 15.116292
_cell_length_b 23.762378
_cell_length_c 7.410620
_cell_angle_alpha 90.000000
_cell_angle_beta 90.000000
_cell_angle_gamma 90.000000
_cell_volume 2661.887623
_symmetry_space_group_name_H-M "P N N M"
_symmetry_group_IT_number 58
_symmetry_cell_setting 'orthorhombic'
loop_
_space_group_symop_operation_xyz
x,y,z
-x,-y,z
1/2+x,1/2-y,1/2-z
1/2-x,1/2+y,1/2-z
-x,-y,-z
x,y,-z
1/2-x,1/2+y,1/2+z
1/2+x,1/2-y,1/2+z
loop_
_atom_site_type_symbol
_atom_site_label
_atom_site_fract_x
_atom_site_fract_y
_atom_site_fract_z
Si Si1 0.134285 0.479213 0.281277
Si Si2 0.461392 0.199730 0.212192
Si Si3 0.177954 0.607042 0.280684
Si Si4 0.052595 0.829336 0.781617
Si Si5 0.647808 0.333473 0.720367
Si Si6 0.217706 0.894661 0.797452
Si Si7 0.000000 0.500000 0.000000
Si Si8 0.664338 0.207316 0.705848
O O1 0.121311 0.473529 0.500000
O O2 0.150641 0.544355 0.229715
O O3 0.219960 0.443521 0.223527
O O4 0.050831 0.463197 0.160679
O O5 0.391214 0.154388 0.281576
O O6 0.429122 0.264136 0.234482
O O7 0.559363 0.195864 0.292982
O O8 0.472667 0.189194 0.000000
O O9 0.177964 0.608278 0.500000
O O10 0.276762 0.623515 0.222558
O O11 0.127168 0.871983 0.713012
O O12 0.952923 0.843502 0.721478
O O13 0.054323 0.831467 0.000000
O O14 0.646138 0.332393 0.500000
O O15 0.674747 0.270492 0.778064
O O16 0.281159 0.840244 0.804666
O O17 0.195345 0.913846 0.000000
O O18 0.696445 0.206649 0.500000
#
# Coordination Sequence:
#
# PCOD9441716 Si02
#       8
#     8   8   8   8   8   8   2   8
#     4  10  24  42  61  87 118 155 195 240 289 343
#     4  10  19  31  51  80 111 146 185 227 284 343
#     4   9  18  34  55  77 109 148 190 236 284 338
#     4   9  18  34  54  81 113 147 186 234 283 340
#     4   8  15  31  54  80 107 143 188 236 282 339
#     4  10  21  36  54  79 115 150 188 236 287 340
#     4  12  26  44  64  86 118 152 202 240 288 344
#     4  10  20  32  53  81 111 146 189 233 283 344
#
# _framework density 21.78905
#
# number of rings (size 3 to 8) (size 9 to 14) (size 15 to 20)
#    0.000    2.483    0.000    2.690    2.897    1.655 
#    1.241    0.690    7.586    4.138    0.000    0.966 
#    0.000    0.000    0.000    0.000    0.000    0.276 
#
# Total GULP energy -323356.476303 kJ/mol
# GULP energy per Si atom -5575.111660 kJ/mol
# Density = 2.173946 g / cm^3
# Si number density = 21.789050 Si / 1000 Ang^3
#
#
#
# Elastic Constant Matrix: (Units=GPa)
#
#
# Indices 1 2 3 4 5 6 
#
# 1 88.4276 53.6285 0.4309 0.0000 0.0000 0.0000
# 2 53.6285 64.4115 2.0639 0.0000 0.0000 0.0000
# 3 0.4309 2.0639 89.7856 0.0000 0.0000 0.0000
# 4 0.0000 0.0000 0.0000 4.7434 0.0000 0.0000
# 5 0.0000 0.0000 0.0000 0.0000 16.3484 0.0000
# 6 0.0000 0.0000 0.0000 0.0000 0.0000 17.9980
#
#
#
# Elastic Compliance Matrix: (Units=1/GPa)
#
#
# Indices 1 2 3 4 5 6 
#
# 1 0.022853 -0.019038 0.000328 0.000000 0.000000 0.000000
# 2 -0.019038 0.031396 -0.000630 0.000000 0.000000 0.000000
# 3 0.000328 -0.000630 0.011151 0.000000 0.000000 0.000000
# 4 0.000000 0.000000 0.000000 0.210818 0.000000 0.000000
# 5 0.000000 0.000000 0.000000 0.000000 0.061168 0.000000
# 6 0.000000 0.000000 0.000000 0.000000 0.000000 0.055562
#
#
# Mechanical properties :
#
#
# Convention : Reuss Voigt Hill
#
# Bulk Modulus (GPa) = 37.42607 39.43015 38.42811
# Shear Modulus (GPa) = 11.34989 20.25139 15.80064
#
# Velocity S-wave (km/s) = 2.28480 3.05196 2.69581
# Velocity P-wave (km/s) = 4.91673 5.52765 5.23112
#
# Compressibility (1/GPa) = 0.02671934
#
# Stress axis : x y z
#
# Youngs Moduli (GPa) = 43.75835 31.85127 89.68159
#
# Poissons Ratio (x) = 0.60637 -0.02941
# Poissons Ratio (y) = 0.83305 0.05653
# Poissons Ratio (z) = -0.01435 0.02008
#
# Static dielectric constant tensor:
#      x y z
#    x 1.824980 0.000000 0.000000 
#    y 0.000000 1.774640 0.000000 
#    z 0.000000 0.000000 1.842880 
# 
# From -- ./inp_files/6673.got.cif
#   From: 2010.05.17/outbox.cif.g08.bks.cpg/sg58_4_cif.got.tgz:6673.got - 2010.06.03 14:20:14.
