data_PCOD9441170
_publ_section_title
;
Structure prediction by ZEFSAII (Michael W. Deem and Ramdas Pophale) SiO2 
 PCOD9441170
Probable space group: P N N M
;
_chemical_formula_sum "Si O2"
_cell_formula_units_Z 64
_cell_length_a 12.812587
_cell_length_b 15.737489
_cell_length_c 18.807122
_cell_angle_alpha 90.000000
_cell_angle_beta 90.000000
_cell_angle_gamma 90.000000
_cell_volume 3792.229469
_symmetry_space_group_name_H-M "P N N M"
_symmetry_group_IT_number 58
_symmetry_cell_setting 'orthorhombic'
loop_
_space_group_symop_operation_xyz
x,y,z
-x,-y,z
1/2+x,1/2-y,1/2-z
1/2-x,1/2+y,1/2-z
-x,-y,-z
x,y,-z
1/2-x,1/2+y,1/2+z
1/2+x,1/2-y,1/2+z
loop_
_atom_site_type_symbol
_atom_site_label
_atom_site_fract_x
_atom_site_fract_y
_atom_site_fract_z
Si Si1 0.380255 0.834099 0.812269
Si Si2 0.889427 0.452022 0.921341
Si Si3 0.667082 0.281504 0.316772
Si Si4 0.390988 0.178427 0.791621
Si Si5 0.693277 0.620695 0.416548
Si Si6 0.046252 0.730485 0.134096
Si Si7 0.684909 0.002215 0.270930
Si Si8 0.380769 0.520313 0.314394
O O1 0.346586 0.754991 0.763095
O O2 0.500608 0.823477 0.834182
O O3 0.296940 0.849643 0.874184
O O4 0.375068 0.916080 0.759640
O O5 0.912721 0.353428 0.904810
O O6 0.827234 0.489198 0.854533
O O7 0.000000 0.500000 0.920639
O O8 0.842619 0.461464 0.000000
O O9 0.791339 0.279322 0.329759
O O10 0.580021 0.234087 0.364151
O O11 0.634209 0.379475 0.320952
O O12 0.417718 0.224593 0.716768
O O13 0.358162 0.082611 0.768354
O O14 0.711636 0.616051 0.500000
O O15 0.601017 0.687582 0.399488
O O16 0.658011 0.530754 0.383641
O O17 0.804541 0.011655 0.247829
O O18 0.500000 0.500000 0.300555
#
# Coordination Sequence:
#
# PCOD9441170 Si02
#       8
#     8   8   8   8   8   8   8   8
#     4  10  19  32  55  80 104 135 182 224 265 311
#     4  10  19  32  50  78 109 137 168 215 278 330
#     4  10  18  31  53  77 104 131 174 226 264 303
#     4   9  17  30  52  76 105 129 169 227 267 306
#     4  11  22  36  53  76 111 147 180 218 265 320
#     4  10  18  32  50  78 109 134 176 217 268 314
#     4   9  18  31  53  77 102 134 172 222 270 311
#     4  10  20  35  52  76 105 138 180 219 262 310
#
# _framework density 16.876617
#
# number of rings (size 3 to 8) (size 9 to 14) (size 15 to 20)
#    0.000    2.125    2.500    3.000    0.000    0.250 
#    0.000    0.000    0.000   16.125    0.000    1.750 
#    0.000    0.000    0.000    0.000    0.000    0.000 
#
# Total GULP energy -356742.113259 kJ/mol
# GULP energy per Si atom -5574.095520 kJ/mol
# Density = 1.683820 g / cm^3
# Si number density = 16.876617 Si / 1000 Ang^3
#
#
#
# Elastic Constant Matrix: (Units=GPa)
#
#
# Indices 1 2 3 4 5 6 
#
# 1 137.7405 10.2018 40.2139 0.0000 0.0000 0.0000
# 2 10.2018 66.4822 32.4432 0.0000 0.0000 0.0000
# 3 40.2139 32.4432 97.3635 0.0000 0.0000 0.0000
# 4 0.0000 0.0000 0.0000 5.0184 0.0000 0.0000
# 5 0.0000 0.0000 0.0000 0.0000 9.5980 0.0000
# 6 0.0000 0.0000 0.0000 0.0000 0.0000 17.8626
#
#
#
# Elastic Compliance Matrix: (Units=1/GPa)
#
#
# Indices 1 2 3 4 5 6 
#
# 1 0.008268 0.000475 -0.003573 0.000000 0.000000 0.000000
# 2 0.000475 0.017990 -0.006191 0.000000 0.000000 0.000000
# 3 -0.003573 -0.006191 0.013809 0.000000 0.000000 0.000000
# 4 0.000000 0.000000 0.000000 0.199265 0.000000 0.000000
# 5 0.000000 0.000000 0.000000 0.000000 0.104188 0.000000
# 6 0.000000 0.000000 0.000000 0.000000 0.000000 0.055983
#
#
# Mechanical properties :
#
#
# Convention : Reuss Voigt Hill
#
# Bulk Modulus (GPa) = 46.53442 51.92267 49.22855
# Shear Modulus (GPa) = 11.75794 21.07764 16.41779
#
# Velocity S-wave (km/s) = 2.64237 3.53785 3.12238
# Velocity P-wave (km/s) = 6.07805 6.89357 6.49862
#
# Compressibility (1/GPa) = 0.02148947
#
# Stress axis : x y z
#
# Youngs Moduli (GPa) = 120.94731 55.58706 72.41403
#
# Poissons Ratio (x) = -0.02640 0.25875
# Poissons Ratio (y) = -0.05745 0.44829
# Poissons Ratio (z) = 0.43217 0.34412
#
# Static dielectric constant tensor:
#      x y z
#    x 1.603200 0.000000 0.000000 
#    y 0.000000 1.592050 0.000000 
#    z 0.000000 0.000000 1.546850 
# 
# From -- ./inp_files/26348.got.cif
#   From: 2010.05.17/outbox.cif.g08.bks.cpg/sg58_14_cif.got.tgz:26348.got - 2010.06.03 14:20:14.
