data_PCOD9441036
_publ_section_title
;
Structure prediction by ZEFSAII (Michael W. Deem and Ramdas Pophale) SiO2 
 PCOD9441036
Probable space group: P N N M
;
_chemical_formula_sum "Si O2"
_cell_formula_units_Z 52
_cell_length_a 9.468639
_cell_length_b 16.491733
_cell_length_c 17.032139
_cell_angle_alpha 90.000000
_cell_angle_beta 90.000000
_cell_angle_gamma 90.000000
_cell_volume 2659.641168
_symmetry_space_group_name_H-M "P N N M"
_symmetry_group_IT_number 58
_symmetry_cell_setting 'orthorhombic'
loop_
_space_group_symop_operation_xyz
x,y,z
-x,-y,z
1/2+x,1/2-y,1/2-z
1/2-x,1/2+y,1/2-z
-x,-y,-z
x,y,-z
1/2-x,1/2+y,1/2+z
1/2+x,1/2-y,1/2+z
loop_
_atom_site_type_symbol
_atom_site_label
_atom_site_fract_x
_atom_site_fract_y
_atom_site_fract_z
Si Si1 0.000000 0.500000 0.782608
Si Si2 0.019373 0.113657 0.590617
Si Si3 0.679188 0.212409 0.913355
Si Si4 0.796299 0.470332 0.092246
Si Si5 0.222418 0.777194 0.592041
Si Si6 0.950307 0.340641 0.698266
Si Si7 0.451121 0.202177 0.374889
O O1 0.876978 0.525070 0.844289
O O2 0.067466 0.568097 0.727875
O O3 0.997074 0.091863 0.500000
O O4 0.106985 0.198426 0.592541
O O5 0.134987 0.048167 0.618389
O O6 0.868011 0.144120 0.621156
O O7 0.600245 0.163752 0.845920
O O8 0.844552 0.228662 0.904109
O O9 0.648932 0.179494 0.000000
O O10 0.881033 0.383722 0.098164
O O11 0.802153 0.495544 0.000000
O O12 0.185801 0.765853 0.500000
O O13 0.389063 0.788709 0.597700
O O14 0.164931 0.701037 0.642178
O O15 0.952241 0.293335 0.780525
#
# Coordination Sequence:
#
# PCOD9441036 Si02
#       7
#     4   8   8   8   8   8   8
#     4  10  21  32  47  68  96 136 184 210 231 288
#     4   7  13  25  45  70  95 118 148 189 241 291
#     4   9  16  30  49  71  96 126 159 197 246 299
#     4   9  16  30  50  73  99 130 162 201 247 303
#     4  10  18  31  52  79 102 125 159 205 257 310
#     4  10  20  33  47  70 102 134 164 204 248 291
#     4  10  18  29  52  82 104 120 153 207 263 306
#
# _framework density 19.551508999999999
#
# number of rings (size 3 to 8) (size 9 to 14) (size 15 to 20)
#    0.000    2.769    0.000    4.846    0.000    1.231 
#    0.000    1.538    0.000    8.308    0.000   16.154 
#    0.000    0.000    0.000    0.000    0.000    0.000 
#
# Total GULP energy -289670.998699 kJ/mol
# GULP energy per Si atom -5570.596129 kJ/mol
# Density = 1.950701 g / cm^3
# Si number density = 19.551509 Si / 1000 Ang^3
#
#
#
# Elastic Constant Matrix: (Units=GPa)
#
#
# Indices 1 2 3 4 5 6 
#
# 1 153.3225 21.1120 16.3371 0.0000 0.0000 0.0000
# 2 21.1120 40.1687 19.5274 0.0000 0.0000 0.0000
# 3 16.3371 19.5274 93.7943 0.0000 0.0000 0.0000
# 4 0.0000 0.0000 0.0000 12.9886 0.0000 0.0000
# 5 0.0000 0.0000 0.0000 0.0000 21.8351 0.0000
# 6 0.0000 0.0000 0.0000 0.0000 0.0000 21.6121
#
#
#
# Elastic Compliance Matrix: (Units=1/GPa)
#
#
# Indices 1 2 3 4 5 6 
#
# 1 0.007053 -0.003460 -0.000508 0.000000 0.000000 0.000000
# 2 -0.003460 0.029396 -0.005517 0.000000 0.000000 0.000000
# 3 -0.000508 -0.005517 0.011899 0.000000 0.000000 0.000000
# 4 0.000000 0.000000 0.000000 0.076991 0.000000 0.000000
# 5 0.000000 0.000000 0.000000 0.000000 0.045798 0.000000
# 6 0.000000 0.000000 0.000000 0.000000 0.000000 0.046270
#
#
# Mechanical properties :
#
#
# Convention : Reuss Voigt Hill
#
# Bulk Modulus (GPa) = 34.04070 44.58206 39.31138
# Shear Modulus (GPa) = 20.31127 26.64110 23.47618
#
# Velocity S-wave (km/s) = 3.22663 3.69536 3.46892
# Velocity P-wave (km/s) = 5.59733 6.40776 6.01621
#
# Compressibility (1/GPa) = 0.02937660
#
# Stress axis : x y z
#
# Youngs Moduli (GPa) = 141.78882 34.01868 84.04190
#
# Poissons Ratio (x) = 0.11770 0.04271
# Poissons Ratio (y) = 0.49056 0.46369
# Poissons Ratio (z) = 0.07205 0.18769
#
# Static dielectric constant tensor:
#      x y z
#    x 1.759690 0.000000 0.000000 
#    y 0.000000 1.755680 0.000000 
#    z 0.000000 0.000000 1.675380 
# 
# From -- ./inp_files/20048.got.cif
#   From: 2010.05.17/outbox.cif.g08.bks.cpg/sg58_11_cif.got.tgz:20048.got - 2010.06.03 14:20:14.
