data_PCOD9441286
_publ_section_title
;
Structure prediction by ZEFSAII (Michael W. Deem and Ramdas Pophale) SiO2 
 PCOD9441286
Probable space group: P N N M
;
_chemical_formula_sum "Si O2"
_cell_formula_units_Z 48
_cell_length_a 15.243845
_cell_length_b 6.831824
_cell_length_c 19.044178
_cell_angle_alpha 90.000000
_cell_angle_beta 90.000000
_cell_angle_gamma 90.000000
_cell_volume 1983.322898
_symmetry_space_group_name_H-M "P N N M"
_symmetry_group_IT_number 58
_symmetry_cell_setting 'orthorhombic'
loop_
_space_group_symop_operation_xyz
x,y,z
-x,-y,z
1/2+x,1/2-y,1/2-z
1/2-x,1/2+y,1/2-z
-x,-y,-z
x,y,-z
1/2-x,1/2+y,1/2+z
1/2+x,1/2-y,1/2+z
loop_
_atom_site_type_symbol
_atom_site_label
_atom_site_fract_x
_atom_site_fract_y
_atom_site_fract_z
Si Si1 0.665037 0.672089 0.313226
Si Si2 0.820943 0.805191 0.082950
Si Si3 0.982338 0.734255 0.422108
Si Si4 0.138304 0.330053 0.701330
Si Si5 0.651160 0.706531 0.161674
Si Si6 0.982211 0.765213 0.165146
O O1 0.678830 0.512642 0.374756
O O2 0.855395 0.435332 0.312862
O O3 0.638738 0.595020 0.235205
O O4 0.582821 0.807492 0.335488
O O5 0.743426 0.685076 0.121485
O O6 0.918184 0.725764 0.099914
O O7 0.804921 0.824508 0.000000
O O8 0.960701 0.798379 0.500000
O O9 0.071251 0.823058 0.391284
O O10 0.000000 0.500000 0.424549
O O11 0.905067 0.759418 0.367479
O O12 0.237744 0.252910 0.704978
O O13 0.073060 0.296203 0.766432
O O14 0.000000 0.000000 0.166399
#
# Coordination Sequence:
#
# PCOD9441286 Si02
#       6
#     8   8   8   8   8   8
#     4  10  20  32  53  82 107 146 186 232 279 335
#     4  10  21  36  56  84 117 148 188 237 282 332
#     4   9  17  29  49  78 108 136 174 230 287 327
#     4  10  19  32  51  78 111 142 185 228 278 337
#     4  10  18  32  56  84 110 143 186 235 283 337
#     4  10  20  34  53  79 111 149 185 232 277 338
#
# _framework density 24.201808
#
# number of rings (size 3 to 8) (size 9 to 14) (size 15 to 20)
#    0.000    2.167    3.333    0.500    0.000    7.000 
#    0.000    0.000    0.000    1.500    0.000    5.833 
#    0.000    0.000    0.000    0.000    0.000    0.000 
#
# Total GULP energy -268237.723208 kJ/mol
# GULP energy per Si atom -5588.285900 kJ/mol
# Density = 2.414672 g / cm^3
# Si number density = 24.201808 Si / 1000 Ang^3
#
#
#
# Elastic Constant Matrix: (Units=GPa)
#
#
# Indices 1 2 3 4 5 6 
#
# 1 136.2661 -15.8196 16.2569 0.0000 0.0000 0.0000
# 2 -15.8196 83.7632 3.1031 0.0000 0.0000 0.0000
# 3 16.2569 3.1031 163.1963 0.0000 0.0000 0.0000
# 4 0.0000 0.0000 0.0000 27.2253 0.0000 0.0000
# 5 0.0000 0.0000 0.0000 0.0000 35.7211 0.0000
# 6 0.0000 0.0000 0.0000 0.0000 0.0000 17.0099
#
#
#
# Elastic Compliance Matrix: (Units=1/GPa)
#
#
# Indices 1 2 3 4 5 6 
#
# 1 0.007602 0.001465 -0.000785 0.000000 0.000000 0.000000
# 2 0.001465 0.012229 -0.000378 0.000000 0.000000 0.000000
# 3 -0.000785 -0.000378 0.006213 0.000000 0.000000 0.000000
# 4 0.000000 0.000000 0.000000 0.036731 0.000000 0.000000
# 5 0.000000 0.000000 0.000000 0.000000 0.027995 0.000000
# 6 0.000000 0.000000 0.000000 0.000000 0.000000 0.058789
#
#
# Mechanical properties :
#
#
# Convention : Reuss Voigt Hill
#
# Bulk Modulus (GPa) = 37.52779 43.36737 40.44758
# Shear Modulus (GPa) = 31.67789 41.30360 36.49075
#
# Velocity S-wave (km/s) = 3.62181 4.13562 3.88721
# Velocity P-wave (km/s) = 5.74716 6.38455 6.07422
#
# Compressibility (1/GPa) = 0.02664692
#
# Stress axis : x y z
#
# Youngs Moduli (GPa) = 131.53891 81.77216 160.95281
#
# Poissons Ratio (x) = -0.11979 0.12637
# Poissons Ratio (y) = -0.19269 0.06091
# Poissons Ratio (z) = 0.10328 0.03095
#
# Static dielectric constant tensor:
#      x y z
#    x 1.966370 0.000000 0.000000 
#    y 0.000000 2.111970 0.000000 
#    z 0.000000 0.000000 1.849160 
# 
# From -- ./inp_files/26897.got.cif
#   From: 2010.05.17/outbox.cif.g08.bks.cpg/sg58_14_cif.got.tgz:26897.got - 2010.06.03 14:20:14.
