data_PCOD9441133
_publ_section_title
;
Structure prediction by ZEFSAII (Michael W. Deem and Ramdas Pophale) SiO2 
 PCOD9441133
Probable space group: P N N M
;
_chemical_formula_sum "Si O2"
_cell_formula_units_Z 64
_cell_length_a 30.643664
_cell_length_b 13.442406
_cell_length_c 7.624403
_cell_angle_alpha 90.000000
_cell_angle_beta 90.000000
_cell_angle_gamma 90.000000
_cell_volume 3140.678949
_symmetry_space_group_name_H-M "P N N M"
_symmetry_group_IT_number 58
_symmetry_cell_setting 'orthorhombic'
loop_
_space_group_symop_operation_xyz
x,y,z
-x,-y,z
1/2+x,1/2-y,1/2-z
1/2-x,1/2+y,1/2-z
-x,-y,-z
x,y,-z
1/2-x,1/2+y,1/2+z
1/2+x,1/2-y,1/2+z
loop_
_atom_site_type_symbol
_atom_site_label
_atom_site_fract_x
_atom_site_fract_y
_atom_site_fract_z
Si Si1 0.647013 0.500412 0.707997
Si Si2 0.884012 0.785618 0.785289
Si Si3 0.550535 0.113856 0.714565
Si Si4 0.207891 0.293262 0.198407
Si Si5 0.050024 0.608056 0.790401
Si Si6 0.881829 0.219741 0.708854
Si Si7 0.248296 0.983905 0.207156
Si Si8 0.708529 0.804619 0.208369
O O1 0.651654 0.486106 0.500000
O O2 0.621602 0.401098 0.772170
O O3 0.621325 0.603986 0.735614
O O4 0.697791 0.508448 0.773059
O O5 0.921989 0.710057 0.725935
O O6 0.838742 0.733677 0.728466
O O7 0.887087 0.786590 0.000000
O O8 0.552000 0.115060 0.500000
O O9 0.499964 0.121279 0.769886
O O10 0.566191 0.002253 0.770219
O O11 0.221170 0.406624 0.194091
O O12 0.250370 0.250378 0.291162
O O13 0.206371 0.250445 0.000000
O O14 0.078961 0.704894 0.752004
O O15 0.048141 0.600438 0.000000
O O16 0.880681 0.216628 0.500000
O O17 0.837754 0.271808 0.780688
O O18 0.275971 0.083752 0.220248
O O19 0.245714 0.958736 0.000000
O O20 0.706351 0.778190 0.000000
#
# Coordination Sequence:
#
# PCOD9441133 Si02
#       8
#     8   8   8   8   8   8   8   8
#     4  10  19  33  53  74  99 135 177 214 247 294
#     4   9  17  31  54  79 101 132 173 212 257 308
#     4   8  16  33  57  83 107 129 161 216 271 310
#     4  10  18  31  50  73 100 133 171 208 249 301
#     4   9  18  35  58  82 106 130 165 215 266 311
#     4  11  22  35  52  75 107 143 175 208 254 310
#     4  10  19  32  47  67  99 135 169 208 250 292
#     4   9  18  32  47  67 101 139 168 200 248 300
#
# _framework density 20.377761
#
# number of rings (size 3 to 8) (size 9 to 14) (size 15 to 20)
#    0.000    2.500    2.500    1.125    1.750    0.000 
#    0.000    3.750    0.000    6.000    0.000    0.000 
#    0.000    0.000    0.000    0.000    0.000    0.000 
#
# Total GULP energy -356278.611190 kJ/mol
# GULP energy per Si atom -5566.853300 kJ/mol
# Density = 2.033138 g / cm^3
# Si number density = 20.377761 Si / 1000 Ang^3
#
#
#
# Elastic Constant Matrix: (Units=GPa)
#
#
# Indices 1 2 3 4 5 6 
#
# 1 109.3028 95.9944 1.8993 0.0000 0.0000 0.0000
# 2 95.9944 154.8397 19.3079 0.0000 0.0000 0.0000
# 3 1.8993 19.3079 37.0276 0.0000 0.0000 0.0000
# 4 0.0000 0.0000 0.0000 5.5114 0.0000 0.0000
# 5 0.0000 0.0000 0.0000 0.0000 15.0831 0.0000
# 6 0.0000 0.0000 0.0000 0.0000 0.0000 28.2900
#
#
#
# Elastic Compliance Matrix: (Units=1/GPa)
#
#
# Indices 1 2 3 4 5 6 
#
# 1 0.021340 -0.014004 0.006208 0.000000 0.000000 0.000000
# 2 -0.014004 0.016097 -0.007676 0.000000 0.000000 0.000000
# 3 0.006208 -0.007676 0.030691 0.000000 0.000000 0.000000
# 4 0.000000 0.000000 0.000000 0.181441 0.000000 0.000000
# 5 0.000000 0.000000 0.000000 0.000000 0.066299 0.000000
# 6 0.000000 0.000000 0.000000 0.000000 0.000000 0.035348
#
#
# Mechanical properties :
#
#
# Convention : Reuss Voigt Hill
#
# Bulk Modulus (GPa) = 26.89298 59.50816 43.20057
# Shear Modulus (GPa) = 12.67251 22.04147 17.35699
#
# Velocity S-wave (km/s) = 2.49646 3.29240 2.92166
# Velocity P-wave (km/s) = 4.64065 6.61204 5.71204
#
# Compressibility (1/GPa) = 0.03718443
#
# Stress axis : x y z
#
# Youngs Moduli (GPa) = 46.86050 62.12217 32.58302
#
# Poissons Ratio (x) = 0.86996 -0.20227
# Poissons Ratio (y) = 0.65623 0.25009
# Poissons Ratio (z) = -0.29090 0.47682
#
# Static dielectric constant tensor:
#      x y z
#    x 1.727720 0.000000 0.000000 
#    y 0.000000 1.689810 0.000000 
#    z 0.000000 0.000000 1.756420 
# 
# From -- ./inp_files/11085.got.cif
#   From: 2010.05.17/outbox.cif.g08.bks.cpg/sg58_6_cif.got.tgz:11085.got - 2010.06.03 14:20:14.
