data_PCOD9441301
_publ_section_title
;
Structure prediction by ZEFSAII (Michael W. Deem and Ramdas Pophale) SiO2 
 PCOD9441301
Probable space group: P N N M
;
_chemical_formula_sum "Si O2"
_cell_formula_units_Z 64
_cell_length_a 12.428407
_cell_length_b 30.743664
_cell_length_c 7.548998
_cell_angle_alpha 90.000000
_cell_angle_beta 90.000000
_cell_angle_gamma 90.000000
_cell_volume 2884.432646
_symmetry_space_group_name_H-M "P N N M"
_symmetry_group_IT_number 58
_symmetry_cell_setting 'orthorhombic'
loop_
_space_group_symop_operation_xyz
x,y,z
-x,-y,z
1/2+x,1/2-y,1/2-z
1/2-x,1/2+y,1/2-z
-x,-y,-z
x,y,-z
1/2-x,1/2+y,1/2+z
1/2+x,1/2-y,1/2+z
loop_
_atom_site_type_symbol
_atom_site_label
_atom_site_fract_x
_atom_site_fract_y
_atom_site_fract_z
Si Si1 0.274273 0.669725 0.715194
Si Si2 0.442714 0.044218 0.282776
Si Si3 0.065498 0.716932 0.291576
Si Si4 0.813632 0.117134 0.294765
Si Si5 0.986760 0.186698 0.202775
Si Si6 0.428584 0.869172 0.714533
Si Si7 0.221759 0.073135 0.705626
Si Si8 0.989210 0.050488 0.283519
O O1 0.274741 0.670048 0.500000
O O2 0.184128 0.703559 0.773930
O O3 0.395156 0.677536 0.780155
O O4 0.239350 0.622466 0.779561
O O5 0.440983 0.044946 0.500000
O O6 0.505603 0.087891 0.227712
O O7 0.319143 0.045079 0.219506
O O8 0.500000 0.000000 0.228075
O O9 0.072917 0.725922 0.500000
O O10 0.028653 0.761704 0.206601
O O11 0.987112 0.675596 0.267931
O O12 0.794151 0.105663 0.500000
O O13 0.890658 0.159439 0.289277
O O14 0.695119 0.126911 0.220969
O O15 0.885918 0.077542 0.219131
O O16 0.987402 0.171623 0.000000
O O17 0.428589 0.868779 0.500000
O O18 0.210607 0.060466 0.500000
O O19 0.101721 0.071142 0.780201
O O20 0.984791 0.053120 0.500000
O O21 0.000000 0.000000 0.236440
#
# Coordination Sequence:
#
# PCOD9441301 Si02
#       8
#     8   8   8   8   8   8   8   8
#     4  10  22  40  60  81 112 147 183 236 289 333
#     4   9  18  31  52  85 117 146 186 236 283 327
#     4  11  24  41  61  85 113 148 189 234 287 341
#     4  10  21  37  57  83 118 154 188 233 286 336
#     4  11  24  41  61  85 113 148 189 234 287 341
#     4  10  21  37  57  83 118 154 188 233 286 336
#     4  10  18  32  58  83 108 147 195 236 275 335
#     4   9  18  31  52  85 117 146 186 236 283 327
#
# _framework density 22.188072999999999
#
# number of rings (size 3 to 8) (size 9 to 14) (size 15 to 20)
#    0.000    2.000    2.500    0.750    3.500    1.500 
#    0.000    0.000    0.000    3.000    0.000    0.000 
#    0.000    0.000    0.000    0.000    0.000    0.000 
#
# Total GULP energy -357389.309080 kJ/mol
# GULP energy per Si atom -5584.207954 kJ/mol
# Density = 2.213757 g / cm^3
# Si number density = 22.188073 Si / 1000 Ang^3
#
#
#
# Elastic Constant Matrix: (Units=GPa)
#
#
# Indices 1 2 3 4 5 6 
#
# 1 125.5477 15.1858 0.9102 0.0000 0.0000 0.0000
# 2 15.1858 85.0582 -13.2733 0.0000 0.0000 0.0000
# 3 0.9102 -13.2733 55.4592 0.0000 0.0000 0.0000
# 4 0.0000 0.0000 0.0000 -7.6810 0.0000 0.0000
# 5 0.0000 0.0000 0.0000 0.0000 -10.3081 0.0000
# 6 0.0000 0.0000 0.0000 0.0000 0.0000 34.7458
#
#
#
# Elastic Compliance Matrix: (Units=1/GPa)
#
#
# Indices 1 2 3 4 5 6 
#
# 1 0.008154 -0.001534 -0.000501 0.000000 0.000000 0.000000
# 2 -0.001534 0.012501 0.003017 0.000000 0.000000 0.000000
# 3 -0.000501 0.003017 0.018762 0.000000 0.000000 0.000000
# 4 0.000000 0.000000 0.000000 -0.130192 0.000000 0.000000
# 5 0.000000 0.000000 0.000000 0.000000 -0.097011 0.000000
# 6 0.000000 0.000000 0.000000 0.000000 0.000000 0.028780
#
#
# Mechanical properties :
#
#
# Convention : Reuss Voigt Hill
#
# Bulk Modulus (GPa) = 24.16527 30.19006 27.17767
# Shear Modulus (GPa) = -33.97293 20.90084 -6.53605
#
# Velocity S-wave (km/s) = -3.91722 3.07251 -1.71818
# Velocity P-wave (km/s) = 3.08945 5.12084 2.88776
#
# Compressibility (1/GPa) = 0.04138170
#
# Stress axis : x y z
#
# Youngs Moduli (GPa) = 122.63500 79.99133 53.30028
#
# Poissons Ratio (x) = 0.12271 0.02670
# Poissons Ratio (y) = 0.18812 -0.16082
# Poissons Ratio (z) = 0.06144 -0.24135
#
# Static dielectric constant tensor:
#      x y z
#    x 1.829230 0.000000 0.000000 
#    y 0.000000 1.809480 0.000000 
#    z 0.000000 0.000000 1.853840 
# 
# From -- ./inp_files/4649.got.cif
#   From: 2010.05.17/outbox.cif.g08.bks.cpg/sg58_3_cif.got.tgz:4649.got - 2010.06.03 14:20:14.
