data_PCOD9441513
_publ_section_title
;
Structure prediction by ZEFSAII (Michael W. Deem and Ramdas Pophale) SiO2 
 PCOD9441513
Probable space group: P N N M
;
_chemical_formula_sum "Si O2"
_cell_formula_units_Z 64
_cell_length_a 19.714561
_cell_length_b 15.971879
_cell_length_c 7.536244
_cell_angle_alpha 90.000000
_cell_angle_beta 90.000000
_cell_angle_gamma 90.000000
_cell_volume 2373.001831
_symmetry_space_group_name_H-M "P N N M"
_symmetry_group_IT_number 58
_symmetry_cell_setting 'orthorhombic'
loop_
_space_group_symop_operation_xyz
x,y,z
-x,-y,z
1/2+x,1/2-y,1/2-z
1/2-x,1/2+y,1/2-z
-x,-y,-z
x,y,-z
1/2-x,1/2+y,1/2+z
1/2+x,1/2-y,1/2+z
loop_
_atom_site_type_symbol
_atom_site_label
_atom_site_fract_x
_atom_site_fract_y
_atom_site_fract_z
Si Si1 0.254211 0.302497 0.709607
Si Si2 0.039286 0.750005 0.196987
Si Si3 0.700120 0.871661 0.709764
Si Si4 0.664603 0.050183 0.210958
Si Si5 0.335771 0.544575 0.208512
Si Si6 0.949001 0.069783 0.204517
Si Si7 0.985210 0.591367 0.786483
Si Si8 0.606123 0.278155 0.203665
O O1 0.268980 0.315202 0.500000
O O2 0.304884 0.226203 0.775425
O O3 0.230296 0.395204 0.779413
O O4 0.181524 0.255900 0.731539
O O5 0.039800 0.659241 0.284893
O O6 0.957321 0.753659 0.180148
O O7 0.055513 0.837926 0.286333
O O8 0.071335 0.746510 0.000000
O O9 0.712439 0.858838 0.500000
O O10 0.654148 0.955335 0.720126
O O11 0.767437 0.917131 0.787639
O O12 0.595355 0.100530 0.251098
O O13 0.671223 0.046485 0.000000
O O14 0.373918 0.467702 0.294512
O O15 0.387357 0.622214 0.221160
O O16 0.325961 0.526992 0.000000
O O17 0.971263 0.082969 0.000000
O O18 0.000000 0.000000 0.282657
O O19 0.000000 0.500000 0.713399
O O20 0.994779 0.591045 0.000000
O O21 0.588298 0.257969 0.000000
#
# Coordination Sequence:
#
# PCOD9441513 Si02
#       8
#     8   8   8   8   8   8   8   8
#     4   8  16  32  54  79 108 141 178 222 273 328
#     4  10  19  31  48  74 103 136 179 220 266 322
#     4   9  19  37  57  80 112 150 187 225 275 336
#     4  11  21  36  61  90 113 139 183 233 283 329
#     4   9  18  31  49  73 105 145 185 216 252 317
#     4  10  19  29  44  72 110 144 172 218 277 321
#     4  10  22  40  60  81 107 143 187 230 275 331
#     4   9  15  27  48  73 100 133 172 216 259 307
#
# _framework density 26.970061000000001
#
# number of rings (size 3 to 8) (size 9 to 14) (size 15 to 20)
#    0.000    2.500    2.500    1.875    0.000    1.500 
#    0.000    4.375    0.000    6.000    0.000    0.000 
#    0.000    0.000    0.000    0.000    0.000    0.000 
#
# Total GULP energy -356742.181730 kJ/mol
# GULP energy per Si atom -5574.096590 kJ/mol
# Density = 2.690868 g / cm^3
# Si number density = 26.970061 Si / 1000 Ang^3
#
#
#
# Elastic Constant Matrix: (Units=GPa)
#
#
# Indices 1 2 3 4 5 6 
#
# 1 56.4033 38.9388 -6.8174 0.0000 0.0000 0.0000
# 2 38.9388 205.8083 9.8811 0.0000 0.0000 0.0000
# 3 -6.8174 9.8811 65.3246 0.0000 0.0000 0.0000
# 4 0.0000 0.0000 0.0000 -7.8722 0.0000 0.0000
# 5 0.0000 0.0000 0.0000 0.0000 21.9397 0.0000
# 6 0.0000 0.0000 0.0000 0.0000 0.0000 63.2276
#
#
#
# Elastic Compliance Matrix: (Units=1/GPa)
#
#
# Indices 1 2 3 4 5 6 
#
# 1 0.020889 -0.004086 0.002798 0.000000 0.000000 0.000000
# 2 -0.004086 0.005694 -0.001288 0.000000 0.000000 0.000000
# 3 0.002798 -0.001288 0.015795 0.000000 0.000000 0.000000
# 4 0.000000 0.000000 0.000000 -0.127029 0.000000 0.000000
# 5 0.000000 0.000000 0.000000 0.000000 0.045580 0.000000
# 6 0.000000 0.000000 0.000000 0.000000 0.000000 0.015816
#
#
# Mechanical properties :
#
#
# Convention : Reuss Voigt Hill
#
# Bulk Modulus (GPa) = 26.86332 45.72681 36.29506
# Shear Modulus (GPa) = -877.89031 34.49460 -421.69786
#
# Velocity S-wave (km/s) = -18.06134 3.58019 -12.51788
# Velocity P-wave (km/s) = 20.61474 5.83796 13.98009
#
# Compressibility (1/GPa) = 0.03722548
#
# Stress axis : x y z
#
# Youngs Moduli (GPa) = 47.87248 175.62724 63.31127
#
# Poissons Ratio (x) = 0.71770 -0.17715
# Poissons Ratio (y) = 0.19563 0.08153
# Poissons Ratio (z) = -0.13395 0.22616
#
# Static dielectric constant tensor:
#      x y z
#    x 2.197550 0.000000 0.000000 
#    y 0.000000 2.349440 0.000000 
#    z 0.000000 0.000000 2.118080 
# 
# From -- ./inp_files/10064.got.cif
#   From: 2010.05.17/outbox.cif.g08.bks.cpg/sg58_6_cif.got.tgz:10064.got - 2010.06.03 14:20:14.
