data_PCOD9441405
_publ_section_title
;
Structure prediction by ZEFSAII (Michael W. Deem and Ramdas Pophale) SiO2 
 PCOD9441405
Probable space group: P N N M
;
_chemical_formula_sum "Si O2"
_cell_formula_units_Z 64
_cell_length_a 13.224543
_cell_length_b 18.357931
_cell_length_c 12.684709
_cell_angle_alpha 90.000000
_cell_angle_beta 90.000000
_cell_angle_gamma 90.000000
_cell_volume 3079.533372
_symmetry_space_group_name_H-M "P N N M"
_symmetry_group_IT_number 58
_symmetry_cell_setting 'orthorhombic'
loop_
_space_group_symop_operation_xyz
x,y,z
-x,-y,z
1/2+x,1/2-y,1/2-z
1/2-x,1/2+y,1/2-z
-x,-y,-z
x,y,-z
1/2-x,1/2+y,1/2+z
1/2+x,1/2-y,1/2+z
loop_
_atom_site_type_symbol
_atom_site_label
_atom_site_fract_x
_atom_site_fract_y
_atom_site_fract_z
Si Si1 0.709200 0.775621 0.381040
Si Si2 0.578256 0.554434 0.782039
Si Si3 0.234772 0.844909 0.616449
Si Si4 0.263729 0.525827 0.375518
Si Si5 0.022213 0.830808 0.880047
Si Si6 0.302002 0.695973 0.328546
Si Si7 0.421801 0.079082 0.618649
Si Si8 0.876765 0.555409 0.766607
O O1 0.745377 0.762593 0.500000
O O2 0.624011 0.714582 0.356337
O O3 0.795464 0.787856 0.295812
O O4 0.645685 0.850142 0.377158
O O5 0.500000 0.500000 0.835230
O O6 0.635051 0.608690 0.860361
O O7 0.657065 0.511466 0.705909
O O8 0.515750 0.603888 0.700927
O O9 0.274109 0.861863 0.500000
O O10 0.228186 0.757896 0.625190
O O11 0.310674 0.874569 0.705719
O O12 0.284455 0.513497 0.500000
O O13 0.268369 0.613326 0.355623
O O14 0.159786 0.484760 0.339655
O O15 0.915354 0.789627 0.870322
O O16 0.030975 0.856782 0.000000
O O17 0.464919 0.076153 0.500000
O O18 0.508147 0.077861 0.708298
O O19 0.357322 0.007183 0.644663
#
# Coordination Sequence:
#
# PCOD9441405 Si02
#       8
#     8   8   8   8   8   8   8   8
#     4  10  22  40  63  92 124 160 203 252 309 368
#     4  11  23  40  61  91 124 159 204 261 305 371
#     4  11  23  39  60  87 121 161 201 251 309 366
#     4  11  23  38  60  86 121 163 202 250 309 366
#     4  11  22  39  66  92 122 166 212 256 304 367
#     4  12  22  40  64  93 123 158 211 259 305 364
#     4  10  18  34  60  87 119 153 193 246 301 356
#     4  10  20  35  56  87 115 149 198 249 296 360
#
# _framework density 20.782368999999999
#
# number of rings (size 3 to 8) (size 9 to 14) (size 15 to 20)
#    0.000    1.250    3.750    3.750    0.000    1.750 
#    0.000    1.875    0.000    0.000    0.000    0.000 
#    0.000    0.000    0.000    0.000    0.000    0.000 
#
# Total GULP energy -356831.399907 kJ/mol
# GULP energy per Si atom -5575.490624 kJ/mol
# Density = 2.073507 g / cm^3
# Si number density = 20.782369 Si / 1000 Ang^3
#
#
#
# Elastic Constant Matrix: (Units=GPa)
#
#
# Indices 1 2 3 4 5 6 
#
# 1 34.4164 3.4044 13.0628 0.0000 0.0000 0.0000
# 2 3.4044 88.7409 11.8500 0.0000 0.0000 0.0000
# 3 13.0628 11.8500 69.7973 0.0000 0.0000 0.0000
# 4 0.0000 0.0000 0.0000 11.1070 0.0000 0.0000
# 5 0.0000 0.0000 0.0000 0.0000 25.9202 0.0000
# 6 0.0000 0.0000 0.0000 0.0000 0.0000 27.4709
#
#
#
# Elastic Compliance Matrix: (Units=1/GPa)
#
#
# Indices 1 2 3 4 5 6 
#
# 1 0.031294 -0.000428 -0.005784 0.000000 0.000000 0.000000
# 2 -0.000428 0.011536 -0.001878 0.000000 0.000000 0.000000
# 3 -0.005784 -0.001878 0.015729 0.000000 0.000000 0.000000
# 4 0.000000 0.000000 0.000000 0.090034 0.000000 0.000000
# 5 0.000000 0.000000 0.000000 0.000000 0.038580 0.000000
# 6 0.000000 0.000000 0.000000 0.000000 0.000000 0.036402
#
#
# Mechanical properties :
#
#
# Convention : Reuss Voigt Hill
#
# Bulk Modulus (GPa) = 23.59768 27.73210 25.66489
# Shear Modulus (GPa) = 19.69428 23.87545 21.78486
#
# Velocity S-wave (km/s) = 3.08172 3.39312 3.24116
# Velocity P-wave (km/s) = 4.90326 5.35948 5.13644
#
# Compressibility (1/GPa) = 0.04237705
#
# Stress axis : x y z
#
# Youngs Moduli (GPa) = 31.95543 86.68504 63.57836
#
# Poissons Ratio (x) = 0.03711 0.36774
# Poissons Ratio (y) = 0.01368 0.11943
# Poissons Ratio (z) = 0.18483 0.16283
#
# Static dielectric constant tensor:
#      x y z
#    x 1.809880 0.000000 0.000000 
#    y 0.000000 1.788290 0.000000 
#    z 0.000000 0.000000 1.744670 
# 
# From -- ./inp_files/15917.got.cif
#   From: 2010.05.17/outbox.cif.g08.bks.cpg/sg58_8_cif.got.tgz:15917.got - 2010.06.03 14:20:14.
