data_PCOD9441771
_publ_section_title
;
Structure prediction by ZEFSAII (Michael W. Deem and Ramdas Pophale) SiO2 
 PCOD9441771
Probable space group: P N N M
;
_chemical_formula_sum "Si O2"
_cell_formula_units_Z 48
_cell_length_a 8.417283
_cell_length_b 30.036964
_cell_length_c 10.778542
_cell_angle_alpha 90.000000
_cell_angle_beta 90.000000
_cell_angle_gamma 90.000000
_cell_volume 2725.134748
_symmetry_space_group_name_H-M "P N N M"
_symmetry_group_IT_number 58
_symmetry_cell_setting 'orthorhombic'
loop_
_space_group_symop_operation_xyz
x,y,z
-x,-y,z
1/2+x,1/2-y,1/2-z
1/2-x,1/2+y,1/2-z
-x,-y,-z
x,y,-z
1/2-x,1/2+y,1/2+z
1/2+x,1/2-y,1/2+z
loop_
_atom_site_type_symbol
_atom_site_label
_atom_site_fract_x
_atom_site_fract_y
_atom_site_fract_z
Si Si1 0.477657 0.052493 0.640826
Si Si2 0.461160 0.811385 0.227203
Si Si3 0.655161 0.740165 0.640362
Si Si4 0.746400 0.622284 0.861572
Si Si5 0.339967 0.107899 0.137882
Si Si6 0.485701 0.354563 0.358416
O O1 0.414877 0.060235 0.500000
O O2 0.646125 0.078190 0.646327
O O3 0.374155 0.074242 0.749879
O O4 0.500000 0.000000 0.657747
O O5 0.602799 0.779781 0.271115
O O6 0.327654 0.781200 0.162767
O O7 0.367242 0.836388 0.338403
O O8 0.533370 0.851829 0.148688
O O9 0.644652 0.756436 0.500000
O O10 0.534246 0.698628 0.656218
O O11 0.621700 0.624435 0.749542
O O12 0.676721 0.625521 0.000000
O O13 0.165277 0.128931 0.151229
O O14 0.352647 0.087712 0.000000
O O15 0.428918 0.364556 0.500000
#
# Coordination Sequence:
#
# PCOD9441771 Si02
#       6
#     8   8   8   8   8   8
#     4   9  19  36  57  80 104 130 163 205 252 304
#     4  10  19  32  49  73 101 133 170 213 254 294
#     4  10  19  32  49  70  99 135 173 210 251 295
#     4   9  18  33  53  75 100 131 167 205 250 303
#     4  10  20  35  54  76 102 133 170 209 253 302
#     4   9  19  34  51  73 103 137 171 211 253 295
#
# _framework density 17.613807999999999
#
# number of rings (size 3 to 8) (size 9 to 14) (size 15 to 20)
#    0.000    2.500    0.000    2.000    0.000    5.667 
#    0.000   11.667    0.000    5.000    0.000    0.000 
#    0.000    0.000    0.000    0.000    0.000    0.000 
#
# Total GULP energy -267467.450522 kJ/mol
# GULP energy per Si atom -5572.238553 kJ/mol
# Density = 1.757372 g / cm^3
# Si number density = 17.613808 Si / 1000 Ang^3
#
#
#
# Elastic Constant Matrix: (Units=GPa)
#
#
# Indices 1 2 3 4 5 6 
#
# 1 53.3378 16.0770 34.7752 0.0000 0.0000 0.0000
# 2 16.0770 58.4155 41.7777 0.0000 0.0000 0.0000
# 3 34.7752 41.7777 127.6225 0.0000 0.0000 0.0000
# 4 0.0000 0.0000 0.0000 15.3839 0.0000 0.0000
# 5 0.0000 0.0000 0.0000 0.0000 23.8248 0.0000
# 6 0.0000 0.0000 0.0000 0.0000 0.0000 15.6268
#
#
#
# Elastic Compliance Matrix: (Units=1/GPa)
#
#
# Indices 1 2 3 4 5 6 
#
# 1 0.023058 -0.002419 -0.005491 0.000000 0.000000 0.000000
# 2 -0.002419 0.022605 -0.006741 0.000000 0.000000 0.000000
# 3 -0.005491 -0.006741 0.011538 0.000000 0.000000 0.000000
# 4 0.000000 0.000000 0.000000 0.065003 0.000000 0.000000
# 5 0.000000 0.000000 0.000000 0.000000 0.041973 0.000000
# 6 0.000000 0.000000 0.000000 0.000000 0.000000 0.063993
#
#
# Mechanical properties :
#
#
# Convention : Reuss Voigt Hill
#
# Bulk Modulus (GPa) = 35.84227 47.18174 41.51200
# Shear Modulus (GPa) = 18.74264 20.75016 19.74640
#
# Velocity S-wave (km/s) = 3.26557 3.43601 3.35188
# Velocity P-wave (km/s) = 5.88318 6.52584 6.21282
#
# Compressibility (1/GPa) = 0.02790002
#
# Stress axis : x y z
#
# Youngs Moduli (GPa) = 43.36981 44.23727 86.66649
#
# Poissons Ratio (x) = 0.10700 0.47589
# Poissons Ratio (y) = 0.10490 0.58421
# Poissons Ratio (z) = 0.23814 0.29820
#
# Static dielectric constant tensor:
#      x y z
#    x 1.594360 0.000000 0.000000 
#    y 0.000000 1.578050 0.000000 
#    z 0.000000 0.000000 1.621320 
# 
# From -- ./inp_files/2876.got.cif
#   From: 2010.05.17/outbox.cif.g08.bks.cpg/sg58_2_cif.got.tgz:2876.got - 2010.06.03 14:20:14.
