data_PCOD9441523
_publ_section_title
;
Structure prediction by ZEFSAII (Michael W. Deem and Ramdas Pophale) SiO2 
 PCOD9441523
Probable space group: P N N M
;
_chemical_formula_sum "Si O2"
_cell_formula_units_Z 60
_cell_length_a 11.123311
_cell_length_b 20.654203
_cell_length_c 13.849574
_cell_angle_alpha 90.000000
_cell_angle_beta 90.000000
_cell_angle_gamma 90.000000
_cell_volume 3181.844389
_symmetry_space_group_name_H-M "P N N M"
_symmetry_group_IT_number 58
_symmetry_cell_setting 'orthorhombic'
loop_
_space_group_symop_operation_xyz
x,y,z
-x,-y,z
1/2+x,1/2-y,1/2-z
1/2-x,1/2+y,1/2-z
-x,-y,-z
x,y,-z
1/2-x,1/2+y,1/2+z
1/2+x,1/2-y,1/2+z
loop_
_atom_site_type_symbol
_atom_site_label
_atom_site_fract_x
_atom_site_fract_y
_atom_site_fract_z
Si Si1 0.032739 0.220904 0.614481
Si Si2 0.403349 0.363799 0.722879
Si Si3 0.585398 0.062585 0.610149
Si Si4 0.694675 0.829388 0.614329
Si Si5 0.369832 0.825460 0.756744
Si Si6 0.500000 0.500000 0.234858
Si Si7 0.027056 0.240222 0.886964
Si Si8 0.718056 0.461520 0.112143
O O1 0.004119 0.220555 0.500000
O O2 0.170311 0.195900 0.627344
O O3 0.046852 0.293274 0.660228
O O4 0.948122 0.173260 0.678234
O O5 0.262859 0.346226 0.708955
O O6 0.427770 0.440614 0.717440
O O7 0.488095 0.331204 0.642271
O O8 0.568788 0.089019 0.500000
O O9 0.577410 0.114570 0.694694
O O10 0.500000 0.000000 0.617491
O O11 0.717140 0.030488 0.616590
O O12 0.673439 0.831361 0.500000
O O13 0.589587 0.782313 0.648056
O O14 0.696953 0.903443 0.648930
O O15 0.364317 0.768241 0.676073
O O16 0.596712 0.463054 0.169910
O O17 0.047416 0.246916 0.000000
O O18 0.692894 0.447906 0.000000
#
# Coordination Sequence:
#
# PCOD9441523 Si02
#       8
#     8   8   8   8   8   4   8   8
#     4  10  21  36  56  81 112 146 186 228 276 334
#     4  11  23  36  57  84 112 149 190 228 283 335
#     4  10  20  34  52  80 113 143 178 224 280 333
#     4   9  16  31  53  75 103 142 182 217 267 330
#     4  11  21  36  57  86 111 145 187 233 280 330
#     4  12  21  34  47  76 116 146 176 228 274 336
#     4  10  21  38  58  81 111 145 187 239 282 329
#     4  10  19  29  48  74 105 144 174 212 274 337
#
# _framework density 18.856985999999999
#
# number of rings (size 3 to 8) (size 9 to 14) (size 15 to 20)
#    0.000    1.733    4.000    1.400    0.000    3.733 
#    0.000    0.333    0.000    0.400    0.000    0.000 
#    0.000    0.000    0.000    0.000    0.000    0.000 
#
# Total GULP energy -334210.579811 kJ/mol
# GULP energy per Si atom -5570.176330 kJ/mol
# Density = 1.881407 g / cm^3
# Si number density = 18.856986 Si / 1000 Ang^3
#
#
#
# Elastic Constant Matrix: (Units=GPa)
#
#
# Indices 1 2 3 4 5 6 
#
# 1 28.8496 -0.4986 -9.3311 0.0000 0.0000 0.0000
# 2 -0.4986 93.2670 13.2930 0.0000 0.0000 0.0000
# 3 -9.3311 13.2930 52.9697 0.0000 0.0000 0.0000
# 4 0.0000 0.0000 0.0000 35.4738 0.0000 0.0000
# 5 0.0000 0.0000 0.0000 0.0000 8.0551 0.0000
# 6 0.0000 0.0000 0.0000 0.0000 0.0000 31.2010
#
#
#
# Elastic Compliance Matrix: (Units=1/GPa)
#
#
# Indices 1 2 3 4 5 6 
#
# 1 0.036808 -0.000754 0.006673 0.000000 0.000000 0.000000
# 2 -0.000754 0.011135 -0.002927 0.000000 0.000000 0.000000
# 3 0.006673 -0.002927 0.020789 0.000000 0.000000 0.000000
# 4 0.000000 0.000000 0.000000 0.028190 0.000000 0.000000
# 5 0.000000 0.000000 0.000000 0.000000 0.124145 0.000000
# 6 0.000000 0.000000 0.000000 0.000000 0.000000 0.032050
#
#
# Mechanical properties :
#
#
# Convention : Reuss Voigt Hill
#
# Bulk Modulus (GPa) = 13.38413 20.22367 16.80390
# Shear Modulus (GPa) = 18.37975 26.38750 22.38362
#
# Velocity S-wave (km/s) = 3.12539 3.74485 3.44905
# Velocity P-wave (km/s) = 4.48745 5.42647 4.97914
#
# Compressibility (1/GPa) = 0.07471533
#
# Stress axis : x y z
#
# Youngs Moduli (GPa) = 27.16808 89.80617 48.10253
#
# Poissons Ratio (x) = 0.06775 -0.32101
# Poissons Ratio (y) = 0.02049 0.14081
# Poissons Ratio (z) = -0.18130 0.26289
#
# Static dielectric constant tensor:
#      x y z
#    x 1.725360 0.000000 0.000000 
#    y 0.000000 1.731580 0.000000 
#    z 0.000000 0.000000 1.647640 
# 
# From -- ./inp_files/21461.got.cif
#   From: 2010.05.17/outbox.cif.g08.bks.cpg/sg58_11_cif.got.tgz:21461.got - 2010.06.03 14:20:14.
