data_PCOD9441982
_publ_section_title
;
Structure prediction by ZEFSAII (Michael W. Deem and Ramdas Pophale) SiO2 
 PCOD9441982
Probable space group: P N N M
;
_chemical_formula_sum "Si O2"
_cell_formula_units_Z 64
_cell_length_a 14.968313
_cell_length_b 11.497608
_cell_length_c 15.843946
_cell_angle_alpha 90.000000
_cell_angle_beta 90.000000
_cell_angle_gamma 90.000000
_cell_volume 2726.739863
_symmetry_space_group_name_H-M "P N N M"
_symmetry_group_IT_number 58
_symmetry_cell_setting 'orthorhombic'
loop_
_space_group_symop_operation_xyz
x,y,z
-x,-y,z
1/2+x,1/2-y,1/2-z
1/2-x,1/2+y,1/2-z
-x,-y,-z
x,y,-z
1/2-x,1/2+y,1/2+z
1/2+x,1/2-y,1/2+z
loop_
_atom_site_type_symbol
_atom_site_label
_atom_site_fract_x
_atom_site_fract_y
_atom_site_fract_z
Si Si1 0.405411 0.966451 0.905086
Si Si2 0.732938 0.086875 0.403819
Si Si3 0.891324 0.382748 0.096435
Si Si4 0.653094 0.510082 0.263099
Si Si5 0.083070 0.747498 0.246563
Si Si6 0.541277 0.380213 0.861826
Si Si7 0.772601 0.346100 0.363927
Si Si8 0.707407 0.237544 0.908419
O O1 0.347657 0.082711 0.913178
O O2 0.500000 0.000000 0.863038
O O3 0.341004 0.870366 0.859988
O O4 0.429007 0.921975 0.000000
O O5 0.766310 0.056851 0.500000
O O6 0.791164 0.045492 0.322361
O O7 0.732953 0.226935 0.399710
O O8 0.640452 0.016295 0.395514
O O9 0.952172 0.335644 0.172636
O O10 0.797278 0.309958 0.107885
O O11 0.922811 0.364222 0.000000
O O12 0.609051 0.628591 0.293282
O O13 0.581281 0.421185 0.227135
O O14 0.702121 0.441677 0.335828
O O15 0.173885 0.690346 0.280131
O O16 0.029035 0.782505 0.332051
O O17 0.500000 0.500000 0.898502
O O18 0.624768 0.327365 0.910052
O O19 0.727079 0.184767 0.000000
#
# Coordination Sequence:
#
# PCOD9441982 Si02
#       8
#     8   8   8   8   8   8   8   8
#     4  10  21  35  49  74 113 147 178 220 272 340
#     4  10  20  35  57  85 114 146 190 243 291 344
#     4  10  19  36  59  82 108 141 189 240 288 342
#     4  10  20  35  56  81 112 147 189 241 284 347
#     4  10  20  34  54  83 110 144 188 237 292 345
#     4  10  20  34  52  80 117 148 186 238 293 350
#     4  11  20  34  57  81 110 151 193 233 287 346
#     4  10  19  33  53  78 110 148 187 228 275 341
#
# _framework density 23.471253000000001
#
# number of rings (size 3 to 8) (size 9 to 14) (size 15 to 20)
#    0.000    1.875    2.500    1.875    0.000    1.250 
#    0.000    6.875    0.000    4.875    0.000    1.750 
#    0.000    0.000    0.000    0.000    0.000    0.000 
#
# Total GULP energy -356395.369775 kJ/mol
# GULP energy per Si atom -5568.677653 kJ/mol
# Density = 2.341783 g / cm^3
# Si number density = 23.471253 Si / 1000 Ang^3
#
#
#
# Elastic Constant Matrix: (Units=GPa)
#
#
# Indices 1 2 3 4 5 6 
#
# 1 15.5090 11.5121 -2.0377 0.0000 0.0000 0.0000
# 2 11.5121 107.0021 16.4437 0.0000 0.0000 0.0000
# 3 -2.0377 16.4437 78.6984 0.0000 0.0000 0.0000
# 4 0.0000 0.0000 0.0000 27.9323 0.0000 0.0000
# 5 0.0000 0.0000 0.0000 0.0000 5.1923 0.0000
# 6 0.0000 0.0000 0.0000 0.0000 0.0000 27.5262
#
#
#
# Elastic Compliance Matrix: (Units=1/GPa)
#
#
# Indices 1 2 3 4 5 6 
#
# 1 0.071022 -0.008187 0.003549 0.000000 0.000000 0.000000
# 2 -0.008187 0.010599 -0.002427 0.000000 0.000000 0.000000
# 3 0.003549 -0.002427 0.013306 0.000000 0.000000 0.000000
# 4 0.000000 0.000000 0.000000 0.035801 0.000000 0.000000
# 5 0.000000 0.000000 0.000000 0.000000 0.192592 0.000000
# 6 0.000000 0.000000 0.000000 0.000000 0.000000 0.036329
#
#
# Mechanical properties :
#
#
# Convention : Reuss Voigt Hill
#
# Bulk Modulus (GPa) = 12.37637 28.11620 20.24628
# Shear Modulus (GPa) = 12.47788 23.81626 18.14707
#
# Velocity S-wave (km/s) = 2.30820 3.18889 2.78359
# Velocity P-wave (km/s) = 3.51968 5.05606 4.35614
#
# Compressibility (1/GPa) = 0.08079917
#
# Stress axis : x y z
#
# Youngs Moduli (GPa) = 14.08023 94.34585 75.15582
#
# Poissons Ratio (x) = 0.77236 -0.26676
# Poissons Ratio (y) = 0.11527 0.18238
# Poissons Ratio (z) = -0.04998 0.22894
#
# Static dielectric constant tensor:
#      x y z
#    x 1.976150 0.000000 0.000000 
#    y 0.000000 1.940830 0.000000 
#    z 0.000000 0.000000 1.953320 
# 
# From -- ./inp_files/26994.got.cif
#   From: 2010.05.17/outbox.cif.g08.bks.cpg/sg58_14_cif.got.tgz:26994.got - 2010.06.03 14:20:14.
