data_PCOD9441987
_publ_section_title
;
Structure prediction by ZEFSAII (Michael W. Deem and Ramdas Pophale) SiO2 
 PCOD9441987
Probable space group: P N N M
;
_chemical_formula_sum "Si O2"
_cell_formula_units_Z 64
_cell_length_a 34.906151
_cell_length_b 12.168155
_cell_length_c 8.866797
_cell_angle_alpha 90.000000
_cell_angle_beta 90.000000
_cell_angle_gamma 90.000000
_cell_volume 3766.114000
_symmetry_space_group_name_H-M "P N N M"
_symmetry_group_IT_number 58
_symmetry_cell_setting 'orthorhombic'
loop_
_space_group_symop_operation_xyz
x,y,z
-x,-y,z
1/2+x,1/2-y,1/2-z
1/2-x,1/2+y,1/2-z
-x,-y,-z
x,y,-z
1/2-x,1/2+y,1/2+z
1/2+x,1/2-y,1/2+z
loop_
_atom_site_type_symbol
_atom_site_label
_atom_site_fract_x
_atom_site_fract_y
_atom_site_fract_z
Si Si1 0.230041 0.200870 0.319137
Si Si2 0.950236 0.109753 0.182270
Si Si3 0.674362 0.101675 0.181366
Si Si4 0.964744 0.855702 0.816724
Si Si5 0.310850 0.147439 0.181814
Si Si6 0.370190 0.334367 0.180253
Si Si7 0.610330 0.244419 0.321345
Si Si8 0.832576 0.950421 0.821790
O O1 0.230443 0.196313 0.500000
O O2 0.207381 0.311730 0.271968
O O3 0.272524 0.195471 0.254802
O O4 0.205240 0.099527 0.254457
O O5 0.912955 0.162581 0.254396
O O6 0.991186 0.161066 0.228428
O O7 0.952747 0.980312 0.224369
O O8 0.947250 0.114448 0.000000
O O9 0.634394 0.149919 0.241100
O O10 0.682825 0.978144 0.232032
O O11 0.673303 0.101925 0.000000
O O12 0.932415 0.770854 0.764499
O O13 0.964169 0.853667 0.000000
O O14 0.346885 0.224324 0.218960
O O15 0.306268 0.147732 0.000000
O O16 0.347320 0.437916 0.248397
O O17 0.371525 0.345019 0.000000
O O18 0.608943 0.221319 0.500000
O O19 0.634698 0.357056 0.302571
O O20 0.826310 0.965763 0.000000
#
# Coordination Sequence:
#
# PCOD9441987 Si02
#       8
#     8   8   8   8   8   8   8   8
#     4  10  21  36  56  81 102 124 167 223 263 304
#     4   9  16  30  51  74 106 142 173 207 257 319
#     4   9  20  38  54  72 100 134 171 211 256 307
#     4   8  14  27  50  78 105 136 171 207 255 314
#     4  10  23  40  54  71 102 143 176 210 261 310
#     4  11  22  34  50  76 109 141 176 219 258 301
#     4   9  16  30  53  79 102 130 167 210 256 305
#     4  10  19  33  54  76 104 139 170 203 258 319
#
# _framework density 16.993642999999999
#
# number of rings (size 3 to 8) (size 9 to 14) (size 15 to 20)
#    0.000    2.500    1.250    1.875    1.750    2.500 
#    0.000    1.875    0.000    0.750    0.000    5.250 
#    0.000    0.000    0.000    0.000    0.000    0.000 
#
# Total GULP energy -356935.119470 kJ/mol
# GULP energy per Si atom -5577.111242 kJ/mol
# Density = 1.695497 g / cm^3
# Si number density = 16.993643 Si / 1000 Ang^3
#
#
#
# Elastic Constant Matrix: (Units=GPa)
#
#
# Indices 1 2 3 4 5 6 
#
# 1 166.2421 69.1962 41.4041 0.0000 0.0000 0.0000
# 2 69.1962 92.3564 32.6116 0.0000 0.0000 0.0000
# 3 41.4041 32.6116 24.1301 0.0000 0.0000 0.0000
# 4 0.0000 0.0000 0.0000 17.0011 0.0000 0.0000
# 5 0.0000 0.0000 0.0000 0.0000 29.0335 0.0000
# 6 0.0000 0.0000 0.0000 0.0000 0.0000 19.3657
#
#
#
# Elastic Compliance Matrix: (Units=1/GPa)
#
#
# Indices 1 2 3 4 5 6 
#
# 1 0.010921 -0.002995 -0.014692 0.000000 0.000000 0.000000
# 2 -0.002995 0.021533 -0.023963 0.000000 0.000000 0.000000
# 3 -0.014692 -0.023963 0.099037 0.000000 0.000000 0.000000
# 4 0.000000 0.000000 0.000000 0.058820 0.000000 0.000000
# 5 0.000000 0.000000 0.000000 0.000000 0.034443 0.000000
# 6 0.000000 0.000000 0.000000 0.000000 0.000000 0.051638
#
#
# Mechanical properties :
#
#
# Convention : Reuss Voigt Hill
#
# Bulk Modulus (GPa) = 20.75037 63.23917 41.99477
# Shear Modulus (GPa) = 13.30661 22.38118 17.84390
#
# Velocity S-wave (km/s) = 2.80131 3.63303 3.24394
# Velocity P-wave (km/s) = 4.76448 7.40897 6.22869
#
# Compressibility (1/GPa) = 0.04819190
#
# Stress axis : x y z
#
# Youngs Moduli (GPa) = 91.56787 46.44103 10.09725
#
# Poissons Ratio (x) = 0.13907 0.14835
# Poissons Ratio (y) = 0.27420 0.24196
# Poissons Ratio (z) = 1.34529 1.11287
#
# Static dielectric constant tensor:
#      x y z
#    x 1.579750 0.000000 0.000000 
#    y 0.000000 1.556830 0.000000 
#    z 0.000000 0.000000 1.570880 
# 
# From -- ./inp_files/10944.got.cif
#   From: 2010.05.17/outbox.cif.g08.bks.cpg/sg58_6_cif.got.tgz:10944.got - 2010.06.03 14:20:14.
