data_PCOD9441481
_publ_section_title
;
Structure prediction by ZEFSAII (Michael W. Deem and Ramdas Pophale) SiO2 
 PCOD9441481
Probable space group: P N N M
;
_chemical_formula_sum "Si O2"
_cell_formula_units_Z 40
_cell_length_a 9.959148
_cell_length_b 7.390475
_cell_length_c 24.332410
_cell_angle_alpha 90.000000
_cell_angle_beta 90.000000
_cell_angle_gamma 90.000000
_cell_volume 1790.934342
_symmetry_space_group_name_H-M "P N N M"
_symmetry_group_IT_number 58
_symmetry_cell_setting 'orthorhombic'
loop_
_space_group_symop_operation_xyz
x,y,z
-x,-y,z
1/2+x,1/2-y,1/2-z
1/2-x,1/2+y,1/2-z
-x,-y,-z
x,y,-z
1/2-x,1/2+y,1/2+z
1/2+x,1/2-y,1/2+z
loop_
_atom_site_type_symbol
_atom_site_label
_atom_site_fract_x
_atom_site_fract_y
_atom_site_fract_z
Si Si1 0.217567 0.690268 0.823110
Si Si2 0.105622 0.185657 0.000000
Si Si3 0.973204 0.780645 0.618194
Si Si4 0.046577 0.205944 0.122049
Si Si5 0.203858 0.783384 0.303312
Si Si6 0.931759 0.211917 0.500000
O O1 0.323288 0.776211 0.865402
O O2 0.207625 0.766573 0.761949
O O3 0.279075 0.494215 0.814540
O O4 0.073064 0.684616 0.850194
O O5 0.072503 0.268367 0.059697
O O6 0.271955 0.224391 0.000000
O O7 0.000000 0.000000 0.000000
O O8 0.068629 0.716214 0.667781
O O9 0.013323 0.715517 0.557867
O O10 0.000000 0.000000 0.615759
O O11 0.172826 0.201728 0.162791
O O12 0.000000 0.000000 0.118841
O O13 0.000000 0.000000 0.500000
#
# Coordination Sequence:
#
# PCOD9441481 Si02
#       6
#     8   4   8   8   8   4
#     4  11  23  38  63  97 125 169 218 276 337 409
#     4  10  22  41  69  92 133 182 228 280 356 419
#     4   9  20  36  61  88 123 159 212 271 335 396
#     4  11  23  41  63  90 131 175 223 274 342 410
#     4  11  21  40  62  91 130 168 217 274 340 411
#     4  10  18  39  68  95 124 175 223 285 347 412
#
# _framework density 22.334709
#
# number of rings (size 3 to 8) (size 9 to 14) (size 15 to 20)
#    0.000    1.600    2.000    3.000    0.000    2.400 
#    0.000    6.000    0.000    2.400    0.000    0.000 
#    0.000    0.000    0.000    0.000    0.000    0.000 
#
# Total GULP energy -222721.554755 kJ/mol
# GULP energy per Si atom -5568.038869 kJ/mol
# Density = 2.228387 g / cm^3
# Si number density = 22.334709 Si / 1000 Ang^3
#
#
#
# Elastic Constant Matrix: (Units=GPa)
#
#
# Indices 1 2 3 4 5 6 
#
# 1 128.8742 10.7234 74.8333 0.0000 0.0000 0.0000
# 2 10.7234 30.1866 7.6159 0.0000 0.0000 0.0000
# 3 74.8333 7.6159 217.7559 0.0000 0.0000 0.0000
# 4 0.0000 0.0000 0.0000 22.4714 0.0000 0.0000
# 5 0.0000 0.0000 0.0000 0.0000 68.3628 0.0000
# 6 0.0000 0.0000 0.0000 0.0000 0.0000 22.0512
#
#
#
# Elastic Compliance Matrix: (Units=1/GPa)
#
#
# Indices 1 2 3 4 5 6 
#
# 1 0.009905 -0.002683 -0.003310 0.000000 0.000000 0.000000
# 2 -0.002683 0.034149 -0.000272 0.000000 0.000000 0.000000
# 3 -0.003310 -0.000272 0.005739 0.000000 0.000000 0.000000
# 4 0.000000 0.000000 0.000000 0.044501 0.000000 0.000000
# 5 0.000000 0.000000 0.000000 0.000000 0.014628 0.000000
# 6 0.000000 0.000000 0.000000 0.000000 0.000000 0.045349
#
#
# Mechanical properties :
#
#
# Convention : Reuss Voigt Hill
#
# Bulk Modulus (GPa) = 26.83691 62.57353 44.70522
# Shear Modulus (GPa) = 27.89817 41.48667 34.69242
#
# Velocity S-wave (km/s) = 3.53809 4.31455 3.94546
# Velocity P-wave (km/s) = 5.36028 7.27307 6.38867
#
# Compressibility (1/GPa) = 0.03726211
#
# Stress axis : x y z
#
# Youngs Moduli (GPa) = 100.96110 29.28326 174.23658
#
# Poissons Ratio (x) = 0.07858 0.57672
# Poissons Ratio (y) = 0.27092 0.04742
# Poissons Ratio (z) = 0.33418 0.00797
#
# Static dielectric constant tensor:
#      x y z
#    x 1.926330 0.000000 0.000000 
#    y 0.000000 2.009500 0.000000 
#    z 0.000000 0.000000 1.734810 
# 
# From -- ./inp_files/31303.got.cif
#   From: 2010.05.17/outbox.cif.g08.bks.cpg/sg58_16_cif.got.tgz:31303.got - 2010.06.03 14:20:14.
