data_PCOD9441108
_publ_section_title
;
Structure prediction by ZEFSAII (Michael W. Deem and Ramdas Pophale) SiO2 
 PCOD9441108
Probable space group: P N N M
;
_chemical_formula_sum "Si O2"
_cell_formula_units_Z 56
_cell_length_a 11.514212
_cell_length_b 20.182303
_cell_length_c 14.286367
_cell_angle_alpha 90.000000
_cell_angle_beta 90.000000
_cell_angle_gamma 90.000000
_cell_volume 3319.913328
_symmetry_space_group_name_H-M "P N N M"
_symmetry_group_IT_number 58
_symmetry_cell_setting 'orthorhombic'
loop_
_space_group_symop_operation_xyz
x,y,z
-x,-y,z
1/2+x,1/2-y,1/2-z
1/2-x,1/2+y,1/2-z
-x,-y,-z
x,y,-z
1/2-x,1/2+y,1/2+z
1/2+x,1/2-y,1/2+z
loop_
_atom_site_type_symbol
_atom_site_label
_atom_site_fract_x
_atom_site_fract_y
_atom_site_fract_z
Si Si1 0.983907 0.077304 0.109850
Si Si2 0.157886 0.190906 0.892896
Si Si3 0.692675 0.021699 0.606270
Si Si4 0.951273 0.394522 0.893185
Si Si5 0.696399 0.623976 0.236520
Si Si6 0.898617 0.243241 0.608680
Si Si7 0.934837 0.699180 0.248029
O O1 0.887937 0.109479 0.177217
O O2 0.103512 0.118627 0.121268
O O3 0.950786 0.082500 0.000000
O O4 0.000000 0.000000 0.131890
O O5 0.295267 0.202369 0.884576
O O6 0.101966 0.240544 0.818852
O O7 0.127817 0.211466 0.000000
O O8 0.738637 0.024003 0.500000
O O9 0.573205 0.064801 0.605867
O O10 0.777146 0.056852 0.678940
O O11 0.650517 0.947183 0.626888
O O12 0.969705 0.340895 0.812852
O O13 0.935983 0.368900 0.000000
O O14 0.641718 0.678670 0.166663
O O15 0.821484 0.654212 0.265107
O O16 0.914132 0.226710 0.500000
O O17 0.010846 0.273375 0.657554
#
# Coordination Sequence:
#
# PCOD9441108 Si02
#       7
#     8   8   8   8   8   8   8
#     4  10  21  37  56  76  99 137 184 222 253 299
#     4   9  18  34  53  74 101 135 179 219 254 307
#     4   8  14  26  46  72 102 133 165 203 247 302
#     4   8  14  25  44  73 103 129 163 208 252 298
#     4  10  19  33  53  77 102 140 174 211 258 317
#     4  10  20  33  52  77 105 138 173 215 265 317
#     4  10  18  30  52  80 106 132 169 212 271 313
#
# _framework density 16.867909999999998
#
# number of rings (size 3 to 8) (size 9 to 14) (size 15 to 20)
#    0.000    2.714    1.429    1.714    0.000    5.143 
#    0.000    0.000    0.000    1.714    0.000    8.000 
#    0.000    0.000    0.000    0.000    0.000    0.000 
#
# Total GULP energy -311926.435530 kJ/mol
# GULP energy per Si atom -5570.114920 kJ/mol
# Density = 1.682952 g / cm^3
# Si number density = 16.867910 Si / 1000 Ang^3
#
#
#
# Elastic Constant Matrix: (Units=GPa)
#
#
# Indices 1 2 3 4 5 6 
#
# 1 51.7760 23.5300 50.2450 0.0000 0.0000 0.0000
# 2 23.5300 50.6762 36.6244 0.0000 0.0000 0.0000
# 3 50.2450 36.6244 89.4801 0.0000 0.0000 0.0000
# 4 0.0000 0.0000 0.0000 2.5368 0.0000 0.0000
# 5 0.0000 0.0000 0.0000 0.0000 27.8517 0.0000
# 6 0.0000 0.0000 0.0000 0.0000 0.0000 15.4006
#
#
#
# Elastic Compliance Matrix: (Units=1/GPa)
#
#
# Indices 1 2 3 4 5 6 
#
# 1 0.042889 -0.003563 -0.022625 0.000000 0.000000 0.000000
# 2 -0.003563 0.028318 -0.009590 0.000000 0.000000 0.000000
# 3 -0.022625 -0.009590 0.027805 0.000000 0.000000 0.000000
# 4 0.000000 0.000000 0.000000 0.394204 0.000000 0.000000
# 5 0.000000 0.000000 0.000000 0.000000 0.035905 0.000000
# 6 0.000000 0.000000 0.000000 0.000000 0.000000 0.064933
#
#
# Mechanical properties :
#
#
# Convention : Reuss Voigt Hill
#
# Bulk Modulus (GPa) = 36.42070 45.85900 41.13985
# Shear Modulus (GPa) = 7.41003 14.59333 11.00168
#
# Velocity S-wave (km/s) = 2.09822 2.94454 2.55664
# Velocity P-wave (km/s) = 5.24486 6.22949 5.75826
#
# Compressibility (1/GPa) = 0.02745691
#
# Stress axis : x y z
#
# Youngs Moduli (GPa) = 23.31604 35.31274 35.96457
#
# Poissons Ratio (x) = 0.12582 0.81369
# Poissons Ratio (y) = 0.08308 0.34490
# Poissons Ratio (z) = 0.52752 0.33865
#
# Static dielectric constant tensor:
#      x y z
#    x 1.561320 0.000000 0.000000 
#    y 0.000000 1.574760 0.000000 
#    z 0.000000 0.000000 1.559250 
# 
# From -- ./inp_files/14610.got.cif
#   From: 2010.05.17/outbox.cif.g08.bks.cpg/sg58_8_cif.got.tgz:14610.got - 2010.06.03 14:20:14.
