data_PCOD9441313
_publ_section_title
;
Structure prediction by ZEFSAII (Michael W. Deem and Ramdas Pophale) SiO2 
 PCOD9441313
Probable space group: P N N M
;
_chemical_formula_sum "Si O2"
_cell_formula_units_Z 56
_cell_length_a 21.790906
_cell_length_b 9.687847
_cell_length_c 14.946678
_cell_angle_alpha 90.000000
_cell_angle_beta 90.000000
_cell_angle_gamma 90.000000
_cell_volume 3155.347804
_symmetry_space_group_name_H-M "P N N M"
_symmetry_group_IT_number 58
_symmetry_cell_setting 'orthorhombic'
loop_
_space_group_symop_operation_xyz
x,y,z
-x,-y,z
1/2+x,1/2-y,1/2-z
1/2-x,1/2+y,1/2-z
-x,-y,-z
x,y,-z
1/2-x,1/2+y,1/2+z
1/2+x,1/2-y,1/2+z
loop_
_atom_site_type_symbol
_atom_site_label
_atom_site_fract_x
_atom_site_fract_y
_atom_site_fract_z
Si Si1 0.436081 0.080028 0.603728
Si Si2 0.155289 0.484571 0.253525
Si Si3 0.949966 0.104054 0.897728
Si Si4 0.786513 0.018200 0.659646
Si Si5 0.699895 0.211624 0.899122
Si Si6 0.706205 0.821889 0.900217
Si Si7 0.315183 0.480364 0.642453
O O1 0.410578 0.081311 0.500000
O O2 0.444134 0.238852 0.635775
O O3 0.500000 0.000000 0.598837
O O4 0.396529 0.004632 0.680060
O O5 0.217285 0.479539 0.196047
O O6 0.157820 0.354034 0.320986
O O7 0.164520 0.611490 0.322793
O O8 0.882022 0.038061 0.898323
O O9 0.971038 0.125513 0.000000
O O10 0.000000 0.000000 0.855526
O O11 0.795889 0.158292 0.606707
O O12 0.824987 0.021090 0.751285
O O13 0.797099 0.875160 0.610472
O O14 0.767694 0.143460 0.883088
O O15 0.680777 0.176462 0.000000
O O16 0.774794 0.884662 0.882943
O O17 0.688207 0.864807 0.000000
#
# Coordination Sequence:
#
# PCOD9441313 Si02
#       7
#     8   8   8   8   8   8   8
#     4  10  22  38  55  77 104 137 176 217 260 308
#     4  10  19  35  52  73 103 138 174 210 255 313
#     4  10  20  33  50  72 101 137 175 213 258 313
#     4  10  19  30  48  77 106 135 171 212 256 301
#     4  10  19  32  52  76 106 139 171 210 260 313
#     4  10  19  31  51  77 105 135 170 212 257 306
#     4  10  18  33  49  70 103 140 174 208 253 310
#
# _framework density 17.747647000000001
#
# number of rings (size 3 to 8) (size 9 to 14) (size 15 to 20)
#    0.000    2.286    0.000    8.143    0.000    4.571 
#    0.000    1.429    0.000    1.714    0.000    0.000 
#    0.000    8.000    0.000    0.000    0.000    0.000 
#
# Total GULP energy -311894.998855 kJ/mol
# GULP energy per Si atom -5569.553551 kJ/mol
# Density = 1.770725 g / cm^3
# Si number density = 17.747647 Si / 1000 Ang^3
#
#
#
# Elastic Constant Matrix: (Units=GPa)
#
#
# Indices 1 2 3 4 5 6 
#
# 1 52.7966 17.4129 29.3397 0.0000 0.0000 0.0000
# 2 17.4129 129.1339 33.2420 0.0000 0.0000 0.0000
# 3 29.3397 33.2420 109.1002 0.0000 0.0000 0.0000
# 4 0.0000 0.0000 0.0000 10.7421 0.0000 0.0000
# 5 0.0000 0.0000 0.0000 0.0000 28.9974 0.0000
# 6 0.0000 0.0000 0.0000 0.0000 0.0000 -0.9696
#
#
#
# Elastic Compliance Matrix: (Units=1/GPa)
#
#
# Indices 1 2 3 4 5 6 
#
# 1 0.022572 -0.001607 -0.005580 0.000000 0.000000 0.000000
# 2 -0.001607 0.008517 -0.002163 0.000000 0.000000 0.000000
# 3 -0.005580 -0.002163 0.011326 0.000000 0.000000 0.000000
# 4 0.000000 0.000000 0.000000 0.093092 0.000000 0.000000
# 5 0.000000 0.000000 0.000000 0.000000 0.034486 0.000000
# 6 0.000000 0.000000 0.000000 0.000000 0.000000 -1.031357
#
#
# Mechanical properties :
#
#
# Convention : Reuss Voigt Hill
#
# Bulk Modulus (GPa) = 42.16965 50.11331 46.14148
# Shear Modulus (GPa) = -5.98976 21.82305 7.91665
#
# Velocity S-wave (km/s) = -1.83910 3.51041 2.11432
# Velocity P-wave (km/s) = 4.39347 6.68794 5.65823
#
# Compressibility (1/GPa) = 0.02371374
#
# Stress axis : x y z
#
# Youngs Moduli (GPa) = 44.30317 117.40647 88.29521
#
# Poissons Ratio (x) = 0.18869 0.49272
# Poissons Ratio (y) = 0.07120 0.19098
# Poissons Ratio (z) = 0.24723 0.25395
#
# Static dielectric constant tensor:
#      x y z
#    x 1.589510 0.000000 0.000000 
#    y 0.000000 1.659290 0.000000 
#    z 0.000000 0.000000 1.637820 
# 
# From -- ./inp_files/23255.got.cif
#   From: 2010.05.17/outbox.cif.g08.bks.cpg/sg58_12_cif.got.tgz:23255.got - 2010.06.03 14:20:14.
