data_PCOD9441975
_publ_section_title
;
Structure prediction by ZEFSAII (Michael W. Deem and Ramdas Pophale) SiO2 
 PCOD9441975
Probable space group: P N N M
;
_chemical_formula_sum "Si O2"
_cell_formula_units_Z 64
_cell_length_a 15.156989
_cell_length_b 9.626877
_cell_length_c 17.837885
_cell_angle_alpha 90.000000
_cell_angle_beta 90.000000
_cell_angle_gamma 90.000000
_cell_volume 2602.805514
_symmetry_space_group_name_H-M "P N N M"
_symmetry_group_IT_number 58
_symmetry_cell_setting 'orthorhombic'
loop_
_space_group_symop_operation_xyz
x,y,z
-x,-y,z
1/2+x,1/2-y,1/2-z
1/2-x,1/2+y,1/2-z
-x,-y,-z
x,y,-z
1/2-x,1/2+y,1/2+z
1/2+x,1/2-y,1/2+z
loop_
_atom_site_type_symbol
_atom_site_label
_atom_site_fract_x
_atom_site_fract_y
_atom_site_fract_z
Si Si1 0.456130 0.724672 0.910896
Si Si2 0.762687 0.356154 0.238528
Si Si3 0.189759 0.397182 0.332836
Si Si4 0.463212 0.785950 0.416388
Si Si5 0.139400 0.854559 0.081996
Si Si6 0.581130 0.432726 0.707770
Si Si7 0.317917 0.011975 0.586690
Si Si8 0.872084 0.084049 0.587230
O O1 0.403282 0.833688 0.858771
O O2 0.404690 0.576435 0.907849
O O3 0.554698 0.689638 0.880125
O O4 0.455557 0.766699 0.000000
O O5 0.809957 0.443103 0.304864
O O6 0.738079 0.193024 0.233604
O O7 0.664890 0.418459 0.241382
O O8 0.807807 0.392034 0.159958
O O9 0.256422 0.361763 0.401205
O O10 0.437758 0.729266 0.500000
O O11 0.569674 0.774405 0.417777
O O12 0.435143 0.703476 0.341735
O O13 0.408832 0.927593 0.412353
O O14 0.100792 0.953755 0.144672
O O15 0.127452 0.915201 0.000000
O O16 0.500000 0.500000 0.750498
O O17 0.302600 0.066051 0.500000
O O18 0.232736 0.909873 0.600562
O O19 0.881427 0.117917 0.500000
#
# Coordination Sequence:
#
# PCOD9441975 Si02
#       8
#     8   8   8   8   8   8   8   8
#     4   9  16  30  55  85 111 135 173 232 290 327
#     4  11  23  36  54  80 111 149 190 228 280 342
#     4  11  22  36  55  81 118 151 182 232 280 337
#     4   9  17  32  56  83 113 151 189 225 274 339
#     4   9  18  33  56  86 112 143 189 236 281 328
#     4   9  18  33  54  82 115 146 183 235 285 333
#     4  10  19  33  53  76 106 141 180 231 278 322
#     4   8  15  28  51  84 111 129 171 232 282 322
#
# _framework density 24.588851999999999
#
# number of rings (size 3 to 8) (size 9 to 14) (size 15 to 20)
#    0.000    2.500    1.250    2.250    0.000    3.000 
#    0.000    1.875    0.000    4.500    0.000    2.625 
#    0.000   32.000    0.000    0.000    0.000    0.000 
#
# Total GULP energy -356542.530574 kJ/mol
# GULP energy per Si atom -5570.977040 kJ/mol
# Density = 2.453289 g / cm^3
# Si number density = 24.588852 Si / 1000 Ang^3
#
#
#
# Elastic Constant Matrix: (Units=GPa)
#
#
# Indices 1 2 3 4 5 6 
#
# 1 93.3146 0.2426 24.9336 0.0000 0.0000 0.0000
# 2 0.2426 44.1804 17.1405 0.0000 0.0000 0.0000
# 3 24.9336 17.1405 100.8746 0.0000 0.0000 0.0000
# 4 0.0000 0.0000 0.0000 35.9656 0.0000 0.0000
# 5 0.0000 0.0000 0.0000 0.0000 44.4455 0.0000
# 6 0.0000 0.0000 0.0000 0.0000 0.0000 26.3109
#
#
#
# Elastic Compliance Matrix: (Units=1/GPa)
#
#
# Indices 1 2 3 4 5 6 
#
# 1 0.011525 0.001115 -0.003038 0.000000 0.000000 0.000000
# 2 0.001115 0.024340 -0.004412 0.000000 0.000000 0.000000
# 3 -0.003038 -0.004412 0.011414 0.000000 0.000000 0.000000
# 4 0.000000 0.000000 0.000000 0.027804 0.000000 0.000000
# 5 0.000000 0.000000 0.000000 0.000000 0.022499 0.000000
# 6 0.000000 0.000000 0.000000 0.000000 0.000000 0.038007
#
#
# Mechanical properties :
#
#
# Convention : Reuss Voigt Hill
#
# Bulk Modulus (GPa) = 28.89304 35.88924 32.39114
# Shear Modulus (GPa) = 31.28999 34.41461 32.85230
#
# Velocity S-wave (km/s) = 3.57112 3.74518 3.65919
# Velocity P-wave (km/s) = 5.36468 5.77315 5.57266
#
# Compressibility (1/GPa) = 0.03461041
#
# Stress axis : x y z
#
# Youngs Moduli (GPa) = 86.76510 41.08481 87.61254
#
# Poissons Ratio (x) = -0.04583 0.26619
# Poissons Ratio (y) = -0.09678 0.38651
# Poissons Ratio (z) = 0.26362 0.18125
#
# Static dielectric constant tensor:
#      x y z
#    x 2.031690 0.000000 0.000000 
#    y 0.000000 2.046400 0.000000 
#    z 0.000000 0.000000 2.058410 
# 
# From -- ./inp_files/27028.got.cif
#   From: 2010.05.17/outbox.cif.g08.bks.cpg/sg58_14_cif.got.tgz:27028.got - 2010.06.03 14:20:14.
