data_PCOD9441172
_publ_section_title
;
Structure prediction by ZEFSAII (Michael W. Deem and Ramdas Pophale) SiO2 
 PCOD9441172
Probable space group: P N N M
;
_chemical_formula_sum "Si O2"
_cell_formula_units_Z 56
_cell_length_a 14.895749
_cell_length_b 21.993690
_cell_length_c 7.609203
_cell_angle_alpha 90.000000
_cell_angle_beta 90.000000
_cell_angle_gamma 90.000000
_cell_volume 2492.869910
_symmetry_space_group_name_H-M "P N N M"
_symmetry_group_IT_number 58
_symmetry_cell_setting 'orthorhombic'
loop_
_space_group_symop_operation_xyz
x,y,z
-x,-y,z
1/2+x,1/2-y,1/2-z
1/2-x,1/2+y,1/2-z
-x,-y,-z
x,y,-z
1/2-x,1/2+y,1/2+z
1/2+x,1/2-y,1/2+z
loop_
_atom_site_type_symbol
_atom_site_label
_atom_site_fract_x
_atom_site_fract_y
_atom_site_fract_z
Si Si1 0.567017 0.862022 0.711026
Si Si2 0.256706 0.606795 0.301125
Si Si3 0.923957 0.546241 0.213052
Si Si4 0.223653 0.972863 0.290271
Si Si5 0.706484 0.257194 0.284039
Si Si6 0.000848 0.239619 0.210248
Si Si7 0.651003 0.653866 0.789340
O O1 0.579516 0.865344 0.500000
O O2 0.648854 0.899595 0.789227
O O3 0.469130 0.889149 0.748197
O O4 0.563876 0.793386 0.777444
O O5 0.287190 0.612953 0.500000
O O6 0.299722 0.543758 0.237512
O O7 0.270131 0.674072 0.220680
O O8 0.824569 0.537345 0.280745
O O9 0.000000 0.500000 0.276213
O O10 0.919094 0.538932 0.000000
O O11 0.226707 0.966224 0.500000
O O12 0.167177 0.915005 0.224319
O O13 0.710039 0.256241 0.500000
O O14 0.602429 0.250791 0.229380
O O15 0.773988 0.203284 0.224656
O O16 0.948726 0.177913 0.249641
O O17 0.003991 0.246352 0.000000
O O18 0.660402 0.653530 0.000000
#
# Coordination Sequence:
#
# PCOD9441172 Si02
#       7
#     8   8   8   8   8   8   8
#     4  10  18  31  53  79 105 136 178 224 269 322
#     4  11  21  34  54  78 111 146 177 221 274 329
#     4   9  15  26  48  75 101 133 175 215 255 318
#     4  10  20  35  55  78 108 146 185 227 272 325
#     4   9  19  37  58  81 110 148 187 222 275 336
#     4  10  20  35  58  83 107 139 186 234 271 324
#     4  10  20  37  59  82 112 146 182 230 283 328
#
# _framework density 22.464068999999999
#
# number of rings (size 3 to 8) (size 9 to 14) (size 15 to 20)
#    0.000    2.143    2.857    1.286    0.000    4.000 
#    0.000    4.286    0.000    7.714    0.000    0.000 
#    0.000    0.000    0.000    0.000    0.000    0.000 
#
# Total GULP energy -312214.035024 kJ/mol
# GULP energy per Si atom -5575.250625 kJ/mol
# Density = 2.241294 g / cm^3
# Si number density = 22.464069 Si / 1000 Ang^3
#
#
#
# Elastic Constant Matrix: (Units=GPa)
#
#
# Indices 1 2 3 4 5 6 
#
# 1 38.7364 5.4618 -3.4953 0.0000 0.0000 0.0000
# 2 5.4618 94.1792 4.8421 0.0000 0.0000 0.0000
# 3 -3.4953 4.8421 41.8039 0.0000 0.0000 0.0000
# 4 0.0000 0.0000 0.0000 19.5242 0.0000 0.0000
# 5 0.0000 0.0000 0.0000 0.0000 10.3092 0.0000
# 6 0.0000 0.0000 0.0000 0.0000 0.0000 27.9577
#
#
#
# Elastic Compliance Matrix: (Units=1/GPa)
#
#
# Indices 1 2 3 4 5 6 
#
# 1 0.026263 -0.001646 0.002387 0.000000 0.000000 0.000000
# 2 -0.001646 0.010785 -0.001387 0.000000 0.000000 0.000000
# 3 0.002387 -0.001387 0.024281 0.000000 0.000000 0.000000
# 4 0.000000 0.000000 0.000000 0.051219 0.000000 0.000000
# 5 0.000000 0.000000 0.000000 0.000000 0.097001 0.000000
# 6 0.000000 0.000000 0.000000 0.000000 0.000000 0.035768
#
#
# Mechanical properties :
#
#
# Convention : Reuss Voigt Hill
#
# Bulk Modulus (GPa) = 16.65641 20.92632 18.79136
# Shear Modulus (GPa) = 18.75320 22.75228 20.75274
#
# Velocity S-wave (km/s) = 2.89244 3.18595 3.04274
# Velocity P-wave (km/s) = 4.31112 4.78220 4.55275
#
# Compressibility (1/GPa) = 0.06003694
#
# Stress axis : x y z
#
# Youngs Moduli (GPa) = 38.07648 92.72309 41.18384
#
# Poissons Ratio (x) = 0.15260 -0.09829
# Poissons Ratio (y) = 0.06267 0.05711
# Poissons Ratio (z) = -0.09087 0.12859
#
# Static dielectric constant tensor:
#      x y z
#    x 1.821200 0.000000 0.000000 
#    y 0.000000 1.929550 0.000000 
#    z 0.000000 0.000000 1.859640 
# 
# From -- ./inp_files/6333.got.cif
#   From: 2010.05.17/outbox.cif.g08.bks.cpg/sg58_4_cif.got.tgz:6333.got - 2010.06.03 14:20:14.
