data_PCOD9441704
_publ_section_title
;
Structure prediction by ZEFSAII (Michael W. Deem and Ramdas Pophale) SiO2 
 PCOD9441704
Probable space group: P N N M
;
_chemical_formula_sum "Si O2"
_cell_formula_units_Z 64
_cell_length_a 23.556548
_cell_length_b 19.419702
_cell_length_c 8.986190
_cell_angle_alpha 90.000000
_cell_angle_beta 90.000000
_cell_angle_gamma 90.000000
_cell_volume 4110.832742
_symmetry_space_group_name_H-M "P N N M"
_symmetry_group_IT_number 58
_symmetry_cell_setting 'orthorhombic'
loop_
_space_group_symop_operation_xyz
x,y,z
-x,-y,z
1/2+x,1/2-y,1/2-z
1/2-x,1/2+y,1/2-z
-x,-y,-z
x,y,-z
1/2-x,1/2+y,1/2+z
1/2+x,1/2-y,1/2+z
loop_
_atom_site_type_symbol
_atom_site_label
_atom_site_fract_x
_atom_site_fract_y
_atom_site_fract_z
Si Si1 0.725644 0.635429 0.176846
Si Si2 0.119391 0.510565 0.322985
Si Si3 0.936384 0.355912 0.176885
Si Si4 0.670131 0.214293 0.176668
Si Si5 0.840850 0.271612 0.677820
Si Si6 0.058414 0.364879 0.322578
Si Si7 0.764858 0.850996 0.323180
Si Si8 0.254071 0.505845 0.677266
O O1 0.784454 0.668894 0.234216
O O2 0.678112 0.693281 0.209407
O O3 0.718249 0.563023 0.257917
O O4 0.728252 0.625416 0.000000
O O5 0.114072 0.525153 0.500000
O O6 0.092284 0.573124 0.233130
O O7 0.086562 0.439481 0.292713
O O8 0.186207 0.502681 0.290037
O O9 0.899565 0.295184 0.250823
O O10 0.000763 0.355289 0.233747
O O11 0.933443 0.351723 0.000000
O O12 0.606639 0.191355 0.213730
O O13 0.686418 0.293751 0.201646
O O14 0.678383 0.199558 0.000000
O O15 0.841856 0.281513 0.500000
O O16 0.791594 0.319848 0.746897
O O17 0.046626 0.361763 0.500000
O O18 0.755440 0.857074 0.500000
O O19 0.776794 0.924821 0.252621
O O20 0.260522 0.508873 0.500000
#
# Coordination Sequence:
#
# PCOD9441704 Si02
#       8
#     8   8   8   8   8   8   8   8
#     4  10  20  32  51  75 100 127 164 210 251 291
#     4  10  20  34  50  68  98 138 175 203 235 294
#     4  12  24  34  48  72 100 132 171 216 250 284
#     4   9  18  34  52  72  98 131 167 203 250 300
#     4  10  20  35  51  70  97 133 168 203 250 302
#     4  10  20  36  53  68  94 136 175 205 242 295
#     4  10  19  31  51  76 101 127 163 209 249 292
#     4  11  20  32  51  74 103 137 168 198 246 304
#
# _framework density 15.568621
#
# number of rings (size 3 to 8) (size 9 to 14) (size 15 to 20)
#    0.000    1.750    2.500    3.000    0.000    5.000 
#    0.000    0.000    0.000    0.000    0.000    0.875 
#    0.000    7.000    0.000    0.000    0.000    0.000 
#
# Total GULP energy -357333.768651 kJ/mol
# GULP energy per Si atom -5583.340135 kJ/mol
# Density = 1.553319 g / cm^3
# Si number density = 15.568621 Si / 1000 Ang^3
#
#
#
# Elastic Constant Matrix: (Units=GPa)
#
#
# Indices 1 2 3 4 5 6 
#
# 1 64.5730 39.8629 43.0084 0.0000 0.0000 0.0000
# 2 39.8629 117.3037 61.5662 0.0000 0.0000 0.0000
# 3 43.0084 61.5662 70.8147 0.0000 0.0000 0.0000
# 4 0.0000 0.0000 0.0000 23.2483 0.0000 0.0000
# 5 0.0000 0.0000 0.0000 0.0000 20.8511 0.0000
# 6 0.0000 0.0000 0.0000 0.0000 0.0000 17.9112
#
#
#
# Elastic Compliance Matrix: (Units=1/GPa)
#
#
# Indices 1 2 3 4 5 6 
#
# 1 0.026071 -0.001010 -0.014956 0.000000 0.000000 0.000000
# 2 -0.001010 0.015719 -0.013052 0.000000 0.000000 0.000000
# 3 -0.014956 -0.013052 0.034552 0.000000 0.000000 0.000000
# 4 0.000000 0.000000 0.000000 0.043014 0.000000 0.000000
# 5 0.000000 0.000000 0.000000 0.000000 0.047959 0.000000
# 6 0.000000 0.000000 0.000000 0.000000 0.000000 0.055831
#
#
# Mechanical properties :
#
#
# Convention : Reuss Voigt Hill
#
# Bulk Modulus (GPa) = 54.62810 60.17406 57.40108
# Shear Modulus (GPa) = 17.40444 19.61906 18.51175
#
# Velocity S-wave (km/s) = 3.34716 3.55373 3.45199
# Velocity P-wave (km/s) = 7.07833 7.45476 7.26898
#
# Compressibility (1/GPa) = 0.01830560
#
# Stress axis : x y z
#
# Youngs Moduli (GPa) = 38.35673 63.61924 28.94203
#
# Poissons Ratio (x) = 0.06427 0.43284
# Poissons Ratio (y) = 0.03875 0.37775
# Poissons Ratio (z) = 0.57365 0.83036
#
# Static dielectric constant tensor:
#      x y z
#    x 1.496400 0.000000 0.000000 
#    y 0.000000 1.522500 0.000000 
#    z 0.000000 0.000000 1.516830 
# 
# From -- ./inp_files/8275.got.cif
#   From: 2010.05.17/outbox.cif.g08.bks.cpg/sg58_5_cif.got.tgz:8275.got - 2010.06.03 14:20:14.
