data_PCOD9441186
_publ_section_title
;
Structure prediction by ZEFSAII (Michael W. Deem and Ramdas Pophale) SiO2 
 PCOD9441186
Probable space group: P N N M
;
_chemical_formula_sum "Si O2"
_cell_formula_units_Z 56
_cell_length_a 12.041106
_cell_length_b 14.844763
_cell_length_c 16.756695
_cell_angle_alpha 90.000000
_cell_angle_beta 90.000000
_cell_angle_gamma 90.000000
_cell_volume 2995.215074
_symmetry_space_group_name_H-M "P N N M"
_symmetry_group_IT_number 58
_symmetry_cell_setting 'orthorhombic'
loop_
_space_group_symop_operation_xyz
x,y,z
-x,-y,z
1/2+x,1/2-y,1/2-z
1/2-x,1/2+y,1/2-z
-x,-y,-z
x,y,-z
1/2-x,1/2+y,1/2+z
1/2+x,1/2-y,1/2+z
loop_
_atom_site_type_symbol
_atom_site_label
_atom_site_fract_x
_atom_site_fract_y
_atom_site_fract_z
Si Si1 0.959701 0.323421 0.173684
Si Si2 0.588484 0.924716 0.164294
Si Si3 0.080466 0.769087 0.410018
Si Si4 0.827029 0.651176 0.088147
Si Si5 0.821476 0.960635 0.757710
Si Si6 0.212229 0.561644 0.089248
Si Si7 0.460169 0.358460 0.251140
O O1 0.951954 0.388216 0.249759
O O2 0.891115 0.371921 0.104109
O O3 0.915335 0.225862 0.198598
O O4 0.087590 0.312724 0.151858
O O5 0.586402 0.837396 0.107608
O O6 0.714430 0.956647 0.184380
O O7 0.500000 0.000000 0.137951
O O8 0.039609 0.786380 0.500000
O O9 0.204553 0.809442 0.403527
O O10 0.018410 0.819257 0.337854
O O11 0.824802 0.542848 0.092749
O O12 0.867264 0.676643 0.000000
O O13 0.786647 0.928535 0.668532
O O14 0.924376 0.898325 0.784057
O O15 0.871762 0.060762 0.749586
O O16 0.259971 0.575799 0.000000
#
# Coordination Sequence:
#
# PCOD9441186 Si02
#       7
#     8   8   8   8   8   8   8
#     4  10  19  32  51  83 109 140 184 230 277 329
#     4  10  21  36  56  82 106 144 187 236 275 319
#     4  10  21  36  54  81 112 149 188 223 277 334
#     4  10  18  31  54  80 113 144 174 225 281 339
#     4  10  20  37  56  80 111 145 185 223 276 333
#     4  10  19  32  53  81 112 142 175 224 282 332
#     4  10  21  35  56  78 109 150 181 228 273 327
#
# _framework density 18.696486
#
# number of rings (size 3 to 8) (size 9 to 14) (size 15 to 20)
#    0.000    2.000    1.429    3.429    0.000    2.000 
#    5.143    1.429    0.000    1.714    0.000    7.000 
#    0.000    0.000    0.000    0.000    0.000    0.000 
#
# Total GULP energy -312178.591303 kJ/mol
# GULP energy per Si atom -5574.617702 kJ/mol
# Density = 1.865393 g / cm^3
# Si number density = 18.696486 Si / 1000 Ang^3
#
#
#
# Elastic Constant Matrix: (Units=GPa)
#
#
# Indices 1 2 3 4 5 6 
#
# 1 58.3729 30.1616 12.3233 0.0000 0.0000 0.0000
# 2 30.1616 114.9313 17.4538 0.0000 0.0000 0.0000
# 3 12.3233 17.4538 29.9580 0.0000 0.0000 0.0000
# 4 0.0000 0.0000 0.0000 14.6031 0.0000 0.0000
# 5 0.0000 0.0000 0.0000 0.0000 7.3611 0.0000
# 6 0.0000 0.0000 0.0000 0.0000 0.0000 16.0354
#
#
#
# Elastic Compliance Matrix: (Units=1/GPa)
#
#
# Indices 1 2 3 4 5 6 
#
# 1 0.020720 -0.004545 -0.005875 0.000000 0.000000 0.000000
# 2 -0.004545 0.010543 -0.004272 0.000000 0.000000 0.000000
# 3 -0.005875 -0.004272 0.038286 0.000000 0.000000 0.000000
# 4 0.000000 0.000000 0.000000 0.068479 0.000000 0.000000
# 5 0.000000 0.000000 0.000000 0.000000 0.135850 0.000000
# 6 0.000000 0.000000 0.000000 0.000000 0.000000 0.062362
#
#
# Mechanical properties :
#
#
# Convention : Reuss Voigt Hill
#
# Bulk Modulus (GPa) = 24.89863 35.90439 30.40151
# Shear Modulus (GPa) = 13.19217 17.15482 15.17350
#
# Velocity S-wave (km/s) = 2.65919 3.03238 2.85190
# Velocity P-wave (km/s) = 4.77227 5.61302 5.20963
#
# Compressibility (1/GPa) = 0.04016285
#
# Stress axis : x y z
#
# Youngs Moduli (GPa) = 48.26209 94.85387 26.11918
#
# Poissons Ratio (x) = 0.43115 0.15345
# Poissons Ratio (y) = 0.21937 0.11159
# Poissons Ratio (z) = 0.28355 0.40526
#
# Static dielectric constant tensor:
#      x y z
#    x 1.661870 0.000000 0.000000 
#    y 0.000000 1.650850 0.000000 
#    z 0.000000 0.000000 1.653590 
# 
# From -- ./inp_files/21294.got.cif
#   From: 2010.05.17/outbox.cif.g08.bks.cpg/sg58_11_cif.got.tgz:21294.got - 2010.06.03 14:20:14.
