data_PCOD9441726
_publ_section_title
;
Structure prediction by ZEFSAII (Michael W. Deem and Ramdas Pophale) SiO2 
 PCOD9441726
Probable space group: P N N M
;
_chemical_formula_sum "Si O2"
_cell_formula_units_Z 32
_cell_length_a 13.064961
_cell_length_b 14.745778
_cell_length_c 7.997362
_cell_angle_alpha 90.000000
_cell_angle_beta 90.000000
_cell_angle_gamma 90.000000
_cell_volume 1540.715897
_symmetry_space_group_name_H-M "P N N M"
_symmetry_group_IT_number 58
_symmetry_cell_setting 'orthorhombic'
loop_
_space_group_symop_operation_xyz
x,y,z
-x,-y,z
1/2+x,1/2-y,1/2-z
1/2-x,1/2+y,1/2-z
-x,-y,-z
x,y,-z
1/2-x,1/2+y,1/2+z
1/2+x,1/2-y,1/2+z
loop_
_atom_site_type_symbol
_atom_site_label
_atom_site_fract_x
_atom_site_fract_y
_atom_site_fract_z
Si Si1 0.593848 0.927884 0.807347
Si Si2 0.769215 0.584096 0.699258
Si Si3 0.460414 0.401212 0.704961
Si Si4 0.054724 0.281124 0.805280
O O1 0.548599 0.841181 0.714762
O O2 0.500000 0.000000 0.810632
O O3 0.686049 0.988104 0.734247
O O4 0.615584 0.902095 0.000000
O O5 0.761925 0.570200 0.500000
O O6 0.656990 0.608629 0.761561
O O7 0.852458 0.662634 0.726534
O O8 0.500000 0.500000 0.753173
O O9 0.461399 0.396985 0.500000
O O10 0.530421 0.318182 0.764243
O O11 0.079404 0.273490 0.000000
#
# Coordination Sequence:
#
# PCOD9441726 Si02
#       4
#     8   8   8   8
#     4   8  15  29  50  73  97 129 165 199 239 292
#     4   9  18  34  54  73  98 134 169 202 244 295
#     4   9  19  35  52  72 100 134 171 205 241 293
#     4  10  19  31  52  79 102 127 163 210 254 290
#
# _framework density 20.769566000000001
#
# number of rings (size 3 to 8) (size 9 to 14) (size 15 to 20)
#    0.000    3.000    0.000    2.250    0.000    6.500 
#    0.000    5.000    0.000    6.750    0.000    0.000 
#    0.000    0.000    0.000    0.000    0.000    0.000 
#
# Total GULP energy -178365.864734 kJ/mol
# GULP energy per Si atom -5573.933273 kJ/mol
# Density = 2.072229 g / cm^3
# Si number density = 20.769566 Si / 1000 Ang^3
#
#
#
# Elastic Constant Matrix: (Units=GPa)
#
#
# Indices 1 2 3 4 5 6 
#
# 1 92.1639 43.1546 -6.7933 0.0000 0.0000 0.0000
# 2 43.1546 128.2386 -11.2202 0.0000 0.0000 0.0000
# 3 -6.7933 -11.2202 7.0912 0.0000 0.0000 0.0000
# 4 0.0000 0.0000 0.0000 48.3416 0.0000 0.0000
# 5 0.0000 0.0000 0.0000 0.0000 12.8170 0.0000
# 6 0.0000 0.0000 0.0000 0.0000 0.0000 18.1827
#
#
#
# Elastic Compliance Matrix: (Units=1/GPa)
#
#
# Indices 1 2 3 4 5 6 
#
# 1 0.013132 -0.003852 0.006486 0.000000 0.000000 0.000000
# 2 -0.003852 0.010181 0.012419 0.000000 0.000000 0.000000
# 3 0.006486 0.012419 0.166884 0.000000 0.000000 0.000000
# 4 0.000000 0.000000 0.000000 0.020686 0.000000 0.000000
# 5 0.000000 0.000000 0.000000 0.000000 0.078022 0.000000
# 6 0.000000 0.000000 0.000000 0.000000 0.000000 0.054997
#
#
# Mechanical properties :
#
#
# Convention : Reuss Voigt Hill
#
# Bulk Modulus (GPa) = 4.53922 30.86399 17.70160
# Shear Modulus (GPa) = 12.91225 29.35843 21.13534
#
# Velocity S-wave (km/s) = 2.49608 3.76377 3.19346
# Velocity P-wave (km/s) = 3.23998 5.81210 4.70521
#
# Compressibility (1/GPa) = 0.22030233
#
# Stress axis : x y z
#
# Youngs Moduli (GPa) = 76.15130 98.22528 5.99219
#
# Poissons Ratio (x) = 0.37832 -0.03886
# Poissons Ratio (y) = 0.29330 -0.07442
# Poissons Ratio (z) = -0.49390 -1.21984
#
# Static dielectric constant tensor:
#      x y z
#    x 1.772200 0.000000 0.000000 
#    y 0.000000 1.750670 0.000000 
#    z 0.000000 0.000000 1.743870 
# 
# From -- ./inp_files/3492.got.cif
#   From: 2010.05.17/outbox.cif.g08.bks.cpg/sg58_2_cif.got.tgz:3492.got - 2010.06.03 14:20:14.
