data_PCOD9441798
_publ_section_title
;
Structure prediction by ZEFSAII (Michael W. Deem and Ramdas Pophale) SiO2 
 PCOD9441798
Probable space group: P N N M
;
_chemical_formula_sum "Si O2"
_cell_formula_units_Z 48
_cell_length_a 11.499535
_cell_length_b 16.167170
_cell_length_c 13.729089
_cell_angle_alpha 90.000000
_cell_angle_beta 90.000000
_cell_angle_gamma 90.000000
_cell_volume 2552.442720
_symmetry_space_group_name_H-M "P N N M"
_symmetry_group_IT_number 58
_symmetry_cell_setting 'orthorhombic'
loop_
_space_group_symop_operation_xyz
x,y,z
-x,-y,z
1/2+x,1/2-y,1/2-z
1/2-x,1/2+y,1/2-z
-x,-y,-z
x,y,-z
1/2-x,1/2+y,1/2+z
1/2+x,1/2-y,1/2+z
loop_
_atom_site_type_symbol
_atom_site_label
_atom_site_fract_x
_atom_site_fract_y
_atom_site_fract_z
Si Si1 0.110650 0.361894 0.111772
Si Si2 0.493602 0.347085 0.736569
Si Si3 0.348956 0.451054 0.889017
Si Si4 0.660507 0.353196 0.894856
Si Si5 0.703936 0.327250 0.386815
Si Si6 0.614951 0.824292 0.285020
O O1 0.214191 0.427153 0.124504
O O2 0.169283 0.270392 0.118942
O O3 0.006794 0.367894 0.189341
O O4 0.066372 0.369228 0.000000
O O5 0.418455 0.411399 0.799141
O O6 0.581876 0.308285 0.816213
O O7 0.587393 0.373437 0.654540
O O8 0.411049 0.273306 0.704198
O O9 0.366336 0.549047 0.890027
O O10 0.380574 0.420676 0.000000
O O11 0.793941 0.346651 0.868245
O O12 0.634561 0.319895 0.000000
O O13 0.725937 0.346829 0.500000
O O14 0.814631 0.341175 0.315585
#
# Coordination Sequence:
#
# PCOD9441798 Si02
#       6
#     8   8   8   8   8   8
#     4   9  17  30  50  75 106 139 167 207 266 326
#     4  10  19  32  53  76 107 143 180 216 261 316
#     4  10  19  33  55  82 115 141 162 210 281 337
#     4  10  21  34  53  85 113 134 167 218 276 326
#     4   9  18  32  50  73 101 139 183 224 257 296
#     4  10  19  32  51  74 107 142 180 217 254 315
#
# _framework density 18.805515
#
# number of rings (size 3 to 8) (size 9 to 14) (size 15 to 20)
#    0.000    2.333    1.667    1.500    0.000    3.333 
#    0.000    2.500    0.000    8.000    0.000    4.667 
#    0.000    0.000    0.000    0.000    0.000    0.000 
#
# Total GULP energy -267323.584290 kJ/mol
# GULP energy per Si atom -5569.241339 kJ/mol
# Density = 1.876271 g / cm^3
# Si number density = 18.805515 Si / 1000 Ang^3
#
#
#
# Elastic Constant Matrix: (Units=GPa)
#
#
# Indices 1 2 3 4 5 6 
#
# 1 97.7556 8.3403 46.6278 0.0000 0.0000 0.0000
# 2 8.3403 14.9142 6.3403 0.0000 0.0000 0.0000
# 3 46.6278 6.3403 102.5596 0.0000 0.0000 0.0000
# 4 0.0000 0.0000 0.0000 17.1882 0.0000 0.0000
# 5 0.0000 0.0000 0.0000 0.0000 20.3297 0.0000
# 6 0.0000 0.0000 0.0000 0.0000 0.0000 31.5495
#
#
#
# Elastic Compliance Matrix: (Units=1/GPa)
#
#
# Indices 1 2 3 4 5 6 
#
# 1 0.013422 -0.005044 -0.005790 0.000000 0.000000 0.000000
# 2 -0.005044 0.070755 -0.002081 0.000000 0.000000 0.000000
# 3 -0.005790 -0.002081 0.012512 0.000000 0.000000 0.000000
# 4 0.000000 0.000000 0.000000 0.058180 0.000000 0.000000
# 5 0.000000 0.000000 0.000000 0.000000 0.049189 0.000000
# 6 0.000000 0.000000 0.000000 0.000000 0.000000 0.031696
#
#
# Mechanical properties :
#
#
# Convention : Reuss Voigt Hill
#
# Bulk Modulus (GPa) = 14.11269 37.53846 25.82558
# Shear Modulus (GPa) = 17.53133 24.07488 20.80310
#
# Velocity S-wave (km/s) = 3.05658 3.58187 3.32960
# Velocity P-wave (km/s) = 4.46965 6.09189 5.34270
#
# Compressibility (1/GPa) = 0.07085821
#
# Stress axis : x y z
#
# Youngs Moduli (GPa) = 74.50563 14.13320 79.92606
#
# Poissons Ratio (x) = 0.07129 0.46279
# Poissons Ratio (y) = 0.37582 0.16632
# Poissons Ratio (z) = 0.43141 0.02941
#
# Static dielectric constant tensor:
#      x y z
#    x 1.698510 0.000000 0.000000 
#    y 0.000000 1.652200 0.000000 
#    z 0.000000 0.000000 1.685190 
# 
# From -- ./inp_files/14374.got.cif
#   From: 2010.05.17/outbox.cif.g08.bks.cpg/sg58_8_cif.got.tgz:14374.got - 2010.06.03 14:20:14.
