data_PCOD9441858
_publ_section_title
;
Structure prediction by ZEFSAII (Michael W. Deem and Ramdas Pophale) SiO2 
 PCOD9441858
Probable space group: P N N M
;
_chemical_formula_sum "Si O2"
_cell_formula_units_Z 64
_cell_length_a 14.973677
_cell_length_b 16.911454
_cell_length_c 15.039671
_cell_angle_alpha 90.000000
_cell_angle_beta 90.000000
_cell_angle_gamma 90.000000
_cell_volume 3808.445501
_symmetry_space_group_name_H-M "P N N M"
_symmetry_group_IT_number 58
_symmetry_cell_setting 'orthorhombic'
loop_
_space_group_symop_operation_xyz
x,y,z
-x,-y,z
1/2+x,1/2-y,1/2-z
1/2-x,1/2+y,1/2-z
-x,-y,-z
x,y,-z
1/2-x,1/2+y,1/2+z
1/2+x,1/2-y,1/2+z
loop_
_atom_site_type_symbol
_atom_site_label
_atom_site_fract_x
_atom_site_fract_y
_atom_site_fract_z
Si Si1 0.341273 0.187610 0.902144
Si Si2 0.000385 0.404164 0.102748
Si Si3 0.943653 0.701061 0.599312
Si Si4 0.686927 0.463398 0.901710
Si Si5 0.646077 0.101937 0.745977
Si Si6 0.681645 0.636321 0.154028
Si Si7 0.663050 0.916546 0.269089
Si Si8 0.512224 0.376709 0.104624
O O1 0.449369 0.189095 0.900783
O O2 0.308829 0.277926 0.889907
O O3 0.317188 0.135086 0.817473
O O4 0.313062 0.158653 0.000000
O O5 0.917597 0.384287 0.168570
O O6 0.000000 0.500000 0.098035
O O7 0.090429 0.380276 0.155214
O O8 0.994085 0.375991 0.000000
O O9 0.910499 0.682500 0.500000
O O10 0.899334 0.647815 0.673634
O O11 0.933817 0.794776 0.615625
O O12 0.705078 0.557029 0.900383
O O13 0.750269 0.423697 0.830491
O O14 0.583345 0.445893 0.882410
O O15 0.705696 0.432004 0.000000
O O16 0.748529 0.129102 0.734390
O O17 0.640001 0.007114 0.758301
O O18 0.574793 0.626864 0.166274
O O19 0.481748 0.378805 0.000000
#
# Coordination Sequence:
#
# PCOD9441858 Si02
#       8
#     8   8   8   8   8   8   8   8
#     4  10  20  34  52  72 102 137 169 213 256 297
#     4   9  17  30  47  69 102 135 162 199 245 301
#     4   9  18  33  51  74 103 135 170 208 252 295
#     4  10  19  32  53  77 102 133 169 211 260 310
#     4  10  20  32  50  75 103 136 172 204 249 306
#     4  10  20  32  51  75 103 132 164 210 259 308
#     4  10  20  32  47  75 105 134 174 205 248 304
#     4   9  18  32  52  76 100 128 166 209 257 300
#
# _framework density 16.804756999999999
#
# number of rings (size 3 to 8) (size 9 to 14) (size 15 to 20)
#    0.000    2.375    1.250    2.625    1.750    5.500 
#    0.000    1.250    0.000    0.000    0.000    0.875 
#    0.000    4.000    0.000    0.000    0.000    0.000 
#
# Total GULP energy -356406.740981 kJ/mol
# GULP energy per Si atom -5568.855328 kJ/mol
# Density = 1.676651 g / cm^3
# Si number density = 16.804757 Si / 1000 Ang^3
#
#
#
# Elastic Constant Matrix: (Units=GPa)
#
#
# Indices 1 2 3 4 5 6 
#
# 1 63.9742 34.0059 40.7070 0.0000 0.0000 0.0000
# 2 34.0059 54.7787 56.4124 0.0000 0.0000 0.0000
# 3 40.7070 56.4124 115.3178 0.0000 0.0000 0.0000
# 4 0.0000 0.0000 0.0000 14.7880 0.0000 0.0000
# 5 0.0000 0.0000 0.0000 0.0000 16.6729 0.0000
# 6 0.0000 0.0000 0.0000 0.0000 0.0000 22.0674
#
#
#
# Elastic Compliance Matrix: (Units=1/GPa)
#
#
# Indices 1 2 3 4 5 6 
#
# 1 0.023641 -0.012257 -0.002350 0.000000 0.000000 0.000000
# 2 -0.012257 0.043143 -0.016779 0.000000 0.000000 0.000000
# 3 -0.002350 -0.016779 0.017709 0.000000 0.000000 0.000000
# 4 0.000000 0.000000 0.000000 0.067623 0.000000 0.000000
# 5 0.000000 0.000000 0.000000 0.000000 0.059978 0.000000
# 6 0.000000 0.000000 0.000000 0.000000 0.000000 0.045316
#
#
# Mechanical properties :
#
#
# Convention : Reuss Voigt Hill
#
# Bulk Modulus (GPa) = 46.03231 55.14680 50.58955
# Shear Modulus (GPa) = 15.27089 17.56868 16.41979
#
# Velocity S-wave (km/s) = 3.01778 3.23686 3.12924
# Velocity P-wave (km/s) = 6.29242 6.84523 6.57464
#
# Compressibility (1/GPa) = 0.02172387
#
# Stress axis : x y z
#
# Youngs Moduli (GPa) = 42.29862 23.17869 56.46841
#
# Poissons Ratio (x) = 0.28409 0.13267
# Poissons Ratio (y) = 0.51844 0.94746
# Poissons Ratio (z) = 0.09938 0.38891
#
# Static dielectric constant tensor:
#      x y z
#    x 1.596640 0.000000 0.000000 
#    y 0.000000 1.592150 0.000000 
#    z 0.000000 0.000000 1.559480 
# 
# From -- ./inp_files/22460.got.cif
#   From: 2010.05.17/outbox.cif.g08.bks.cpg/sg58_12_cif.got.tgz:22460.got - 2010.06.03 14:20:14.
