data_PCOD9441601
_publ_section_title
;
Structure prediction by ZEFSAII (Michael W. Deem and Ramdas Pophale) SiO2 
 PCOD9441601
Probable space group: P N N M
;
_chemical_formula_sum "Si O2"
_cell_formula_units_Z 64
_cell_length_a 12.979200
_cell_length_b 26.109354
_cell_length_c 9.628902
_cell_angle_alpha 90.000000
_cell_angle_beta 90.000000
_cell_angle_gamma 90.000000
_cell_volume 3263.028131
_symmetry_space_group_name_H-M "P N N M"
_symmetry_group_IT_number 58
_symmetry_cell_setting 'orthorhombic'
loop_
_space_group_symop_operation_xyz
x,y,z
-x,-y,z
1/2+x,1/2-y,1/2-z
1/2-x,1/2+y,1/2-z
-x,-y,-z
x,y,-z
1/2-x,1/2+y,1/2+z
1/2+x,1/2-y,1/2+z
loop_
_atom_site_type_symbol
_atom_site_label
_atom_site_fract_x
_atom_site_fract_y
_atom_site_fract_z
Si Si1 0.966779 0.944022 0.833396
Si Si2 0.254862 0.100871 0.164361
Si Si3 0.618728 0.099220 0.339192
Si Si4 0.085991 0.663489 0.834290
Si Si5 0.044150 0.837678 0.158809
Si Si6 0.465241 0.748401 0.837043
Si Si7 0.722150 0.182872 0.844703
Si Si8 0.123004 0.495331 0.348396
O O1 0.857800 0.919037 0.788717
O O2 0.048393 0.898286 0.810293
O O3 0.955387 0.950503 0.000000
O O4 0.000000 0.000000 0.778243
O O5 0.310753 0.143493 0.258602
O O6 0.325506 0.050057 0.172232
O O7 0.250592 0.116190 0.000000
O O8 0.639959 0.096463 0.500000
O O9 0.500162 0.118119 0.321641
O O10 0.685473 0.142715 0.267421
O O11 0.644884 0.045994 0.267645
O O12 0.034498 0.711018 0.750943
O O13 0.098834 0.674263 0.000000
O O14 0.156347 0.812194 0.163493
O O15 0.976980 0.806621 0.267472
O O16 0.004670 0.832618 0.000000
O O17 0.347171 0.767113 0.826450
O O18 0.494348 0.749072 0.000000
O O19 0.696903 0.163071 0.000000
O O20 0.158475 0.476035 0.500000
O O21 0.000000 0.500000 0.351938
#
# Coordination Sequence:
#
# PCOD9441601 Si02
#       8
#     8   8   8   8   8   8   8   8
#     4   9  20  38  60  86 114 150 200 249 287 336
#     4  10  20  34  55  83 115 155 199 239 289 343
#     4  10  20  32  50  78 113 148 187 237 285 337
#     4  10  20  35  55  82 117 151 185 230 287 345
#     4  10  21  39  63  88 115 149 193 240 287 340
#     4  10  21  38  60  87 119 149 186 234 286 348
#     4   9  20  37  59  84 111 149 190 231 284 345
#     4  10  19  30  49  78 112 151 194 239 287 348
#
# _framework density 19.613683999999999
#
# number of rings (size 3 to 8) (size 9 to 14) (size 15 to 20)
#    0.000    2.250    1.250    1.125    1.750    3.750 
#    0.000    3.125    0.000    0.750    0.000    0.000 
#    0.000    0.000    0.000    0.000    0.000    0.000 
#
# Total GULP energy -356902.796323 kJ/mol
# GULP energy per Si atom -5576.606193 kJ/mol
# Density = 1.956904 g / cm^3
# Si number density = 19.613684 Si / 1000 Ang^3
#
#
#
# Elastic Constant Matrix: (Units=GPa)
#
#
# Indices 1 2 3 4 5 6 
#
# 1 64.6820 25.0802 21.8724 0.0000 0.0000 0.0000
# 2 25.0802 82.6971 48.1922 0.0000 0.0000 0.0000
# 3 21.8724 48.1922 100.7764 0.0000 0.0000 0.0000
# 4 0.0000 0.0000 0.0000 41.1374 0.0000 0.0000
# 5 0.0000 0.0000 0.0000 0.0000 16.6106 0.0000
# 6 0.0000 0.0000 0.0000 0.0000 0.0000 14.0173
#
#
#
# Elastic Compliance Matrix: (Units=1/GPa)
#
#
# Indices 1 2 3 4 5 6 
#
# 1 0.017746 -0.004350 -0.001772 0.000000 0.000000 0.000000
# 2 -0.004350 0.017830 -0.007583 0.000000 0.000000 0.000000
# 3 -0.001772 -0.007583 0.013934 0.000000 0.000000 0.000000
# 4 0.000000 0.000000 0.000000 0.024309 0.000000 0.000000
# 5 0.000000 0.000000 0.000000 0.000000 0.060202 0.000000
# 6 0.000000 0.000000 0.000000 0.000000 0.000000 0.071340
#
#
# Mechanical properties :
#
#
# Convention : Reuss Voigt Hill
#
# Bulk Modulus (GPa) = 45.24426 48.71614 46.98020
# Shear Modulus (GPa) = 20.82154 24.55376 22.68765
#
# Velocity S-wave (km/s) = 3.26173 3.54201 3.40476
# Velocity P-wave (km/s) = 6.10761 6.45132 6.28182
#
# Compressibility (1/GPa) = 0.02210225
#
# Stress axis : x y z
#
# Youngs Moduli (GPa) = 56.35128 56.08450 71.76939
#
# Poissons Ratio (x) = 0.24394 0.12714
# Poissons Ratio (y) = 0.24510 0.54420
# Poissons Ratio (z) = 0.09983 0.42526
#
# Static dielectric constant tensor:
#      x y z
#    x 1.722440 0.000000 0.000000 
#    y 0.000000 1.684230 0.000000 
#    z 0.000000 0.000000 1.670970 
# 
# From -- ./inp_files/6930.got.cif
#   From: 2010.05.17/outbox.cif.g08.bks.cpg/sg58_4_cif.got.tgz:6930.got - 2010.06.03 14:20:14.
