data_PCOD9441641
_publ_section_title
;
Structure prediction by ZEFSAII (Michael W. Deem and Ramdas Pophale) SiO2 
 PCOD9441641
Probable space group: P N N M
;
_chemical_formula_sum "Si O2"
_cell_formula_units_Z 56
_cell_length_a 23.682678
_cell_length_b 10.004224
_cell_length_c 14.564696
_cell_angle_alpha 90.000000
_cell_angle_beta 90.000000
_cell_angle_gamma 90.000000
_cell_volume 3450.767044
_symmetry_space_group_name_H-M "P N N M"
_symmetry_group_IT_number 58
_symmetry_cell_setting 'orthorhombic'
loop_
_space_group_symop_operation_xyz
x,y,z
-x,-y,z
1/2+x,1/2-y,1/2-z
1/2-x,1/2+y,1/2-z
-x,-y,-z
x,y,-z
1/2-x,1/2+y,1/2+z
1/2+x,1/2-y,1/2+z
loop_
_atom_site_type_symbol
_atom_site_label
_atom_site_fract_x
_atom_site_fract_y
_atom_site_fract_z
Si Si1 0.214093 0.107137 0.894966
Si Si2 0.562200 0.749567 0.110681
Si Si3 0.190951 0.835840 0.391922
Si Si4 0.914152 0.535013 0.391022
Si Si5 0.668376 0.400539 0.795922
Si Si6 0.703996 0.135687 0.108107
Si Si7 0.551601 0.343578 0.108233
O O1 0.263193 0.218575 0.879860
O O2 0.169434 0.116348 0.813375
O O3 0.242859 0.961114 0.886695
O O4 0.193926 0.123459 0.000000
O O5 0.627070 0.712586 0.127703
O O6 0.513371 0.647060 0.141894
O O7 0.556414 0.902245 0.146534
O O8 0.554266 0.748220 0.000000
O O9 0.192602 0.874009 0.500000
O O10 0.199476 0.965099 0.329043
O O11 0.911211 0.508678 0.500000
O O12 0.849998 0.550461 0.357928
O O13 0.939829 0.682151 0.383869
O O14 0.701532 0.274079 0.838485
O O15 0.605032 0.401849 0.837764
O O16 0.694197 0.166384 0.000000
O O17 0.556797 0.382079 0.000000
#
# Coordination Sequence:
#
# PCOD9441641 Si02
#       7
#     8   8   8   8   8   8   8
#     4  10  20  34  49  63  85 122 162 192 221 262
#     4   9  15  25  42  65  95 125 146 170 215 279
#     4  10  19  31  48  70  96 122 146 181 231 277
#     4   8  12  22  40  61  88 120 148 169 198 254
#     4  11  20  30  44  68  96 120 149 188 228 266
#     4   9  16  29  47  65  88 119 149 180 220 269
#     4   9  17  26  41  67  97 124 147 174 217 273
#
# _framework density 16.228276999999999
#
# number of rings (size 3 to 8) (size 9 to 14) (size 15 to 20)
#    0.000    2.571    1.429    3.429    0.000    2.286 
#    0.000    2.143    0.000    0.000    0.000    2.000 
#    0.000    9.143    0.000    0.000    0.000    0.000 
#
# Total GULP energy -311737.078399 kJ/mol
# GULP energy per Si atom -5566.733543 kJ/mol
# Density = 1.619134 g / cm^3
# Si number density = 16.228277 Si / 1000 Ang^3
#
#
#
# Elastic Constant Matrix: (Units=GPa)
#
#
# Indices 1 2 3 4 5 6 
#
# 1 41.6781 -0.3916 31.0895 0.0000 0.0000 0.0000
# 2 -0.3916 65.3459 21.1552 0.0000 0.0000 0.0000
# 3 31.0895 21.1552 72.5471 0.0000 0.0000 0.0000
# 4 0.0000 0.0000 0.0000 9.3762 0.0000 0.0000
# 5 0.0000 0.0000 0.0000 0.0000 9.2790 0.0000
# 6 0.0000 0.0000 0.0000 0.0000 0.0000 6.7249
#
#
#
# Elastic Compliance Matrix: (Units=1/GPa)
#
#
# Indices 1 2 3 4 5 6 
#
# 1 0.037253 0.005954 -0.017701 0.000000 0.000000 0.000000
# 2 0.005954 0.017850 -0.007757 0.000000 0.000000 0.000000
# 3 -0.017701 -0.007757 0.023631 0.000000 0.000000 0.000000
# 4 0.000000 0.000000 0.000000 0.106653 0.000000 0.000000
# 5 0.000000 0.000000 0.000000 0.000000 0.107770 0.000000
# 6 0.000000 0.000000 0.000000 0.000000 0.000000 0.148701
#
#
# Mechanical properties :
#
#
# Convention : Reuss Voigt Hill
#
# Bulk Modulus (GPa) = 25.17152 31.47524 28.32338
# Shear Modulus (GPa) = 10.11924 13.59055 11.85489
#
# Velocity S-wave (km/s) = 2.49982 2.89703 2.70572
# Velocity P-wave (km/s) = 4.88638 5.53424 5.22037
#
# Compressibility (1/GPa) = 0.03972744
#
# Stress axis : x y z
#
# Youngs Moduli (GPa) = 26.84351 56.02241 42.31646
#
# Poissons Ratio (x) = -0.33354 0.74903
# Poissons Ratio (y) = -0.15982 0.32823
# Poissons Ratio (z) = 0.47515 0.43454
#
# Static dielectric constant tensor:
#      x y z
#    x 1.597190 0.000000 0.000000 
#    y 0.000000 1.611070 0.000000 
#    z 0.000000 0.000000 1.519590 
# 
# From -- ./inp_files/17508.got.cif
#   From: 2010.05.17/outbox.cif.g08.bks.cpg/sg58_9_cif.got.tgz:17508.got - 2010.06.03 14:20:14.
