data_PCOD9441115
_publ_section_title
;
Structure prediction by ZEFSAII (Michael W. Deem and Ramdas Pophale) SiO2 
 PCOD9441115
Probable space group: P N N M
;
_chemical_formula_sum "Si O2"
_cell_formula_units_Z 58
_cell_length_a 33.656893
_cell_length_b 8.410403
_cell_length_c 9.945227
_cell_angle_alpha 90.000000
_cell_angle_beta 90.000000
_cell_angle_gamma 90.000000
_cell_volume 2815.175853
_symmetry_space_group_name_H-M "P N N M"
_symmetry_group_IT_number 58
_symmetry_cell_setting 'orthorhombic'
loop_
_space_group_symop_operation_xyz
x,y,z
-x,-y,z
1/2+x,1/2-y,1/2-z
1/2-x,1/2+y,1/2-z
-x,-y,-z
x,y,-z
1/2-x,1/2+y,1/2+z
1/2+x,1/2-y,1/2+z
loop_
_atom_site_type_symbol
_atom_site_label
_atom_site_fract_x
_atom_site_fract_y
_atom_site_fract_z
Si Si1 0.952720 0.153922 0.250004
Si Si2 0.334828 0.842781 0.159708
Si Si3 0.500000 0.500000 0.500000
Si Si4 0.756937 0.486919 0.341330
Si Si5 0.198192 0.851802 0.344104
Si Si6 0.905842 0.845074 0.337894
Si Si7 0.978364 0.650209 0.346098
Si Si8 0.117706 0.672230 0.658557
O O1 0.973948 0.093812 0.116532
O O2 0.920645 0.296962 0.250717
O O3 0.989090 0.210288 0.343092
O O4 0.925471 0.011547 0.304039
O O5 0.291564 0.892276 0.210474
O O6 0.361850 0.698683 0.212349
O O7 0.362349 0.999882 0.174439
O O8 0.329083 0.818813 0.000000
O O9 0.749261 0.515681 0.500000
O O10 0.776403 0.312301 0.331705
O O11 0.718379 0.520700 0.252751
O O12 0.199763 0.903536 0.500000
O O13 0.153098 0.798431 0.314719
O O14 0.904565 0.833326 0.500000
O O15 0.937840 0.715869 0.285182
O O16 0.968828 0.605096 0.500000
O O17 0.000000 0.500000 0.279980
O O18 0.106465 0.687610 0.500000
#
# Coordination Sequence:
#
# PCOD9441115 Si02
#       8
#     8   8   2   8   8   8   8   8
#     4  12  22  39  56  73 109 145 187 223 274 337
#     4   8  16  32  56  86 115 140 177 231 291 339
#     4  12  28  44  52  68 112 168 186 218 276 328
#     4   9  18  34  56  83 121 160 190 227 284 346
#     4   9  19  35  56  85 117 147 189 236 280 329
#     4  10  18  30  54  84 106 129 171 232 286 322
#     4  10  19  32  56  86 106 126 165 228 291 334
#     4   9  18  35  60  85 106 137 180 241 290 328
#
# _framework density 20.602620000000002
#
# number of rings (size 3 to 8) (size 9 to 14) (size 15 to 20)
#    0.000    2.345    1.379    3.724    0.000    4.966 
#    1.241    3.103    3.034    0.000    0.000    0.000 
#    0.000    0.000    0.000    0.000    0.000    0.000 
#
# Total GULP energy -322883.592928 kJ/mol
# GULP energy per Si atom -5566.958499 kJ/mol
# Density = 2.055573 g / cm^3
# Si number density = 20.602620 Si / 1000 Ang^3
#
#
#
# Elastic Constant Matrix: (Units=GPa)
#
#
# Indices 1 2 3 4 5 6 
#
# 1 111.1923 18.1296 30.8708 0.0000 0.0000 0.0000
# 2 18.1296 44.1026 4.1661 0.0000 0.0000 0.0000
# 3 30.8708 4.1661 39.0562 0.0000 0.0000 0.0000
# 4 0.0000 0.0000 0.0000 53.4570 0.0000 0.0000
# 5 0.0000 0.0000 0.0000 0.0000 21.2269 0.0000
# 6 0.0000 0.0000 0.0000 0.0000 0.0000 48.3994
#
#
#
# Elastic Compliance Matrix: (Units=1/GPa)
#
#
# Indices 1 2 3 4 5 6 
#
# 1 0.012233 -0.004157 -0.009225 0.000000 0.000000 0.000000
# 2 -0.004157 0.024318 0.000692 0.000000 0.000000 0.000000
# 3 -0.009225 0.000692 0.032822 0.000000 0.000000 0.000000
# 4 0.000000 0.000000 0.000000 0.018707 0.000000 0.000000
# 5 0.000000 0.000000 0.000000 0.000000 0.047110 0.000000
# 6 0.000000 0.000000 0.000000 0.000000 0.000000 0.020661
#
#
# Mechanical properties :
#
#
# Convention : Reuss Voigt Hill
#
# Bulk Modulus (GPa) = 22.73164 33.40933 28.07048
# Shear Modulus (GPa) = 25.52376 34.02896 29.77636
#
# Velocity S-wave (km/s) = 3.52356 4.06850 3.80580
# Velocity P-wave (km/s) = 5.25465 6.19043 5.74164
#
# Compressibility (1/GPa) = 0.04399155
#
# Stress axis : x y z
#
# Youngs Moduli (GPa) = 81.74929 41.12190 30.46708
#
# Poissons Ratio (x) = 0.17095 0.28107
# Poissons Ratio (y) = 0.33984 -0.02108
# Poissons Ratio (z) = 0.75417 -0.02845
#
# Static dielectric constant tensor:
#      x y z
#    x 1.758570 0.000000 0.000000 
#    y 0.000000 1.848610 0.000000 
#    z 0.000000 0.000000 1.674490 
# 
# From -- ./inp_files/17951.got.cif
#   From: 2010.05.17/outbox.cif.g08.bks.cpg/sg58_9_cif.got.tgz:17951.got - 2010.06.03 14:20:14.
