data_PCOD9441835
_publ_section_title
;
Structure prediction by ZEFSAII (Michael W. Deem and Ramdas Pophale) SiO2 
 PCOD9441835
Probable space group: P N N M
;
_chemical_formula_sum "Si O2"
_cell_formula_units_Z 64
_cell_length_a 21.615234
_cell_length_b 9.128551
_cell_length_c 15.714431
_cell_angle_alpha 90.000000
_cell_angle_beta 90.000000
_cell_angle_gamma 90.000000
_cell_volume 3100.704989
_symmetry_space_group_name_H-M "P N N M"
_symmetry_group_IT_number 58
_symmetry_cell_setting 'orthorhombic'
loop_
_space_group_symop_operation_xyz
x,y,z
-x,-y,z
1/2+x,1/2-y,1/2-z
1/2-x,1/2+y,1/2-z
-x,-y,-z
x,y,-z
1/2-x,1/2+y,1/2+z
1/2+x,1/2-y,1/2+z
loop_
_atom_site_type_symbol
_atom_site_label
_atom_site_fract_x
_atom_site_fract_y
_atom_site_fract_z
Si Si1 0.915009 0.283370 0.091497
Si Si2 0.840313 0.567352 0.723207
Si Si3 0.177161 0.481758 0.906036
Si Si4 0.220982 0.230411 0.594829
Si Si5 0.040618 0.148692 0.908002
Si Si6 0.102121 0.747667 0.724801
Si Si7 0.043715 0.232926 0.278849
Si Si8 0.103017 0.014227 0.401092
O O1 0.891537 0.449509 0.095699
O O2 0.891297 0.202839 0.176191
O O3 0.988495 0.274434 0.090446
O O4 0.893244 0.222347 0.000000
O O5 0.818280 0.605594 0.819230
O O6 0.790959 0.640722 0.660894
O O7 0.854456 0.394542 0.714622
O O8 0.906939 0.640152 0.705058
O O9 0.219780 0.626243 0.896097
O O10 0.189813 0.418767 0.000000
O O11 0.221466 0.293079 0.500000
O O12 0.163932 0.116434 0.601131
O O13 0.065326 0.163871 0.812392
O O14 0.074816 0.154685 0.000000
O O15 0.000000 0.000000 0.909065
O O16 0.115007 0.869760 0.654599
O O17 0.027747 0.716916 0.720757
O O18 0.052308 0.110983 0.351590
O O19 0.088269 0.984016 0.500000
#
# Coordination Sequence:
#
# PCOD9441835 Si02
#       8
#     8   8   8   8   8   8   8   8
#     4   8  15  28  46  70  98 129 164 199 247 311
#     4  10  21  34  54  81 106 135 175 220 265 312
#     4   9  18  34  55  76 102 137 173 211 260 319
#     4   9  20  39  58  76 104 140 175 219 273 317
#     4   9  16  27  46  72 103 137 169 205 250 304
#     4  10  19  32  52  78 106 137 175 218 257 306
#     4  10  19  33  50  75 110 142 171 210 264 320
#     4  10  21  36  54  75 102 141 185 222 263 318
#
# _framework density 20.640467000000001
#
# number of rings (size 3 to 8) (size 9 to 14) (size 15 to 20)
#    0.000    2.625    0.000    2.250    0.000    4.000 
#    0.000    0.000    0.000   12.750    0.000    0.000 
#    0.000    0.000    0.000    0.000    0.000    0.000 
#
# Total GULP energy -356352.379516 kJ/mol
# GULP energy per Si atom -5568.005930 kJ/mol
# Density = 2.059349 g / cm^3
# Si number density = 20.640467 Si / 1000 Ang^3
#
#
#
# Elastic Constant Matrix: (Units=GPa)
#
#
# Indices 1 2 3 4 5 6 
#
# 1 33.0508 2.7872 9.0801 0.0000 0.0000 0.0000
# 2 2.7872 50.4239 48.8722 0.0000 0.0000 0.0000
# 3 9.0801 48.8722 187.8085 0.0000 0.0000 0.0000
# 4 0.0000 0.0000 0.0000 31.6785 0.0000 0.0000
# 5 0.0000 0.0000 0.0000 0.0000 19.4516 0.0000
# 6 0.0000 0.0000 0.0000 0.0000 0.0000 18.4937
#
#
#
# Elastic Compliance Matrix: (Units=1/GPa)
#
#
# Indices 1 2 3 4 5 6 
#
# 1 0.030668 -0.000345 -0.001393 0.000000 0.000000 0.000000
# 2 -0.000345 0.026525 -0.006886 0.000000 0.000000 0.000000
# 3 -0.001393 -0.006886 0.007184 0.000000 0.000000 0.000000
# 4 0.000000 0.000000 0.000000 0.031567 0.000000 0.000000
# 5 0.000000 0.000000 0.000000 0.000000 0.051410 0.000000
# 6 0.000000 0.000000 0.000000 0.000000 0.000000 0.054072
#
#
# Mechanical properties :
#
#
# Convention : Reuss Voigt Hill
#
# Bulk Modulus (GPa) = 21.21825 43.64023 32.42924
# Shear Modulus (GPa) = 21.33259 27.96102 24.64681
#
# Velocity S-wave (km/s) = 3.21835 3.68458 3.45933
# Velocity P-wave (km/s) = 4.91046 6.26821 5.63041
#
# Compressibility (1/GPa) = 0.04712924
#
# Stress axis : x y z
#
# Youngs Moduli (GPa) = 32.60701 37.70065 139.20349
#
# Poissons Ratio (x) = 0.01301 0.19390
# Poissons Ratio (y) = 0.01125 0.95851
# Poissons Ratio (z) = 0.04542 0.25959
#
# Static dielectric constant tensor:
#      x y z
#    x 1.797420 0.000000 0.000000 
#    y 0.000000 1.746910 0.000000 
#    z 0.000000 0.000000 1.804840 
# 
# From -- ./inp_files/23564.got.cif
#   From: 2010.05.17/outbox.cif.g08.bks.cpg/sg58_12_cif.got.tgz:23564.got - 2010.06.03 14:20:14.
