data_PCOD9441299
_publ_section_title
;
Structure prediction by ZEFSAII (Michael W. Deem and Ramdas Pophale) SiO2 
 PCOD9441299
Probable space group: P N N M
;
_chemical_formula_sum "Si O2"
_cell_formula_units_Z 44
_cell_length_a 27.833423
_cell_length_b 7.529838
_cell_length_c 9.571130
_cell_angle_alpha 90.000000
_cell_angle_beta 90.000000
_cell_angle_gamma 90.000000
_cell_volume 2005.928587
_symmetry_space_group_name_H-M "P N N M"
_symmetry_group_IT_number 58
_symmetry_cell_setting 'orthorhombic'
loop_
_space_group_symop_operation_xyz
x,y,z
-x,-y,z
1/2+x,1/2-y,1/2-z
1/2-x,1/2+y,1/2-z
-x,-y,-z
x,y,-z
1/2-x,1/2+y,1/2+z
1/2+x,1/2-y,1/2+z
loop_
_atom_site_type_symbol
_atom_site_label
_atom_site_fract_x
_atom_site_fract_y
_atom_site_fract_z
Si Si1 0.540634 0.626992 0.660711
Si Si2 0.272967 0.128319 0.841903
Si Si3 0.000000 0.500000 0.755360
Si Si4 0.360421 0.235865 0.667482
Si Si5 0.101516 0.419108 0.342724
Si Si6 0.189785 0.220758 0.345683
O O1 0.500000 0.500000 0.726787
O O2 0.546029 0.568732 0.500000
O O3 0.595439 0.637563 0.715074
O O4 0.520459 0.828731 0.663870
O O5 0.310096 0.242271 0.748381
O O6 0.220583 0.131481 0.773717
O O7 0.292062 0.926264 0.843916
O O8 0.271532 0.194542 0.000000
O O9 0.955538 0.580519 0.668987
O O10 0.354354 0.246264 0.500000
O O11 0.380498 0.044531 0.717774
O O12 0.113427 0.489055 0.500000
O O13 0.132525 0.240407 0.328208
O O14 0.200460 0.147214 0.500000
#
# Coordination Sequence:
#
# PCOD9441299 Si02
#       6
#     8   8   4   8   8   8
#     4   9  18  33  52  79 113 144 182 230 273 327
#     4  10  20  35  55  78 106 140 178 224 277 326
#     4  10  18  32  58  80 107 150 189 222 285 334
#     4   9  17  31  54  77 103 141 180 219 271 326
#     4   9  18  33  54  79 109 143 181 224 272 327
#     4   9  19  35  53  76 107 140 180 223 268 326
#
# _framework density 21.934979999999999
#
# number of rings (size 3 to 8) (size 9 to 14) (size 15 to 20)
#    0.000    2.727    0.000    2.727    0.000    4.364 
#    3.273    0.000    0.000   18.545    0.000    0.000 
#    0.000    0.000    0.000    0.000    0.000    0.000 
#
# Total GULP energy -245031.827285 kJ/mol
# GULP energy per Si atom -5568.905166 kJ/mol
# Density = 2.188506 g / cm^3
# Si number density = 21.934980 Si / 1000 Ang^3
#
#
#
# Elastic Constant Matrix: (Units=GPa)
#
#
# Indices 1 2 3 4 5 6 
#
# 1 75.9721 9.6899 32.2672 0.0000 0.0000 0.0000
# 2 9.6899 58.8996 16.8213 0.0000 0.0000 0.0000
# 3 32.2672 16.8213 96.2094 0.0000 0.0000 0.0000
# 4 0.0000 0.0000 0.0000 7.8907 0.0000 0.0000
# 5 0.0000 0.0000 0.0000 0.0000 -0.4625 0.0000
# 6 0.0000 0.0000 0.0000 0.0000 0.0000 29.2986
#
#
#
# Elastic Compliance Matrix: (Units=1/GPa)
#
#
# Indices 1 2 3 4 5 6 
#
# 1 0.015418 -0.001115 -0.004976 0.000000 0.000000 0.000000
# 2 -0.001115 0.017951 -0.002764 0.000000 0.000000 0.000000
# 3 -0.004976 -0.002764 0.012546 0.000000 0.000000 0.000000
# 4 0.000000 0.000000 0.000000 0.126732 0.000000 0.000000
# 5 0.000000 0.000000 0.000000 0.000000 -2.162150 0.000000
# 6 0.000000 0.000000 0.000000 0.000000 0.000000 0.034131
#
#
# Mechanical properties :
#
#
# Convention : Reuss Voigt Hill
#
# Bulk Modulus (GPa) = 35.45625 38.73754 37.09689
# Shear Modulus (GPa) = -2.59301 18.83219 8.11959
#
# Velocity S-wave (km/s) = -1.08844 2.93327 1.92606
# Velocity P-wave (km/s) = 3.82358 5.40098 4.67923
#
# Compressibility (1/GPa) = 0.02820377
#
# Stress axis : x y z
#
# Youngs Moduli (GPa) = 64.85732 55.70696 79.70514
#
# Poissons Ratio (x) = 0.06214 0.39662
# Poissons Ratio (y) = 0.07234 0.22034
# Poissons Ratio (z) = 0.32274 0.15400
#
# Static dielectric constant tensor:
#      x y z
#    x 1.901870 0.000000 0.000000 
#    y 0.000000 1.833290 0.000000 
#    z 0.000000 0.000000 1.776350 
# 
# From -- ./inp_files/10702.got.cif
#   From: 2010.05.17/outbox.cif.g08.bks.cpg/sg58_6_cif.got.tgz:10702.got - 2010.06.03 14:20:14.
