data_PCOD9441901
_publ_section_title
;
Structure prediction by ZEFSAII (Michael W. Deem and Ramdas Pophale) SiO2 
 PCOD9441901
Probable space group: P N N M
;
_chemical_formula_sum "Si O2"
_cell_formula_units_Z 64
_cell_length_a 22.350063
_cell_length_b 17.502049
_cell_length_c 9.377399
_cell_angle_alpha 90.000000
_cell_angle_beta 90.000000
_cell_angle_gamma 90.000000
_cell_volume 3668.174963
_symmetry_space_group_name_H-M "P N N M"
_symmetry_group_IT_number 58
_symmetry_cell_setting 'orthorhombic'
loop_
_space_group_symop_operation_xyz
x,y,z
-x,-y,z
1/2+x,1/2-y,1/2-z
1/2-x,1/2+y,1/2-z
-x,-y,-z
x,y,-z
1/2-x,1/2+y,1/2+z
1/2+x,1/2-y,1/2+z
loop_
_atom_site_type_symbol
_atom_site_label
_atom_site_fract_x
_atom_site_fract_y
_atom_site_fract_z
Si Si1 0.212733 0.169143 0.669644
Si Si2 0.426015 0.916623 0.169296
Si Si3 0.372689 0.529536 0.830310
Si Si4 0.109728 0.875775 0.170440
Si Si5 0.431420 0.089908 0.830996
Si Si6 0.031903 0.131669 0.168438
Si Si7 0.118195 0.271568 0.831149
Si Si8 0.348600 0.207401 0.670655
O O1 0.205926 0.184354 0.500000
O O2 0.173610 0.228958 0.758187
O O3 0.282166 0.178114 0.706077
O O4 0.183372 0.086179 0.696453
O O5 0.497272 0.906694 0.191794
O O6 0.392859 0.852682 0.258972
O O7 0.411112 0.003986 0.208639
O O8 0.414822 0.907058 0.000000
O O9 0.365803 0.448021 0.755974
O O10 0.430260 0.571717 0.760997
O O11 0.380535 0.522034 0.000000
O O12 0.140981 0.795935 0.209590
O O13 0.038442 0.869156 0.199422
O O14 0.116724 0.887623 0.000000
O O15 0.396919 0.154091 0.745564
O O16 0.421248 0.099122 0.000000
O O17 0.061395 0.214870 0.193151
O O18 0.039920 0.113378 0.000000
O O19 0.126522 0.278542 0.000000
O O20 0.356330 0.202429 0.500000
#
# Coordination Sequence:
#
# PCOD9441901 Si02
#       8
#     8   8   8   8   8   8   8   8
#     4   9  20  39  56  71 103 145 179 215 266 317
#     4   9  18  34  54  79 112 143 173 213 268 327
#     4  10  20  34  53  77 104 138 175 212 255 308
#     4  10  20  34  53  78 105 135 169 211 264 317
#     4   9  19  35  55  79 108 142 176 216 267 321
#     4   9  18  32  51  77 110 138 165 209 263 313
#     4  10  19  32  54  82 106 136 180 225 261 306
#     4  10  21  38  57  76 104 142 181 222 269 316
#
# _framework density 17.447367
#
# number of rings (size 3 to 8) (size 9 to 14) (size 15 to 20)
#    0.000    2.500    0.000    2.625    0.000    6.000 
#    2.250    1.250    0.000    0.000    0.000    0.000 
#    0.000    0.000    0.000    0.000    0.000    0.000 
#
# Total GULP energy -357137.441910 kJ/mol
# GULP energy per Si atom -5580.272530 kJ/mol
# Density = 1.740766 g / cm^3
# Si number density = 17.447367 Si / 1000 Ang^3
#
#
#
# Elastic Constant Matrix: (Units=GPa)
#
#
# Indices 1 2 3 4 5 6 
#
# 1 54.1496 37.5319 26.9406 0.0000 0.0000 0.0000
# 2 37.5319 111.7784 45.6174 0.0000 0.0000 0.0000
# 3 26.9406 45.6174 30.5285 0.0000 0.0000 0.0000
# 4 0.0000 0.0000 0.0000 32.2067 0.0000 0.0000
# 5 0.0000 0.0000 0.0000 0.0000 14.6960 0.0000
# 6 0.0000 0.0000 0.0000 0.0000 0.0000 7.4904
#
#
#
# Elastic Compliance Matrix: (Units=1/GPa)
#
#
# Indices 1 2 3 4 5 6 
#
# 1 0.033107 0.002068 -0.032306 0.000000 0.000000 0.000000
# 2 0.002068 0.023057 -0.036279 0.000000 0.000000 0.000000
# 3 -0.032306 -0.036279 0.115475 0.000000 0.000000 0.000000
# 4 0.000000 0.000000 0.000000 0.031049 0.000000 0.000000
# 5 0.000000 0.000000 0.000000 0.000000 0.068046 0.000000
# 6 0.000000 0.000000 0.000000 0.000000 0.000000 0.133504
#
#
# Mechanical properties :
#
#
# Convention : Reuss Voigt Hill
#
# Bulk Modulus (GPa) = 25.90271 46.29293 36.09782
# Shear Modulus (GPa) = 9.08860 16.63641 12.86250
#
# Velocity S-wave (km/s) = 2.28483 3.09126 2.71812
# Velocity P-wave (km/s) = 4.67323 6.27150 5.53040
#
# Compressibility (1/GPa) = 0.03860600
#
# Stress axis : x y z
#
# Youngs Moduli (GPa) = 30.20512 43.37001 8.65990
#
# Poissons Ratio (x) = -0.08968 0.27977
# Poissons Ratio (y) = -0.06246 0.31417
# Poissons Ratio (z) = 0.97581 1.57340
#
# Static dielectric constant tensor:
#      x y z
#    x 1.576800 0.000000 0.000000 
#    y 0.000000 1.583660 0.000000 
#    z 0.000000 0.000000 1.574430 
# 
# From -- ./inp_files/9965.got.cif
#   From: 2010.05.17/outbox.cif.g08.bks.cpg/sg58_5_cif.got.tgz:9965.got - 2010.06.03 14:20:14.
