data_PCOD9441728
_publ_section_title
;
Structure prediction by ZEFSAII (Michael W. Deem and Ramdas Pophale) SiO2 
 PCOD9441728
Probable space group: P N N M
;
_chemical_formula_sum "Si O2"
_cell_formula_units_Z 48
_cell_length_a 19.878328
_cell_length_b 12.681825
_cell_length_c 7.668231
_cell_angle_alpha 90.000000
_cell_angle_beta 90.000000
_cell_angle_gamma 90.000000
_cell_volume 1933.111015
_symmetry_space_group_name_H-M "P N N M"
_symmetry_group_IT_number 58
_symmetry_cell_setting 'orthorhombic'
loop_
_space_group_symop_operation_xyz
x,y,z
-x,-y,z
1/2+x,1/2-y,1/2-z
1/2-x,1/2+y,1/2-z
-x,-y,-z
x,y,-z
1/2-x,1/2+y,1/2+z
1/2+x,1/2-y,1/2+z
loop_
_atom_site_type_symbol
_atom_site_label
_atom_site_fract_x
_atom_site_fract_y
_atom_site_fract_z
Si Si1 0.822961 0.906121 0.803282
Si Si2 0.262916 0.910598 0.790503
Si Si3 0.970096 0.385586 0.712930
Si Si4 0.392509 0.803907 0.201562
Si Si5 0.442510 0.427670 0.301242
Si Si6 0.353220 0.244197 0.804549
O O1 0.856962 0.809279 0.707509
O O2 0.763193 0.976084 0.723070
O O3 0.879835 0.994592 0.817479
O O4 0.806972 0.869992 0.000000
O O5 0.335819 0.879971 0.719825
O O6 0.210552 0.811690 0.765377
O O7 0.266075 0.923526 0.000000
O O8 0.963343 0.382874 0.500000
O O9 0.031880 0.309331 0.771704
O O10 0.000000 0.500000 0.758690
O O11 0.895680 0.352342 0.778812
O O12 0.399491 0.835954 0.000000
O O13 0.500000 0.500000 0.221063
O O14 0.462448 0.396623 0.500000
O O15 0.413901 0.329967 0.196849
O O16 0.334271 0.214533 0.000000
#
# Coordination Sequence:
#
# PCOD9441728 Si02
#       6
#     8   8   8   8   8   8
#     4   9  18  32  50  74 103 134 169 209 258 315
#     4   9  20  37  54  75 107 146 180 214 267 329
#     4   9  19  35  54  78 107 139 176 219 270 323
#     4  10  20  35  56  79 104 137 178 222 264 311
#     4   9  17  30  49  72 101 136 166 198 252 319
#     4  10  19  31  52  79 103 132 175 225 266 307
#
# _framework density 24.830442999999999
#
# number of rings (size 3 to 8) (size 9 to 14) (size 15 to 20)
#    0.000    2.667    0.000    2.500    0.000    5.000 
#    0.000    4.167    0.000    4.500    0.000    0.000 
#    0.000    0.000    0.000    0.000    0.000    0.000 
#
# Total GULP energy -267567.688879 kJ/mol
# GULP energy per Si atom -5574.326852 kJ/mol
# Density = 2.477393 g / cm^3
# Si number density = 24.830443 Si / 1000 Ang^3
#
#
#
# Elastic Constant Matrix: (Units=GPa)
#
#
# Indices 1 2 3 4 5 6 
#
# 1 110.1225 20.7737 6.2983 0.0000 0.0000 0.0000
# 2 20.7737 55.3846 -3.7956 0.0000 0.0000 0.0000
# 3 6.2983 -3.7956 49.1887 0.0000 0.0000 0.0000
# 4 0.0000 0.0000 0.0000 9.9806 0.0000 0.0000
# 5 0.0000 0.0000 0.0000 0.0000 -3.0626 0.0000
# 6 0.0000 0.0000 0.0000 0.0000 0.0000 34.1945
#
#
#
# Elastic Compliance Matrix: (Units=1/GPa)
#
#
# Indices 1 2 3 4 5 6 
#
# 1 0.009890 -0.003817 -0.001561 0.000000 0.000000 0.000000
# 2 -0.003817 0.019624 0.002003 0.000000 0.000000 0.000000
# 3 -0.001561 0.002003 0.020684 0.000000 0.000000 0.000000
# 4 0.000000 0.000000 0.000000 0.100195 0.000000 0.000000
# 5 0.000000 0.000000 0.000000 0.000000 -0.326525 0.000000
# 6 0.000000 0.000000 0.000000 0.000000 0.000000 0.029244
#
#
# Mechanical properties :
#
#
# Convention : Reuss Voigt Hill
#
# Bulk Modulus (GPa) = 23.01502 29.02760 26.02131
# Shear Modulus (GPa) = -39.79149 20.98380 -9.40385
#
# Velocity S-wave (km/s) = -4.00750 2.91019 -1.94819
# Velocity P-wave (km/s) = 3.48202 4.79666 2.33276
#
# Compressibility (1/GPa) = 0.04344988
#
# Stress axis : x y z
#
# Youngs Moduli (GPa) = 101.11201 50.95715 48.34586
#
# Poissons Ratio (x) = 0.19448 0.07546
# Poissons Ratio (y) = 0.38590 -0.09684
# Poissons Ratio (z) = 0.15782 -0.10207
#
# Static dielectric constant tensor:
#      x y z
#    x 2.050460 0.000000 0.000000 
#    y 0.000000 2.047730 0.000000 
#    z 0.000000 0.000000 1.946250 
# 
# From -- ./inp_files/9715.got.cif
#   From: 2010.05.17/outbox.cif.g08.bks.cpg/sg58_5_cif.got.tgz:9715.got - 2010.06.03 14:20:14.
