data_PCOD9441459
_publ_section_title
;
Structure prediction by ZEFSAII (Michael W. Deem and Ramdas Pophale) SiO2 
 PCOD9441459
Probable space group: P N N M
;
_chemical_formula_sum "Si O2"
_cell_formula_units_Z 48
_cell_length_a 12.328108
_cell_length_b 22.377180
_cell_length_c 7.907970
_cell_angle_alpha 90.000000
_cell_angle_beta 90.000000
_cell_angle_gamma 90.000000
_cell_volume 2181.558175
_symmetry_space_group_name_H-M "P N N M"
_symmetry_group_IT_number 58
_symmetry_cell_setting 'orthorhombic'
loop_
_space_group_symop_operation_xyz
x,y,z
-x,-y,z
1/2+x,1/2-y,1/2-z
1/2-x,1/2+y,1/2-z
-x,-y,-z
x,y,-z
1/2-x,1/2+y,1/2+z
1/2+x,1/2-y,1/2+z
loop_
_atom_site_type_symbol
_atom_site_label
_atom_site_fract_x
_atom_site_fract_y
_atom_site_fract_z
Si Si1 0.501822 0.433052 0.305952
Si Si2 0.363642 0.138058 0.206022
Si Si3 0.627779 0.996294 0.796807
Si Si4 0.863861 0.820368 0.205602
Si Si5 0.775602 0.104689 0.689816
Si Si6 0.409147 0.810471 0.198866
O O1 0.500000 0.500000 0.229177
O O2 0.540103 0.441391 0.500000
O O3 0.578578 0.381211 0.233542
O O4 0.380495 0.406552 0.303578
O O5 0.262416 0.178372 0.256570
O O6 0.481473 0.158508 0.267579
O O7 0.337555 0.070049 0.253792
O O8 0.368630 0.138874 0.000000
O O9 0.696242 0.048169 0.712548
O O10 0.500000 0.000000 0.760147
O O11 0.640560 0.003061 0.000000
O O12 0.916731 0.760004 0.272279
O O13 0.870108 0.819251 0.000000
O O14 0.817867 0.107698 0.500000
O O15 0.700022 0.161742 0.724432
O O16 0.403606 0.823992 0.000000
#
# Coordination Sequence:
#
# PCOD9441459 Si02
#       6
#     8   8   8   8   8   8
#     4  10  22  43  70  95 125 166 212 258 313 385
#     4   9  19  38  64  89 118 156 200 251 306 370
#     4  10  18  36  64  90 117 156 205 252 306 370
#     4  10  22  40  63  93 124 157 204 261 315 366
#     4  12  25  39  60  92 132 167 206 260 312 366
#     4  11  23  41  62  89 123 166 212 250 309 380
#
# _framework density 22.002623
#
# number of rings (size 3 to 8) (size 9 to 14) (size 15 to 20)
#    0.000    1.667    1.667    3.000    2.333    4.000 
#    0.000    3.333    0.000    0.000    0.000    0.000 
#    0.000    0.000    0.000    0.000    0.000    0.000 
#
# Total GULP energy -268236.861533 kJ/mol
# GULP energy per Si atom -5588.267949 kJ/mol
# Density = 2.195254 g / cm^3
# Si number density = 22.002623 Si / 1000 Ang^3
#
#
#
# Elastic Constant Matrix: (Units=GPa)
#
#
# Indices 1 2 3 4 5 6 
#
# 1 77.1571 22.3816 -3.8009 0.0000 0.0000 0.0000
# 2 22.3816 109.4337 -9.1102 0.0000 0.0000 0.0000
# 3 -3.8009 -9.1102 27.6725 0.0000 0.0000 0.0000
# 4 0.0000 0.0000 0.0000 12.6700 0.0000 0.0000
# 5 0.0000 0.0000 0.0000 0.0000 1.7168 0.0000
# 6 0.0000 0.0000 0.0000 0.0000 0.0000 28.2453
#
#
#
# Elastic Compliance Matrix: (Units=1/GPa)
#
#
# Indices 1 2 3 4 5 6 
#
# 1 0.013805 -0.002741 0.000994 0.000000 0.000000 0.000000
# 2 -0.002741 0.009940 0.002896 0.000000 0.000000 0.000000
# 3 0.000994 0.002896 0.037227 0.000000 0.000000 0.000000
# 4 0.000000 0.000000 0.000000 0.078926 0.000000 0.000000
# 5 0.000000 0.000000 0.000000 0.000000 0.582468 0.000000
# 6 0.000000 0.000000 0.000000 0.000000 0.000000 0.035404
#
#
# Mechanical properties :
#
#
# Convention : Reuss Voigt Hill
#
# Bulk Modulus (GPa) = 15.80553 25.91159 20.85856
# Shear Modulus (GPa) = 6.43865 22.17929 14.30897
#
# Velocity S-wave (km/s) = 1.71250 3.17839 2.55292
# Velocity P-wave (km/s) = 3.33306 5.02710 4.26503
#
# Compressibility (1/GPa) = 0.06326898
#
# Stress axis : x y z
#
# Youngs Moduli (GPa) = 72.44007 100.60835 26.86238
#
# Poissons Ratio (x) = 0.27573 -0.02670
# Poissons Ratio (y) = 0.19853 -0.07779
# Poissons Ratio (z) = -0.07200 -0.29134
#
# Static dielectric constant tensor:
#      x y z
#    x 1.789180 0.000000 0.000000 
#    y 0.000000 1.793150 0.000000 
#    z 0.000000 0.000000 1.818340 
# 
# From -- ./inp_files/4206.got.cif
#   From: 2010.05.17/outbox.cif.g08.bks.cpg/sg58_3_cif.got.tgz:4206.got - 2010.06.03 14:20:14.
