data_PCOD9441257
_publ_section_title
;
Structure prediction by ZEFSAII (Michael W. Deem and Ramdas Pophale) SiO2 
 PCOD9441257
Probable space group: P N N M
;
_chemical_formula_sum "Si O2"
_cell_formula_units_Z 64
_cell_length_a 12.642066
_cell_length_b 29.295987
_cell_length_c 7.537121
_cell_angle_alpha 90.000000
_cell_angle_beta 90.000000
_cell_angle_gamma 90.000000
_cell_volume 2791.461709
_symmetry_space_group_name_H-M "P N N M"
_symmetry_group_IT_number 58
_symmetry_cell_setting 'orthorhombic'
loop_
_space_group_symop_operation_xyz
x,y,z
-x,-y,z
1/2+x,1/2-y,1/2-z
1/2-x,1/2+y,1/2-z
-x,-y,-z
x,y,-z
1/2-x,1/2+y,1/2+z
1/2+x,1/2-y,1/2+z
loop_
_atom_site_type_symbol
_atom_site_label
_atom_site_fract_x
_atom_site_fract_y
_atom_site_fract_z
Si Si1 0.081883 0.710708 0.784790
Si Si2 0.810697 0.382910 0.215502
Si Si3 0.350907 0.310500 0.283480
Si Si4 0.510936 0.065784 0.697102
Si Si5 0.121248 0.341871 0.705567
Si Si6 0.371589 0.554791 0.707196
Si Si7 0.728653 0.027092 0.211715
Si Si8 0.911524 0.092699 0.783207
O O1 0.156037 0.668096 0.729891
O O2 0.115788 0.760578 0.722284
O O3 0.965881 0.697397 0.719297
O O4 0.080527 0.710745 0.000000
O O5 0.696775 0.399210 0.277837
O O6 0.900260 0.418888 0.286040
O O7 0.812953 0.383914 0.000000
O O8 0.351974 0.309000 0.500000
O O9 0.232073 0.323133 0.228728
O O10 0.419063 0.354525 0.228867
O O11 0.481587 0.052414 0.500000
O O12 0.573068 0.114304 0.698335
O O13 0.603521 0.031246 0.753969
O O14 0.134680 0.356331 0.500000
O O15 0.386880 0.543210 0.500000
O O16 0.294466 0.515980 0.784341
O O17 0.488695 0.563095 0.780272
O O18 0.799410 0.070553 0.269974
O O19 0.735021 0.025618 0.000000
O O20 0.913558 0.092130 0.000000
#
# Coordination Sequence:
#
# PCOD9441257 Si02
#       8
#     8   8   8   8   8   8   8   8
#     4   9  19  35  53  76 106 143 179 217 270 327
#     4   9  20  37  52  70 106 147 177 215 273 326
#     4   9  17  31  55  80 103 137 179 217 264 323
#     4  10  20  35  56  79 104 140 181 222 268 322
#     4  10  18  32  54  79 104 137 177 223 270 314
#     4  10  21  34  54  81 109 141 180 221 265 322
#     4  10  19  34  56  82 108 138 177 224 271 319
#     4   9  17  33  55  80 108 140 176 219 273 323
#
# _framework density 22.927054999999999
#
# number of rings (size 3 to 8) (size 9 to 14) (size 15 to 20)
#    0.000    2.500    1.250    1.875    0.000    6.000 
#    0.000    4.375    0.000    1.500    0.000    0.000 
#    0.000    0.000    0.000    0.000    0.000    0.000 
#
# Total GULP energy -357268.106582 kJ/mol
# GULP energy per Si atom -5582.314165 kJ/mol
# Density = 2.287487 g / cm^3
# Si number density = 22.927055 Si / 1000 Ang^3
#
#
#
# Elastic Constant Matrix: (Units=GPa)
#
#
# Indices 1 2 3 4 5 6 
#
# 1 84.4332 2.3875 -8.0833 0.0000 0.0000 0.0000
# 2 2.3875 88.6793 -1.9581 0.0000 0.0000 0.0000
# 3 -8.0833 -1.9581 57.4151 0.0000 0.0000 0.0000
# 4 0.0000 0.0000 0.0000 11.5843 0.0000 0.0000
# 5 0.0000 0.0000 0.0000 0.0000 35.4677 0.0000
# 6 0.0000 0.0000 0.0000 0.0000 0.0000 33.4334
#
#
#
# Elastic Compliance Matrix: (Units=1/GPa)
#
#
# Indices 1 2 3 4 5 6 
#
# 1 0.012013 -0.000286 0.001681 0.000000 0.000000 0.000000
# 2 -0.000286 0.011292 0.000345 0.000000 0.000000 0.000000
# 3 0.001681 0.000345 0.017665 0.000000 0.000000 0.000000
# 4 0.000000 0.000000 0.000000 0.086324 0.000000 0.000000
# 5 0.000000 0.000000 0.000000 0.000000 0.028195 0.000000
# 6 0.000000 0.000000 0.000000 0.000000 0.000000 0.029910
#
#
# Mechanical properties :
#
#
# Convention : Reuss Voigt Hill
#
# Bulk Modulus (GPa) = 22.49715 23.91334 23.20524
# Shear Modulus (GPa) = 25.41485 31.97586 28.69536
#
# Velocity S-wave (km/s) = 3.33304 3.73859 3.54162
# Velocity P-wave (km/s) = 4.96447 5.39341 5.18338
#
# Compressibility (1/GPa) = 0.04445008
#
# Stress axis : x y z
#
# Youngs Moduli (GPa) = 83.24490 88.55901 56.60753
#
# Poissons Ratio (x) = 0.02535 -0.09518
# Poissons Ratio (y) = 0.02383 -0.01952
# Poissons Ratio (z) = -0.13997 -0.03053
#
# Static dielectric constant tensor:
#      x y z
#    x 1.832560 0.000000 0.000000 
#    y 0.000000 1.881970 0.000000 
#    z 0.000000 0.000000 1.868750 
# 
# From -- ./inp_files/4795.got.cif
#   From: 2010.05.17/outbox.cif.g08.bks.cpg/sg58_3_cif.got.tgz:4795.got - 2010.06.03 14:20:14.
