data_PCOD9441278
_publ_section_title
;
Structure prediction by ZEFSAII (Michael W. Deem and Ramdas Pophale) SiO2 
 PCOD9441278
Probable space group: P N N M
;
_chemical_formula_sum "Si O2"
_cell_formula_units_Z 28
_cell_length_a 8.273352
_cell_length_b 17.827795
_cell_length_c 7.813314
_cell_angle_alpha 90.000000
_cell_angle_beta 90.000000
_cell_angle_gamma 90.000000
_cell_volume 1152.429619
_symmetry_space_group_name_H-M "P N N M"
_symmetry_group_IT_number 58
_symmetry_cell_setting 'orthorhombic'
loop_
_space_group_symop_operation_xyz
x,y,z
-x,-y,z
1/2+x,1/2-y,1/2-z
1/2-x,1/2+y,1/2-z
-x,-y,-z
x,y,-z
1/2-x,1/2+y,1/2+z
1/2+x,1/2-y,1/2+z
loop_
_atom_site_type_symbol
_atom_site_label
_atom_site_fract_x
_atom_site_fract_y
_atom_site_fract_z
Si Si1 0.000000 0.500000 0.254934
Si Si2 0.537458 0.684462 0.198447
Si Si3 0.107963 0.333143 0.805202
Si Si4 0.662293 0.450892 0.206778
O O1 0.962148 0.583703 0.186010
O O2 0.815217 0.481448 0.310515
O O3 0.712671 0.666622 0.274181
O O4 0.499852 0.771793 0.211886
O O5 0.390718 0.632667 0.261374
O O6 0.549379 0.661102 0.000000
O O7 0.119442 0.304598 0.000000
O O8 0.500000 0.500000 0.227206
O O9 0.705223 0.454727 0.000000
#
# Coordination Sequence:
#
# PCOD9441278 Si02
#       4
#     4   8   8   8
#     4  12  21  34  59  88 117 154 197 244 295 344
#     4  10  22  39  59  87 122 155 195 246 295 352
#     4  11  22  37  60  88 118 155 198 244 296 351
#     4  10  18  32  55  83 113 146 191 241 283 337
#
# _framework density 24.296495
#
# number of rings (size 3 to 8) (size 9 to 14) (size 15 to 20)
#    0.000    1.429    2.857    4.286    0.000    3.429 
#    0.000    0.714    0.000    2.571    0.000    0.000 
#    0.000    0.000    0.000    0.000    0.000    0.000 
#
# Total GULP energy -155943.953002 kJ/mol
# GULP energy per Si atom -5569.426893 kJ/mol
# Density = 2.424120 g / cm^3
# Si number density = 24.296495 Si / 1000 Ang^3
#
#
#
# Elastic Constant Matrix: (Units=GPa)
#
#
# Indices 1 2 3 4 5 6 
#
# 1 192.4556 59.6854 22.0837 0.0000 0.0000 0.0000
# 2 59.6854 157.8962 5.2972 0.0000 0.0000 0.0000
# 3 22.0837 5.2972 45.4289 0.0000 0.0000 0.0000
# 4 0.0000 0.0000 0.0000 -33.8572 0.0000 0.0000
# 5 0.0000 0.0000 0.0000 0.0000 -11.4476 0.0000
# 6 0.0000 0.0000 0.0000 0.0000 0.0000 54.6071
#
#
#
# Elastic Compliance Matrix: (Units=1/GPa)
#
#
# Indices 1 2 3 4 5 6 
#
# 1 0.006212 -0.002256 -0.002757 0.000000 0.000000 0.000000
# 2 -0.002256 0.007177 0.000260 0.000000 0.000000 0.000000
# 3 -0.002757 0.000260 0.023322 0.000000 0.000000 0.000000
# 4 0.000000 0.000000 0.000000 -0.029536 0.000000 0.000000
# 5 0.000000 0.000000 0.000000 0.000000 -0.087354 0.000000
# 6 0.000000 0.000000 0.000000 0.000000 0.000000 0.018313
#
#
# Mechanical properties :
#
#
# Convention : Reuss Voigt Hill
#
# Bulk Modulus (GPa) = 36.75671 63.32369 50.04020
# Shear Modulus (GPa) = -115.49400 22.44142 -46.52629
#
# Velocity S-wave (km/s) = -6.90206 3.04246 -4.38075
# Velocity P-wave (km/s) = 6.95390 6.20174 2.22432
#
# Compressibility (1/GPa) = 0.02720591
#
# Stress axis : x y z
#
# Youngs Moduli (GPa) = 160.98261 139.33011 42.87754
#
# Poissons Ratio (x) = 0.31428 0.11820
# Poissons Ratio (y) = 0.36312 -0.01113
# Poissons Ratio (z) = 0.44378 -0.03617
#
# Static dielectric constant tensor:
#      x y z
#    x 1.960000 0.000000 0.000000 
#    y 0.000000 1.877960 0.000000 
#    z 0.000000 0.000000 1.935470 
# 
# From -- ./inp_files/1951.got.cif
#   From: 2010.05.17/outbox.cif.g08.bks.cpg/sg58_1_cif.got.tgz:1951.got - 2010.06.03 14:20:14.
