data_PCOD9441893
_publ_section_title
;
Structure prediction by ZEFSAII (Michael W. Deem and Ramdas Pophale) SiO2 
 PCOD9441893
Probable space group: P N N M
;
_chemical_formula_sum "Si O2"
_cell_formula_units_Z 64
_cell_length_a 35.621866
_cell_length_b 11.447009
_cell_length_c 8.655642
_cell_angle_alpha 90.000000
_cell_angle_beta 90.000000
_cell_angle_gamma 90.000000
_cell_volume 3529.457653
_symmetry_space_group_name_H-M "P N N M"
_symmetry_group_IT_number 58
_symmetry_cell_setting 'orthorhombic'
loop_
_space_group_symop_operation_xyz
x,y,z
-x,-y,z
1/2+x,1/2-y,1/2-z
1/2-x,1/2+y,1/2-z
-x,-y,-z
x,y,-z
1/2-x,1/2+y,1/2+z
1/2+x,1/2-y,1/2+z
loop_
_atom_site_type_symbol
_atom_site_label
_atom_site_fract_x
_atom_site_fract_y
_atom_site_fract_z
Si Si1 0.078925 0.242729 0.683684
Si Si2 0.934069 0.241423 0.188033
Si Si3 0.765454 0.609080 0.815784
Si Si4 0.362268 0.108688 0.314067
Si Si5 0.490066 0.864595 0.678603
Si Si6 0.956509 0.990218 0.813980
Si Si7 0.347607 0.862491 0.183455
Si Si8 0.775503 0.340070 0.815168
O O1 0.080151 0.240418 0.500000
O O2 0.048400 0.338166 0.735567
O O3 0.063013 0.122682 0.747550
O O4 0.120981 0.271224 0.737860
O O5 0.896425 0.308134 0.233333
O O6 0.973336 0.297759 0.241845
O O7 0.934911 0.106928 0.233773
O O8 0.935289 0.247380 0.000000
O O9 0.808197 0.640331 0.770534
O O10 0.760424 0.470915 0.762938
O O11 0.741456 0.719365 0.752139
O O12 0.761155 0.606638 0.000000
O O13 0.364913 0.086736 0.500000
O O14 0.320400 0.157538 0.285677
O O15 0.364999 0.988529 0.221947
O O16 0.484683 0.826560 0.500000
O O17 0.500000 0.000000 0.679824
O O18 0.956486 0.983395 0.000000
O O19 0.000000 0.000000 0.765391
O O20 0.341063 0.850092 0.000000
O O21 0.769678 0.336463 0.000000
#
# Coordination Sequence:
#
# PCOD9441893 Si02
#       8
#     8   8   8   8   8   8   8   8
#     4  11  23  36  51  75 109 143 178 222 275 328
#     4   9  17  32  53  78 105 136 178 227 269 309
#     4  10  21  38  62  89 115 150 192 228 273 336
#     4   9  18  35  59  84 111 141 181 226 271 325
#     4  10  19  32  54  79 102 135 179 224 266 313
#     4  10  19  35  56  74 102 143 187 230 269 316
#     4  10  21  37  56  79 112 146 178 224 278 323
#     4   9  19  36  58  86 120 150 181 230 282 332
#
# _framework density 18.133096999999999
#
# number of rings (size 3 to 8) (size 9 to 14) (size 15 to 20)
#    0.000    2.250    1.250    2.625    0.000    6.000 
#    2.250    1.250    0.000    0.000    0.000    0.000 
#    0.000    0.000    0.000    0.000    0.000    0.000 
#
# Total GULP energy -356710.633451 kJ/mol
# GULP energy per Si atom -5573.603648 kJ/mol
# Density = 1.809183 g / cm^3
# Si number density = 18.133097 Si / 1000 Ang^3
#
#
#
# Elastic Constant Matrix: (Units=GPa)
#
#
# Indices 1 2 3 4 5 6 
#
# 1 45.2661 11.8244 7.7670 0.0000 0.0000 0.0000
# 2 11.8244 42.2702 11.2127 0.0000 0.0000 0.0000
# 3 7.7670 11.2127 10.6472 0.0000 0.0000 0.0000
# 4 0.0000 0.0000 0.0000 20.7778 0.0000 0.0000
# 5 0.0000 0.0000 0.0000 0.0000 15.1329 0.0000
# 6 0.0000 0.0000 0.0000 0.0000 0.0000 40.5923
#
#
#
# Elastic Compliance Matrix: (Units=1/GPa)
#
#
# Indices 1 2 3 4 5 6 
#
# 1 0.025534 -0.003055 -0.015409 0.000000 0.000000 0.000000
# 2 -0.003055 0.033193 -0.032728 0.000000 0.000000 0.000000
# 3 -0.015409 -0.032728 0.139628 0.000000 0.000000 0.000000
# 4 0.000000 0.000000 0.000000 0.048128 0.000000 0.000000
# 5 0.000000 0.000000 0.000000 0.000000 0.066081 0.000000
# 6 0.000000 0.000000 0.000000 0.000000 0.000000 0.024635
#
#
# Mechanical properties :
#
#
# Convention : Reuss Voigt Hill
#
# Bulk Modulus (GPa) = 10.41977 17.75464 14.08720
# Shear Modulus (GPa) = 10.60279 19.79255 15.19767
#
# Velocity S-wave (km/s) = 2.42072 3.30739 2.89817
# Velocity P-wave (km/s) = 3.68401 4.93940 4.35716
#
# Compressibility (1/GPa) = 0.09597145
#
# Stress axis : x y z
#
# Youngs Moduli (GPa) = 39.16404 30.12653 7.16189
#
# Poissons Ratio (x) = 0.09204 0.11036
# Poissons Ratio (y) = 0.11965 0.23439
# Poissons Ratio (z) = 0.60348 0.98597
#
# Static dielectric constant tensor:
#      x y z
#    x 1.615660 0.000000 0.000000 
#    y 0.000000 1.642100 0.000000 
#    z 0.000000 0.000000 1.626420 
# 
# From -- ./inp_files/10959.got.cif
#   From: 2010.05.17/outbox.cif.g08.bks.cpg/sg58_6_cif.got.tgz:10959.got - 2010.06.03 14:20:14.
