data_PCOD9441801
_publ_section_title
;
Structure prediction by ZEFSAII (Michael W. Deem and Ramdas Pophale) SiO2 
 PCOD9441801
Probable space group: P N N M
;
_chemical_formula_sum "Si O2"
_cell_formula_units_Z 48
_cell_length_a 8.310447
_cell_length_b 29.629516
_cell_length_c 7.335266
_cell_angle_alpha 90.000000
_cell_angle_beta 90.000000
_cell_angle_gamma 90.000000
_cell_volume 1806.195720
_symmetry_space_group_name_H-M "P N N M"
_symmetry_group_IT_number 58
_symmetry_cell_setting 'orthorhombic'
loop_
_space_group_symop_operation_xyz
x,y,z
-x,-y,z
1/2+x,1/2-y,1/2-z
1/2-x,1/2+y,1/2-z
-x,-y,-z
x,y,-z
1/2-x,1/2+y,1/2+z
1/2+x,1/2-y,1/2+z
loop_
_atom_site_type_symbol
_atom_site_label
_atom_site_fract_x
_atom_site_fract_y
_atom_site_fract_z
Si Si1 0.929977 0.066430 0.220499
Si Si2 0.257709 0.017351 0.222662
Si Si3 0.959926 0.403580 0.707306
Si Si4 0.210947 0.680609 0.786207
Si Si5 0.541007 0.733791 0.719057
Si Si6 0.759416 0.152720 0.221800
O O1 0.899472 0.117457 0.274305
O O2 0.096154 0.044238 0.278301
O O3 0.781873 0.033798 0.277063
O O4 0.932227 0.065311 0.000000
O O5 0.403863 0.048687 0.286424
O O6 0.266826 0.017515 0.000000
O O7 0.012125 0.413507 0.500000
O O8 0.809378 0.368676 0.700536
O O9 0.099509 0.372336 0.788283
O O10 0.377321 0.707665 0.762628
O O11 0.074252 0.715578 0.714068
O O12 0.189721 0.673274 0.000000
O O13 0.549916 0.736356 0.500000
O O14 0.687480 0.701791 0.784856
O O15 0.751603 0.155060 0.000000
#
# Coordination Sequence:
#
# PCOD9441801 Si02
#       6
#     8   8   8   8   8   8
#     4   8  13  23  40  68 103 132 166 212 257 299
#     4   8  14  24  42  69 101 136 169 207 255 300
#     4  10  19  32  51  75 105 140 173 206 251 302
#     4  11  23  37  55  79 104 132 168 208 250 299
#     4  10  21  37  55  75 101 132 166 206 252 300
#     4   9  17  29  48  74 103 134 169 211 256 302
#
# _framework density 26.575189999999999
#
# number of rings (size 3 to 8) (size 9 to 14) (size 15 to 20)
#    0.000    2.667    0.000    3.500    0.000    6.000 
#    0.000    4.167    0.000    0.000    0.000   11.667 
#    0.000    0.000    0.000    0.000    0.000    0.000 
#
# Total GULP energy -268393.210698 kJ/mol
# GULP energy per Si atom -5591.525223 kJ/mol
# Density = 2.651470 g / cm^3
# Si number density = 26.575190 Si / 1000 Ang^3
#
#
#
# Elastic Constant Matrix: (Units=GPa)
#
#
# Indices 1 2 3 4 5 6 
#
# 1 74.1926 -5.2521 -8.9177 0.0000 0.0000 0.0000
# 2 -5.2521 130.2640 -2.1883 0.0000 0.0000 0.0000
# 3 -8.9177 -2.1883 114.5763 0.0000 0.0000 0.0000
# 4 0.0000 0.0000 0.0000 -3.0037 0.0000 0.0000
# 5 0.0000 0.0000 0.0000 0.0000 0.8905 0.0000
# 6 0.0000 0.0000 0.0000 0.0000 0.0000 49.2940
#
#
#
# Elastic Compliance Matrix: (Units=1/GPa)
#
#
# Indices 1 2 3 4 5 6 
#
# 1 0.013648 0.000568 0.001073 0.000000 0.000000 0.000000
# 2 0.000568 0.007703 0.000191 0.000000 0.000000 0.000000
# 3 0.001073 0.000191 0.008815 0.000000 0.000000 0.000000
# 4 0.000000 0.000000 0.000000 -0.332925 0.000000 0.000000
# 5 0.000000 0.000000 0.000000 0.000000 1.122971 0.000000
# 6 0.000000 0.000000 0.000000 0.000000 0.000000 0.020286
#
#
# Mechanical properties :
#
#
# Convention : Reuss Voigt Hill
#
# Bulk Modulus (GPa) = 29.55877 31.81295 30.68586
# Shear Modulus (GPa) = 5.89546 31.79557 18.84552
#
# Velocity S-wave (km/s) = 1.49105 3.46271 2.66586
# Velocity P-wave (km/s) = 3.75648 5.29000 4.58777
#
# Compressibility (1/GPa) = 0.03383091
#
# Stress axis : x y z
#
# Youngs Moduli (GPa) = 73.27270 129.82216 113.44320
#
# Poissons Ratio (x) = -0.07378 -0.12173
# Poissons Ratio (y) = -0.04164 -0.02171
# Poissons Ratio (z) = -0.07863 -0.02484
#
# Static dielectric constant tensor:
#      x y z
#    x 2.164940 0.000000 0.000000 
#    y 0.000000 2.026380 0.000000 
#    z 0.000000 0.000000 2.032590 
# 
# From -- ./inp_files/2975.got.cif
#   From: 2010.05.17/outbox.cif.g08.bks.cpg/sg58_2_cif.got.tgz:2975.got - 2010.06.03 14:20:14.
