data_PCOD9441245
_publ_section_title
;
Structure prediction by ZEFSAII (Michael W. Deem and Ramdas Pophale) SiO2 
 PCOD9441245
Probable space group: P N N M
;
_chemical_formula_sum "Si O2"
_cell_formula_units_Z 40
_cell_length_a 19.075421
_cell_length_b 13.981310
_cell_length_c 7.987307
_cell_angle_alpha 90.000000
_cell_angle_beta 90.000000
_cell_angle_gamma 90.000000
_cell_volume 2130.209780
_symmetry_space_group_name_H-M "P N N M"
_symmetry_group_IT_number 58
_symmetry_cell_setting 'orthorhombic'
loop_
_space_group_symop_operation_xyz
x,y,z
-x,-y,z
1/2+x,1/2-y,1/2-z
1/2-x,1/2+y,1/2-z
-x,-y,-z
x,y,-z
1/2-x,1/2+y,1/2+z
1/2+x,1/2-y,1/2+z
loop_
_atom_site_type_symbol
_atom_site_label
_atom_site_fract_x
_atom_site_fract_y
_atom_site_fract_z
Si Si1 0.995598 0.388994 0.297126
Si Si2 0.859029 0.696096 0.698195
Si Si3 0.714965 0.604648 0.295206
Si Si4 0.152723 0.696577 0.198514
Si Si5 0.704338 0.392732 0.304198
O O1 0.993932 0.385796 0.500000
O O2 0.924131 0.341422 0.235773
O O3 0.000000 0.500000 0.247109
O O4 0.065541 0.335202 0.235143
O O5 0.861070 0.677569 0.500000
O O6 0.793028 0.634511 0.763810
O O7 0.839323 0.806727 0.723540
O O8 0.716658 0.600560 0.500000
O O9 0.665144 0.693163 0.248524
O O10 0.693614 0.499608 0.235954
O O11 0.213641 0.633947 0.283355
O O12 0.166330 0.692109 0.000000
O O13 0.686926 0.392302 0.500000
#
# Coordination Sequence:
#
# PCOD9441245 Si02
#       5
#     8   8   8   8   8
#     4  10  20  35  54  74 100 134 166 199 247 303
#     4   9  18  33  51  73 101 128 161 206 248 286
#     4   8  16  32  52  71  95 131 166 198 240 292
#     4  10  20  34  51  74 103 130 164 208 248 287
#     4  10  18  32  54  75  97 130 170 203 243 299
#
# _framework density 18.777493
#
# number of rings (size 3 to 8) (size 9 to 14) (size 15 to 20)
#    0.000    2.600    0.000    3.600    0.000    4.400 
#    0.000   15.000    0.000    6.000    0.000    0.000 
#    0.000    0.000    0.000    0.000    0.000    0.000 
#
# Total GULP energy -223111.161326 kJ/mol
# GULP energy per Si atom -5577.779033 kJ/mol
# Density = 1.873475 g / cm^3
# Si number density = 18.777493 Si / 1000 Ang^3
#
#
#
# Elastic Constant Matrix: (Units=GPa)
#
#
# Indices 1 2 3 4 5 6 
#
# 1 106.0974 44.7831 -8.9294 0.0000 0.0000 0.0000
# 2 44.7831 115.0154 -11.7763 0.0000 0.0000 0.0000
# 3 -8.9294 -11.7763 12.5303 0.0000 0.0000 0.0000
# 4 0.0000 0.0000 0.0000 18.8170 0.0000 0.0000
# 5 0.0000 0.0000 0.0000 0.0000 25.7766 0.0000
# 6 0.0000 0.0000 0.0000 0.0000 0.0000 15.1852
#
#
#
# Elastic Compliance Matrix: (Units=1/GPa)
#
#
# Indices 1 2 3 4 5 6 
#
# 1 0.011495 -0.004024 0.004409 0.000000 0.000000 0.000000
# 2 -0.004024 0.011029 0.007498 0.000000 0.000000 0.000000
# 3 0.004409 0.007498 0.089996 0.000000 0.000000 0.000000
# 4 0.000000 0.000000 0.000000 0.053143 0.000000 0.000000
# 5 0.000000 0.000000 0.000000 0.000000 0.038795 0.000000
# 6 0.000000 0.000000 0.000000 0.000000 0.000000 0.065853
#
#
# Mechanical properties :
#
#
# Convention : Reuss Voigt Hill
#
# Bulk Modulus (GPa) = 7.79513 31.31091 19.55302
# Shear Modulus (GPa) = 16.81760 25.92680 21.37220
#
# Velocity S-wave (km/s) = 2.99595 3.71986 3.37735
# Velocity P-wave (km/s) = 4.01596 5.92965 5.06402
#
# Compressibility (1/GPa) = 0.12828523
#
# Stress axis : x y z
#
# Youngs Moduli (GPa) = 86.99397 90.66933 11.11166
#
# Poissons Ratio (x) = 0.36488 -0.04900
# Poissons Ratio (y) = 0.35009 -0.08331
# Poissons Ratio (z) = -0.38360 -0.67980
#
# Static dielectric constant tensor:
#      x y z
#    x 1.623070 0.000000 0.000000 
#    y 0.000000 1.653800 0.000000 
#    z 0.000000 0.000000 1.680940 
# 
# From -- ./inp_files/5551.got.cif
#   From: 2010.05.17/outbox.cif.g08.bks.cpg/sg58_3_cif.got.tgz:5551.got - 2010.06.03 14:20:14.
