data_PCOD9441797
_publ_section_title
;
Structure prediction by ZEFSAII (Michael W. Deem and Ramdas Pophale) SiO2 
 PCOD9441797
Probable space group: P N N M
;
_chemical_formula_sum "Si O2"
_cell_formula_units_Z 64
_cell_length_a 24.294428
_cell_length_b 7.688698
_cell_length_c 14.756770
_cell_angle_alpha 90.000000
_cell_angle_beta 90.000000
_cell_angle_gamma 90.000000
_cell_volume 2756.454255
_symmetry_space_group_name_H-M "P N N M"
_symmetry_group_IT_number 58
_symmetry_cell_setting 'orthorhombic'
loop_
_space_group_symop_operation_xyz
x,y,z
-x,-y,z
1/2+x,1/2-y,1/2-z
1/2-x,1/2+y,1/2-z
-x,-y,-z
x,y,-z
1/2-x,1/2+y,1/2+z
1/2+x,1/2-y,1/2+z
loop_
_atom_site_type_symbol
_atom_site_label
_atom_site_fract_x
_atom_site_fract_y
_atom_site_fract_z
Si Si1 0.416384 0.000681 0.143753
Si Si2 0.408891 0.880241 0.649039
Si Si3 0.741840 0.877497 0.610636
Si Si4 0.989239 0.181348 0.156489
Si Si5 0.291828 0.955625 0.892204
Si Si6 0.127544 0.741288 0.900726
Si Si7 0.295718 0.740584 0.610895
Si Si8 0.004452 0.200327 0.630697
O O1 0.417996 0.964359 0.251658
O O2 0.352948 0.025750 0.121455
O O3 0.444183 0.824277 0.103406
O O4 0.452396 0.169599 0.116721
O O5 0.468173 0.817592 0.615072
O O6 0.358896 0.740744 0.646911
O O7 0.385435 0.036879 0.590725
O O8 0.742245 0.888965 0.500000
O O9 0.789703 0.746009 0.640548
O O10 0.688235 0.763928 0.638048
O O11 0.732467 0.075283 0.640337
O O12 0.923996 0.195822 0.155073
O O13 0.008246 0.179862 0.260634
O O14 0.000000 0.000000 0.109954
O O15 0.244744 0.086605 0.857268
O O16 0.282259 0.948019 0.000000
O O17 0.128282 0.825356 0.000000
O O18 0.298448 0.736579 0.500000
O O19 0.000000 0.000000 0.597132
#
# Coordination Sequence:
#
# PCOD9441797 Si02
#       8
#     8   8   8   8   8   8   8   8
#     4  10  20  37  59  84 110 142 186 226 272 340
#     4  10  19  35  51  74 109 143 184 230 272 319
#     4   8  17  34  53  74 107 146 178 218 271 318
#     4  10  20  31  49  75 104 145 183 224 272 323
#     4  10  21  38  60  82 110 147 183 228 283 332
#     4  10  19  32  51  74 105 147 185 221 267 320
#     4   9  19  36  55  76 109 151 186 223 275 322
#     4   9  19  38  59  80 113 147 173 222 291 334
#
# _framework density 23.218233000000001
#
# number of rings (size 3 to 8) (size 9 to 14) (size 15 to 20)
#    0.000    2.500    1.250    1.500    1.750    2.750 
#    4.500    1.250    0.000    0.750    0.000    0.000 
#    0.000    0.000    0.000    0.000    0.000    0.000 
#
# Total GULP energy -356558.040761 kJ/mol
# GULP energy per Si atom -5571.219387 kJ/mol
# Density = 2.316539 g / cm^3
# Si number density = 23.218233 Si / 1000 Ang^3
#
#
#
# Elastic Constant Matrix: (Units=GPa)
#
#
# Indices 1 2 3 4 5 6 
#
# 1 37.6867 44.2369 -6.0005 0.0000 0.0000 0.0000
# 2 44.2369 138.9695 7.3540 0.0000 0.0000 0.0000
# 3 -6.0005 7.3540 56.8430 0.0000 0.0000 0.0000
# 4 0.0000 0.0000 0.0000 56.3930 0.0000 0.0000
# 5 0.0000 0.0000 0.0000 0.0000 111.1866 0.0000
# 6 0.0000 0.0000 0.0000 0.0000 0.0000 28.7003
#
#
#
# Elastic Compliance Matrix: (Units=1/GPa)
#
#
# Indices 1 2 3 4 5 6 
#
# 1 0.044697 -0.014578 0.006604 0.000000 0.000000 0.000000
# 2 -0.014578 0.012000 -0.003091 0.000000 0.000000 0.000000
# 3 0.006604 -0.003091 0.018689 0.000000 0.000000 0.000000
# 4 0.000000 0.000000 0.000000 0.017733 0.000000 0.000000
# 5 0.000000 0.000000 0.000000 0.000000 0.008994 0.000000
# 6 0.000000 0.000000 0.000000 0.000000 0.000000 0.034843
#
#
# Mechanical properties :
#
#
# Convention : Reuss Voigt Hill
#
# Bulk Modulus (GPa) = 18.77669 36.07554 27.42612
# Shear Modulus (GPa) = 28.27450 51.78324 40.02887
#
# Velocity S-wave (km/s) = 3.49344 4.72771 4.15665
# Velocity P-wave (km/s) = 4.93729 6.73595 5.90550
#
# Compressibility (1/GPa) = 0.05325753
#
# Stress axis : x y z
#
# Youngs Moduli (GPa) = 22.37264 83.33487 53.50618
#
# Poissons Ratio (x) = 1.21482 -0.35338
# Poissons Ratio (y) = 0.32614 0.16541
# Poissons Ratio (z) = -0.14776 0.25762
#
# Static dielectric constant tensor:
#      x y z
#    x 2.011880 0.000000 0.000000 
#    y 0.000000 1.948430 0.000000 
#    z 0.000000 0.000000 1.961260 
# 
# From -- ./inp_files/27555.got.cif
#   From: 2010.05.17/outbox.cif.g08.bks.cpg/sg58_14_cif.got.tgz:27555.got - 2010.06.03 14:20:14.
