data_PCOD9441610
_publ_section_title
;
Structure prediction by ZEFSAII (Michael W. Deem and Ramdas Pophale) SiO2 
 PCOD9441610
Probable space group: P N N M
;
_chemical_formula_sum "Si O2"
_cell_formula_units_Z 64
_cell_length_a 9.730254
_cell_length_b 23.689206
_cell_length_c 14.583775
_cell_angle_alpha 90.000000
_cell_angle_beta 90.000000
_cell_angle_gamma 90.000000
_cell_volume 3361.589180
_symmetry_space_group_name_H-M "P N N M"
_symmetry_group_IT_number 58
_symmetry_cell_setting 'orthorhombic'
loop_
_space_group_symop_operation_xyz
x,y,z
-x,-y,z
1/2+x,1/2-y,1/2-z
1/2-x,1/2+y,1/2-z
-x,-y,-z
x,y,-z
1/2-x,1/2+y,1/2+z
1/2+x,1/2-y,1/2+z
loop_
_atom_site_type_symbol
_atom_site_label
_atom_site_fract_x
_atom_site_fract_y
_atom_site_fract_z
Si Si1 0.480437 0.148049 0.804006
Si Si2 0.448705 0.167047 0.599751
Si Si3 0.983709 0.935508 0.253489
Si Si4 0.510675 0.294893 0.602500
Si Si5 0.618557 0.733169 0.891011
Si Si6 0.633802 0.352227 0.099977
Si Si7 0.287444 0.345373 0.264303
Si Si8 0.784833 0.891776 0.891801
O O1 0.477859 0.136810 0.694750
O O2 0.425037 0.209539 0.837836
O O3 0.644481 0.146995 0.818032
O O4 0.369043 0.107121 0.851399
O O5 0.481496 0.140754 0.500000
O O6 0.518657 0.228039 0.602676
O O7 0.284011 0.174693 0.603773
O O8 0.892793 0.898239 0.322920
O O9 0.897126 0.930646 0.158951
O O10 0.131624 0.904200 0.251625
O O11 0.000000 0.000000 0.280399
O O12 0.470962 0.313028 0.500000
O O13 0.394492 0.311926 0.672702
O O14 0.649563 0.328829 0.624448
O O15 0.479310 0.696139 0.892548
O O16 0.717266 0.692814 0.828766
O O17 0.658060 0.742330 0.000000
O O18 0.618479 0.379551 0.000000
O O19 0.780125 0.901637 0.000000
#
# Coordination Sequence:
#
# PCOD9441610 Si02
#       8
#     8   8   8   8   8   8   8   8
#     4  12  22  33  54  82 118 154 180 222 274 333
#     4  10  19  30  52  80 114 151 181 215 267 329
#     4  10  21  41  64  82 103 140 192 246 295 339
#     4   9  18  33  53  78 111 151 188 216 255 323
#     4  10  21  33  52  81 119 156 186 218 262 324
#     4   9  18  35  56  84 113 144 187 233 277 330
#     4  10  22  35  55  83 114 147 189 232 275 330
#     4  10  22  38  57  83 114 149 188 229 277 334
#
# _framework density 19.038615
#
# number of rings (size 3 to 8) (size 9 to 14) (size 15 to 20)
#    0.000    2.000    2.500    1.125    1.750    3.000 
#    0.000    0.625    0.000    0.750    0.000    1.750 
#    0.000    0.000    0.000    0.000    0.000    0.000 
#
# Total GULP energy -356537.283895 kJ/mol
# GULP energy per Si atom -5570.895061 kJ/mol
# Density = 1.899528 g / cm^3
# Si number density = 19.038615 Si / 1000 Ang^3
#
#
#
# Elastic Constant Matrix: (Units=GPa)
#
#
# Indices 1 2 3 4 5 6 
#
# 1 84.6750 6.4371 26.2121 0.0000 0.0000 0.0000
# 2 6.4371 42.6047 6.9253 0.0000 0.0000 0.0000
# 3 26.2121 6.9253 101.7613 0.0000 0.0000 0.0000
# 4 0.0000 0.0000 0.0000 2.3207 0.0000 0.0000
# 5 0.0000 0.0000 0.0000 0.0000 17.8881 0.0000
# 6 0.0000 0.0000 0.0000 0.0000 0.0000 2.9353
#
#
#
# Elastic Compliance Matrix: (Units=1/GPa)
#
#
# Indices 1 2 3 4 5 6 
#
# 1 0.012918 -0.001427 -0.003230 0.000000 0.000000 0.000000
# 2 -0.001427 0.023892 -0.001258 0.000000 0.000000 0.000000
# 3 -0.003230 -0.001258 0.010745 0.000000 0.000000 0.000000
# 4 0.000000 0.000000 0.000000 0.430896 0.000000 0.000000
# 5 0.000000 0.000000 0.000000 0.000000 0.055903 0.000000
# 6 0.000000 0.000000 0.000000 0.000000 0.000000 0.340679
#
#
# Mechanical properties :
#
#
# Convention : Reuss Voigt Hill
#
# Bulk Modulus (GPa) = 27.99276 34.24332 31.11804
# Shear Modulus (GPa) = 5.56314 17.25993 11.41154
#
# Velocity S-wave (km/s) = 1.71125 3.01420 2.45090
# Velocity P-wave (km/s) = 4.31736 5.48992 4.93856
#
# Compressibility (1/GPa) = 0.03572353
#
# Stress axis : x y z
#
# Youngs Moduli (GPa) = 77.40925 41.85551 93.06934
#
# Poissons Ratio (x) = 0.05972 0.30066
# Poissons Ratio (y) = 0.11044 0.11712
# Poissons Ratio (z) = 0.25007 0.05267
#
# Static dielectric constant tensor:
#      x y z
#    x 1.699530 0.000000 0.000000 
#    y 0.000000 1.637640 0.000000 
#    z 0.000000 0.000000 1.730960 
# 
# From -- ./inp_files/20268.got.cif
#   From: 2010.05.17/outbox.cif.g08.bks.cpg/sg58_11_cif.got.tgz:20268.got - 2010.06.03 14:20:14.
