data_PCOD9441558
_publ_section_title
;
Structure prediction by ZEFSAII (Michael W. Deem and Ramdas Pophale) SiO2 
 PCOD9441558
Probable space group: P N N M
;
_chemical_formula_sum "Si O2"
_cell_formula_units_Z 64
_cell_length_a 17.224204
_cell_length_b 11.164068
_cell_length_c 15.589889
_cell_angle_alpha 90.000000
_cell_angle_beta 90.000000
_cell_angle_gamma 90.000000
_cell_volume 2997.813815
_symmetry_space_group_name_H-M "P N N M"
_symmetry_group_IT_number 58
_symmetry_cell_setting 'orthorhombic'
loop_
_space_group_symop_operation_xyz
x,y,z
-x,-y,z
1/2+x,1/2-y,1/2-z
1/2-x,1/2+y,1/2-z
-x,-y,-z
x,y,-z
1/2-x,1/2+y,1/2+z
1/2+x,1/2-y,1/2+z
loop_
_atom_site_type_symbol
_atom_site_label
_atom_site_fract_x
_atom_site_fract_y
_atom_site_fract_z
Si Si1 0.255717 0.811491 0.855311
Si Si2 0.235613 0.280726 0.845774
Si Si3 0.588082 0.624705 0.343989
Si Si4 0.167027 0.558675 0.399897
Si Si5 0.588503 0.351199 0.356446
Si Si6 0.111368 0.162337 0.346150
Si Si7 0.388561 0.400741 0.863778
Si Si8 0.515286 0.830392 0.904596
O O1 0.271393 0.820849 0.752860
O O2 0.164452 0.804580 0.871660
O O3 0.304631 0.696503 0.881525
O O4 0.292862 0.931063 0.893640
O O5 0.282360 0.154648 0.848093
O O6 0.152784 0.244584 0.887547
O O7 0.297600 0.375523 0.882750
O O8 0.596489 0.490502 0.383515
O O9 0.503045 0.675690 0.366093
O O10 0.594129 0.615819 0.239321
O O11 0.166635 0.595098 0.500000
O O12 0.077095 0.572306 0.370743
O O13 0.608616 0.358983 0.255360
O O14 0.059706 0.280915 0.357481
O O15 0.087237 0.035595 0.385965
O O16 0.434665 0.292815 0.906395
O O17 0.490446 0.864468 0.000000
#
# Coordination Sequence:
#
# PCOD9441558 Si02
#       8
#     8   8   8   8   8   8   8   8
#     4  10  20  32  53  77 106 146 191 230 277 340
#     4   9  18  32  54  78 104 143 195 230 282 335
#     4   9  15  27  49  72  99 129 171 236 286 310
#     4  10  21  38  55  79 117 153 183 229 293 344
#     4   9  15  27  49  74  98 128 175 234 284 317
#     4  10  19  30  46  75 105 142 186 226 270 320
#     4   9  17  30  47  71 105 136 182 235 272 312
#     4  10  20  33  51  72 105 151 184 216 265 332
#
# _framework density 21.348890000000001
#
# number of rings (size 3 to 8) (size 9 to 14) (size 15 to 20)
#    0.000    2.500    2.500    0.375    1.750    2.000 
#    0.000    1.250    0.000    2.250    0.000    0.000 
#    0.000    0.000    0.000   12.875    0.000    0.000 
#
# Total GULP energy -356501.320521 kJ/mol
# GULP energy per Si atom -5570.333133 kJ/mol
# Density = 2.130030 g / cm^3
# Si number density = 21.348890 Si / 1000 Ang^3
#
#
#
# Elastic Constant Matrix: (Units=GPa)
#
#
# Indices 1 2 3 4 5 6 
#
# 1 160.4558 19.5955 -9.4206 0.0000 0.0000 0.0000
# 2 19.5955 59.0816 4.2056 0.0000 0.0000 0.0000
# 3 -9.4206 4.2056 27.4481 0.0000 0.0000 0.0000
# 4 0.0000 0.0000 0.0000 2.7072 0.0000 0.0000
# 5 0.0000 0.0000 0.0000 0.0000 -44.4423 0.0000
# 6 0.0000 0.0000 0.0000 0.0000 0.0000 34.4963
#
#
#
# Elastic Compliance Matrix: (Units=1/GPa)
#
#
# Indices 1 2 3 4 5 6 
#
# 1 0.006682 -0.002406 0.002662 0.000000 0.000000 0.000000
# 2 -0.002406 0.017979 -0.003580 0.000000 0.000000 0.000000
# 3 0.002662 -0.003580 0.037895 0.000000 0.000000 0.000000
# 4 0.000000 0.000000 0.000000 0.369386 0.000000 0.000000
# 5 0.000000 0.000000 0.000000 0.000000 -0.022501 0.000000
# 6 0.000000 0.000000 0.000000 0.000000 0.000000 0.028989
#
#
# Mechanical properties :
#
#
# Convention : Reuss Voigt Hill
#
# Bulk Modulus (GPa) = 17.88675 30.63851 24.26263
# Shear Modulus (GPa) = 10.78253 14.05925 12.42089
#
# Velocity S-wave (km/s) = 2.24980 2.56900 2.41468
# Velocity P-wave (km/s) = 3.89169 4.81479 4.37764
#
# Compressibility (1/GPa) = 0.05590732
#
# Stress axis : x y z
#
# Youngs Moduli (GPa) = 149.64795 55.62181 26.38895
#
# Poissons Ratio (x) = 0.13382 -0.07025
# Poissons Ratio (y) = 0.36003 0.09448
# Poissons Ratio (z) = -0.39838 0.19915
#
# Static dielectric constant tensor:
#      x y z
#    x 1.881840 0.000000 0.000000 
#    y 0.000000 1.763740 0.000000 
#    z 0.000000 0.000000 1.784430 
# 
# From -- ./inp_files/27371.got.cif
#   From: 2010.05.17/outbox.cif.g08.bks.cpg/sg58_14_cif.got.tgz:27371.got - 2010.06.03 14:20:14.
