data_PCOD9441112
_publ_section_title
;
Structure prediction by ZEFSAII (Michael W. Deem and Ramdas Pophale) SiO2 
 PCOD9441112
Probable space group: P N N M
;
_chemical_formula_sum "Si O2"
_cell_formula_units_Z 36
_cell_length_a 8.672456
_cell_length_b 11.489464
_cell_length_c 20.575839
_cell_angle_alpha 90.000000
_cell_angle_beta 90.000000
_cell_angle_gamma 90.000000
_cell_volume 2050.215095
_symmetry_space_group_name_H-M "P N N M"
_symmetry_group_IT_number 58
_symmetry_cell_setting 'orthorhombic'
loop_
_space_group_symop_operation_xyz
x,y,z
-x,-y,z
1/2+x,1/2-y,1/2-z
1/2-x,1/2+y,1/2-z
-x,-y,-z
x,y,-z
1/2-x,1/2+y,1/2+z
1/2+x,1/2-y,1/2+z
loop_
_atom_site_type_symbol
_atom_site_label
_atom_site_fract_x
_atom_site_fract_y
_atom_site_fract_z
Si Si1 0.265972 0.926079 0.423355
Si Si2 0.220001 0.318384 0.698208
Si Si3 0.950607 0.129820 0.688876
Si Si4 0.000000 0.500000 0.740361
Si Si5 0.915506 0.349674 0.864530
O O1 0.247921 0.918446 0.500000
O O2 0.119544 0.881769 0.383184
O O3 0.419330 0.857579 0.399265
O O4 0.304674 0.059027 0.401628
O O5 0.311866 0.327085 0.765687
O O6 0.342765 0.276983 0.644431
O O7 0.092188 0.217090 0.696057
O O8 0.128899 0.439665 0.696375
O O9 0.000000 0.000000 0.709602
O O10 0.935950 0.404209 0.791740
#
# Coordination Sequence:
#
# PCOD9441112 Si02
#       5
#     8   8   8   4   8
#     4  10  20  37  56  84 118 148 188 232 284 342
#     4  12  20  35  54  80 124 145 188 231 284 342
#     4  12  22  35  55  84 120 151 184 232 286 340
#     4  10  18  30  53  78 115 144 180 226 276 342
#     4  10  18  35  52  83 116 151 185 226 284 342
#
# _framework density 17.559134
#
# number of rings (size 3 to 8) (size 9 to 14) (size 15 to 20)
#    0.000    1.333    8.889    1.333    0.000    0.444 
#    0.000    0.000    0.000    0.000    0.000    8.556 
#    0.000    0.000    0.000    0.000    0.000    0.000 
#
# Total GULP energy -200715.917896 kJ/mol
# GULP energy per Si atom -5575.442164 kJ/mol
# Density = 1.751917 g / cm^3
# Si number density = 17.559134 Si / 1000 Ang^3
#
#
#
# Elastic Constant Matrix: (Units=GPa)
#
#
# Indices 1 2 3 4 5 6 
#
# 1 73.3597 29.7930 45.5008 0.0000 0.0000 0.0000
# 2 29.7930 43.1259 43.4832 0.0000 0.0000 0.0000
# 3 45.5008 43.4832 97.3566 0.0000 0.0000 0.0000
# 4 0.0000 0.0000 0.0000 10.6528 0.0000 0.0000
# 5 0.0000 0.0000 0.0000 0.0000 14.3255 0.0000
# 6 0.0000 0.0000 0.0000 0.0000 0.0000 52.2428
#
#
#
# Elastic Compliance Matrix: (Units=1/GPa)
#
#
# Indices 1 2 3 4 5 6 
#
# 1 0.020699 -0.008270 -0.005980 0.000000 0.000000 0.000000
# 2 -0.008270 0.045490 -0.016452 0.000000 0.000000 0.000000
# 3 -0.005980 -0.016452 0.020415 0.000000 0.000000 0.000000
# 4 0.000000 0.000000 0.000000 0.093872 0.000000 0.000000
# 5 0.000000 0.000000 0.000000 0.000000 0.069806 0.000000
# 6 0.000000 0.000000 0.000000 0.000000 0.000000 0.019141
#
#
# Mechanical properties :
#
#
# Convention : Reuss Voigt Hill
#
# Bulk Modulus (GPa) = 39.68497 50.15514 44.92005
# Shear Modulus (GPa) = 14.73933 21.78189 18.26061
#
# Velocity S-wave (km/s) = 2.90040 3.52588 3.22832
# Velocity P-wave (km/s) = 5.81947 6.72319 6.28759
#
# Compressibility (1/GPa) = 0.02519846
#
# Stress axis : x y z
#
# Youngs Moduli (GPa) = 48.31057 21.98287 48.98390
#
# Poissons Ratio (x) = 0.18180 0.29295
# Poissons Ratio (y) = 0.39953 0.80591
# Poissons Ratio (z) = 0.28892 0.36167
#
# Static dielectric constant tensor:
#      x y z
#    x 1.669660 0.000000 0.000000 
#    y 0.000000 1.628880 0.000000 
#    z 0.000000 0.000000 1.572820 
# 
# From -- ./inp_files/28661.got.cif
#   From: 2010.05.17/outbox.cif.g08.bks.cpg/sg58_15_cif.got.tgz:28661.got - 2010.06.03 14:20:14.
