data_PCOD9441988
_publ_section_title
;
Structure prediction by ZEFSAII (Michael W. Deem and Ramdas Pophale) SiO2 
 PCOD9441988
Probable space group: P N N M
;
_chemical_formula_sum "Si O2"
_cell_formula_units_Z 64
_cell_length_a 20.037993
_cell_length_b 8.970992
_cell_length_c 14.506579
_cell_angle_alpha 90.000000
_cell_angle_beta 90.000000
_cell_angle_gamma 90.000000
_cell_volume 2607.712432
_symmetry_space_group_name_H-M "P N N M"
_symmetry_group_IT_number 58
_symmetry_cell_setting 'orthorhombic'
loop_
_space_group_symop_operation_xyz
x,y,z
-x,-y,z
1/2+x,1/2-y,1/2-z
1/2-x,1/2+y,1/2-z
-x,-y,-z
x,y,-z
1/2-x,1/2+y,1/2+z
1/2+x,1/2-y,1/2+z
loop_
_atom_site_type_symbol
_atom_site_label
_atom_site_fract_x
_atom_site_fract_y
_atom_site_fract_z
Si Si1 0.565050 0.605451 0.110715
Si Si2 0.130518 0.597983 0.603327
Si Si3 0.187792 0.045253 0.689681
Si Si4 0.004224 0.837673 0.108004
Si Si5 0.214943 0.333649 0.395198
Si Si6 0.648453 0.792566 0.606668
Si Si7 0.767980 0.742497 0.855072
Si Si8 0.901095 0.603874 0.896853
O O1 0.500000 0.500000 0.116651
O O2 0.574182 0.783222 0.136128
O O3 0.617365 0.532574 0.180933
O O4 0.583767 0.602549 0.000000
O O5 0.108562 0.556312 0.500000
O O6 0.159276 0.444136 0.647389
O O7 0.200888 0.689513 0.601572
O O8 0.187025 0.167367 0.608263
O O9 0.207735 0.142819 0.777197
O O10 0.242972 0.920531 0.674048
O O11 0.959482 0.703160 0.147668
O O12 0.081686 0.800754 0.106801
O O13 0.981416 0.849022 0.000000
O O14 0.000000 0.000000 0.151712
O O15 0.225597 0.387238 0.500000
O O16 0.289638 0.303283 0.354545
O O17 0.668476 0.825417 0.500000
O O18 0.624638 0.950250 0.648469
O O19 0.836664 0.708738 0.906089
O O20 0.924926 0.558840 0.000000
#
# Coordination Sequence:
#
# PCOD9441988 Si02
#       8
#     8   8   8   8   8   8   8   8
#     4   9  19  39  67  93 119 156 202 258 322 384
#     4   9  19  34  58  90 121 150 193 246 300 360
#     4  11  22  38  59  83 119 153 195 240 304 378
#     4   9  18  30  47  75 110 147 183 226 273 321
#     4  10  19  33  57  88 115 143 187 244 294 348
#     4   9  17  30  50  76 108 145 184 230 281 329
#     4  11  22  36  55  81 113 154 189 236 296 360
#     4  10  19  33  54  76 106 147 198 240 283 342
#
# _framework density 24.542581999999999
#
# number of rings (size 3 to 8) (size 9 to 14) (size 15 to 20)
#    0.000    2.250    1.250    1.875    1.750    2.500 
#    0.000    1.250    2.750    4.500    0.000    0.000 
#    0.000    0.000    0.000    0.000    0.000    0.000 
#
# Total GULP energy -356554.605134 kJ/mol
# GULP energy per Si atom -5571.165705 kJ/mol
# Density = 2.448672 g / cm^3
# Si number density = 24.542582 Si / 1000 Ang^3
#
#
#
# Elastic Constant Matrix: (Units=GPa)
#
#
# Indices 1 2 3 4 5 6 
#
# 1 58.8285 30.0534 10.0239 0.0000 0.0000 0.0000
# 2 30.0534 168.2685 21.8901 0.0000 0.0000 0.0000
# 3 10.0239 21.8901 54.9314 0.0000 0.0000 0.0000
# 4 0.0000 0.0000 0.0000 7.9652 0.0000 0.0000
# 5 0.0000 0.0000 0.0000 0.0000 17.0084 0.0000
# 6 0.0000 0.0000 0.0000 0.0000 0.0000 46.2186
#
#
#
# Elastic Compliance Matrix: (Units=1/GPa)
#
#
# Indices 1 2 3 4 5 6 
#
# 1 0.018960 -0.003097 -0.002226 0.000000 0.000000 0.000000
# 2 -0.003097 0.006774 -0.002134 0.000000 0.000000 0.000000
# 3 -0.002226 -0.002134 0.019461 0.000000 0.000000 0.000000
# 4 0.000000 0.000000 0.000000 0.125547 0.000000 0.000000
# 5 0.000000 0.000000 0.000000 0.000000 0.058794 0.000000
# 6 0.000000 0.000000 0.000000 0.000000 0.000000 0.021636
#
#
# Mechanical properties :
#
#
# Convention : Reuss Voigt Hill
#
# Bulk Modulus (GPa) = 33.02375 45.10703 39.06539
# Shear Modulus (GPa) = 18.10420 28.90917 23.50668
#
# Velocity S-wave (km/s) = 2.71894 3.43581 3.09818
# Velocity P-wave (km/s) = 4.83133 5.84454 5.36192
#
# Compressibility (1/GPa) = 0.03028124
#
# Stress axis : x y z
#
# Youngs Moduli (GPa) = 52.74313 147.63172 51.38448
#
# Poissons Ratio (x) = 0.45718 0.11437
# Poissons Ratio (y) = 0.16333 0.10966
# Poissons Ratio (z) = 0.11739 0.31507
#
# Static dielectric constant tensor:
#      x y z
#    x 1.922940 0.000000 0.000000 
#    y 0.000000 2.010920 0.000000 
#    z 0.000000 0.000000 2.037250 
# 
# From -- ./inp_files/27535.got.cif
#   From: 2010.05.17/outbox.cif.g08.bks.cpg/sg58_14_cif.got.tgz:27535.got - 2010.06.03 14:20:14.
