data_PCOD9441544
_publ_section_title
;
Structure prediction by ZEFSAII (Michael W. Deem and Ramdas Pophale) SiO2 
 PCOD9441544
Probable space group: P N N M
;
_chemical_formula_sum "Si O2"
_cell_formula_units_Z 56
_cell_length_a 19.777931
_cell_length_b 18.475659
_cell_length_c 7.313308
_cell_angle_alpha 90.000000
_cell_angle_beta 90.000000
_cell_angle_gamma 90.000000
_cell_volume 2672.358135
_symmetry_space_group_name_H-M "P N N M"
_symmetry_group_IT_number 58
_symmetry_cell_setting 'orthorhombic'
loop_
_space_group_symop_operation_xyz
x,y,z
-x,-y,z
1/2+x,1/2-y,1/2-z
1/2-x,1/2+y,1/2-z
-x,-y,-z
x,y,-z
1/2-x,1/2+y,1/2+z
1/2+x,1/2-y,1/2+z
loop_
_atom_site_type_symbol
_atom_site_label
_atom_site_fract_x
_atom_site_fract_y
_atom_site_fract_z
Si Si1 0.102234 0.127039 0.722594
Si Si2 0.690280 0.069871 0.219735
Si Si3 0.571277 0.964117 0.777001
Si Si4 0.053805 0.853466 0.722699
Si Si5 0.036551 0.693206 0.722073
Si Si6 0.156578 0.975013 0.284383
Si Si7 0.880169 0.713036 0.277687
O O1 0.104248 0.128129 0.500000
O O2 0.131909 0.204514 0.782595
O O3 0.022946 0.125835 0.773432
O O4 0.139336 0.054906 0.787660
O O5 0.765734 0.046317 0.264239
O O6 0.669973 0.150173 0.284593
O O7 0.634192 0.012412 0.284322
O O8 0.685216 0.071260 0.000000
O O9 0.571860 0.880552 0.717564
O O10 0.500000 0.000000 0.723012
O O11 0.571892 0.964442 0.000000
O O12 0.055421 0.852749 0.500000
O O13 0.065982 0.770520 0.781523
O O14 0.107577 0.912092 0.788520
O O15 0.037824 0.693001 0.500000
O O16 0.957186 0.692360 0.773277
O O17 0.141594 0.978715 0.500000
O O18 0.878787 0.713600 0.500000
#
# Coordination Sequence:
#
# PCOD9441544 Si02
#       7
#     8   8   8   8   8   8   8
#     4   8  14  26  47  68  85 112 154 194 221 254
#     4  10  19  30  45  66  93 122 150 180 221 271
#     4   9  14  23  42  65  87 112 145 187 224 254
#     4   8  14  25  44  67  87 110 146 193 230 255
#     4   8  12  21  40  67  89 103 137 191 233 254
#     4  10  19  31  45  66  95 121 147 181 227 272
#     4   8  13  24  43  66  87 110 144 187 225 256
#
# _framework density 20.955276999999999
#
# number of rings (size 3 to 8) (size 9 to 14) (size 15 to 20)
#    0.000    3.286    1.429    2.143    0.000    1.714 
#    2.571    0.000    0.000    2.143    0.000    3.000 
#    0.000    0.000    0.000    0.000    0.000    0.000 
#
# Total GULP energy -312466.823450 kJ/mol
# GULP energy per Si atom -5579.764704 kJ/mol
# Density = 2.090758 g / cm^3
# Si number density = 20.955277 Si / 1000 Ang^3
#
#
#
# Elastic Constant Matrix: (Units=GPa)
#
#
# Indices 1 2 3 4 5 6 
#
# 1 110.4984 125.6675 -5.0831 0.0000 0.0000 0.0000
# 2 125.6675 261.6033 6.5125 0.0000 0.0000 0.0000
# 3 -5.0831 6.5125 82.2935 0.0000 0.0000 0.0000
# 4 0.0000 0.0000 0.0000 -12.4381 0.0000 0.0000
# 5 0.0000 0.0000 0.0000 0.0000 9.1009 0.0000
# 6 0.0000 0.0000 0.0000 0.0000 0.0000 22.5631
#
#
#
# Elastic Compliance Matrix: (Units=1/GPa)
#
#
# Indices 1 2 3 4 5 6 
#
# 1 0.020280 -0.009792 0.002028 0.000000 0.000000 0.000000
# 2 -0.009792 0.008559 -0.001282 0.000000 0.000000 0.000000
# 3 0.002028 -0.001282 0.012378 0.000000 0.000000 0.000000
# 4 0.000000 0.000000 0.000000 -0.080398 0.000000 0.000000
# 5 0.000000 0.000000 0.000000 0.000000 0.109879 0.000000
# 6 0.000000 0.000000 0.000000 0.000000 0.000000 0.044320
#
#
# Mechanical properties :
#
#
# Convention : Reuss Voigt Hill
#
# Bulk Modulus (GPa) = 43.24737 78.73211 60.98974
# Shear Modulus (GPa) = 35.50637 25.66506 30.58571
#
# Velocity S-wave (km/s) = 4.12076 3.50345 3.82458
# Velocity P-wave (km/s) = 6.58207 7.34973 6.97647
#
# Compressibility (1/GPa) = 0.02312279
#
# Stress axis : x y z
#
# Youngs Moduli (GPa) = 49.30995 116.84260 80.78630
#
# Poissons Ratio (x) = 1.14417 -0.16380
# Poissons Ratio (y) = 0.48286 0.10358
# Poissons Ratio (z) = -0.09998 0.14981
#
# Static dielectric constant tensor:
#      x y z
#    x 1.678300 0.000000 0.000000 
#    y 0.000000 1.766010 0.000000 
#    z 0.000000 0.000000 1.845170 
# 
# From -- ./inp_files/9166.got.cif
#   From: 2010.05.17/outbox.cif.g08.bks.cpg/sg58_5_cif.got.tgz:9166.got - 2010.06.03 14:20:14.
