data_PCOD9441355
_publ_section_title
;
Structure prediction by ZEFSAII (Michael W. Deem and Ramdas Pophale) SiO2 
 PCOD9441355
Probable space group: P N N M
;
_chemical_formula_sum "Si O2"
_cell_formula_units_Z 26
_cell_length_a 5.190935
_cell_length_b 12.758075
_cell_length_c 15.950718
_cell_angle_alpha 90.000000
_cell_angle_beta 90.000000
_cell_angle_gamma 90.000000
_cell_volume 1056.357642
_symmetry_space_group_name_H-M "P N N M"
_symmetry_group_IT_number 58
_symmetry_cell_setting 'orthorhombic'
loop_
_space_group_symop_operation_xyz
x,y,z
-x,-y,z
1/2+x,1/2-y,1/2-z
1/2-x,1/2+y,1/2-z
-x,-y,-z
x,y,-z
1/2-x,1/2+y,1/2+z
1/2+x,1/2-y,1/2+z
loop_
_atom_site_type_symbol
_atom_site_label
_atom_site_fract_x
_atom_site_fract_y
_atom_site_fract_z
Si Si1 0.105263 0.836117 0.143745
Si Si2 0.858803 0.628732 0.190888
Si Si3 0.500000 0.500000 0.500000
Si Si4 0.149798 0.129065 0.405393
O O1 0.254931 0.896312 0.217386
O O2 0.302658 0.754600 0.100013
O O3 0.900832 0.756715 0.187135
O O4 0.988605 0.909614 0.073855
O O5 0.637535 0.606054 0.123257
O O6 0.138168 0.590107 0.161393
O O7 0.204480 0.095424 0.500000
#
# Coordination Sequence:
#
# PCOD9441355 Si02
#       4
#     8   8   2   8
#     4  10  20  37  57  87 129 175 202 261 325 400
#     4  10  19  35  61  74 125 174 217 229 317 412
#     4  12  24  40  62 112 144 146 214 300 354 332
#     4  10  18  33  60  84 109 156 225 258 283 374
#
# _framework density 24.612877000000001
#
# number of rings (size 3 to 8) (size 9 to 14) (size 15 to 20)
#    1.846    0.000    4.615    0.923    2.154    0.000 
#    0.000    3.077    0.000    0.000    0.000    6.462 
#    0.000    0.000    0.000    0.000    0.000    0.000 
#
# Total GULP energy -144804.572842 kJ/mol
# GULP energy per Si atom -5569.406648 kJ/mol
# Density = 2.455686 g / cm^3
# Si number density = 24.612877 Si / 1000 Ang^3
#
#
#
# Elastic Constant Matrix: (Units=GPa)
#
#
# Indices 1 2 3 4 5 6 
#
# 1 94.3188 -7.1242 26.4828 0.0000 0.0000 0.0000
# 2 -7.1242 51.6258 -0.5840 0.0000 0.0000 0.0000
# 3 26.4828 -0.5840 190.2954 0.0000 0.0000 0.0000
# 4 0.0000 0.0000 0.0000 38.8409 0.0000 0.0000
# 5 0.0000 0.0000 0.0000 0.0000 20.7513 0.0000
# 6 0.0000 0.0000 0.0000 0.0000 0.0000 22.6621
#
#
#
# Elastic Compliance Matrix: (Units=1/GPa)
#
#
# Indices 1 2 3 4 5 6 
#
# 1 0.011152 0.001521 -0.001547 0.000000 0.000000 0.000000
# 2 0.001521 0.019578 -0.000152 0.000000 0.000000 0.000000
# 3 -0.001547 -0.000152 0.005470 0.000000 0.000000 0.000000
# 4 0.000000 0.000000 0.000000 0.025746 0.000000 0.000000
# 5 0.000000 0.000000 0.000000 0.000000 0.048190 0.000000
# 6 0.000000 0.000000 0.000000 0.000000 0.000000 0.044127
#
#
# Mechanical properties :
#
#
# Convention : Reuss Voigt Hill
#
# Bulk Modulus (GPa) = 27.89798 41.53214 34.71506
# Shear Modulus (GPa) = 30.01819 37.61521 33.81670
#
# Velocity S-wave (km/s) = 3.49608 3.91356 3.71070
# Velocity P-wave (km/s) = 5.25891 6.10999 5.70036
#
# Compressibility (1/GPa) = 0.03584489
#
# Stress axis : x y z
#
# Youngs Moduli (GPa) = 89.67241 51.07673 182.82032
#
# Poissons Ratio (x) = -0.07771 0.28287
# Poissons Ratio (y) = -0.13643 0.02772
# Poissons Ratio (z) = 0.13875 0.00775
#
# Static dielectric constant tensor:
#      x y z
#    x 1.907560 0.000000 0.000000 
#    y 0.000000 2.175790 0.000000 
#    z 0.000000 0.000000 1.813050 
# 
# From -- ./inp_files/18257.got.cif
#   From: 2010.05.17/outbox.cif.g08.bks.cpg/sg58_10_cif.got.tgz:18257.got - 2010.06.03 14:20:14.
