data_PCOD9441213
_publ_section_title
;
Structure prediction by ZEFSAII (Michael W. Deem and Ramdas Pophale) SiO2 
 PCOD9441213
Probable space group: P N N M
;
_chemical_formula_sum "Si O2"
_cell_formula_units_Z 64
_cell_length_a 28.270259
_cell_length_b 8.376522
_cell_length_c 13.128369
_cell_angle_alpha 90.000000
_cell_angle_beta 90.000000
_cell_angle_gamma 90.000000
_cell_volume 3108.882411
_symmetry_space_group_name_H-M "P N N M"
_symmetry_group_IT_number 58
_symmetry_cell_setting 'orthorhombic'
loop_
_space_group_symop_operation_xyz
x,y,z
-x,-y,z
1/2+x,1/2-y,1/2-z
1/2-x,1/2+y,1/2-z
-x,-y,-z
x,y,-z
1/2-x,1/2+y,1/2+z
1/2+x,1/2-y,1/2+z
loop_
_atom_site_type_symbol
_atom_site_label
_atom_site_fract_x
_atom_site_fract_y
_atom_site_fract_z
Si Si1 0.450692 0.903213 0.612962
Si Si2 0.716542 0.996123 0.120983
Si Si3 0.785409 0.226301 0.223132
Si Si4 0.661366 0.519464 0.882583
Si Si5 0.385465 0.202504 0.621832
Si Si6 0.567918 0.636131 0.810334
Si Si7 0.532433 0.275460 0.807435
Si Si8 0.126114 0.329728 0.379993
O O1 0.441229 0.843894 0.500000
O O2 0.459030 0.760338 0.689412
O O3 0.500000 0.000000 0.613604
O O4 0.409146 0.028262 0.639846
O O5 0.746916 0.153511 0.146741
O O6 0.662185 0.033742 0.152247
O O7 0.732882 0.859859 0.198494
O O8 0.719509 0.957539 0.000000
O O9 0.802620 0.089872 0.301795
O O10 0.831262 0.283895 0.158978
O O11 0.615436 0.636453 0.876701
O O12 0.644610 0.344511 0.845184
O O13 0.677666 0.512185 0.000000
O O14 0.389641 0.234376 0.500000
O O15 0.415137 0.321428 0.695669
O O16 0.548239 0.456922 0.825594
O O17 0.522414 0.744510 0.835564
O O18 0.570749 0.159275 0.857873
O O19 0.131572 0.322927 0.500000
#
# Coordination Sequence:
#
# PCOD9441213 Si02
#       8
#     8   8   8   8   8   8   8   8
#     4  10  19  31  49  71 101 142 184 221 265 323
#     4  11  23  40  61  88 115 146 188 238 289 347
#     4  11  22  38  62  85 113 148 186 235 294 350
#     4   9  18  35  56  81 110 146 185 227 279 342
#     4  10  20  36  54  78 109 145 186 230 280 337
#     4   9  19  30  50  78 108 142 181 227 275 326
#     4  10  18  32  50  76 107 142 184 226 273 326
#     4   9  19  35  56  78 108 144 183 228 279 332
#
# _framework density 20.586175000000001
#
# number of rings (size 3 to 8) (size 9 to 14) (size 15 to 20)
#    0.000    2.125    1.250    2.250    0.000    1.000 
#    0.000    5.625    0.000    6.375    0.000    0.000 
#    0.000    0.000    0.000    0.000    0.000    0.000 
#
# Total GULP energy -356642.306790 kJ/mol
# GULP energy per Si atom -5572.536044 kJ/mol
# Density = 2.053932 g / cm^3
# Si number density = 20.586175 Si / 1000 Ang^3
#
#
#
# Elastic Constant Matrix: (Units=GPa)
#
#
# Indices 1 2 3 4 5 6 
#
# 1 63.4621 1.1262 1.5985 0.0000 0.0000 0.0000
# 2 1.1262 16.7095 2.6852 0.0000 0.0000 0.0000
# 3 1.5985 2.6852 38.4231 0.0000 0.0000 0.0000
# 4 0.0000 0.0000 0.0000 16.3331 0.0000 0.0000
# 5 0.0000 0.0000 0.0000 0.0000 15.2082 0.0000
# 6 0.0000 0.0000 0.0000 0.0000 0.0000 21.0206
#
#
#
# Elastic Compliance Matrix: (Units=1/GPa)
#
#
# Indices 1 2 3 4 5 6 
#
# 1 0.015789 -0.000969 -0.000589 0.000000 0.000000 0.000000
# 2 -0.000969 0.060586 -0.004194 0.000000 0.000000 0.000000
# 3 -0.000589 -0.004194 0.026344 0.000000 0.000000 0.000000
# 4 0.000000 0.000000 0.000000 0.061225 0.000000 0.000000
# 5 0.000000 0.000000 0.000000 0.000000 0.065754 0.000000
# 6 0.000000 0.000000 0.000000 0.000000 0.000000 0.047572
#
#
# Mechanical properties :
#
#
# Convention : Reuss Voigt Hill
#
# Bulk Modulus (GPa) = 10.96322 14.37938 12.67130
# Shear Modulus (GPa) = 15.66517 18.05804 16.86160
#
# Velocity S-wave (km/s) = 2.76154 2.96496 2.86505
# Velocity P-wave (km/s) = 3.93766 4.32683 4.13682
#
# Compressibility (1/GPa) = 0.09121406
#
# Stress axis : x y z
#
# Youngs Moduli (GPa) = 63.33333 16.50558 37.95987
#
# Poissons Ratio (x) = 0.01600 0.02236
# Poissons Ratio (y) = 0.06140 0.15919
# Poissons Ratio (z) = 0.03731 0.06922
#
# Static dielectric constant tensor:
#      x y z
#    x 1.808790 0.000000 0.000000 
#    y 0.000000 1.788730 0.000000 
#    z 0.000000 0.000000 1.717790 
# 
# From -- ./inp_files/18004.got.cif
#   From: 2010.05.17/outbox.cif.g08.bks.cpg/sg58_10_cif.got.tgz:18004.got - 2010.06.03 14:20:14.
