data_PCOD9441631
_publ_section_title
;
Structure prediction by ZEFSAII (Michael W. Deem and Ramdas Pophale) SiO2 
 PCOD9441631
Probable space group: P N N M
;
_chemical_formula_sum "Si O2"
_cell_formula_units_Z 64
_cell_length_a 24.059573
_cell_length_b 19.693974
_cell_length_c 8.528262
_cell_angle_alpha 90.000000
_cell_angle_beta 90.000000
_cell_angle_gamma 90.000000
_cell_volume 4040.934487
_symmetry_space_group_name_H-M "P N N M"
_symmetry_group_IT_number 58
_symmetry_cell_setting 'orthorhombic'
loop_
_space_group_symop_operation_xyz
x,y,z
-x,-y,z
1/2+x,1/2-y,1/2-z
1/2-x,1/2+y,1/2-z
-x,-y,-z
x,y,-z
1/2-x,1/2+y,1/2+z
1/2+x,1/2-y,1/2+z
loop_
_atom_site_type_symbol
_atom_site_label
_atom_site_fract_x
_atom_site_fract_y
_atom_site_fract_z
Si Si1 0.230459 0.341188 0.310971
Si Si2 0.561182 0.645460 0.310182
Si Si3 0.757352 0.008611 0.812511
Si Si4 0.435108 0.631011 0.310412
Si Si5 0.841890 0.240168 0.809614
Si Si6 0.776676 0.368407 0.812461
Si Si7 0.171490 0.214914 0.187305
Si Si8 0.883024 0.007916 0.686596
O O1 0.226209 0.336892 0.500000
O O2 0.230197 0.419777 0.264106
O O3 0.290609 0.309421 0.266570
O O4 0.184804 0.291692 0.237393
O O5 0.561399 0.646311 0.500000
O O6 0.497370 0.648411 0.257410
O O7 0.600814 0.706896 0.255051
O O8 0.588903 0.575163 0.256816
O O9 0.723320 0.942533 0.761804
O O10 0.819076 0.003803 0.741113
O O11 0.763475 0.009497 0.000000
O O12 0.435502 0.626541 0.500000
O O13 0.388731 0.686568 0.266404
O O14 0.415230 0.558645 0.245788
O O15 0.824374 0.315639 0.758557
O O16 0.843097 0.241531 0.000000
O O17 0.718708 0.331892 0.766515
O O18 0.778923 0.374380 0.000000
O O19 0.177230 0.208313 0.000000
O O20 0.885139 0.010816 0.500000
#
# Coordination Sequence:
#
# PCOD9441631 Si02
#       8
#     8   8   8   8   8   8   8   8
#     4   9  18  32  50  69  92 122 158 198 243 289
#     4  10  19  35  53  67  91 132 170 199 232 280
#     4  11  20  33  51  71  96 129 164 197 241 293
#     4  10  21  34  50  69  93 130 170 199 231 278
#     4   8  15  30  49  68  91 121 157 195 236 279
#     4  10  19  31  48  72  97 124 157 196 243 288
#     4  10  19  31  47  70  97 126 159 197 237 283
#     4  12  23  32  45  69 100 131 164 201 238 278
#
# _framework density 15.837921
#
# number of rings (size 3 to 8) (size 9 to 14) (size 15 to 20)
#    0.000    2.000    2.500    3.375    0.000    3.500 
#    0.000    0.625    0.000    0.000    0.000    0.875 
#    0.000    7.000    0.000    0.000    0.000    0.000 
#
# Total GULP energy -357041.857529 kJ/mol
# GULP energy per Si atom -5578.779024 kJ/mol
# Density = 1.580187 g / cm^3
# Si number density = 15.837921 Si / 1000 Ang^3
#
#
#
# Elastic Constant Matrix: (Units=GPa)
#
#
# Indices 1 2 3 4 5 6 
#
# 1 66.3651 33.1128 6.0317 0.0000 0.0000 0.0000
# 2 33.1128 92.2772 1.5625 0.0000 0.0000 0.0000
# 3 6.0317 1.5625 11.6371 0.0000 0.0000 0.0000
# 4 0.0000 0.0000 0.0000 26.3900 0.0000 0.0000
# 5 0.0000 0.0000 0.0000 0.0000 5.2962 0.0000
# 6 0.0000 0.0000 0.0000 0.0000 0.0000 15.9846
#
#
#
# Elastic Compliance Matrix: (Units=1/GPa)
#
#
# Indices 1 2 3 4 5 6 
#
# 1 0.019266 -0.006760 -0.009078 0.000000 0.000000 0.000000
# 2 -0.006760 0.013233 0.001727 0.000000 0.000000 0.000000
# 3 -0.009078 0.001727 0.090406 0.000000 0.000000 0.000000
# 4 0.000000 0.000000 0.000000 0.037893 0.000000 0.000000
# 5 0.000000 0.000000 0.000000 0.000000 0.188816 0.000000
# 6 0.000000 0.000000 0.000000 0.000000 0.000000 0.062560
#
#
# Mechanical properties :
#
#
# Convention : Reuss Voigt Hill
#
# Bulk Modulus (GPa) = 10.56157 27.96591 19.26374
# Shear Modulus (GPa) = 10.59417 18.17231 14.38324
#
# Velocity S-wave (km/s) = 2.58914 3.39099 3.01683
# Velocity P-wave (km/s) = 3.95237 5.74697 4.93198
#
# Compressibility (1/GPa) = 0.09468290
#
# Stress axis : x y z
#
# Youngs Moduli (GPa) = 51.90488 75.56672 11.06124
#
# Poissons Ratio (x) = 0.51081 0.10042
# Poissons Ratio (y) = 0.35086 -0.01910
# Poissons Ratio (z) = 0.47121 -0.13049
#
# Static dielectric constant tensor:
#      x y z
#    x 1.519460 0.000000 0.000000 
#    y 0.000000 1.532370 0.000000 
#    z 0.000000 0.000000 1.543170 
# 
# From -- ./inp_files/8467.got.cif
#   From: 2010.05.17/outbox.cif.g08.bks.cpg/sg58_5_cif.got.tgz:8467.got - 2010.06.03 14:20:14.
