data_PCOD9441397
_publ_section_title
;
Structure prediction by ZEFSAII (Michael W. Deem and Ramdas Pophale) SiO2 
 PCOD9441397
Probable space group: P N N M
;
_chemical_formula_sum "Si O2"
_cell_formula_units_Z 64
_cell_length_a 31.703566
_cell_length_b 12.137607
_cell_length_c 7.521364
_cell_angle_alpha 90.000000
_cell_angle_beta 90.000000
_cell_angle_gamma 90.000000
_cell_volume 2894.261668
_symmetry_space_group_name_H-M "P N N M"
_symmetry_group_IT_number 58
_symmetry_cell_setting 'orthorhombic'
loop_
_space_group_symop_operation_xyz
x,y,z
-x,-y,z
1/2+x,1/2-y,1/2-z
1/2-x,1/2+y,1/2-z
-x,-y,-z
x,y,-z
1/2-x,1/2+y,1/2+z
1/2+x,1/2-y,1/2+z
loop_
_atom_site_type_symbol
_atom_site_label
_atom_site_fract_x
_atom_site_fract_y
_atom_site_fract_z
Si Si1 0.629984 0.086305 0.294060
Si Si2 0.460676 0.275590 0.217914
Si Si3 0.336265 0.501410 0.286680
Si Si4 0.053478 0.254599 0.284330
Si Si5 0.124507 0.663908 0.705263
Si Si6 0.301919 0.739027 0.718069
Si Si7 0.207664 0.778856 0.290545
Si Si8 0.432151 0.507327 0.794588
O O1 0.639119 0.064096 0.500000
O O2 0.587801 0.159185 0.281169
O O3 0.667980 0.161651 0.221837
O O4 0.624848 0.967566 0.208065
O O5 0.505220 0.222982 0.268560
O O6 0.419070 0.211791 0.281053
O O7 0.457514 0.402959 0.278634
O O8 0.460415 0.276854 0.000000
O O9 0.339104 0.501404 0.500000
O O10 0.321388 0.622011 0.227435
O O11 0.303995 0.406742 0.230737
O O12 0.382816 0.476401 0.214470
O O13 0.056334 0.256231 0.500000
O O14 0.063516 0.130146 0.219676
O O15 0.124643 0.701577 0.500000
O O16 0.167700 0.712024 0.785620
O O17 0.302540 0.740518 0.500000
O O18 0.253962 0.752231 0.780827
O O19 0.210190 0.751937 0.500000
O O20 0.445361 0.517266 0.000000
#
# Coordination Sequence:
#
# PCOD9441397 Si02
#       8
#     8   8   8   8   8   8   8   8
#     4  11  23  40  57  78 116 154 187 229 283 339
#     4   9  18  35  58  86 114 143 183 238 288 322
#     4  11  21  36  59  87 118 149 182 228 285 337
#     4  10  20  35  60  87 111 144 191 236 277 332
#     4  10  21  38  60  82 110 146 189 236 280 330
#     4   9  21  39  58  81 115 153 183 228 284 331
#     4  10  21  40  62  84 112 149 192 235 280 329
#     4  10  18  34  59  87 115 147 185 228 278 336
#
# _framework density 22.112719999999999
#
# number of rings (size 3 to 8) (size 9 to 14) (size 15 to 20)
#    0.000    2.000    2.500    1.125    1.750    2.500 
#    0.000    5.625    0.000    1.500    0.000    0.000 
#    0.000    0.000    0.000    0.000    0.000    0.000 
#
# Total GULP energy -357629.804415 kJ/mol
# GULP energy per Si atom -5587.965694 kJ/mol
# Density = 2.206239 g / cm^3
# Si number density = 22.112720 Si / 1000 Ang^3
#
#
#
# Elastic Constant Matrix: (Units=GPa)
#
#
# Indices 1 2 3 4 5 6 
#
# 1 129.2719 42.1880 2.2488 0.0000 0.0000 0.0000
# 2 42.1880 97.6041 -13.8517 0.0000 0.0000 0.0000
# 3 2.2488 -13.8517 54.2584 0.0000 0.0000 0.0000
# 4 0.0000 0.0000 0.0000 12.5188 0.0000 0.0000
# 5 0.0000 0.0000 0.0000 0.0000 21.3118 0.0000
# 6 0.0000 0.0000 0.0000 0.0000 0.0000 22.6917
#
#
#
# Elastic Compliance Matrix: (Units=1/GPa)
#
#
# Indices 1 2 3 4 5 6 
#
# 1 0.009112 -0.004142 -0.001435 0.000000 0.000000 0.000000
# 2 -0.004142 0.012514 0.003366 0.000000 0.000000 0.000000
# 3 -0.001435 0.003366 0.019349 0.000000 0.000000 0.000000
# 4 0.000000 0.000000 0.000000 0.079880 0.000000 0.000000
# 5 0.000000 0.000000 0.000000 0.000000 0.046922 0.000000
# 6 0.000000 0.000000 0.000000 0.000000 0.000000 0.044069
#
#
# Mechanical properties :
#
#
# Convention : Reuss Voigt Hill
#
# Bulk Modulus (GPa) = 27.35769 38.03385 32.69577
# Shear Modulus (GPa) = 21.88632 28.00776 24.94704
#
# Velocity S-wave (km/s) = 3.14946 3.56278 3.36248
# Velocity P-wave (km/s) = 5.06204 5.84481 5.46745
#
# Compressibility (1/GPa) = 0.03655279
#
# Stress axis : x y z
#
# Youngs Moduli (GPa) = 109.73967 79.91240 51.68175
#
# Poissons Ratio (x) = 0.33103 0.07417
# Poissons Ratio (y) = 0.45459 -0.17398
# Poissons Ratio (z) = 0.15750 -0.26901
#
# Static dielectric constant tensor:
#      x y z
#    x 1.803720 0.000000 0.000000 
#    y 0.000000 1.763180 0.000000 
#    z 0.000000 0.000000 1.925340 
# 
# From -- ./inp_files/11053.got.cif
#   From: 2010.05.17/outbox.cif.g08.bks.cpg/sg58_6_cif.got.tgz:11053.got - 2010.06.03 14:20:14.
