data_PCOD9441851
_publ_section_title
;
Structure prediction by ZEFSAII (Michael W. Deem and Ramdas Pophale) SiO2 
 PCOD9441851
Probable space group: P N N M
;
_chemical_formula_sum "Si O2"
_cell_formula_units_Z 64
_cell_length_a 25.128651
_cell_length_b 14.469131
_cell_length_c 9.499345
_cell_angle_alpha 90.000000
_cell_angle_beta 90.000000
_cell_angle_gamma 90.000000
_cell_volume 3453.864409
_symmetry_space_group_name_H-M "P N N M"
_symmetry_group_IT_number 58
_symmetry_cell_setting 'orthorhombic'
loop_
_space_group_symop_operation_xyz
x,y,z
-x,-y,z
1/2+x,1/2-y,1/2-z
1/2-x,1/2+y,1/2-z
-x,-y,-z
x,y,-z
1/2-x,1/2+y,1/2+z
1/2+x,1/2-y,1/2+z
loop_
_atom_site_type_symbol
_atom_site_label
_atom_site_fract_x
_atom_site_fract_y
_atom_site_fract_z
Si Si1 0.431398 0.342137 0.166047
Si Si2 0.781516 0.955040 0.837415
Si Si3 0.887168 0.962556 0.334304
Si Si4 0.883171 0.635735 0.833189
Si Si5 0.229692 0.267857 0.161449
Si Si6 0.177177 0.538373 0.165200
Si Si7 0.833359 0.242038 0.165473
Si Si8 0.549222 0.277535 0.169037
O O1 0.428176 0.452993 0.181588
O O2 0.383741 0.300118 0.255992
O O3 0.488623 0.301945 0.206747
O O4 0.422758 0.322365 0.000000
O O5 0.834853 0.982581 0.756245
O O6 0.779118 0.842748 0.832837
O O7 0.728449 0.986789 0.757674
O O8 0.782317 0.983969 0.000000
O O9 0.872647 0.956961 0.500000
O O10 0.914063 0.865833 0.292975
O O11 0.826197 0.684541 0.803985
O O12 0.872060 0.528439 0.800351
O O13 0.927708 0.687879 0.745125
O O14 0.893816 0.645698 0.000000
O O15 0.278379 0.291089 0.263543
O O16 0.243830 0.292212 0.000000
O O17 0.165262 0.646484 0.183436
O O18 0.189946 0.523024 0.000000
O O19 0.833872 0.221295 0.000000
O O20 0.551918 0.267342 0.000000
#
# Coordination Sequence:
#
# PCOD9441851 Si02
#       8
#     8   8   8   8   8   8   8   8
#     4  10  22  39  58  79 108 149 189 226 277 335
#     4  10  19  32  52  82 115 143 177 222 272 323
#     4  10  20  35  56  80 110 147 183 221 270 332
#     4  10  20  36  58  82 111 147 184 224 276 332
#     4   9  18  33  53  78 111 147 177 215 274 335
#     4   9  20  37  56  79 111 150 187 222 269 330
#     4  10  21  37  56  81 111 143 187 236 274 316
#     4  10  21  38  59  83 110 142 187 234 273 324
#
# _framework density 18.529968
#
# number of rings (size 3 to 8) (size 9 to 14) (size 15 to 20)
#    0.000    2.250    1.250    1.125    1.750    4.500 
#    0.000    0.625    0.000    6.000    0.000    0.000 
#    0.000    0.000    0.000    0.000    0.000    0.000 
#
# Total GULP energy -357375.422670 kJ/mol
# GULP energy per Si atom -5583.990979 kJ/mol
# Density = 1.848779 g / cm^3
# Si number density = 18.529968 Si / 1000 Ang^3
#
#
#
# Elastic Constant Matrix: (Units=GPa)
#
#
# Indices 1 2 3 4 5 6 
#
# 1 59.9182 0.4921 31.5515 0.0000 0.0000 0.0000
# 2 0.4921 33.8961 12.1367 0.0000 0.0000 0.0000
# 3 31.5515 12.1367 43.3265 0.0000 0.0000 0.0000
# 4 0.0000 0.0000 0.0000 23.5651 0.0000 0.0000
# 5 0.0000 0.0000 0.0000 0.0000 27.5017 0.0000
# 6 0.0000 0.0000 0.0000 0.0000 0.0000 26.1049
#
#
#
# Elastic Compliance Matrix: (Units=1/GPa)
#
#
# Indices 1 2 3 4 5 6 
#
# 1 0.028854 0.007897 -0.023224 0.000000 0.000000 0.000000
# 2 0.007897 0.034952 -0.015541 0.000000 0.000000 0.000000
# 3 -0.023224 -0.015541 0.044346 0.000000 0.000000 0.000000
# 4 0.000000 0.000000 0.000000 0.042436 0.000000 0.000000
# 5 0.000000 0.000000 0.000000 0.000000 0.036361 0.000000
# 6 0.000000 0.000000 0.000000 0.000000 0.000000 0.038307
#
#
# Mechanical properties :
#
#
# Convention : Reuss Voigt Hill
#
# Bulk Modulus (GPa) = 21.54497 25.05572 23.30034
# Shear Modulus (GPa) = 16.53082 21.63171 19.08126
#
# Velocity S-wave (km/s) = 2.99007 3.42042 3.21246
# Velocity P-wave (km/s) = 4.85520 5.39908 5.13435
#
# Compressibility (1/GPa) = 0.04641456
#
# Stress axis : x y z
#
# Youngs Moduli (GPa) = 34.65745 28.61069 22.54975
#
# Poissons Ratio (x) = -0.22593 0.52370
# Poissons Ratio (y) = -0.27368 0.35045
# Poissons Ratio (z) = 0.80489 0.44465
#
# Static dielectric constant tensor:
#      x y z
#    x 1.597590 0.000000 0.000000 
#    y 0.000000 1.672500 0.000000 
#    z 0.000000 0.000000 1.620020 
# 
# From -- ./inp_files/6829.got.cif
#   From: 2010.05.17/outbox.cif.g08.bks.cpg/sg58_4_cif.got.tgz:6829.got - 2010.06.03 14:20:14.
