data_PCOD9441524
_publ_section_title
;
Structure prediction by ZEFSAII (Michael W. Deem and Ramdas Pophale) SiO2 
 PCOD9441524
Probable space group: P N N M
;
_chemical_formula_sum "Si O2"
_cell_formula_units_Z 56
_cell_length_a 9.678361
_cell_length_b 13.762817
_cell_length_c 19.874303
_cell_angle_alpha 90.000000
_cell_angle_beta 90.000000
_cell_angle_gamma 90.000000
_cell_volume 2647.287196
_symmetry_space_group_name_H-M "P N N M"
_symmetry_group_IT_number 58
_symmetry_cell_setting 'orthorhombic'
loop_
_space_group_symop_operation_xyz
x,y,z
-x,-y,z
1/2+x,1/2-y,1/2-z
1/2-x,1/2+y,1/2-z
-x,-y,-z
x,y,-z
1/2-x,1/2+y,1/2+z
1/2+x,1/2-y,1/2+z
loop_
_atom_site_type_symbol
_atom_site_label
_atom_site_fract_x
_atom_site_fract_y
_atom_site_fract_z
Si Si1 0.849718 0.048975 0.212298
Si Si2 0.478762 0.111109 0.920290
Si Si3 0.806299 0.958325 0.075118
Si Si4 0.498407 0.287677 0.572136
Si Si5 0.754643 0.372677 0.212735
Si Si6 0.498453 0.744967 0.719601
Si Si7 0.188239 0.224801 0.577161
O O1 0.882664 0.160817 0.223432
O O2 0.793343 0.028357 0.137937
O O3 0.764603 0.983852 0.264318
O O4 0.000000 0.000000 0.214480
O O5 0.314109 0.122641 0.914955
O O6 0.570930 0.200679 0.895605
O O7 0.500000 0.000000 0.895366
O O8 0.512208 0.108295 0.000000
O O9 0.947464 0.897832 0.076210
O O10 0.787294 0.999495 0.000000
O O11 0.548577 0.248382 0.500000
O O12 0.543583 0.239872 0.641554
O O13 0.333734 0.280590 0.571512
O O14 0.635265 0.303221 0.245877
O O15 0.907435 0.338110 0.236830
O O16 0.723670 0.356336 0.133267
O O17 0.153410 0.192694 0.500000
#
# Coordination Sequence:
#
# PCOD9441524 Si02
#       7
#     8   8   8   8   8   8   8
#     4  10  20  35  50  74 108 136 169 212 258 298
#     4   9  19  30  42  68 106 138 163 203 257 306
#     4  10  19  29  48  75 104 139 170 198 245 318
#     4   9  17  31  51  75 102 133 170 203 245 310
#     4  10  21  35  54  75 102 139 173 212 257 309
#     4  10  21  37  53  76 105 139 170 211 260 306
#     4   9  19  34  50  71  99 134 176 221 259 299
#
# _framework density 21.153728999999998
#
# number of rings (size 3 to 8) (size 9 to 14) (size 15 to 20)
#    0.000    2.429    2.857    0.000    6.000    0.857 
#    0.000    0.714    0.000    3.857    0.000    0.000 
#    0.000    4.571    0.000    0.000    0.000    0.000 
#
# Total GULP energy -311863.757101 kJ/mol
# GULP energy per Si atom -5568.995663 kJ/mol
# Density = 2.110558 g / cm^3
# Si number density = 21.153729 Si / 1000 Ang^3
#
#
#
# Elastic Constant Matrix: (Units=GPa)
#
#
# Indices 1 2 3 4 5 6 
#
# 1 48.1039 -3.6537 8.0720 0.0000 0.0000 0.0000
# 2 -3.6537 26.3612 10.9851 0.0000 0.0000 0.0000
# 3 8.0720 10.9851 85.9188 0.0000 0.0000 0.0000
# 4 0.0000 0.0000 0.0000 6.8577 0.0000 0.0000
# 5 0.0000 0.0000 0.0000 0.0000 9.0389 0.0000
# 6 0.0000 0.0000 0.0000 0.0000 0.0000 25.2067
#
#
#
# Elastic Compliance Matrix: (Units=1/GPa)
#
#
# Indices 1 2 3 4 5 6 
#
# 1 0.021521 0.004041 -0.002539 0.000000 0.000000 0.000000
# 2 0.004041 0.040828 -0.005600 0.000000 0.000000 0.000000
# 3 -0.002539 -0.005600 0.012593 0.000000 0.000000 0.000000
# 4 0.000000 0.000000 0.000000 0.145820 0.000000 0.000000
# 5 0.000000 0.000000 0.000000 0.000000 0.110633 0.000000
# 6 0.000000 0.000000 0.000000 0.000000 0.000000 0.039672
#
#
# Mechanical properties :
#
#
# Convention : Reuss Voigt Hill
#
# Bulk Modulus (GPa) = 14.98179 21.24340 18.11260
# Shear Modulus (GPa) = 12.45292 17.88603 15.16947
#
# Velocity S-wave (km/s) = 2.42892 2.91095 2.68079
# Velocity P-wave (km/s) = 3.86832 4.62194 4.26182
#
# Compressibility (1/GPa) = 0.06674770
#
# Stress axis : x y z
#
# Youngs Moduli (GPa) = 46.46574 24.49297 79.40716
#
# Poissons Ratio (x) = -0.09897 0.20158
# Poissons Ratio (y) = -0.18776 0.44465
# Poissons Ratio (z) = 0.11795 0.13715
#
# Static dielectric constant tensor:
#      x y z
#    x 1.837640 0.000000 0.000000 
#    y 0.000000 1.765050 0.000000 
#    z 0.000000 0.000000 1.840520 
# 
# From -- ./inp_files/28933.got.cif
#   From: 2010.05.17/outbox.cif.g08.bks.cpg/sg58_15_cif.got.tgz:28933.got - 2010.06.03 14:20:14.
