data_PCOD9441488
_publ_section_title
;
Structure prediction by ZEFSAII (Michael W. Deem and Ramdas Pophale) SiO2 
 PCOD9441488
Probable space group: P N N M
;
_chemical_formula_sum "Si O2"
_cell_formula_units_Z 64
_cell_length_a 18.207481
_cell_length_b 23.120652
_cell_length_c 7.413613
_cell_angle_alpha 90.000000
_cell_angle_beta 90.000000
_cell_angle_gamma 90.000000
_cell_volume 3120.900005
_symmetry_space_group_name_H-M "P N N M"
_symmetry_group_IT_number 58
_symmetry_cell_setting 'orthorhombic'
loop_
_space_group_symop_operation_xyz
x,y,z
-x,-y,z
1/2+x,1/2-y,1/2-z
1/2-x,1/2+y,1/2-z
-x,-y,-z
x,y,-z
1/2-x,1/2+y,1/2+z
1/2+x,1/2-y,1/2+z
loop_
_atom_site_type_symbol
_atom_site_label
_atom_site_fract_x
_atom_site_fract_y
_atom_site_fract_z
Si Si1 0.136905 0.349610 0.711880
Si Si2 0.568705 0.669480 0.796118
Si Si3 0.704778 0.603074 0.792699
Si Si4 0.732811 0.983076 0.721753
Si Si5 0.969397 0.937953 0.782385
Si Si6 0.323362 0.620187 0.204206
Si Si7 0.577240 0.273714 0.221786
Si Si8 0.925542 0.529038 0.783192
O O1 0.150523 0.342654 0.500000
O O2 0.214860 0.368282 0.792945
O O3 0.104384 0.289197 0.777851
O O4 0.082387 0.403410 0.738274
O O5 0.645434 0.647770 0.711403
O O6 0.522516 0.610303 0.796152
O O7 0.506225 0.712151 0.717247
O O8 0.584379 0.690444 0.000000
O O9 0.717078 0.538081 0.717442
O O10 0.680823 0.595005 0.000000
O O11 0.735371 0.983116 0.500000
O O12 0.649849 0.998344 0.777573
O O13 0.758966 0.919670 0.783854
O O14 0.889674 0.925875 0.704817
O O15 0.966724 0.931929 0.000000
O O16 0.000000 0.000000 0.737326
O O17 0.363796 0.677161 0.281713
O O18 0.301602 0.635796 0.000000
O O19 0.575195 0.277222 0.000000
O O20 0.000000 0.500000 0.715325
O O21 0.925625 0.524608 0.000000
#
# Coordination Sequence:
#
# PCOD9441488 Si02
#       8
#     8   8   8   8   8   8   8   8
#     4  10  19  32  50  71  99 131 159 192 241 300
#     4   9  17  31  50  67  87 122 166 203 230 271
#     4   9  17  30  49  72  93 117 158 204 242 282
#     4   8  14  26  47  72  92 114 150 197 241 279
#     4  10  19  27  37  61  97 126 148 185 235 277
#     4   9  16  29  48  65  86 122 164 195 223 272
#     4   8  16  30  47  68  93 124 161 197 232 278
#     4   9  18  34  54  75  97 120 157 210 255 286
#
# _framework density 20.506906000000001
#
# number of rings (size 3 to 8) (size 9 to 14) (size 15 to 20)
#    0.000    3.000    0.000    3.000    0.000    2.750 
#    0.000   10.000    0.000    1.500    0.000    0.000 
#    0.000    0.000    0.000    0.000    0.000    0.000 
#
# Total GULP energy -356484.514913 kJ/mol
# GULP energy per Si atom -5570.070546 kJ/mol
# Density = 2.046023 g / cm^3
# Si number density = 20.506906 Si / 1000 Ang^3
#
#
#
# Elastic Constant Matrix: (Units=GPa)
#
#
# Indices 1 2 3 4 5 6 
#
# 1 97.0673 67.9761 -1.8411 0.0000 0.0000 0.0000
# 2 67.9761 116.9634 -5.0486 0.0000 0.0000 0.0000
# 3 -1.8411 -5.0486 69.5837 0.0000 0.0000 0.0000
# 4 0.0000 0.0000 0.0000 11.0408 0.0000 0.0000
# 5 0.0000 0.0000 0.0000 0.0000 -18.2941 0.0000
# 6 0.0000 0.0000 0.0000 0.0000 0.0000 26.1121
#
#
#
# Elastic Compliance Matrix: (Units=1/GPa)
#
#
# Indices 1 2 3 4 5 6 
#
# 1 0.017378 -0.010111 -0.000274 0.000000 0.000000 0.000000
# 2 -0.010111 0.014460 0.000782 0.000000 0.000000 0.000000
# 3 -0.000274 0.000782 0.014421 0.000000 0.000000 0.000000
# 4 0.000000 0.000000 0.000000 0.090574 0.000000 0.000000
# 5 0.000000 0.000000 0.000000 0.000000 -0.054662 0.000000
# 6 0.000000 0.000000 0.000000 0.000000 0.000000 0.038296
#
#
# Mechanical properties :
#
#
# Convention : Reuss Voigt Hill
#
# Bulk Modulus (GPa) = 36.96696 45.08746 41.02721
# Shear Modulus (GPa) = 33.62687 18.60695 26.11691
#
# Velocity S-wave (km/s) = 4.05382 3.01549 3.57258
# Velocity P-wave (km/s) = 6.32273 5.84453 6.08833
#
# Compressibility (1/GPa) = 0.02705119
#
# Stress axis : x y z
#
# Youngs Moduli (GPa) = 57.54410 69.15662 69.34506
#
# Poissons Ratio (x) = 0.69927 0.01899
# Poissons Ratio (y) = 0.58185 -0.05420
# Poissons Ratio (z) = 0.01576 -0.05405
#
# Static dielectric constant tensor:
#      x y z
#    x 2.080070 0.000000 0.000000 
#    y 0.000000 1.565000 0.000000 
#    z 0.000000 0.000000 1.860090 
# 
# From -- ./inp_files/8472.got.cif
#   From: 2010.05.17/outbox.cif.g08.bks.cpg/sg58_5_cif.got.tgz:8472.got - 2010.06.03 14:20:14.
