data_PCOD9441022
_publ_section_title
;
Structure prediction by ZEFSAII (Michael W. Deem and Ramdas Pophale) SiO2 
 PCOD9441022
Probable space group: P N N M
;
_chemical_formula_sum "Si O2"
_cell_formula_units_Z 44
_cell_length_a 17.055534
_cell_length_b 12.171131
_cell_length_c 8.183310
_cell_angle_alpha 90.000000
_cell_angle_beta 90.000000
_cell_angle_gamma 90.000000
_cell_volume 1698.733540
_symmetry_space_group_name_H-M "P N N M"
_symmetry_group_IT_number 58
_symmetry_cell_setting 'orthorhombic'
loop_
_space_group_symop_operation_xyz
x,y,z
-x,-y,z
1/2+x,1/2-y,1/2-z
1/2-x,1/2+y,1/2-z
-x,-y,-z
x,y,-z
1/2-x,1/2+y,1/2+z
1/2+x,1/2-y,1/2+z
loop_
_atom_site_type_symbol
_atom_site_label
_atom_site_fract_x
_atom_site_fract_y
_atom_site_fract_z
Si Si1 0.486458 0.174665 0.811375
Si Si2 0.131534 0.416359 0.172650
Si Si3 0.064038 0.096346 0.689393
Si Si4 0.283767 0.722312 0.500000
Si Si5 0.822024 0.290439 0.810013
Si Si6 0.292225 0.465005 0.313053
O O1 0.560305 0.092859 0.796360
O O2 0.521375 0.292936 0.756879
O O3 0.408076 0.156506 0.709087
O O4 0.463355 0.184600 0.000000
O O5 0.213707 0.476230 0.207081
O O6 0.097660 0.452016 0.000000
O O7 0.165314 0.293274 0.139195
O O8 0.088946 0.111047 0.500000
O O9 0.138676 0.052542 0.788238
O O10 0.000000 0.000000 0.695246
O O11 0.227248 0.677661 0.648984
O O12 0.828369 0.156763 0.782061
O O13 0.793836 0.303472 0.000000
O O14 0.267622 0.464032 0.500000
#
# Coordination Sequence:
#
# PCOD9441022 Si02
#       6
#     8   8   8   4   8   8
#     4  11  20  31  48  75 107 139 176 218 256 305
#     4   9  19  32  48  63  99 135 173 211 264 298
#     4  10  20  30  47  69 102 140 171 206 254 309
#     4   8  18  34  48  67  93 139 168 213 257 309
#     4  10  18  29  50  72  98 130 175 211 252 308
#     4  10  19  31  47  68  93 134 176 208 250 312
#
# _framework density 25.901648999999999
#
# number of rings (size 3 to 8) (size 9 to 14) (size 15 to 20)
#    0.545    1.636    2.727    1.636    1.273    2.545 
#    0.000    0.000    0.000    0.000    0.000    0.000 
#    0.000    7.273    0.000   34.000    0.000    0.000 
#
# Total GULP energy -245000.160665 kJ/mol
# GULP energy per Si atom -5568.185470 kJ/mol
# Density = 2.584270 g / cm^3
# Si number density = 25.901649 Si / 1000 Ang^3
#
#
#
# Elastic Constant Matrix: (Units=GPa)
#
#
# Indices 1 2 3 4 5 6 
#
# 1 125.4262 12.8568 41.5605 0.0000 0.0000 0.0000
# 2 12.8568 82.4987 6.0859 0.0000 0.0000 0.0000
# 3 41.5605 6.0859 93.8165 0.0000 0.0000 0.0000
# 4 0.0000 0.0000 0.0000 30.8004 0.0000 0.0000
# 5 0.0000 0.0000 0.0000 0.0000 31.0297 0.0000
# 6 0.0000 0.0000 0.0000 0.0000 0.0000 40.7585
#
#
#
# Elastic Compliance Matrix: (Units=1/GPa)
#
#
# Indices 1 2 3 4 5 6 
#
# 1 0.009456 -0.001170 -0.004113 0.000000 0.000000 0.000000
# 2 -0.001170 0.012325 -0.000281 0.000000 0.000000 0.000000
# 3 -0.004113 -0.000281 0.012499 0.000000 0.000000 0.000000
# 4 0.000000 0.000000 0.000000 0.032467 0.000000 0.000000
# 5 0.000000 0.000000 0.000000 0.000000 0.032227 0.000000
# 6 0.000000 0.000000 0.000000 0.000000 0.000000 0.024535
#
#
# Mechanical properties :
#
#
# Convention : Reuss Voigt Hill
#
# Bulk Modulus (GPa) = 43.19455 46.97199 45.08327
# Shear Modulus (GPa) = 35.12372 36.60025 35.86198
#
# Velocity S-wave (km/s) = 3.68644 3.76313 3.72498
# Velocity P-wave (km/s) = 5.90190 6.08733 5.99533
#
# Compressibility (1/GPa) = 0.02315107
#
# Stress axis : x y z
#
# Youngs Moduli (GPa) = 105.75749 81.13913 80.00418
#
# Poissons Ratio (x) = 0.09495 0.32905
# Poissons Ratio (y) = 0.12376 0.02249
# Poissons Ratio (z) = 0.43497 0.02281
#
# Static dielectric constant tensor:
#      x y z
#    x 1.951040 0.000000 0.000000 
#    y 0.000000 2.249780 0.000000 
#    z 0.000000 0.000000 1.905540 
# 
# From -- ./inp_files/5654.got.cif
#   From: 2010.05.17/outbox.cif.g08.bks.cpg/sg58_3_cif.got.tgz:5654.got - 2010.06.03 14:20:14.
