data_PCOD9441398
_publ_section_title
;
Structure prediction by ZEFSAII (Michael W. Deem and Ramdas Pophale) SiO2 
 PCOD9441398
Probable space group: P N N M
;
_chemical_formula_sum "Si O2"
_cell_formula_units_Z 64
_cell_length_a 14.839738
_cell_length_b 11.639712
_cell_length_c 15.194330
_cell_angle_alpha 90.000000
_cell_angle_beta 90.000000
_cell_angle_gamma 90.000000
_cell_volume 2624.520822
_symmetry_space_group_name_H-M "P N N M"
_symmetry_group_IT_number 58
_symmetry_cell_setting 'orthorhombic'
loop_
_space_group_symop_operation_xyz
x,y,z
-x,-y,z
1/2+x,1/2-y,1/2-z
1/2-x,1/2+y,1/2-z
-x,-y,-z
x,y,-z
1/2-x,1/2+y,1/2+z
1/2+x,1/2-y,1/2+z
loop_
_atom_site_type_symbol
_atom_site_label
_atom_site_fract_x
_atom_site_fract_y
_atom_site_fract_z
Si Si1 0.415269 0.142128 0.903002
Si Si2 0.976196 0.791095 0.099221
Si Si3 0.757476 0.025478 0.096954
Si Si4 0.085440 0.607173 0.795404
Si Si5 0.265133 0.749073 0.195711
Si Si6 0.898031 0.928930 0.760057
Si Si7 0.143274 0.409876 0.094301
Si Si8 0.330930 0.379781 0.145900
O O1 0.453387 0.124312 0.803429
O O2 0.379152 0.272843 0.899309
O O3 0.332378 0.051758 0.901664
O O4 0.461083 0.127227 0.000000
O O5 0.040124 0.689567 0.132588
O O6 0.977539 0.884027 0.176627
O O7 0.879220 0.726005 0.098356
O O8 0.996468 0.829682 0.000000
O O9 0.735835 0.158840 0.117276
O O10 0.825010 0.975266 0.169154
O O11 0.798635 0.014841 0.000000
O O12 0.188831 0.651379 0.802009
O O13 0.094518 0.476569 0.827131
O O14 0.358309 0.684363 0.212132
O O15 0.230428 0.826458 0.276262
O O16 0.899390 0.028214 0.686608
O O17 0.249373 0.434466 0.092174
O O18 0.104907 0.448763 0.000000
#
# Coordination Sequence:
#
# PCOD9441398 Si02
#       8
#     8   8   8   8   8   8   8   8
#     4  10  20  37  62  86 110 152 210 260 303 355
#     4  11  24  38  59  91 129 169 202 242 302 377
#     4  10  19  33  56  86 114 144 198 256 294 342
#     4  11  21  38  56  87 128 167 205 246 308 369
#     4  10  19  34  57  83 117 157 196 242 302 352
#     4  11  19  36  59  83 118 158 200 242 301 353
#     4  11  20  33  57  90 126 163 203 250 304 365
#     4  10  18  34  59  89 115 148 204 259 300 344
#
# _framework density 24.385403
#
# number of rings (size 3 to 8) (size 9 to 14) (size 15 to 20)
#    0.000    1.500    5.000    2.250    0.000    4.000 
#    0.000    5.625    0.000   12.000    0.000    0.000 
#    0.000    0.000    0.000    0.000    0.000    0.000 
#
# Total GULP energy -357327.167204 kJ/mol
# GULP energy per Si atom -5583.236988 kJ/mol
# Density = 2.432990 g / cm^3
# Si number density = 24.385403 Si / 1000 Ang^3
#
#
#
# Elastic Constant Matrix: (Units=GPa)
#
#
# Indices 1 2 3 4 5 6 
#
# 1 38.2508 11.7438 17.6349 0.0000 0.0000 0.0000
# 2 11.7438 115.4671 39.5745 0.0000 0.0000 0.0000
# 3 17.6349 39.5745 117.5184 0.0000 0.0000 0.0000
# 4 0.0000 0.0000 0.0000 -60.2152 0.0000 0.0000
# 5 0.0000 0.0000 0.0000 0.0000 22.2176 0.0000
# 6 0.0000 0.0000 0.0000 0.0000 0.0000 31.8174
#
#
#
# Elastic Compliance Matrix: (Units=1/GPa)
#
#
# Indices 1 2 3 4 5 6 
#
# 1 0.028349 -0.001611 -0.003711 0.000000 0.000000 0.000000
# 2 -0.001611 0.009882 -0.003086 0.000000 0.000000 0.000000
# 3 -0.003711 -0.003086 0.010105 0.000000 0.000000 0.000000
# 4 0.000000 0.000000 0.000000 -0.016607 0.000000 0.000000
# 5 0.000000 0.000000 0.000000 0.000000 0.045009 0.000000
# 6 0.000000 0.000000 0.000000 0.000000 0.000000 0.031429
#
#
# Mechanical properties :
#
#
# Convention : Reuss Voigt Hill
#
# Bulk Modulus (GPa) = 31.72685 45.46031 38.59358
# Shear Modulus (GPa) = 36.90256 12.24949 24.57603
#
# Velocity S-wave (km/s) = 3.89434 2.24370 3.17806
# Velocity P-wave (km/s) = 5.76715 5.03936 5.41550
#
# Compressibility (1/GPa) = 0.03151905
#
# Stress axis : x y z
#
# Youngs Moduli (GPa) = 35.27459 101.19381 98.95634
#
# Poissons Ratio (x) = 0.16305 0.36727
# Poissons Ratio (y) = 0.05684 0.30538
# Poissons Ratio (z) = 0.13092 0.31228
#
# Static dielectric constant tensor:
#      x y z
#    x 2.075610 0.000000 0.000000 
#    y 0.000000 1.974120 0.000000 
#    z 0.000000 0.000000 1.989930 
# 
# From -- ./inp_files/22971.got.cif
#   From: 2010.05.17/outbox.cif.g08.bks.cpg/sg58_12_cif.got.tgz:22971.got - 2010.06.03 14:20:14.
