data_PCOD9441175
_publ_section_title
;
Structure prediction by ZEFSAII (Michael W. Deem and Ramdas Pophale) SiO2 
 PCOD9441175
Probable space group: P N N M
;
_chemical_formula_sum "Si O2"
_cell_formula_units_Z 64
_cell_length_a 15.091861
_cell_length_b 24.943152
_cell_length_c 7.851087
_cell_angle_alpha 90.000000
_cell_angle_beta 90.000000
_cell_angle_gamma 90.000000
_cell_volume 2955.452064
_symmetry_space_group_name_H-M "P N N M"
_symmetry_group_IT_number 58
_symmetry_cell_setting 'orthorhombic'
loop_
_space_group_symop_operation_xyz
x,y,z
-x,-y,z
1/2+x,1/2-y,1/2-z
1/2-x,1/2+y,1/2-z
-x,-y,-z
x,y,-z
1/2-x,1/2+y,1/2+z
1/2+x,1/2-y,1/2+z
loop_
_atom_site_type_symbol
_atom_site_label
_atom_site_fract_x
_atom_site_fract_y
_atom_site_fract_z
Si Si1 0.057462 0.449636 0.201946
Si Si2 0.751479 0.403792 0.198918
Si Si3 0.255976 0.474986 0.300373
Si Si4 0.051548 0.946474 0.209251
Si Si5 0.644019 0.746033 0.199030
Si Si6 0.999243 0.832026 0.200329
Si Si7 0.676364 0.292195 0.696502
Si Si8 0.943918 0.355391 0.801268
O O1 0.161739 0.458933 0.222429
O O2 0.000000 0.500000 0.271379
O O3 0.022626 0.392361 0.269730
O O4 0.037719 0.447439 0.000000
O O5 0.730583 0.461458 0.273817
O O6 0.706828 0.354338 0.295076
O O7 0.856941 0.393295 0.207328
O O8 0.726325 0.401628 0.000000
O O9 0.249016 0.463567 0.500000
O O10 0.345945 0.447841 0.234506
O O11 0.005017 0.892072 0.269883
O O12 0.051959 0.946253 0.000000
O O13 0.000000 0.000000 0.262225
O O14 0.592212 0.697597 0.282809
O O15 0.741221 0.759697 0.273618
O O16 0.585308 0.800048 0.216424
O O17 0.653103 0.734082 0.000000
O O18 0.921242 0.794749 0.275266
O O19 0.978700 0.837120 0.000000
O O20 0.669938 0.274250 0.500000
O O21 0.960691 0.341907 0.000000
#
# Coordination Sequence:
#
# PCOD9441175 Si02
#       8
#     8   8   8   8   8   8   8   8
#     4  10  19  35  54  77 113 154 193 231 280 344
#     4  10  18  31  53  80 110 145 188 230 273 331
#     4  11  21  32  51  82 116 148 187 232 284 336
#     4   9  19  37  60  84 111 147 190 235 280 341
#     4  10  21  37  57  85 116 138 178 242 289 324
#     4  10  20  39  64  84 111 152 193 227 280 352
#     4   9  19  36  59  84 107 140 187 236 280 326
#     4   9  18  34  55  76 105 149 194 228 270 336
#
# _framework density 21.654893000000001
#
# number of rings (size 3 to 8) (size 9 to 14) (size 15 to 20)
#    0.000    2.250    1.250    1.875    0.000    4.250 
#    2.250    1.250    0.000    2.625    0.000    0.000 
#    0.000    0.000    0.000    0.000    0.000    0.000 
#
# Total GULP energy -357145.263071 kJ/mol
# GULP energy per Si atom -5580.394735 kJ/mol
# Density = 2.160561 g / cm^3
# Si number density = 21.654893 Si / 1000 Ang^3
#
#
#
# Elastic Constant Matrix: (Units=GPa)
#
#
# Indices 1 2 3 4 5 6 
#
# 1 122.7843 38.3257 1.4762 0.0000 0.0000 0.0000
# 2 38.3257 62.6130 -5.3862 0.0000 0.0000 0.0000
# 3 1.4762 -5.3862 26.3230 0.0000 0.0000 0.0000
# 4 0.0000 0.0000 0.0000 17.4292 0.0000 0.0000
# 5 0.0000 0.0000 0.0000 0.0000 -402.8025 0.0000
# 6 0.0000 0.0000 0.0000 0.0000 0.0000 26.2858
#
#
#
# Elastic Compliance Matrix: (Units=1/GPa)
#
#
# Indices 1 2 3 4 5 6 
#
# 1 0.010158 -0.006379 -0.001875 0.000000 0.000000 0.000000
# 2 -0.006379 0.020263 0.004504 0.000000 0.000000 0.000000
# 3 -0.001875 0.004504 0.039016 0.000000 0.000000 0.000000
# 4 0.000000 0.000000 0.000000 0.057375 0.000000 0.000000
# 5 0.000000 0.000000 0.000000 0.000000 -0.002483 0.000000
# 6 0.000000 0.000000 0.000000 0.000000 0.000000 0.038043
#
#
# Mechanical properties :
#
#
# Convention : Reuss Voigt Hill
#
# Bulk Modulus (GPa) = 16.14526 31.17238 23.65882
# Shear Modulus (GPa) = 26.24408 -59.99717 -16.87654
#
# Velocity S-wave (km/s) = 3.48505 -5.26936 -2.79470
# Velocity P-wave (km/s) = 4.86477 4.75345 0.73167
#
# Compressibility (1/GPa) = 0.06193767
#
# Stress axis : x y z
#
# Youngs Moduli (GPa) = 98.44398 49.35044 25.63027
#
# Poissons Ratio (x) = 0.31481 0.04806
# Poissons Ratio (y) = 0.62798 -0.11544
# Poissons Ratio (z) = 0.18458 -0.22228
#
# Static dielectric constant tensor:
#      x y z
#    x 1.833320 0.000000 0.000000 
#    y 0.000000 1.767960 0.000000 
#    z 0.000000 0.000000 1.790670 
# 
# From -- ./inp_files/6957.got.cif
#   From: 2010.05.17/outbox.cif.g08.bks.cpg/sg58_4_cif.got.tgz:6957.got - 2010.06.03 14:20:14.
