data_PCOD9441750
_publ_section_title
;
Structure prediction by ZEFSAII (Michael W. Deem and Ramdas Pophale) SiO2 
 PCOD9441750
Probable space group: P N N M
;
_chemical_formula_sum "Si O2"
_cell_formula_units_Z 58
_cell_length_a 23.920332
_cell_length_b 15.505445
_cell_length_c 7.484273
_cell_angle_alpha 90.000000
_cell_angle_beta 90.000000
_cell_angle_gamma 90.000000
_cell_volume 2775.882370
_symmetry_space_group_name_H-M "P N N M"
_symmetry_group_IT_number 58
_symmetry_cell_setting 'orthorhombic'
loop_
_space_group_symop_operation_xyz
x,y,z
-x,-y,z
1/2+x,1/2-y,1/2-z
1/2-x,1/2+y,1/2-z
-x,-y,-z
x,y,-z
1/2-x,1/2+y,1/2+z
1/2+x,1/2-y,1/2+z
loop_
_atom_site_type_symbol
_atom_site_label
_atom_site_fract_x
_atom_site_fract_y
_atom_site_fract_z
Si Si1 0.378326 0.437363 0.218309
Si Si2 0.195291 0.592417 0.219203
Si Si3 0.976964 0.184526 0.706050
Si Si4 0.572799 0.861309 0.302367
Si Si5 0.252204 0.415999 0.786511
Si Si6 0.210546 0.226743 0.286409
Si Si7 0.500000 0.000000 0.500000
Si Si8 0.401499 0.635248 0.781681
O O1 0.426632 0.373025 0.282199
O O2 0.316007 0.413915 0.280962
O O3 0.392156 0.535657 0.266680
O O4 0.377151 0.433189 0.000000
O O5 0.132182 0.611931 0.278561
O O6 0.218969 0.499963 0.279371
O O7 0.238350 0.666718 0.277045
O O8 0.194142 0.590078 0.000000
O O9 0.981474 0.156255 0.500000
O O10 0.959858 0.284307 0.709402
O O11 0.038439 0.168443 0.783451
O O12 0.586259 0.823645 0.500000
O O13 0.534118 0.943258 0.346599
O O14 0.221635 0.326307 0.751715
O O15 0.255906 0.426296 0.000000
O O16 0.209835 0.216250 0.500000
O O17 0.151218 0.191465 0.218976
O O18 0.400964 0.639402 0.000000
#
# Coordination Sequence:
#
# PCOD9441750 Si02
#       8
#     8   8   8   8   8   8   2   8
#     4   9  16  30  52  77 106 136 170 206 251 314
#     4   9  17  33  55  73  98 138 177 206 249 307
#     4  10  19  31  53  82 103 130 169 216 261 297
#     4   9  19  36  54  72  99 137 178 212 245 310
#     4  10  19  32  53  79 101 132 173 214 255 302
#     4  10  19  33  52  75 103 136 171 211 256 309
#     4   8  20  36  54  68  94 136 182 202 244 298
#     4   9  17  31  50  74 108 137 167 204 252 313
#
# _framework density 20.894255999999999
#
# number of rings (size 3 to 8) (size 9 to 14) (size 15 to 20)
#    0.414    2.207    1.379    1.241    0.000    2.759 
#    0.000    1.724    0.000    3.310    0.000    0.000 
#    0.000    0.000    0.000    0.000    0.000    0.000 
#
# Total GULP energy -323002.488367 kJ/mol
# GULP energy per Si atom -5569.008420 kJ/mol
# Density = 2.084670 g / cm^3
# Si number density = 20.894256 Si / 1000 Ang^3
#
#
#
# Elastic Constant Matrix: (Units=GPa)
#
#
# Indices 1 2 3 4 5 6 
#
# 1 137.2063 50.9739 4.2723 0.0000 0.0000 0.0000
# 2 50.9739 91.3909 -5.2536 0.0000 0.0000 0.0000
# 3 4.2723 -5.2536 51.6240 0.0000 0.0000 0.0000
# 4 0.0000 0.0000 0.0000 14.2257 0.0000 0.0000
# 5 0.0000 0.0000 0.0000 0.0000 -4.7503 0.0000
# 6 0.0000 0.0000 0.0000 0.0000 0.0000 37.7082
#
#
#
# Elastic Compliance Matrix: (Units=1/GPa)
#
#
# Indices 1 2 3 4 5 6 
#
# 1 0.009279 -0.005251 -0.001302 0.000000 0.000000 0.000000
# 2 -0.005251 0.013977 0.001857 0.000000 0.000000 0.000000
# 3 -0.001302 0.001857 0.019668 0.000000 0.000000 0.000000
# 4 0.000000 0.000000 0.000000 0.070295 0.000000 0.000000
# 5 0.000000 0.000000 0.000000 0.000000 -0.210513 0.000000
# 6 0.000000 0.000000 0.000000 0.000000 0.000000 0.026519
#
#
# Mechanical properties :
#
#
# Convention : Reuss Voigt Hill
#
# Bulk Modulus (GPa) = 29.82177 42.24518 36.03347
# Shear Modulus (GPa) = -99.59196 24.78529 -37.40333
#
# Velocity S-wave (km/s) = -6.91146 3.44790 -4.23558
# Velocity P-wave (km/s) = 7.02761 6.00942 2.57625
#
# Compressibility (1/GPa) = 0.03353255
#
# Stress axis : x y z
#
# Youngs Moduli (GPa) = 107.76445 71.54463 50.84511
#
# Poissons Ratio (x) = 0.37565 0.06622
# Poissons Ratio (y) = 0.56582 -0.09442
# Poissons Ratio (z) = 0.14034 -0.13285
#
# Static dielectric constant tensor:
#      x y z
#    x 1.747900 0.000000 0.000000 
#    y 0.000000 1.702100 0.000000 
#    z 0.000000 0.000000 1.833280 
# 
# From -- ./inp_files/9897.got.cif
#   From: 2010.05.17/outbox.cif.g08.bks.cpg/sg58_5_cif.got.tgz:9897.got - 2010.06.03 14:20:14.
