data_PCOD9441693
_publ_section_title
;
Structure prediction by ZEFSAII (Michael W. Deem and Ramdas Pophale) SiO2 
 PCOD9441693
Probable space group: P N N M
;
_chemical_formula_sum "Si O2"
_cell_formula_units_Z 48
_cell_length_a 15.667564
_cell_length_b 20.159653
_cell_length_c 7.562738
_cell_angle_alpha 90.000000
_cell_angle_beta 90.000000
_cell_angle_gamma 90.000000
_cell_volume 2388.710866
_symmetry_space_group_name_H-M "P N N M"
_symmetry_group_IT_number 58
_symmetry_cell_setting 'orthorhombic'
loop_
_space_group_symop_operation_xyz
x,y,z
-x,-y,z
1/2+x,1/2-y,1/2-z
1/2-x,1/2+y,1/2-z
-x,-y,-z
x,y,-z
1/2-x,1/2+y,1/2+z
1/2+x,1/2-y,1/2+z
loop_
_atom_site_type_symbol
_atom_site_label
_atom_site_fract_x
_atom_site_fract_y
_atom_site_fract_z
Si Si1 0.084161 0.961866 0.783322
Si Si2 0.436485 0.059079 0.785001
Si Si3 0.617587 0.688484 0.713698
Si Si4 0.267579 0.993896 0.794726
Si Si5 0.986939 0.701575 0.793219
Si Si6 0.806523 0.657029 0.208851
O O1 0.087583 0.884898 0.730187
O O2 0.172325 0.994954 0.719423
O O3 0.085530 0.962531 0.000000
O O4 0.000000 0.000000 0.725789
O O5 0.470214 0.129476 0.721987
O O6 0.500000 0.000000 0.731183
O O7 0.342307 0.039352 0.719533
O O8 0.436135 0.060321 0.000000
O O9 0.617214 0.689891 0.500000
O O10 0.552449 0.744125 0.781398
O O11 0.716955 0.694645 0.765564
O O12 0.296866 0.916782 0.788162
O O13 0.259974 0.012731 0.000000
O O14 0.890796 0.693810 0.720137
O O15 0.976844 0.718890 0.000000
O O16 0.818889 0.646576 0.000000
#
# Coordination Sequence:
#
# PCOD9441693 Si02
#       6
#     8   8   8   8   8   8
#     4   8  14  28  52  75  92 121 166 210 249 292
#     4  10  19  31  50  77 104 132 169 211 255 302
#     4   9  19  36  53  71 101 137 171 208 256 313
#     4   9  17  31  50  74 101 131 167 206 254 305
#     4  10  21  35  51  74 104 138 172 211 260 309
#     4  10  19  32  52  76  99 131 172 210 254 302
#
# _framework density 20.094519999999999
#
# number of rings (size 3 to 8) (size 9 to 14) (size 15 to 20)
#    0.000    2.667    1.667    1.500    0.000    2.333 
#    3.000    0.000    0.000    8.000    0.000    0.000 
#    0.000    0.000    0.000    0.000    0.000    0.000 
#
# Total GULP energy -267720.676542 kJ/mol
# GULP energy per Si atom -5577.514095 kJ/mol
# Density = 2.004878 g / cm^3
# Si number density = 20.094520 Si / 1000 Ang^3
#
#
#
# Elastic Constant Matrix: (Units=GPa)
#
#
# Indices 1 2 3 4 5 6 
#
# 1 221.5218 89.8959 -1.3422 0.0000 0.0000 0.0000
# 2 89.8959 74.3897 -6.0031 0.0000 0.0000 0.0000
# 3 -1.3422 -6.0031 44.9446 0.0000 0.0000 0.0000
# 4 0.0000 0.0000 0.0000 11.7888 0.0000 0.0000
# 5 0.0000 0.0000 0.0000 0.0000 11.8193 0.0000
# 6 0.0000 0.0000 0.0000 0.0000 0.0000 38.7379
#
#
#
# Elastic Compliance Matrix: (Units=1/GPa)
#
#
# Indices 1 2 3 4 5 6 
#
# 1 0.008920 -0.010876 -0.001186 0.000000 0.000000 0.000000
# 2 -0.010876 0.026849 0.003261 0.000000 0.000000 0.000000
# 3 -0.001186 0.003261 0.022650 0.000000 0.000000 0.000000
# 4 0.000000 0.000000 0.000000 0.084826 0.000000 0.000000
# 5 0.000000 0.000000 0.000000 0.000000 0.084608 0.000000
# 6 0.000000 0.000000 0.000000 0.000000 0.000000 0.025815
#
#
# Mechanical properties :
#
#
# Convention : Reuss Voigt Hill
#
# Bulk Modulus (GPa) = 24.49924 56.21749 40.35837
# Shear Modulus (GPa) = 17.55161 29.68956 23.62058
#
# Velocity S-wave (km/s) = 2.95863 3.84799 3.43224
# Velocity P-wave (km/s) = 4.88772 6.91231 5.98622
#
# Compressibility (1/GPa) = 0.04081759
#
# Stress axis : x y z
#
# Youngs Moduli (GPa) = 112.10136 37.24600 44.15053
#
# Poissons Ratio (x) = 0.40507 0.05237
# Poissons Ratio (y) = 1.21918 -0.14399
# Poissons Ratio (z) = 0.13298 -0.12147
#
# Static dielectric constant tensor:
#      x y z
#    x 1.738660 0.000000 0.000000 
#    y 0.000000 1.660940 0.000000 
#    z 0.000000 0.000000 1.750000 
# 
# From -- ./inp_files/6046.got.cif
#   From: 2010.05.17/outbox.cif.g08.bks.cpg/sg58_4_cif.got.tgz:6046.got - 2010.06.03 14:20:14.
