data_PCOD9441136
_publ_section_title
;
Structure prediction by ZEFSAII (Michael W. Deem and Ramdas Pophale) SiO2 
 PCOD9441136
Probable space group: P N N M
;
_chemical_formula_sum "Si O2"
_cell_formula_units_Z 56
_cell_length_a 21.565922
_cell_length_b 14.892523
_cell_length_c 8.678618
_cell_angle_alpha 90.000000
_cell_angle_beta 90.000000
_cell_angle_gamma 90.000000
_cell_volume 2787.320330
_symmetry_space_group_name_H-M "P N N M"
_symmetry_group_IT_number 58
_symmetry_cell_setting 'orthorhombic'
loop_
_space_group_symop_operation_xyz
x,y,z
-x,-y,z
1/2+x,1/2-y,1/2-z
1/2-x,1/2+y,1/2-z
-x,-y,-z
x,y,-z
1/2-x,1/2+y,1/2+z
1/2+x,1/2-y,1/2+z
loop_
_atom_site_type_symbol
_atom_site_label
_atom_site_fract_x
_atom_site_fract_y
_atom_site_fract_z
Si Si1 0.264521 0.499752 0.821826
Si Si2 0.632137 0.075179 0.327006
Si Si3 0.521586 0.729532 0.187569
Si Si4 0.442848 0.069093 0.823833
Si Si5 0.386468 0.744964 0.820003
Si Si6 0.847009 0.158160 0.688833
Si Si7 0.746215 0.307011 0.682996
O O1 0.205958 0.432762 0.820900
O O2 0.320598 0.438526 0.761287
O O3 0.247007 0.590014 0.734395
O O4 0.276909 0.524541 0.000000
O O5 0.613424 0.101799 0.500000
O O6 0.608391 0.147784 0.205839
O O7 0.606356 0.977572 0.286163
O O8 0.536087 0.833019 0.227880
O O9 0.451923 0.705134 0.239417
O O10 0.582125 0.674708 0.237285
O O11 0.519198 0.726282 0.000000
O O12 0.500000 0.000000 0.825179
O O13 0.418825 0.076867 0.000000
O O14 0.322879 0.719152 0.737645
O O15 0.380282 0.724134 0.000000
O O16 0.845717 0.158321 0.500000
O O17 0.800415 0.238835 0.739680
O O18 0.748219 0.301659 0.500000
#
# Coordination Sequence:
#
# PCOD9441136 Si02
#       7
#     8   8   8   8   8   8   8
#     4  10  21  38  58  83 113 147 192 242 286 341
#     4  11  21  34  53  81 117 152 189 235 295 348
#     4   9  18  33  55  81 111 150 194 239 285 341
#     4  10  18  31  50  78 112 147 191 235 282 348
#     4  11  21  36  58  84 114 149 191 235 285 345
#     4   9  18  36  59  82 113 149 190 238 286 337
#     4  11  22  39  62  88 115 151 193 239 294 344
#
# _framework density 20.090979999999998
#
# number of rings (size 3 to 8) (size 9 to 14) (size 15 to 20)
#    0.000    1.857    2.857    2.143    0.000    2.571 
#    0.000    0.714    0.000    9.429    0.000    0.000 
#    0.000    0.000    0.000    0.000    0.000    0.000 
#
# Total GULP energy -312372.665734 kJ/mol
# GULP energy per Si atom -5578.083317 kJ/mol
# Density = 2.004525 g / cm^3
# Si number density = 20.090980 Si / 1000 Ang^3
#
#
#
# Elastic Constant Matrix: (Units=GPa)
#
#
# Indices 1 2 3 4 5 6 
#
# 1 97.3054 9.0251 11.7760 0.0000 0.0000 0.0000
# 2 9.0251 30.4317 3.1634 0.0000 0.0000 0.0000
# 3 11.7760 3.1634 20.3873 0.0000 0.0000 0.0000
# 4 0.0000 0.0000 0.0000 23.9058 0.0000 0.0000
# 5 0.0000 0.0000 0.0000 0.0000 18.4078 0.0000
# 6 0.0000 0.0000 0.0000 0.0000 0.0000 31.3947
#
#
#
# Elastic Compliance Matrix: (Units=1/GPa)
#
#
# Indices 1 2 3 4 5 6 
#
# 1 0.011265 -0.002708 -0.006086 0.000000 0.000000 0.000000
# 2 -0.002708 0.034050 -0.003719 0.000000 0.000000 0.000000
# 3 -0.006086 -0.003719 0.053143 0.000000 0.000000 0.000000
# 4 0.000000 0.000000 0.000000 0.041831 0.000000 0.000000
# 5 0.000000 0.000000 0.000000 0.000000 0.054325 0.000000
# 6 0.000000 0.000000 0.000000 0.000000 0.000000 0.031853
#
#
# Mechanical properties :
#
#
# Convention : Reuss Voigt Hill
#
# Bulk Modulus (GPa) = 13.61835 21.78373 17.70104
# Shear Modulus (GPa) = 18.11791 23.01898 20.56844
#
# Velocity S-wave (km/s) = 3.00624 3.38855 3.20310
# Velocity P-wave (km/s) = 4.34086 5.11622 4.74441
#
# Compressibility (1/GPa) = 0.07343033
#
# Stress axis : x y z
#
# Youngs Moduli (GPa) = 88.77302 29.36844 18.81720
#
# Poissons Ratio (x) = 0.07953 0.11453
# Poissons Ratio (y) = 0.24040 0.06998
# Poissons Ratio (z) = 0.54031 0.10923
#
# Static dielectric constant tensor:
#      x y z
#    x 1.772430 0.000000 0.000000 
#    y 0.000000 1.725240 0.000000 
#    z 0.000000 0.000000 1.698240 
# 
# From -- ./inp_files/8982.got.cif
#   From: 2010.05.17/outbox.cif.g08.bks.cpg/sg58_5_cif.got.tgz:8982.got - 2010.06.03 14:20:14.
