data_PCOD9441446
_publ_section_title
;
Structure prediction by ZEFSAII (Michael W. Deem and Ramdas Pophale) SiO2 
 PCOD9441446
Probable space group: P N N M
;
_chemical_formula_sum "Si O2"
_cell_formula_units_Z 64
_cell_length_a 13.388253
_cell_length_b 15.574431
_cell_length_c 17.366469
_cell_angle_alpha 90.000000
_cell_angle_beta 90.000000
_cell_angle_gamma 90.000000
_cell_volume 3621.159255
_symmetry_space_group_name_H-M "P N N M"
_symmetry_group_IT_number 58
_symmetry_cell_setting 'orthorhombic'
loop_
_space_group_symop_operation_xyz
x,y,z
-x,-y,z
1/2+x,1/2-y,1/2-z
1/2-x,1/2+y,1/2-z
-x,-y,-z
x,y,-z
1/2-x,1/2+y,1/2+z
1/2+x,1/2-y,1/2+z
loop_
_atom_site_type_symbol
_atom_site_label
_atom_site_fract_x
_atom_site_fract_y
_atom_site_fract_z
Si Si1 0.382550 0.002539 0.408509
Si Si2 0.538098 0.901575 0.090591
Si Si3 0.418624 0.757890 0.815995
Si Si4 0.302390 0.887894 0.284237
Si Si5 0.267944 0.154237 0.677483
Si Si6 0.399194 0.444856 0.588205
Si Si7 0.398470 0.314336 0.272633
Si Si8 0.228573 0.545290 0.322241
O O1 0.376238 0.999766 0.500000
O O2 0.332371 0.921244 0.367284
O O3 0.500000 0.000000 0.386205
O O4 0.323553 0.085546 0.376344
O O5 0.467703 0.830413 0.129810
O O6 0.645520 0.902293 0.131621
O O7 0.500000 0.000000 0.099226
O O8 0.546099 0.884221 0.000000
O O9 0.366429 0.808461 0.745527
O O10 0.328338 0.704633 0.854959
O O11 0.504541 0.699492 0.779086
O O12 0.186709 0.864209 0.275193
O O13 0.321337 0.966085 0.224402
O O14 0.350328 0.223254 0.704042
O O15 0.229543 0.104575 0.753904
O O16 0.500000 0.500000 0.587867
O O17 0.377462 0.417722 0.500000
O O18 0.413118 0.367534 0.648625
O O19 0.310002 0.503984 0.621470
#
# Coordination Sequence:
#
# PCOD9441446 Si02
#       8
#     8   8   8   8   8   8   8   8
#     4  10  21  37  59  84 109 140 184 235 283 333
#     4  11  22  34  54  83 111 146 184 231 287 335
#     4  11  20  36  56  83 115 145 188 234 278 338
#     4   9  20  34  57  81 104 145 188 226 269 334
#     4  10  21  34  59  85 109 144 186 235 283 332
#     4  10  21  36  54  79 111 147 184 225 276 334
#     4  10  20  35  55  80 112 147 183 226 278 332
#     4  10  18  36  57  80 106 144 188 227 273 339
#
# _framework density 17.673898999999999
#
# number of rings (size 3 to 8) (size 9 to 14) (size 15 to 20)
#    0.000    1.875    2.500    1.875    1.750    1.000 
#    0.000    1.250    0.000    0.750    0.000    0.000 
#    0.000    0.000    0.000    0.000    0.000    0.000 
#
# Total GULP energy -356962.371557 kJ/mol
# GULP energy per Si atom -5577.537056 kJ/mol
# Density = 1.763367 g / cm^3
# Si number density = 17.673899 Si / 1000 Ang^3
#
#
#
# Elastic Constant Matrix: (Units=GPa)
#
#
# Indices 1 2 3 4 5 6 
#
# 1 88.5372 32.2623 47.8928 0.0000 0.0000 0.0000
# 2 32.2623 72.1511 39.0702 0.0000 0.0000 0.0000
# 3 47.8928 39.0702 84.6562 0.0000 0.0000 0.0000
# 4 0.0000 0.0000 0.0000 13.9995 0.0000 0.0000
# 5 0.0000 0.0000 0.0000 0.0000 21.6973 0.0000
# 6 0.0000 0.0000 0.0000 0.0000 0.0000 31.6592
#
#
#
# Elastic Compliance Matrix: (Units=1/GPa)
#
#
# Indices 1 2 3 4 5 6 
#
# 1 0.016797 -0.003153 -0.008047 0.000000 0.000000 0.000000
# 2 -0.003153 0.019069 -0.007017 0.000000 0.000000 0.000000
# 3 -0.008047 -0.007017 0.019604 0.000000 0.000000 0.000000
# 4 0.000000 0.000000 0.000000 0.071431 0.000000 0.000000
# 5 0.000000 0.000000 0.000000 0.000000 0.046089 0.000000
# 6 0.000000 0.000000 0.000000 0.000000 0.000000 0.031586
#
#
# Mechanical properties :
#
#
# Convention : Reuss Voigt Hill
#
# Bulk Modulus (GPa) = 52.53486 53.75503 53.14495
# Shear Modulus (GPa) = 20.21382 21.87916 21.04649
#
# Velocity S-wave (km/s) = 3.38555 3.52225 3.45457
# Velocity P-wave (km/s) = 6.71354 6.85730 6.78580
#
# Compressibility (1/GPa) = 0.01903498
#
# Stress axis : x y z
#
# Youngs Moduli (GPa) = 59.53563 52.43987 51.01101
#
# Poissons Ratio (x) = 0.16534 0.41050
# Poissons Ratio (y) = 0.18771 0.35795
# Poissons Ratio (z) = 0.47910 0.36798
#
# Static dielectric constant tensor:
#      x y z
#    x 1.612040 0.000000 0.000000 
#    y 0.000000 1.621370 0.000000 
#    z 0.000000 0.000000 1.585290 
# 
# From -- ./inp_files/26389.got.cif
#   From: 2010.05.17/outbox.cif.g08.bks.cpg/sg58_14_cif.got.tgz:26389.got - 2010.06.03 14:20:14.
