data_PCOD9441781
_publ_section_title
;
Structure prediction by ZEFSAII (Michael W. Deem and Ramdas Pophale) SiO2 
 PCOD9441781
Probable space group: P N N M
;
_chemical_formula_sum "Si O2"
_cell_formula_units_Z 40
_cell_length_a 10.166921
_cell_length_b 24.123553
_cell_length_c 9.913453
_cell_angle_alpha 90.000000
_cell_angle_beta 90.000000
_cell_angle_gamma 90.000000
_cell_volume 2431.395863
_symmetry_space_group_name_H-M "P N N M"
_symmetry_group_IT_number 58
_symmetry_cell_setting 'orthorhombic'
loop_
_space_group_symop_operation_xyz
x,y,z
-x,-y,z
1/2+x,1/2-y,1/2-z
1/2-x,1/2+y,1/2-z
-x,-y,-z
x,y,-z
1/2-x,1/2+y,1/2+z
1/2+x,1/2-y,1/2+z
loop_
_atom_site_type_symbol
_atom_site_label
_atom_site_fract_x
_atom_site_fract_y
_atom_site_fract_z
Si Si1 0.976534 0.273535 0.500000
Si Si2 0.217256 0.874210 0.793553
Si Si3 0.877305 0.458555 0.500000
Si Si4 0.026432 0.670440 0.000000
Si Si5 0.786633 0.168173 0.500000
Si Si6 0.214925 0.775938 0.000000
Si Si7 0.127408 0.962578 0.000000
Si Si8 0.972050 0.371799 0.293409
O O1 0.131511 0.257825 0.500000
O O2 0.953053 0.313456 0.371179
O O3 0.879497 0.221848 0.500000
O O4 0.188975 0.866158 0.636491
O O5 0.139243 0.921933 0.871030
O O6 0.373220 0.886083 0.811356
O O7 0.194177 0.816090 0.871247
O O8 0.749285 0.495649 0.500000
O O9 0.000000 0.500000 0.500000
O O10 0.889696 0.418333 0.370500
O O11 0.054617 0.636461 0.863791
O O12 0.869391 0.683681 0.000000
O O13 0.114972 0.725307 0.000000
O O14 0.000000 0.000000 0.000000
#
# Coordination Sequence:
#
# PCOD9441781 Si02
#       8
#     4   8   4   4   4   4   4   8
#     4   9  17  32  50  73 106 145 174 189 247 307
#     4   9  18  35  54  75 105 137 169 201 260 301
#     4  11  18  37  62  70  92 134 175 206 255 303
#     4  10  19  32  49  81 112 127 167 213 250 289
#     4  10  19  32  53  78 106 139 165 205 247 308
#     4   9  17  32  52  72 108 145 164 204 243 298
#     4  11  22  39  56  76  96 128 175 219 256 307
#     4   9  18  33  55  78 100 135 173 210 243 304
#
# _framework density 16.451454999999999
#
# number of rings (size 3 to 8) (size 9 to 14) (size 15 to 20)
#    0.000    2.400    2.000    2.400    0.000    0.000 
#   10.800    2.000    0.000    0.000    0.000    0.000 
#    0.000    0.000    0.000    0.000    0.000    0.000 
#
# Total GULP energy -223054.254415 kJ/mol
# GULP energy per Si atom -5576.356360 kJ/mol
# Density = 1.641401 g / cm^3
# Si number density = 16.451455 Si / 1000 Ang^3
#
#
#
# Elastic Constant Matrix: (Units=GPa)
#
#
# Indices 1 2 3 4 5 6 
#
# 1 81.5093 65.2446 42.6617 0.0000 0.0000 0.0000
# 2 65.2446 101.0121 58.1271 0.0000 0.0000 0.0000
# 3 42.6617 58.1271 155.6950 0.0000 0.0000 0.0000
# 4 0.0000 0.0000 0.0000 2.2554 0.0000 0.0000
# 5 0.0000 0.0000 0.0000 0.0000 14.9993 0.0000
# 6 0.0000 0.0000 0.0000 0.0000 0.0000 40.4024
#
#
#
# Elastic Compliance Matrix: (Units=1/GPa)
#
#
# Indices 1 2 3 4 5 6 
#
# 1 0.025541 -0.015882 -0.001069 0.000000 0.000000 0.000000
# 2 -0.015882 0.022484 -0.004043 0.000000 0.000000 0.000000
# 3 -0.001069 -0.004043 0.008225 0.000000 0.000000 0.000000
# 4 0.000000 0.000000 0.000000 0.443379 0.000000 0.000000
# 5 0.000000 0.000000 0.000000 0.000000 0.066670 0.000000
# 6 0.000000 0.000000 0.000000 0.000000 0.000000 0.024751
#
#
# Mechanical properties :
#
#
# Convention : Reuss Voigt Hill
#
# Bulk Modulus (GPa) = 70.11044 74.47592 72.29318
# Shear Modulus (GPa) = 7.83956 23.01029 15.42493
#
# Velocity S-wave (km/s) = 2.18532 3.74395 3.06535
# Velocity P-wave (km/s) = 7.00547 8.00362 7.52112
#
# Compressibility (1/GPa) = 0.01426321
#
# Stress axis : x y z
#
# Youngs Moduli (GPa) = 39.15302 44.47552 121.58078
#
# Poissons Ratio (x) = 0.70635 0.12998
# Poissons Ratio (y) = 0.62182 0.49149
# Poissons Ratio (z) = 0.04186 0.17979
#
# Static dielectric constant tensor:
#      x y z
#    x 1.473950 0.000000 0.000000 
#    y 0.000000 1.523270 0.000000 
#    z 0.000000 0.000000 1.568930 
# 
# From -- ./inp_files/2709.got.cif
#   From: 2010.05.17/outbox.cif.g08.bks.cpg/sg58_2_cif.got.tgz:2709.got - 2010.06.03 14:20:14.
