data_PCOD9441891
_publ_section_title
;
Structure prediction by ZEFSAII (Michael W. Deem and Ramdas Pophale) SiO2 
 PCOD9441891
Probable space group: P N N M
;
_chemical_formula_sum "Si O2"
_cell_formula_units_Z 48
_cell_length_a 9.533765
_cell_length_b 18.046932
_cell_length_c 13.097815
_cell_angle_alpha 90.000000
_cell_angle_beta 90.000000
_cell_angle_gamma 90.000000
_cell_volume 2253.547293
_symmetry_space_group_name_H-M "P N N M"
_symmetry_group_IT_number 58
_symmetry_cell_setting 'orthorhombic'
loop_
_space_group_symop_operation_xyz
x,y,z
-x,-y,z
1/2+x,1/2-y,1/2-z
1/2-x,1/2+y,1/2-z
-x,-y,-z
x,y,-z
1/2-x,1/2+y,1/2+z
1/2+x,1/2-y,1/2+z
loop_
_atom_site_type_symbol
_atom_site_label
_atom_site_fract_x
_atom_site_fract_y
_atom_site_fract_z
Si Si1 0.857227 0.962602 0.695236
Si Si2 0.269187 0.889861 0.257133
Si Si3 0.243474 0.235415 0.831539
Si Si4 0.511401 0.375837 0.621726
Si Si5 0.223200 0.193126 0.389619
Si Si6 0.481743 0.828878 0.892399
O O1 0.895290 0.932628 0.809572
O O2 0.816344 0.891792 0.629114
O O3 0.744888 0.027885 0.700533
O O4 0.000000 0.000000 0.655799
O O5 0.250867 0.823907 0.339578
O O6 0.414183 0.873777 0.199515
O O7 0.141999 0.880253 0.174211
O O8 0.091021 0.201871 0.855523
O O9 0.292696 0.219403 0.714729
O O10 0.354639 0.186474 0.891268
O O11 0.506853 0.389405 0.500000
O O12 0.293208 0.203914 0.500000
O O13 0.087750 0.246949 0.389180
O O14 0.438995 0.864037 0.000000
#
# Coordination Sequence:
#
# PCOD9441891 Si02
#       6
#     8   8   8   8   8   8
#     4   9  18  32  52  77 105 135 168 211 256 299
#     4  10  19  33  53  77 104 133 170 211 252 298
#     4  10  19  35  53  75 106 134 167 210 255 300
#     4  10  20  34  53  76 105 137 167 206 258 309
#     4   9  19  35  53  74 102 139 175 207 252 305
#     4  10  19  32  54  79 102 131 170 213 253 300
#
# _framework density 21.299754
#
# number of rings (size 3 to 8) (size 9 to 14) (size 15 to 20)
#    0.000    2.333    0.000    5.000    0.000    4.667 
#    0.000    5.000    0.000    7.000    0.000    0.000 
#    0.000    0.000    0.000    0.000    0.000    0.000 
#
# Total GULP energy -267534.376062 kJ/mol
# GULP energy per Si atom -5573.632835 kJ/mol
# Density = 2.125127 g / cm^3
# Si number density = 21.299754 Si / 1000 Ang^3
#
#
#
# Elastic Constant Matrix: (Units=GPa)
#
#
# Indices 1 2 3 4 5 6 
#
# 1 23.9770 -22.9669 -1.8877 0.0000 0.0000 0.0000
# 2 -22.9669 67.2843 -8.3064 0.0000 0.0000 0.0000
# 3 -1.8877 -8.3064 59.0076 0.0000 0.0000 0.0000
# 4 0.0000 0.0000 0.0000 8.0362 0.0000 0.0000
# 5 0.0000 0.0000 0.0000 0.0000 -3.8595 0.0000
# 6 0.0000 0.0000 0.0000 0.0000 0.0000 22.0530
#
#
#
# Elastic Compliance Matrix: (Units=1/GPa)
#
#
# Indices 1 2 3 4 5 6 
#
# 1 0.063481 0.022307 0.005171 0.000000 0.000000 0.000000
# 2 0.022307 0.022964 0.003946 0.000000 0.000000 0.000000
# 3 0.005171 0.003946 0.017668 0.000000 0.000000 0.000000
# 4 0.000000 0.000000 0.000000 0.124437 0.000000 0.000000
# 5 0.000000 0.000000 0.000000 0.000000 -0.259102 0.000000
# 6 0.000000 0.000000 0.000000 0.000000 0.000000 0.045345
#
#
# Mechanical properties :
#
#
# Convention : Reuss Voigt Hill
#
# Bulk Modulus (GPa) = 5.98943 9.32745 7.65844
# Shear Modulus (GPa) = 658.00648 17.47460 337.74054
#
# Velocity S-wave (km/s) = 17.59538 2.86739 12.60594
# Velocity P-wave (km/s) = 20.38663 3.91807 14.67934
#
# Compressibility (1/GPa) = 0.16696080
#
# Stress axis : x y z
#
# Youngs Moduli (GPa) = 15.75273 43.54685 56.59992
#
# Poissons Ratio (x) = -0.97140 -0.29267
# Poissons Ratio (y) = -0.35140 -0.22335
# Poissons Ratio (z) = -0.08146 -0.17184
#
# Static dielectric constant tensor:
#      x y z
#    x 1.779410 0.000000 0.000000 
#    y 0.000000 1.795630 0.000000 
#    z 0.000000 0.000000 1.830050 
# 
# From -- ./inp_files/19843.got.cif
#   From: 2010.05.17/outbox.cif.g08.bks.cpg/sg58_10_cif.got.tgz:19843.got - 2010.06.03 14:20:14.
