data_PCOD9441406
_publ_section_title
;
Structure prediction by ZEFSAII (Michael W. Deem and Ramdas Pophale) SiO2 
 PCOD9441406
Probable space group: P N N M
;
_chemical_formula_sum "Si O2"
_cell_formula_units_Z 56
_cell_length_a 14.976791
_cell_length_b 21.347214
_cell_length_c 7.972360
_cell_angle_alpha 90.000000
_cell_angle_beta 90.000000
_cell_angle_gamma 90.000000
_cell_volume 2548.865239
_symmetry_space_group_name_H-M "P N N M"
_symmetry_group_IT_number 58
_symmetry_cell_setting 'orthorhombic'
loop_
_space_group_symop_operation_xyz
x,y,z
-x,-y,z
1/2+x,1/2-y,1/2-z
1/2-x,1/2+y,1/2-z
-x,-y,-z
x,y,-z
1/2-x,1/2+y,1/2+z
1/2+x,1/2-y,1/2+z
loop_
_atom_site_type_symbol
_atom_site_label
_atom_site_fract_x
_atom_site_fract_y
_atom_site_fract_z
Si Si1 0.394572 0.931258 0.704583
Si Si2 0.906298 0.966374 0.297880
Si Si3 0.798790 0.085598 0.294940
Si Si4 0.925712 0.194708 0.306706
Si Si5 0.908225 0.424137 0.795991
Si Si6 0.804824 0.304321 0.193396
Si Si7 0.116231 0.176065 0.189115
O O1 0.394438 0.929818 0.500000
O O2 0.302086 0.900455 0.760805
O O3 0.491064 0.905485 0.757123
O O4 0.391775 0.004432 0.756752
O O5 0.903593 0.958588 0.500000
O O6 0.897067 0.898080 0.220743
O O7 0.829226 0.015504 0.250025
O O8 0.000000 0.000000 0.256563
O O9 0.799961 0.088568 0.500000
O O10 0.872311 0.134929 0.234788
O O11 0.947351 0.180331 0.500000
O O12 0.857897 0.251972 0.293710
O O13 0.020069 0.206537 0.220436
O O14 0.836106 0.372920 0.744830
O O15 0.906697 0.426383 0.000000
O O16 0.698557 0.299812 0.202327
O O17 0.833464 0.297883 0.000000
O O18 0.144482 0.187357 0.000000
#
# Coordination Sequence:
#
# PCOD9441406 Si02
#       7
#     8   8   8   8   8   8   8
#     4   8  13  25  48  81 112 141 180 232 284 342
#     4  10  18  34  60  89 120 157 197 245 308 370
#     4   9  17  30  53  83 117 155 194 237 296 364
#     4  11  23  41  60  84 117 157 202 251 299 362
#     4   8  15  28  50  80 114 144 182 233 288 345
#     4  11  23  40  61  86 117 158 202 250 305 369
#     4  12  25  41  61  88 120 159 204 255 310 369
#
# _framework density 21.970559000000002
#
# number of rings (size 3 to 8) (size 9 to 14) (size 15 to 20)
#    0.000    2.143    1.429    3.857    0.000    3.714 
#    0.000    2.857    0.000    0.000    0.000   19.000 
#    0.000    0.000    0.000    0.000    0.000    0.000 
#
# Total GULP energy -312767.214163 kJ/mol
# GULP energy per Si atom -5585.128824 kJ/mol
# Density = 2.192055 g / cm^3
# Si number density = 21.970559 Si / 1000 Ang^3
#
#
#
# Elastic Constant Matrix: (Units=GPa)
#
#
# Indices 1 2 3 4 5 6 
#
# 1 130.4770 10.6230 -2.9673 0.0000 0.0000 0.0000
# 2 10.6230 33.2800 -3.4702 0.0000 0.0000 0.0000
# 3 -2.9673 -3.4702 23.4104 0.0000 0.0000 0.0000
# 4 0.0000 0.0000 0.0000 15.3494 0.0000 0.0000
# 5 0.0000 0.0000 0.0000 0.0000 16.9410 0.0000
# 6 0.0000 0.0000 0.0000 0.0000 0.0000 23.5911
#
#
#
# Elastic Compliance Matrix: (Units=1/GPa)
#
#
# Indices 1 2 3 4 5 6 
#
# 1 0.007878 -0.002448 0.000636 0.000000 0.000000 0.000000
# 2 -0.002448 0.031281 0.004327 0.000000 0.000000 0.000000
# 3 0.000636 0.004327 0.043438 0.000000 0.000000 0.000000
# 4 0.000000 0.000000 0.000000 0.065149 0.000000 0.000000
# 5 0.000000 0.000000 0.000000 0.000000 0.059028 0.000000
# 6 0.000000 0.000000 0.000000 0.000000 0.000000 0.042389
#
#
# Mechanical properties :
#
#
# Convention : Reuss Voigt Hill
#
# Bulk Modulus (GPa) = 11.41237 21.72648 16.56943
# Shear Modulus (GPa) = 18.29198 23.37508 20.83353
#
# Velocity S-wave (km/s) = 2.88856 3.26533 3.08270
# Velocity P-wave (km/s) = 4.04112 4.91191 4.49764
#
# Compressibility (1/GPa) = 0.08762419
#
# Stress axis : x y z
#
# Youngs Moduli (GPa) = 126.93606 31.96856 23.02138
#
# Poissons Ratio (x) = 0.07827 -0.01463
# Poissons Ratio (y) = 0.31079 -0.09960
# Poissons Ratio (z) = -0.08068 -0.13831
#
# Static dielectric constant tensor:
#      x y z
#    x 1.806620 0.000000 0.000000 
#    y 0.000000 1.782580 0.000000 
#    z 0.000000 0.000000 1.793720 
# 
# From -- ./inp_files/6244.got.cif
#   From: 2010.05.17/outbox.cif.g08.bks.cpg/sg58_4_cif.got.tgz:6244.got - 2010.06.03 14:20:14.
