data_PCOD9441045
_publ_section_title
;
Structure prediction by ZEFSAII (Michael W. Deem and Ramdas Pophale) SiO2 
 PCOD9441045
Probable space group: P N N M
;
_chemical_formula_sum "Si O2"
_cell_formula_units_Z 64
_cell_length_a 9.265584
_cell_length_b 33.603455
_cell_length_c 9.710457
_cell_angle_alpha 90.000000
_cell_angle_beta 90.000000
_cell_angle_gamma 90.000000
_cell_volume 3023.405505
_symmetry_space_group_name_H-M "P N N M"
_symmetry_group_IT_number 58
_symmetry_cell_setting 'orthorhombic'
loop_
_space_group_symop_operation_xyz
x,y,z
-x,-y,z
1/2+x,1/2-y,1/2-z
1/2-x,1/2+y,1/2-z
-x,-y,-z
x,y,-z
1/2-x,1/2+y,1/2+z
1/2+x,1/2-y,1/2+z
loop_
_atom_site_type_symbol
_atom_site_label
_atom_site_fract_x
_atom_site_fract_y
_atom_site_fract_z
Si Si1 0.861331 0.269619 0.336039
Si Si2 0.380307 0.463744 0.655346
Si Si3 0.468477 0.591449 0.153083
Si Si4 0.937184 0.628652 0.340453
Si Si5 0.474588 0.047031 0.147776
Si Si6 0.712598 0.845293 0.665455
Si Si7 0.258846 0.022228 0.648767
Si Si8 0.800018 0.707357 0.661308
O O1 0.830300 0.270952 0.500000
O O2 0.778111 0.303836 0.248792
O O3 0.807212 0.229236 0.264746
O O4 0.034107 0.276911 0.320175
O O5 0.500000 0.500000 0.646985
O O6 0.326157 0.459884 0.500000
O O7 0.434307 0.421996 0.718415
O O8 0.271223 0.483673 0.761882
O O9 0.352797 0.626325 0.181854
O O10 0.380936 0.549803 0.137517
O O11 0.534542 0.598919 0.000000
O O12 0.980412 0.638637 0.500000
O O13 0.812561 0.660116 0.309338
O O14 0.907890 0.581644 0.338567
O O15 0.070424 0.636170 0.237766
O O16 0.371040 0.050295 0.276124
O O17 0.500000 0.000000 0.142451
O O18 0.400028 0.056034 0.000000
O O19 0.692898 0.839767 0.500000
O O20 0.310583 0.010091 0.500000
O O21 0.761200 0.713700 0.500000
#
# Coordination Sequence:
#
# PCOD9441045 Si02
#       8
#     8   8   8   8   8   8   8   8
#     4  10  21  36  57  88 119 150 191 235 285 344
#     4   9  17  27  42  65  90 123 163 202 252 310
#     4   9  17  28  44  69  98 129 164 209 261 312
#     4   9  18  33  53  78 107 138 178 227 276 332
#     4  10  20  33  51  74 101 136 178 226 276 322
#     4  10  18  30  51  79 108 138 175 221 274 331
#     4  10  18  30  46  66  95 127 167 216 264 318
#     4   9  19  36  58  85 116 150 189 238 292 345
#
# _framework density 21.168182999999999
#
# number of rings (size 3 to 8) (size 9 to 14) (size 15 to 20)
#    0.000    2.500    1.250    2.250    0.000    5.750 
#    0.000    0.000    2.750    0.000    0.000    0.000 
#    0.000    0.000    0.000    0.000    0.000    0.000 
#
# Total GULP energy -356351.289393 kJ/mol
# GULP energy per Si atom -5567.988897 kJ/mol
# Density = 2.112000 g / cm^3
# Si number density = 21.168183 Si / 1000 Ang^3
#
#
#
# Elastic Constant Matrix: (Units=GPa)
#
#
# Indices 1 2 3 4 5 6 
#
# 1 20.6280 4.8534 19.6498 0.0000 0.0000 0.0000
# 2 4.8534 85.3659 25.2407 0.0000 0.0000 0.0000
# 3 19.6498 25.2407 117.6137 0.0000 0.0000 0.0000
# 4 0.0000 0.0000 0.0000 39.8756 0.0000 0.0000
# 5 0.0000 0.0000 0.0000 0.0000 19.8278 0.0000
# 6 0.0000 0.0000 0.0000 0.0000 0.0000 30.7230
#
#
#
# Elastic Compliance Matrix: (Units=1/GPa)
#
#
# Indices 1 2 3 4 5 6 
#
# 1 0.057670 -0.000459 -0.009537 0.000000 0.000000 0.000000
# 2 -0.000459 0.012512 -0.002608 0.000000 0.000000 0.000000
# 3 -0.009537 -0.002608 0.010655 0.000000 0.000000 0.000000
# 4 0.000000 0.000000 0.000000 0.025078 0.000000 0.000000
# 5 0.000000 0.000000 0.000000 0.000000 0.050434 0.000000
# 6 0.000000 0.000000 0.000000 0.000000 0.000000 0.032549
#
#
# Mechanical properties :
#
#
# Convention : Reuss Voigt Hill
#
# Bulk Modulus (GPa) = 17.97609 35.89948 26.93778
# Shear Modulus (GPa) = 21.49155 29.67619 25.58387
#
# Velocity S-wave (km/s) = 3.18980 3.74829 3.48026
# Velocity P-wave (km/s) = 4.69860 5.97736 5.37614
#
# Compressibility (1/GPa) = 0.05562945
#
# Stress axis : x y z
#
# Youngs Moduli (GPa) = 17.33997 79.92571 93.84860
#
# Poissons Ratio (x) = 0.03669 0.89499
# Poissons Ratio (y) = 0.00796 0.24479
# Poissons Ratio (z) = 0.16536 0.20848
#
# Static dielectric constant tensor:
#      x y z
#    x 1.865170 0.000000 0.000000 
#    y 0.000000 1.804550 0.000000 
#    z 0.000000 0.000000 1.783080 
# 
# From -- ./inp_files/4698.got.cif
#   From: 2010.05.17/outbox.cif.g08.bks.cpg/sg58_3_cif.got.tgz:4698.got - 2010.06.03 14:20:14.
