data_PCOD9441690
_publ_section_title
;
Structure prediction by ZEFSAII (Michael W. Deem and Ramdas Pophale) SiO2 
 PCOD9441690
Probable space group: P N N M
;
_chemical_formula_sum "Si O2"
_cell_formula_units_Z 64
_cell_length_a 25.307573
_cell_length_b 15.313820
_cell_length_c 8.309973
_cell_angle_alpha 90.000000
_cell_angle_beta 90.000000
_cell_angle_gamma 90.000000
_cell_volume 3220.576718
_symmetry_space_group_name_H-M "P N N M"
_symmetry_group_IT_number 58
_symmetry_cell_setting 'orthorhombic'
loop_
_space_group_symop_operation_xyz
x,y,z
-x,-y,z
1/2+x,1/2-y,1/2-z
1/2-x,1/2+y,1/2-z
-x,-y,-z
x,y,-z
1/2-x,1/2+y,1/2+z
1/2+x,1/2-y,1/2+z
loop_
_atom_site_type_symbol
_atom_site_label
_atom_site_fract_x
_atom_site_fract_y
_atom_site_fract_z
Si Si1 0.510377 0.291205 0.194526
Si Si2 0.070788 0.037701 0.815617
Si Si3 0.904383 0.139887 0.685993
Si Si4 0.715136 0.861633 0.315318
Si Si5 0.824037 0.857132 0.182950
Si Si6 0.289773 0.334929 0.690198
Si Si7 0.309889 0.949652 0.306871
Si Si8 0.112066 0.308391 0.307572
O O1 0.536904 0.378635 0.265106
O O2 0.448847 0.291023 0.244552
O O3 0.551175 0.213405 0.237502
O O4 0.510160 0.297956 0.000000
O O5 0.130799 0.070988 0.807842
O O6 0.067148 0.953839 0.703903
O O7 0.059232 0.013085 0.000000
O O8 0.891757 0.156982 0.500000
O O9 0.849675 0.134483 0.781192
O O10 0.696762 0.855093 0.500000
O O11 0.777806 0.877041 0.305639
O O12 0.709810 0.764710 0.242435
O O13 0.691262 0.950429 0.244089
O O14 0.851970 0.766054 0.225386
O O15 0.803322 0.854714 0.000000
O O16 0.278473 0.330658 0.500000
O O17 0.243547 0.396156 0.760560
O O18 0.311321 0.952373 0.500000
O O19 0.361002 0.898255 0.243416
O O20 0.116378 0.298483 0.500000
#
# Coordination Sequence:
#
# PCOD9441690 Si02
#       8
#     8   8   8   8   8   8   8   8
#     4   9  20  36  54  76 107 147 187 228 280 331
#     4  10  20  32  50  80 112 144 184 229 273 328
#     4  11  22  36  53  76 108 147 187 229 277 334
#     4  10  22  37  54  77 111 147 180 222 279 333
#     4  10  19  31  50  76 107 141 180 220 263 321
#     4  11  23  39  57  81 113 150 185 226 276 332
#     4  11  22  37  58  85 112 144 183 227 277 335
#     4  10  19  34  55  78 106 140 178 224 272 320
#
# _framework density 19.872216999999999
#
# number of rings (size 3 to 8) (size 9 to 14) (size 15 to 20)
#    0.000    1.750    1.250    3.375    0.000    8.000 
#    0.000    0.000    0.000    0.750    0.000    5.250 
#    0.000    0.000    0.000    0.000    0.000    0.000 
#
# Total GULP energy -356973.236918 kJ/mol
# GULP energy per Si atom -5577.706827 kJ/mol
# Density = 1.982699 g / cm^3
# Si number density = 19.872217 Si / 1000 Ang^3
#
#
#
# Elastic Constant Matrix: (Units=GPa)
#
#
# Indices 1 2 3 4 5 6 
#
# 1 38.1801 -4.8664 1.3618 0.0000 0.0000 0.0000
# 2 -4.8664 70.9747 2.3555 0.0000 0.0000 0.0000
# 3 1.3618 2.3555 25.0827 0.0000 0.0000 0.0000
# 4 0.0000 0.0000 0.0000 20.7296 0.0000 0.0000
# 5 0.0000 0.0000 0.0000 0.0000 7.3494 0.0000
# 6 0.0000 0.0000 0.0000 0.0000 0.0000 12.1706
#
#
#
# Elastic Compliance Matrix: (Units=1/GPa)
#
#
# Indices 1 2 3 4 5 6 
#
# 1 0.026487 0.001870 -0.001614 0.000000 0.000000 0.000000
# 2 0.001870 0.014266 -0.001441 0.000000 0.000000 0.000000
# 3 -0.001614 -0.001441 0.040091 0.000000 0.000000 0.000000
# 4 0.000000 0.000000 0.000000 0.048240 0.000000 0.000000
# 5 0.000000 0.000000 0.000000 0.000000 0.136066 0.000000
# 6 0.000000 0.000000 0.000000 0.000000 0.000000 0.082166
#
#
# Mechanical properties :
#
#
# Convention : Reuss Voigt Hill
#
# Bulk Modulus (GPa) = 12.74311 14.65994 13.70153
# Shear Modulus (GPa) = 13.30338 17.07567 15.18953
#
# Velocity S-wave (km/s) = 2.59017 2.93452 2.76771
# Velocity P-wave (km/s) = 3.92069 4.34453 4.13804
#
# Compressibility (1/GPa) = 0.07847375
#
# Stress axis : x y z
#
# Youngs Moduli (GPa) = 37.75368 70.09888 24.94316
#
# Poissons Ratio (x) = -0.13106 0.04025
# Poissons Ratio (y) = -0.07059 0.03595
# Poissons Ratio (z) = 0.06092 0.10103
#
# Static dielectric constant tensor:
#      x y z
#    x 1.729530 0.000000 0.000000 
#    y 0.000000 1.739850 0.000000 
#    z 0.000000 0.000000 1.705180 
# 
# From -- ./inp_files/10039.got.cif
#   From: 2010.05.17/outbox.cif.g08.bks.cpg/sg58_6_cif.got.tgz:10039.got - 2010.06.03 14:20:14.
