data_PCOD9441264
_publ_section_title
;
Structure prediction by ZEFSAII (Michael W. Deem and Ramdas Pophale) SiO2 
 PCOD9441264
Probable space group: P N N M
;
_chemical_formula_sum "Si O2"
_cell_formula_units_Z 48
_cell_length_a 29.189677
_cell_length_b 7.648291
_cell_length_c 10.024331
_cell_angle_alpha 90.000000
_cell_angle_beta 90.000000
_cell_angle_gamma 90.000000
_cell_volume 2237.943363
_symmetry_space_group_name_H-M "P N N M"
_symmetry_group_IT_number 58
_symmetry_cell_setting 'orthorhombic'
loop_
_space_group_symop_operation_xyz
x,y,z
-x,-y,z
1/2+x,1/2-y,1/2-z
1/2-x,1/2+y,1/2-z
-x,-y,-z
x,y,-z
1/2-x,1/2+y,1/2+z
1/2+x,1/2-y,1/2+z
loop_
_atom_site_type_symbol
_atom_site_label
_atom_site_fract_x
_atom_site_fract_y
_atom_site_fract_z
Si Si1 0.585417 0.308820 0.150523
Si Si2 0.511728 0.795065 0.156798
Si Si3 0.306445 0.437042 0.358016
Si Si4 0.891062 0.188612 0.277784
Si Si5 0.758855 0.437441 0.151198
Si Si6 0.160575 0.461285 0.345647
O O1 0.534072 0.301524 0.207192
O O2 0.603060 0.505240 0.146909
O O3 0.623178 0.177571 0.207550
O O4 0.578988 0.239907 0.000000
O O5 0.557275 0.755667 0.239844
O O6 0.500000 0.000000 0.159571
O O7 0.521288 0.746701 0.000000
O O8 0.299609 0.529039 0.500000
O O9 0.358381 0.370541 0.342994
O O10 0.288625 0.543415 0.230783
O O11 0.276109 0.261134 0.357097
O O12 0.863657 0.347801 0.345683
O O13 0.797265 0.526936 0.244397
O O14 0.755485 0.506536 0.000000
O O15 0.173644 0.418722 0.500000
#
# Coordination Sequence:
#
# PCOD9441264 Si02
#       6
#     8   8   8   8   8   8
#     4  10  20  32  54  87 121 160 204 250 300 360
#     4  10  18  32  54  84 124 163 203 253 309 358
#     4  10  24  44  64  90 125 160 201 256 310 374
#     4  11  21  35  58  86 119 160 205 253 307 361
#     4  10  23  41  62  89 120 158 203 249 308 371
#     4  10  20  36  57  84 122 161 199 251 307 360
#
# _framework density 21.448264999999999
#
# number of rings (size 3 to 8) (size 9 to 14) (size 15 to 20)
#    0.000    1.833    1.667    2.500    2.333    6.000 
#    0.000    0.000    0.000    3.500    0.000    0.000 
#    0.000    0.000    0.000    0.000    0.000    0.000 
#
# Total GULP energy -267792.477564 kJ/mol
# GULP energy per Si atom -5579.009949 kJ/mol
# Density = 2.139945 g / cm^3
# Si number density = 21.448265 Si / 1000 Ang^3
#
#
#
# Elastic Constant Matrix: (Units=GPa)
#
#
# Indices 1 2 3 4 5 6 
#
# 1 149.9781 33.4367 54.0125 0.0000 0.0000 0.0000
# 2 33.4367 77.2230 15.1764 0.0000 0.0000 0.0000
# 3 54.0125 15.1764 99.9762 0.0000 0.0000 0.0000
# 4 0.0000 0.0000 0.0000 40.3155 0.0000 0.0000
# 5 0.0000 0.0000 0.0000 0.0000 8.5534 0.0000
# 6 0.0000 0.0000 0.0000 0.0000 0.0000 39.7003
#
#
#
# Elastic Compliance Matrix: (Units=1/GPa)
#
#
# Indices 1 2 3 4 5 6 
#
# 1 0.008905 -0.003000 -0.004356 0.000000 0.000000 0.000000
# 2 -0.003000 0.014358 -0.000559 0.000000 0.000000 0.000000
# 3 -0.004356 -0.000559 0.012440 0.000000 0.000000 0.000000
# 4 0.000000 0.000000 0.000000 0.024804 0.000000 0.000000
# 5 0.000000 0.000000 0.000000 0.000000 0.116912 0.000000
# 6 0.000000 0.000000 0.000000 0.000000 0.000000 0.025189
#
#
# Mechanical properties :
#
#
# Convention : Reuss Voigt Hill
#
# Bulk Modulus (GPa) = 50.31457 59.15872 54.73665
# Shear Modulus (GPa) = 22.21606 32.68397 27.45002
#
# Velocity S-wave (km/s) = 3.22187 3.90789 3.58134
# Velocity P-wave (km/s) = 6.11147 6.92850 6.53277
#
# Compressibility (1/GPa) = 0.01987496
#
# Stress axis : x y z
#
# Youngs Moduli (GPa) = 112.29606 69.64647 80.38356
#
# Poissons Ratio (x) = 0.20892 0.35012
# Poissons Ratio (y) = 0.33686 0.04493
# Poissons Ratio (z) = 0.48912 0.03893
#
# Static dielectric constant tensor:
#      x y z
#    x 1.842420 0.000000 0.000000 
#    y 0.000000 1.793080 0.000000 
#    z 0.000000 0.000000 1.769630 
# 
# From -- ./inp_files/17403.got.cif
#   From: 2010.05.17/outbox.cif.g08.bks.cpg/sg58_9_cif.got.tgz:17403.got - 2010.06.03 14:20:14.
