data_PCOD9441773
_publ_section_title
;
Structure prediction by ZEFSAII (Michael W. Deem and Ramdas Pophale) SiO2 
 PCOD9441773
Probable space group: P N N M
;
_chemical_formula_sum "Si O2"
_cell_formula_units_Z 64
_cell_length_a 13.454679
_cell_length_b 27.409012
_cell_length_c 9.515281
_cell_angle_alpha 90.000000
_cell_angle_beta 90.000000
_cell_angle_gamma 90.000000
_cell_volume 3509.040171
_symmetry_space_group_name_H-M "P N N M"
_symmetry_group_IT_number 58
_symmetry_cell_setting 'orthorhombic'
loop_
_space_group_symop_operation_xyz
x,y,z
-x,-y,z
1/2+x,1/2-y,1/2-z
1/2-x,1/2+y,1/2-z
-x,-y,-z
x,y,-z
1/2-x,1/2+y,1/2+z
1/2+x,1/2-y,1/2+z
loop_
_atom_site_type_symbol
_atom_site_label
_atom_site_fract_x
_atom_site_fract_y
_atom_site_fract_z
Si Si1 0.695846 0.802534 0.338577
Si Si2 0.475876 0.555379 0.171513
Si Si3 0.956508 0.447780 0.171318
Si Si4 0.345083 0.374218 0.829010
Si Si5 0.083947 0.769037 0.662989
Si Si6 0.742421 0.410830 0.829267
Si Si7 0.379098 0.868302 0.669361
Si Si8 0.621118 0.229988 0.158512
O O1 0.661495 0.807897 0.500000
O O2 0.611911 0.780551 0.241010
O O3 0.739335 0.854252 0.293533
O O4 0.778778 0.760671 0.331305
O O5 0.500000 0.500000 0.211411
O O6 0.566137 0.590416 0.218372
O O7 0.365456 0.570915 0.219742
O O8 0.474794 0.557531 0.000000
O O9 0.842457 0.439030 0.216747
O O10 0.000000 0.500000 0.215810
O O11 0.031643 0.404230 0.213826
O O12 0.955723 0.447477 0.000000
O O13 0.368560 0.318926 0.781149
O O14 0.231763 0.387789 0.791667
O O15 0.349228 0.373801 0.000000
O O16 0.113450 0.764927 0.500000
O O17 0.965495 0.770126 0.673229
O O18 0.739908 0.413988 0.000000
O O19 0.382470 0.864866 0.500000
O O20 0.386133 0.814498 0.734621
O O21 0.612423 0.209730 0.000000
#
# Coordination Sequence:
#
# PCOD9441773 Si02
#       8
#     8   8   8   8   8   8   8   8
#     4  10  19  32  49  71 100 133 166 200 245 295
#     4   9  17  27  44  68  96 130 164 200 248 301
#     4   9  18  29  45  69  98 130 161 200 251 299
#     4   9  17  29  45  68  97 128 162 201 246 292
#     4  10  19  32  49  71 101 135 166 203 246 290
#     4   9  17  29  43  64  97 131 162 199 244 297
#     4  10  19  32  51  74 102 132 164 204 250 299
#     4  10  20  32  49  72 101 134 168 205 245 290
#
# _framework density 18.238605
#
# number of rings (size 3 to 8) (size 9 to 14) (size 15 to 20)
#    0.000    2.500    1.250    1.500    1.750    4.500 
#    0.000    0.000    0.000    0.375    0.000    0.000 
#    0.000    2.500    0.000    0.000    0.000    0.000 
#
# Total GULP energy -356490.834927 kJ/mol
# GULP energy per Si atom -5570.169296 kJ/mol
# Density = 1.819709 g / cm^3
# Si number density = 18.238605 Si / 1000 Ang^3
#
#
#
# Elastic Constant Matrix: (Units=GPa)
#
#
# Indices 1 2 3 4 5 6 
#
# 1 111.2247 33.6056 8.7464 0.0000 0.0000 0.0000
# 2 33.6056 86.0831 9.2853 0.0000 0.0000 0.0000
# 3 8.7464 9.2853 3.9296 0.0000 0.0000 0.0000
# 4 0.0000 0.0000 0.0000 4.7982 0.0000 0.0000
# 5 0.0000 0.0000 0.0000 0.0000 9.4806 0.0000
# 6 0.0000 0.0000 0.0000 0.0000 0.0000 26.8765
#
#
#
# Elastic Compliance Matrix: (Units=1/GPa)
#
#
# Indices 1 2 3 4 5 6 
#
# 1 0.011217 -0.002263 -0.019620 0.000000 0.000000 0.000000
# 2 -0.002263 0.016047 -0.032881 0.000000 0.000000 0.000000
# 3 -0.019620 -0.032881 0.375841 0.000000 0.000000 0.000000
# 4 0.000000 0.000000 0.000000 0.208412 0.000000 0.000000
# 5 0.000000 0.000000 0.000000 0.000000 0.105478 0.000000
# 6 0.000000 0.000000 0.000000 0.000000 0.000000 0.037207
#
#
# Mechanical properties :
#
#
# Convention : Reuss Voigt Hill
#
# Bulk Modulus (GPa) = 3.40625 33.83468 18.62047
# Shear Modulus (GPa) = 5.19972 18.20440 11.70206
#
# Velocity S-wave (km/s) = 1.69031 3.16274 2.53575
# Velocity P-wave (km/s) = 2.38352 5.65054 4.33646
#
# Compressibility (1/GPa) = 0.29357768
#
# Stress axis : x y z
#
# Youngs Moduli (GPa) = 89.14753 62.31819 2.66070
#
# Poissons Ratio (x) = 0.14101 0.05220
# Poissons Ratio (y) = 0.20172 0.08749
# Poissons Ratio (z) = 1.74911 2.04905
#
# Static dielectric constant tensor:
#      x y z
#    x 1.676470 0.000000 0.000000 
#    y 0.000000 1.616400 0.000000 
#    z 0.000000 0.000000 1.617770 
# 
# From -- ./inp_files/14828.got.cif
#   From: 2010.05.17/outbox.cif.g08.bks.cpg/sg58_8_cif.got.tgz:14828.got - 2010.06.03 14:20:14.
