data_PCOD9441994
_publ_section_title
;
Structure prediction by ZEFSAII (Michael W. Deem and Ramdas Pophale) SiO2 
 PCOD9441994
Probable space group: P N N M
;
_chemical_formula_sum "Si O2"
_cell_formula_units_Z 56
_cell_length_a 19.576452
_cell_length_b 8.088497
_cell_length_c 20.325948
_cell_angle_alpha 90.000000
_cell_angle_beta 90.000000
_cell_angle_gamma 90.000000
_cell_volume 3218.493399
_symmetry_space_group_name_H-M "P N N M"
_symmetry_group_IT_number 58
_symmetry_cell_setting 'orthorhombic'
loop_
_space_group_symop_operation_xyz
x,y,z
-x,-y,z
1/2+x,1/2-y,1/2-z
1/2-x,1/2+y,1/2-z
-x,-y,-z
x,y,-z
1/2-x,1/2+y,1/2+z
1/2+x,1/2-y,1/2+z
loop_
_atom_site_type_symbol
_atom_site_label
_atom_site_fract_x
_atom_site_fract_y
_atom_site_fract_z
Si Si1 0.474224 0.813473 0.374001
Si Si2 0.321156 0.820531 0.576093
Si Si3 0.241692 0.963974 0.076172
Si Si4 0.189740 0.561581 0.194884
Si Si5 0.062599 0.113959 0.751735
Si Si6 0.681397 0.206133 0.808635
Si Si7 0.106836 0.847243 0.142594
O O1 0.401737 0.786810 0.409601
O O2 0.463071 0.765609 0.297260
O O3 0.535514 0.689338 0.393280
O O4 0.500000 0.000000 0.384121
O O5 0.313741 0.868712 0.500000
O O6 0.275799 0.657039 0.588147
O O7 0.300360 0.960961 0.627362
O O8 0.298090 0.885157 0.123990
O O9 0.169730 0.877117 0.094231
O O10 0.258441 0.941500 0.000000
O O11 0.255526 0.673395 0.208432
O O12 0.177749 0.432542 0.252513
O O13 0.126321 0.683548 0.183587
O O14 0.113272 0.184354 0.697135
O O15 0.100732 0.996777 0.805525
O O16 0.000000 0.000000 0.727979
#
# Coordination Sequence:
#
# PCOD9441994 Si02
#       7
#     8   8   8   8   8   8   8
#     4  11  19  34  50  76 111 152 186 219 260 320
#     4  11  22  36  50  75 113 150 190 229 265 322
#     4  10  22  36  52  75 104 141 186 231 278 328
#     4  11  20  33  54  77 103 141 189 226 278 329
#     4  10  20  34  56  83 112 140 186 231 283 333
#     4  11  20  35  56  77 105 140 185 236 287 332
#     4  10  19  33  54  77 110 143 180 227 265 332
#
# _framework density 17.399446000000001
#
# number of rings (size 3 to 8) (size 9 to 14) (size 15 to 20)
#    0.000    1.429    4.286    2.571    0.000    3.143 
#    0.000    1.429    0.000    0.429    0.000    0.000 
#    0.000   13.143    0.000    0.000    0.000    0.286 
#
# Total GULP energy -312431.901739 kJ/mol
# GULP energy per Si atom -5579.141102 kJ/mol
# Density = 1.735984 g / cm^3
# Si number density = 17.399446 Si / 1000 Ang^3
#
#
#
# Elastic Constant Matrix: (Units=GPa)
#
#
# Indices 1 2 3 4 5 6 
#
# 1 35.5514 20.4231 24.0522 0.0000 0.0000 0.0000
# 2 20.4231 89.2281 52.4317 0.0000 0.0000 0.0000
# 3 24.0522 52.4317 53.0189 0.0000 0.0000 0.0000
# 4 0.0000 0.0000 0.0000 21.4664 0.0000 0.0000
# 5 0.0000 0.0000 0.0000 0.0000 20.5996 0.0000
# 6 0.0000 0.0000 0.0000 0.0000 0.0000 31.1574
#
#
#
# Elastic Compliance Matrix: (Units=1/GPa)
#
#
# Indices 1 2 3 4 5 6 
#
# 1 0.041089 0.003697 -0.022296 0.000000 0.000000 0.000000
# 2 0.003697 0.027087 -0.028464 0.000000 0.000000 0.000000
# 3 -0.022296 -0.028464 0.057125 0.000000 0.000000 0.000000
# 4 0.000000 0.000000 0.000000 0.046584 0.000000 0.000000
# 5 0.000000 0.000000 0.000000 0.000000 0.048545 0.000000
# 6 0.000000 0.000000 0.000000 0.000000 0.000000 0.032095
#
#
# Mechanical properties :
#
#
# Convention : Reuss Voigt Hill
#
# Bulk Modulus (GPa) = 32.07796 41.29028 36.68412
# Shear Modulus (GPa) = 14.00394 20.03744 17.02069
#
# Velocity S-wave (km/s) = 2.84006 3.39723 3.13106
# Velocity P-wave (km/s) = 5.40656 6.25863 5.84813
#
# Compressibility (1/GPa) = 0.03117405
#
# Stress axis : x y z
#
# Youngs Moduli (GPa) = 24.33745 36.91814 17.50559
#
# Poissons Ratio (x) = -0.13648 0.39030
# Poissons Ratio (y) = -0.08997 0.49828
# Poissons Ratio (z) = 0.54263 1.05084
#
# Static dielectric constant tensor:
#      x y z
#    x 1.618710 0.000000 0.000000 
#    y 0.000000 1.634500 0.000000 
#    z 0.000000 0.000000 1.567950 
# 
# From -- ./inp_files/27483.got.cif
#   From: 2010.05.17/outbox.cif.g08.bks.cpg/sg58_14_cif.got.tgz:27483.got - 2010.06.03 14:20:14.
