data_PCOD9441899
_publ_section_title
;
Structure prediction by ZEFSAII (Michael W. Deem and Ramdas Pophale) SiO2 
 PCOD9441899
Probable space group: P N N M
;
_chemical_formula_sum "Si O2"
_cell_formula_units_Z 48
_cell_length_a 10.457867
_cell_length_b 19.497240
_cell_length_c 9.524980
_cell_angle_alpha 90.000000
_cell_angle_beta 90.000000
_cell_angle_gamma 90.000000
_cell_volume 1942.139067
_symmetry_space_group_name_H-M "P N N M"
_symmetry_group_IT_number 58
_symmetry_cell_setting 'orthorhombic'
loop_
_space_group_symop_operation_xyz
x,y,z
-x,-y,z
1/2+x,1/2-y,1/2-z
1/2-x,1/2+y,1/2-z
-x,-y,-z
x,y,-z
1/2-x,1/2+y,1/2+z
1/2+x,1/2-y,1/2+z
loop_
_atom_site_type_symbol
_atom_site_label
_atom_site_fract_x
_atom_site_fract_y
_atom_site_fract_z
Si Si1 0.123573 0.701224 0.334591
Si Si2 0.526307 0.302436 0.657565
Si Si3 0.776276 0.698946 0.342098
Si Si4 0.483322 0.576724 0.842440
Si Si5 0.221131 0.422926 0.155044
Si Si6 0.863474 0.461017 0.341500
O O1 0.123538 0.715809 0.500000
O O2 0.000074 0.738161 0.262905
O O3 0.248553 0.736756 0.262807
O O4 0.123529 0.619750 0.313749
O O5 0.576123 0.288796 0.500000
O O6 0.374704 0.320022 0.635414
O O7 0.577715 0.369976 0.735885
O O8 0.825381 0.712932 0.500000
O O9 0.831594 0.631891 0.265755
O O10 0.500000 0.500000 0.787394
O O11 0.631310 0.597797 0.862523
O O12 0.424878 0.575508 0.000000
O O13 0.212705 0.498140 0.222359
O O14 0.160360 0.420416 0.000000
O O15 0.809647 0.469287 0.500000
O O16 0.000000 0.500000 0.341020
#
# Coordination Sequence:
#
# PCOD9441899 Si02
#       6
#     8   8   8   8   8   8
#     4   9  16  30  53  75  99 136 180 223 269 325
#     4   8  15  26  45  72 100 134 171 213 265 319
#     4   8  15  28  50  75 100 132 171 214 266 324
#     4   9  17  30  51  78 108 140 176 219 271 334
#     4  10  19  32  54  81 109 142 183 229 276 328
#     4  10  22  38  56  79 110 149 191 232 279 332
#
# _framework density 24.715015999999999
#
# number of rings (size 3 to 8) (size 9 to 14) (size 15 to 20)
#    1.000    2.000    0.000    1.500    0.000    2.667 
#    0.000    0.000    3.667    0.000    0.000    0.000 
#    0.000    0.000    0.000    0.000    0.000    0.000 
#
# Total GULP energy -267740.201134 kJ/mol
# GULP energy per Si atom -5577.920857 kJ/mol
# Density = 2.465876 g / cm^3
# Si number density = 24.715016 Si / 1000 Ang^3
#
#
#
# Elastic Constant Matrix: (Units=GPa)
#
#
# Indices 1 2 3 4 5 6 
#
# 1 51.6349 13.4384 15.6512 0.0000 0.0000 0.0000
# 2 13.4384 196.5394 130.7950 0.0000 0.0000 0.0000
# 3 15.6512 130.7950 195.5974 0.0000 0.0000 0.0000
# 4 0.0000 0.0000 0.0000 28.5638 0.0000 0.0000
# 5 0.0000 0.0000 0.0000 0.0000 16.1026 0.0000
# 6 0.0000 0.0000 0.0000 0.0000 0.0000 32.5604
#
#
#
# Elastic Compliance Matrix: (Units=1/GPa)
#
#
# Indices 1 2 3 4 5 6 
#
# 1 0.019880 -0.000542 -0.001228 0.000000 0.000000 0.000000
# 2 -0.000542 0.009183 -0.006097 0.000000 0.000000 0.000000
# 3 -0.001228 -0.006097 0.009288 0.000000 0.000000 0.000000
# 4 0.000000 0.000000 0.000000 0.035009 0.000000 0.000000
# 5 0.000000 0.000000 0.000000 0.000000 0.062102 0.000000
# 6 0.000000 0.000000 0.000000 0.000000 0.000000 0.030712
#
#
# Mechanical properties :
#
#
# Convention : Reuss Voigt Hill
#
# Bulk Modulus (GPa) = 44.21635 84.83789 64.52712
# Shear Modulus (GPa) = 26.39259 34.37116 30.38187
#
# Velocity S-wave (km/s) = 3.27138 3.73325 3.50992
# Velocity P-wave (km/s) = 5.67438 7.27900 6.52620
#
# Compressibility (1/GPa) = 0.02261607
#
# Stress axis : x y z
#
# Youngs Moduli (GPa) = 50.30157 108.90216 107.66747
#
# Poissons Ratio (x) = 0.05900 0.13227
# Poissons Ratio (y) = 0.02725 0.65645
# Poissons Ratio (z) = 0.06179 0.66397
#
# Static dielectric constant tensor:
#      x y z
#    x 2.274950 0.000000 0.000000 
#    y 0.000000 1.915740 0.000000 
#    z 0.000000 0.000000 2.000700 
# 
# From -- ./inp_files/6055.got.cif
#   From: 2010.05.17/outbox.cif.g08.bks.cpg/sg58_4_cif.got.tgz:6055.got - 2010.06.03 14:20:14.
