data_PCOD9441534
_publ_section_title
;
Structure prediction by ZEFSAII (Michael W. Deem and Ramdas Pophale) SiO2 
 PCOD9441534
Probable space group: P N N M
;
_chemical_formula_sum "Si O2"
_cell_formula_units_Z 56
_cell_length_a 14.115506
_cell_length_b 30.117635
_cell_length_c 8.777710
_cell_angle_alpha 90.000000
_cell_angle_beta 90.000000
_cell_angle_gamma 90.000000
_cell_volume 3731.629736
_symmetry_space_group_name_H-M "P N N M"
_symmetry_group_IT_number 58
_symmetry_cell_setting 'orthorhombic'
loop_
_space_group_symop_operation_xyz
x,y,z
-x,-y,z
1/2+x,1/2-y,1/2-z
1/2-x,1/2+y,1/2-z
-x,-y,-z
x,y,-z
1/2-x,1/2+y,1/2+z
1/2+x,1/2-y,1/2+z
loop_
_atom_site_type_symbol
_atom_site_label
_atom_site_fract_x
_atom_site_fract_y
_atom_site_fract_z
Si Si1 0.287947 0.682832 0.183543
Si Si2 0.698682 0.681505 0.182780
Si Si3 0.885221 0.003934 0.324379
Si Si4 0.601548 0.596126 0.680608
Si Si5 0.600443 0.767779 0.684104
Si Si6 0.886568 0.731501 0.816556
Si Si7 0.609613 0.406367 0.184873
O O1 0.181166 0.696657 0.227962
O O2 0.355533 0.721099 0.249434
O O3 0.323670 0.634376 0.230984
O O4 0.293247 0.684514 0.000000
O O5 0.665495 0.635191 0.251788
O O6 0.631436 0.720983 0.243737
O O7 0.805183 0.696426 0.227666
O O8 0.692799 0.679667 0.000000
O O9 0.855924 0.010674 0.500000
O O10 0.861480 0.047375 0.228605
O O11 0.853297 0.955286 0.269421
O O12 0.000000 0.000000 0.323669
O O13 0.596433 0.599774 0.500000
O O14 0.495511 0.600599 0.749206
O O15 0.602958 0.763316 0.500000
O O16 0.493612 0.779692 0.729579
O O17 0.884205 0.734773 0.000000
O O18 0.601793 0.407194 0.000000
#
# Coordination Sequence:
#
# PCOD9441534 Si02
#       7
#     8   8   8   8   8   8   8
#     4   9  17  28  44  64  85 110 139 169 203 244
#     4  10  19  30  43  60  83 113 144 169 202 249
#     4   8  15  28  43  59  83 112 139 167 203 250
#     4  11  20  28  41  62  86 111 140 175 210 242
#     4   9  17  30  45  63  86 109 137 175 210 238
#     4   9  18  30  43  60  84 112 140 171 205 241
#     4   9  17  29  44  63  87 115 141 165 202 252
#
# _framework density 15.006848
#
# number of rings (size 3 to 8) (size 9 to 14) (size 15 to 20)
#    0.000    2.714    0.000    3.429    0.000    6.571 
#    0.000    0.000    0.000    0.000    0.000    1.000 
#    0.000    8.000    0.000    0.000    0.000    0.000 
#
# Total GULP energy -311993.149640 kJ/mol
# GULP energy per Si atom -5571.306244 kJ/mol
# Density = 1.497269 g / cm^3
# Si number density = 15.006848 Si / 1000 Ang^3
#
#
#
# Elastic Constant Matrix: (Units=GPa)
#
#
# Indices 1 2 3 4 5 6 
#
# 1 93.9617 65.0342 24.3804 0.0000 0.0000 0.0000
# 2 65.0342 148.0734 36.3633 0.0000 0.0000 0.0000
# 3 24.3804 36.3633 26.7055 0.0000 0.0000 0.0000
# 4 0.0000 0.0000 0.0000 22.1987 0.0000 0.0000
# 5 0.0000 0.0000 0.0000 0.0000 12.4090 0.0000
# 6 0.0000 0.0000 0.0000 0.0000 0.0000 21.7228
#
#
#
# Elastic Compliance Matrix: (Units=1/GPa)
#
#
# Indices 1 2 3 4 5 6 
#
# 1 0.016281 -0.005259 -0.007703 0.000000 0.000000 0.000000
# 2 -0.005259 0.011845 -0.011327 0.000000 0.000000 0.000000
# 3 -0.007703 -0.011327 0.059901 0.000000 0.000000 0.000000
# 4 0.000000 0.000000 0.000000 0.045048 0.000000 0.000000
# 5 0.000000 0.000000 0.000000 0.000000 0.080587 0.000000
# 6 0.000000 0.000000 0.000000 0.000000 0.000000 0.046035
#
#
# Mechanical properties :
#
#
# Convention : Reuss Voigt Hill
#
# Bulk Modulus (GPa) = 25.34904 57.81072 41.57988
# Shear Modulus (GPa) = 15.55576 20.79695 18.17636
#
# Velocity S-wave (km/s) = 3.22309 3.72671 3.48401
# Velocity P-wave (km/s) = 5.54791 7.55807 6.62962
#
# Compressibility (1/GPa) = 0.03944923
#
# Stress axis : x y z
#
# Youngs Moduli (GPa) = 61.42001 84.42388 16.69417
#
# Poissons Ratio (x) = 0.44400 0.12859
# Poissons Ratio (y) = 0.32302 0.18910
# Poissons Ratio (z) = 0.47309 0.95630
#
# Static dielectric constant tensor:
#      x y z
#    x 1.492830 0.000000 0.000000 
#    y 0.000000 1.502990 0.000000 
#    z 0.000000 0.000000 1.505030 
# 
# From -- ./inp_files/7110.got.cif
#   From: 2010.05.17/outbox.cif.g08.bks.cpg/sg58_4_cif.got.tgz:7110.got - 2010.06.03 14:20:14.
