data_PCOD9441173
_publ_section_title
;
Structure prediction by ZEFSAII (Michael W. Deem and Ramdas Pophale) SiO2 
 PCOD9441173
Probable space group: P N N M
;
_chemical_formula_sum "Si O2"
_cell_formula_units_Z 64
_cell_length_a 19.837390
_cell_length_b 21.206974
_cell_length_c 7.947310
_cell_angle_alpha 90.000000
_cell_angle_beta 90.000000
_cell_angle_gamma 90.000000
_cell_volume 3343.361902
_symmetry_space_group_name_H-M "P N N M"
_symmetry_group_IT_number 58
_symmetry_cell_setting 'orthorhombic'
loop_
_space_group_symop_operation_xyz
x,y,z
-x,-y,z
1/2+x,1/2-y,1/2-z
1/2-x,1/2+y,1/2-z
-x,-y,-z
x,y,-z
1/2-x,1/2+y,1/2+z
1/2+x,1/2-y,1/2+z
loop_
_atom_site_type_symbol
_atom_site_label
_atom_site_fract_x
_atom_site_fract_y
_atom_site_fract_z
Si Si1 0.964350 0.191532 0.801985
Si Si2 0.183466 0.515465 0.802762
Si Si3 0.041831 0.561571 0.794303
Si Si4 0.328584 0.365518 0.705541
Si Si5 0.821957 0.627665 0.700177
Si Si6 0.833580 0.989328 0.196529
Si Si7 0.959982 0.685125 0.203916
Si Si8 0.966773 0.935292 0.695480
O O1 0.889504 0.177797 0.732183
O O2 0.005836 0.250645 0.732475
O O3 0.005630 0.126798 0.783581
O O4 0.955483 0.204672 0.000000
O O5 0.119057 0.553961 0.738232
O O6 0.166629 0.441106 0.781443
O O7 0.255254 0.527503 0.717806
O O8 0.191889 0.528439 0.000000
O O9 0.000000 0.500000 0.740433
O O10 0.004343 0.624962 0.741082
O O11 0.042673 0.560945 0.000000
O O12 0.330618 0.365550 0.500000
O O13 0.252211 0.348889 0.755106
O O14 0.340731 0.438229 0.758467
O O15 0.818888 0.617062 0.500000
O O16 0.883495 0.673320 0.740163
O O17 0.886851 0.944945 0.287553
O O18 0.850731 0.988318 0.000000
O O19 0.959283 0.685559 0.000000
O O20 0.985802 0.930052 0.500000
O O21 0.000000 0.000000 0.763539
#
# Coordination Sequence:
#
# PCOD9441173 Si02
#       8
#     8   8   8   8   8   8   8   8
#     4  10  20  36  57  78 104 140 183 224 269 325
#     4  10  18  31  53  79 110 142 180 229 276 316
#     4   9  16  30  52  77 106 140 177 220 269 322
#     4   8  16  31  51  75 101 136 177 217 262 322
#     4  10  19  32  51  77 108 141 180 223 275 330
#     4  10  19  33  54  79 110 142 179 222 273 327
#     4  10  20  35  55  79 105 142 187 223 268 330
#     4  11  22  35  54  82 110 137 176 221 270 324
#
# _framework density 19.142409000000001
#
# number of rings (size 3 to 8) (size 9 to 14) (size 15 to 20)
#    0.000    2.250    2.500    2.250    0.000    1.000 
#    0.000    3.750    0.000    3.000    0.000    0.000 
#    0.000    0.000    0.000    0.000    0.000    0.000 
#
# Total GULP energy -357083.397133 kJ/mol
# GULP energy per Si atom -5579.428080 kJ/mol
# Density = 1.909884 g / cm^3
# Si number density = 19.142409 Si / 1000 Ang^3
#
#
#
# Elastic Constant Matrix: (Units=GPa)
#
#
# Indices 1 2 3 4 5 6 
#
# 1 154.4553 62.8754 -5.2899 0.0000 0.0000 0.0000
# 2 62.8754 90.2401 -4.8045 0.0000 0.0000 0.0000
# 3 -5.2899 -4.8045 21.5167 0.0000 0.0000 0.0000
# 4 0.0000 0.0000 0.0000 20.8718 0.0000 0.0000
# 5 0.0000 0.0000 0.0000 0.0000 20.7540 0.0000
# 6 0.0000 0.0000 0.0000 0.0000 0.0000 27.4612
#
#
#
# Elastic Compliance Matrix: (Units=1/GPa)
#
#
# Indices 1 2 3 4 5 6 
#
# 1 0.009052 -0.006263 0.000827 0.000000 0.000000 0.000000
# 2 -0.006263 0.015548 0.001932 0.000000 0.000000 0.000000
# 3 0.000827 0.001932 0.047110 0.000000 0.000000 0.000000
# 4 0.000000 0.000000 0.000000 0.047911 0.000000 0.000000
# 5 0.000000 0.000000 0.000000 0.000000 0.048183 0.000000
# 6 0.000000 0.000000 0.000000 0.000000 0.000000 0.036415
#
#
# Mechanical properties :
#
#
# Convention : Reuss Voigt Hill
#
# Bulk Modulus (GPa) = 15.45538 41.30824 28.38181
# Shear Modulus (GPa) = 21.47796 28.04614 24.76205
#
# Velocity S-wave (km/s) = 3.35327 3.83186 3.60053
# Velocity P-wave (km/s) = 4.80458 6.41902 5.66956
#
# Compressibility (1/GPa) = 0.06470238
#
# Stress axis : x y z
#
# Youngs Moduli (GPa) = 110.46898 64.31548 21.22683
#
# Poissons Ratio (x) = 0.40282 -0.01755
# Poissons Ratio (y) = 0.69189 -0.04101
# Poissons Ratio (z) = -0.09136 -0.12426
#
# Static dielectric constant tensor:
#      x y z
#    x 1.688340 0.000000 0.000000 
#    y 0.000000 1.638520 0.000000 
#    z 0.000000 0.000000 1.692260 
# 
# From -- ./inp_files/9269.got.cif
#   From: 2010.05.17/outbox.cif.g08.bks.cpg/sg58_5_cif.got.tgz:9269.got - 2010.06.03 14:20:14.
