data_PCOD9441978
_publ_section_title
;
Structure prediction by ZEFSAII (Michael W. Deem and Ramdas Pophale) SiO2 
 PCOD9441978
Probable space group: P N N M
;
_chemical_formula_sum "Si O2"
_cell_formula_units_Z 56
_cell_length_a 19.799902
_cell_length_b 19.553286
_cell_length_c 8.834443
_cell_angle_alpha 90.000000
_cell_angle_beta 90.000000
_cell_angle_gamma 90.000000
_cell_volume 3420.282406
_symmetry_space_group_name_H-M "P N N M"
_symmetry_group_IT_number 58
_symmetry_cell_setting 'orthorhombic'
loop_
_space_group_symop_operation_xyz
x,y,z
-x,-y,z
1/2+x,1/2-y,1/2-z
1/2-x,1/2+y,1/2-z
-x,-y,-z
x,y,-z
1/2-x,1/2+y,1/2+z
1/2+x,1/2-y,1/2+z
loop_
_atom_site_type_symbol
_atom_site_label
_atom_site_fract_x
_atom_site_fract_y
_atom_site_fract_z
Si Si1 0.657384 0.727018 0.818754
Si Si2 0.795853 0.479649 0.819881
Si Si3 0.868255 0.742825 0.682518
Si Si4 0.734436 0.346394 0.679879
Si Si5 0.441468 0.054498 0.817512
Si Si6 0.480826 0.208233 0.184228
Si Si7 0.760899 0.624985 0.319484
O O1 0.702547 0.794906 0.790470
O O2 0.581281 0.743588 0.769243
O O3 0.694475 0.664906 0.736460
O O4 0.658428 0.715293 0.000000
O O5 0.749747 0.417919 0.758712
O O6 0.871202 0.466016 0.757609
O O7 0.770737 0.552358 0.758343
O O8 0.796278 0.479548 0.000000
O O9 0.866883 0.750588 0.500000
O O10 0.830731 0.806882 0.757198
O O11 0.823586 0.675562 0.718739
O O12 0.945176 0.732024 0.733161
O O13 0.729708 0.355657 0.500000
O O14 0.464621 0.130357 0.770129
O O15 0.500000 0.000000 0.783315
O O16 0.431637 0.055072 0.000000
O O17 0.481374 0.207948 0.000000
O O18 0.759766 0.616588 0.500000
#
# Coordination Sequence:
#
# PCOD9441978 Si02
#       7
#     8   8   8   8   8   8   8
#     4   9  17  32  53  75 101 135 177 217 259 310
#     4  12  23  34  51  76 107 140 178 221 265 310
#     4   9  18  33  54  79 105 136 176 215 256 310
#     4  10  19  34  54  75 103 138 178 218 262 313
#     4  10  19  33  53  77 109 147 179 207 254 319
#     4   9  16  30  52  77 105 139 173 210 255 311
#     4  10  20  34  52  75 104 137 177 219 263 314
#
# _framework density 16.372917000000001
#
# number of rings (size 3 to 8) (size 9 to 14) (size 15 to 20)
#    0.000    2.143    1.429    3.000    0.000    3.714 
#    0.000    1.429    0.000    0.857    0.000    6.000 
#    0.000    0.000    0.000    0.000    0.000    0.000 
#
# Total GULP energy -312554.262348 kJ/mol
# GULP energy per Si atom -5581.326113 kJ/mol
# Density = 1.633565 g / cm^3
# Si number density = 16.372917 Si / 1000 Ang^3
#
#
#
# Elastic Constant Matrix: (Units=GPa)
#
#
# Indices 1 2 3 4 5 6 
#
# 1 137.4815 104.9242 51.6056 0.0000 0.0000 0.0000
# 2 104.9242 135.9782 58.9091 0.0000 0.0000 0.0000
# 3 51.6056 58.9091 45.7296 0.0000 0.0000 0.0000
# 4 0.0000 0.0000 0.0000 23.0366 0.0000 0.0000
# 5 0.0000 0.0000 0.0000 0.0000 25.2997 0.0000
# 6 0.0000 0.0000 0.0000 0.0000 0.0000 19.7955
#
#
#
# Elastic Compliance Matrix: (Units=1/GPa)
#
#
# Indices 1 2 3 4 5 6 
#
# 1 0.018299 -0.011707 -0.005569 0.000000 0.000000 0.000000
# 2 -0.011707 0.024132 -0.017875 0.000000 0.000000 0.000000
# 3 -0.005569 -0.017875 0.051178 0.000000 0.000000 0.000000
# 4 0.000000 0.000000 0.000000 0.043409 0.000000 0.000000
# 5 0.000000 0.000000 0.000000 0.000000 0.039526 0.000000
# 6 0.000000 0.000000 0.000000 0.000000 0.000000 0.050516
#
#
# Mechanical properties :
#
#
# Convention : Reuss Voigt Hill
#
# Bulk Modulus (GPa) = 42.90536 83.34079 63.12307
# Shear Modulus (GPa) = 16.38638 20.54306 18.46472
#
# Velocity S-wave (km/s) = 3.16701 3.54601 3.36186
# Velocity P-wave (km/s) = 6.29565 8.23272 7.32847
#
# Compressibility (1/GPa) = 0.02330711
#
# Stress axis : x y z
#
# Youngs Moduli (GPa) = 54.64784 41.43925 19.53957
#
# Poissons Ratio (x) = 0.48515 0.10881
# Poissons Ratio (y) = 0.63979 0.34927
# Poissons Ratio (z) = 0.30431 0.74072
#
# Static dielectric constant tensor:
#      x y z
#    x 1.541210 0.000000 0.000000 
#    y 0.000000 1.525390 0.000000 
#    z 0.000000 0.000000 1.549130 
# 
# From -- ./inp_files/9168.got.cif
#   From: 2010.05.17/outbox.cif.g08.bks.cpg/sg58_5_cif.got.tgz:9168.got - 2010.06.03 14:20:14.
