data_PCOD9441671
_publ_section_title
;
Structure prediction by ZEFSAII (Michael W. Deem and Ramdas Pophale) SiO2 
 PCOD9441671
Probable space group: P N N M
;
_chemical_formula_sum "Si O2"
_cell_formula_units_Z 40
_cell_length_a 6.927324
_cell_length_b 13.231936
_cell_length_c 19.656800
_cell_angle_alpha 90.000000
_cell_angle_beta 90.000000
_cell_angle_gamma 90.000000
_cell_volume 1801.779790
_symmetry_space_group_name_H-M "P N N M"
_symmetry_group_IT_number 58
_symmetry_cell_setting 'orthorhombic'
loop_
_space_group_symop_operation_xyz
x,y,z
-x,-y,z
1/2+x,1/2-y,1/2-z
1/2-x,1/2+y,1/2-z
-x,-y,-z
x,y,-z
1/2-x,1/2+y,1/2+z
1/2+x,1/2-y,1/2+z
loop_
_atom_site_type_symbol
_atom_site_label
_atom_site_fract_x
_atom_site_fract_y
_atom_site_fract_z
Si Si1 0.665347 0.724043 0.422247
Si Si2 0.256249 0.116409 0.314568
Si Si3 0.727293 0.529012 0.360965
Si Si4 0.718403 0.104889 0.708647
Si Si5 0.781498 0.816094 0.834530
O O1 0.644708 0.754971 0.500000
O O2 0.771267 0.807823 0.376668
O O3 0.764843 0.614284 0.416339
O O4 0.457042 0.706682 0.385987
O O5 0.487918 0.118050 0.300089
O O6 0.162710 0.150946 0.243027
O O7 0.215603 0.998482 0.327069
O O8 0.500000 0.500000 0.366059
O O9 0.753289 0.583845 0.288420
O O10 0.824919 0.418126 0.360351
O O11 0.811441 0.206637 0.678937
#
# Coordination Sequence:
#
# PCOD9441671 Si02
#       5
#     8   8   8   8   8
#     4  10  19  31  49  76 105 130 163 209 259 298
#     4   9  17  30  48  70  98 132 169 208 247 298
#     4   9  17  28  46  72 100 129 163 207 249 288
#     4   9  16  29  47  70  97 128 172 209 241 291
#     4   9  17  29  47  69  97 132 167 202 245 296
#
# _framework density 22.200271999999998
#
# number of rings (size 3 to 8) (size 9 to 14) (size 15 to 20)
#    0.000    2.800    2.000    0.000    0.000    3.600 
#    0.000    8.000    0.000    1.200    0.000    9.800 
#    0.000   22.800    0.000    0.000    0.000    0.000 
#
# Total GULP energy -223026.329268 kJ/mol
# GULP energy per Si atom -5575.658232 kJ/mol
# Density = 2.214974 g / cm^3
# Si number density = 22.200272 Si / 1000 Ang^3
#
#
#
# Elastic Constant Matrix: (Units=GPa)
#
#
# Indices 1 2 3 4 5 6 
#
# 1 77.8114 -5.8652 18.8502 0.0000 0.0000 0.0000
# 2 -5.8652 186.7349 59.5467 0.0000 0.0000 0.0000
# 3 18.8502 59.5467 112.7473 0.0000 0.0000 0.0000
# 4 0.0000 0.0000 0.0000 16.1822 0.0000 0.0000
# 5 0.0000 0.0000 0.0000 0.0000 18.3913 0.0000
# 6 0.0000 0.0000 0.0000 0.0000 0.0000 5.8504
#
#
#
# Elastic Compliance Matrix: (Units=1/GPa)
#
#
# Indices 1 2 3 4 5 6 
#
# 1 0.013690 0.001395 -0.003025 0.000000 0.000000 0.000000
# 2 0.001395 0.006582 -0.003709 0.000000 0.000000 0.000000
# 3 -0.003025 -0.003709 0.011334 0.000000 0.000000 0.000000
# 4 0.000000 0.000000 0.000000 0.061796 0.000000 0.000000
# 5 0.000000 0.000000 0.000000 0.000000 0.054374 0.000000
# 6 0.000000 0.000000 0.000000 0.000000 0.000000 0.170929
#
#
# Mechanical properties :
#
#
# Convention : Reuss Voigt Hill
#
# Bulk Modulus (GPa) = 47.78799 58.03966 52.91382
# Shear Modulus (GPa) = 14.86506 28.40224 21.63365
#
# Velocity S-wave (km/s) = 2.59045 3.58070 3.12505
# Velocity P-wave (km/s) = 5.52447 6.57994 6.07517
#
# Compressibility (1/GPa) = 0.02092576
#
# Stress axis : x y z
#
# Youngs Moduli (GPa) = 73.04796 151.93321 88.22803
#
# Poissons Ratio (x) = -0.21191 0.26692
# Poissons Ratio (y) = -0.10188 0.32727
# Poissons Ratio (z) = 0.22100 0.56357
#
# Static dielectric constant tensor:
#      x y z
#    x 1.915180 0.000000 0.000000 
#    y 0.000000 1.927340 0.000000 
#    z 0.000000 0.000000 1.728790 
# 
# From -- ./inp_files/20987.got.cif
#   From: 2010.05.17/outbox.cif.g08.bks.cpg/sg58_11_cif.got.tgz:20987.got - 2010.06.03 14:20:14.
