data_PCOD9441090
_publ_section_title
;
Structure prediction by ZEFSAII (Michael W. Deem and Ramdas Pophale) SiO2 
 PCOD9441090
Probable space group: P N N M
;
_chemical_formula_sum "Si O2"
_cell_formula_units_Z 64
_cell_length_a 23.875170
_cell_length_b 19.673998
_cell_length_c 8.707210
_cell_angle_alpha 90.000000
_cell_angle_beta 90.000000
_cell_angle_gamma 90.000000
_cell_volume 4089.951089
_symmetry_space_group_name_H-M "P N N M"
_symmetry_group_IT_number 58
_symmetry_cell_setting 'orthorhombic'
loop_
_space_group_symop_operation_xyz
x,y,z
-x,-y,z
1/2+x,1/2-y,1/2-z
1/2-x,1/2+y,1/2-z
-x,-y,-z
x,y,-z
1/2-x,1/2+y,1/2+z
1/2+x,1/2-y,1/2+z
loop_
_atom_site_type_symbol
_atom_site_label
_atom_site_fract_x
_atom_site_fract_y
_atom_site_fract_z
Si Si1 0.064838 0.640231 0.682526
Si Si2 0.749109 0.999922 0.314953
Si Si3 0.664346 0.776009 0.317108
Si Si4 0.275061 0.349657 0.814451
Si Si5 0.729465 0.356855 0.684320
Si Si6 0.882491 0.496904 0.815141
Si Si7 0.058980 0.359505 0.185762
Si Si8 0.661694 0.229256 0.314001
O O1 0.067326 0.644400 0.500000
O O2 0.105698 0.696563 0.754862
O O3 0.088474 0.567233 0.736990
O O4 0.001618 0.647611 0.740964
O O5 0.751543 0.995282 0.500000
O O6 0.776567 0.071566 0.269506
O O7 0.776211 0.933164 0.243027
O O8 0.683072 0.001172 0.273015
O O9 0.665585 0.779821 0.500000
O O10 0.680197 0.700637 0.260383
O O11 0.713086 0.825070 0.250424
O O12 0.213676 0.319815 0.772458
O O13 0.279589 0.344962 0.000000
O O14 0.733087 0.355693 0.500000
O O15 0.680252 0.304819 0.733243
O O16 0.913892 0.567066 0.777780
O O17 0.885342 0.487866 0.000000
O O18 0.103348 0.302338 0.238807
O O19 0.053870 0.356201 0.000000
O O20 0.659511 0.228737 0.500000
#
# Coordination Sequence:
#
# PCOD9441090 Si02
#       8
#     8   8   8   8   8   8   8   8
#     4  12  24  35  47  68  99 134 169 212 252 289
#     4  10  18  30  51  76 103 135 167 197 239 298
#     4  11  21  34  50  70  95 129 169 208 248 297
#     4   9  17  32  52  74  99 128 161 202 248 293
#     4  10  19  31  50  74 101 130 162 205 249 292
#     4  10  19  32  50  71  98 135 174 203 232 287
#     4  10  19  34  53  70  93 133 175 207 239 291
#     4   8  15  30  50  70  93 125 164 201 242 287
#
# _framework density 15.648109
#
# number of rings (size 3 to 8) (size 9 to 14) (size 15 to 20)
#    0.000    2.000    2.500    3.750    0.000    2.500 
#    0.000    3.125    0.000    0.000    0.000    0.875 
#    0.000    7.000    0.000    0.000    0.000    0.000 
#
# Total GULP energy -357113.960513 kJ/mol
# GULP energy per Si atom -5579.905633 kJ/mol
# Density = 1.561249 g / cm^3
# Si number density = 15.648109 Si / 1000 Ang^3
#
#
#
# Elastic Constant Matrix: (Units=GPa)
#
#
# Indices 1 2 3 4 5 6 
#
# 1 93.0963 74.9863 38.0537 0.0000 0.0000 0.0000
# 2 74.9863 156.8372 50.3114 0.0000 0.0000 0.0000
# 3 38.0537 50.3114 44.5754 0.0000 0.0000 0.0000
# 4 0.0000 0.0000 0.0000 128.2062 0.0000 0.0000
# 5 0.0000 0.0000 0.0000 0.0000 -2.3968 0.0000
# 6 0.0000 0.0000 0.0000 0.0000 0.0000 19.4958
#
#
#
# Elastic Compliance Matrix: (Units=1/GPa)
#
#
# Indices 1 2 3 4 5 6 
#
# 1 0.019860 -0.006359 -0.009777 0.000000 0.000000 0.000000
# 2 -0.006359 0.012031 -0.008150 0.000000 0.000000 0.000000
# 3 -0.009777 -0.008150 0.039980 0.000000 0.000000 0.000000
# 4 0.000000 0.000000 0.000000 0.007800 0.000000 0.000000
# 5 0.000000 0.000000 0.000000 0.000000 -0.417218 0.000000
# 6 0.000000 0.000000 0.000000 0.000000 0.000000 0.051293
#
#
# Mechanical properties :
#
#
# Convention : Reuss Voigt Hill
#
# Bulk Modulus (GPa) = 42.92271 69.02352 55.97311
# Shear Modulus (GPa) = -21.74716 37.80486 8.02885
#
# Velocity S-wave (km/s) = -3.73200 4.92055 2.26760
# Velocity P-wave (km/s) = 2.98649 8.74574 6.53480
#
# Compressibility (1/GPa) = 0.02329769
#
# Stress axis : x y z
#
# Youngs Moduli (GPa) = 50.35252 83.11892 25.01266
#
# Poissons Ratio (x) = 0.52856 0.24455
# Poissons Ratio (y) = 0.32019 0.20386
# Poissons Ratio (z) = 0.49230 0.67746
#
# Static dielectric constant tensor:
#      x y z
#    x 1.500080 0.000000 0.000000 
#    y 0.000000 1.527490 0.000000 
#    z 0.000000 0.000000 1.527610 
# 
# From -- ./inp_files/9415.got.cif
#   From: 2010.05.17/outbox.cif.g08.bks.cpg/sg58_5_cif.got.tgz:9415.got - 2010.06.03 14:20:14.
