data_PCOD9441051
_publ_section_title
;
Structure prediction by ZEFSAII (Michael W. Deem and Ramdas Pophale) SiO2 
 PCOD9441051
Probable space group: P N N M
;
_chemical_formula_sum "Si O2"
_cell_formula_units_Z 64
_cell_length_a 15.006450
_cell_length_b 26.005368
_cell_length_c 7.619253
_cell_angle_alpha 90.000000
_cell_angle_beta 90.000000
_cell_angle_gamma 90.000000
_cell_volume 2973.400185
_symmetry_space_group_name_H-M "P N N M"
_symmetry_group_IT_number 58
_symmetry_cell_setting 'orthorhombic'
loop_
_space_group_symop_operation_xyz
x,y,z
-x,-y,z
1/2+x,1/2-y,1/2-z
1/2-x,1/2+y,1/2-z
-x,-y,-z
x,y,-z
1/2-x,1/2+y,1/2+z
1/2+x,1/2-y,1/2+z
loop_
_atom_site_type_symbol
_atom_site_label
_atom_site_fract_x
_atom_site_fract_y
_atom_site_fract_z
Si Si1 0.867810 0.661841 0.298877
Si Si2 0.633310 0.915014 0.715168
Si Si3 0.236924 0.491285 0.213695
Si Si4 0.152161 0.702049 0.785336
Si Si5 0.853820 0.775329 0.288997
Si Si6 0.185897 0.888691 0.705618
Si Si7 0.944319 0.560066 0.199636
Si Si8 0.546583 0.695446 0.292375
O O1 0.898548 0.662236 0.500000
O O2 0.873377 0.718161 0.221337
O O3 0.765449 0.643166 0.295404
O O4 0.925923 0.620752 0.198604
O O5 0.630976 0.914369 0.500000
O O6 0.629021 0.855909 0.773025
O O7 0.543148 0.944583 0.773831
O O8 0.719154 0.949515 0.767942
O O9 0.311024 0.448668 0.265883
O O10 0.145609 0.463399 0.276551
O O11 0.241305 0.493561 0.000000
O O12 0.255269 0.709435 0.730065
O O13 0.091711 0.750699 0.725414
O O14 0.148531 0.702134 0.000000
O O15 0.847758 0.772359 0.500000
O O16 0.941594 0.807338 0.245870
O O17 0.209987 0.889577 0.500000
O O18 0.097871 0.854960 0.725518
O O19 0.944293 0.541820 0.000000
O O20 0.559625 0.696245 0.500000
#
# Coordination Sequence:
#
# PCOD9441051 Si02
#       8
#     8   8   8   8   8   8   8   8
#     4  10  18  30  47  68 102 138 168 205 249 298
#     4   9  15  26  47  72  99 132 167 209 259 305
#     4   8  15  26  44  72 101 129 166 212 256 299
#     4   9  18  32  49  72 105 135 164 206 254 305
#     4  10  20  34  49  71 103 135 167 210 257 299
#     4  10  19  32  51  74 100 129 166 209 249 295
#     4   9  16  26  44  73 103 130 169 212 252 303
#     4  11  21  35  54  78 103 132 171 210 255 312
#
# _framework density 21.524179
#
# number of rings (size 3 to 8) (size 9 to 14) (size 15 to 20)
#    0.000    2.500    1.250    3.000    0.000    3.500 
#    0.000    0.000    0.000    8.250    0.000    5.250 
#    0.000    0.000    0.000    0.000    0.000    0.000 
#
# Total GULP energy -356643.535830 kJ/mol
# GULP energy per Si atom -5572.555247 kJ/mol
# Density = 2.147519 g / cm^3
# Si number density = 21.524179 Si / 1000 Ang^3
#
#
#
# Elastic Constant Matrix: (Units=GPa)
#
#
# Indices 1 2 3 4 5 6 
#
# 1 59.2667 -4.8254 -3.7397 0.0000 0.0000 0.0000
# 2 -4.8254 39.3098 4.2797 0.0000 0.0000 0.0000
# 3 -3.7397 4.2797 47.1728 0.0000 0.0000 0.0000
# 4 0.0000 0.0000 0.0000 -4.9413 0.0000 0.0000
# 5 0.0000 0.0000 0.0000 0.0000 17.1373 0.0000
# 6 0.0000 0.0000 0.0000 0.0000 0.0000 27.1000
#
#
#
# Elastic Compliance Matrix: (Units=1/GPa)
#
#
# Indices 1 2 3 4 5 6 
#
# 1 0.017108 0.001972 0.001177 0.000000 0.000000 0.000000
# 2 0.001972 0.025920 -0.002195 0.000000 0.000000 0.000000
# 3 0.001177 -0.002195 0.021491 0.000000 0.000000 0.000000
# 4 0.000000 0.000000 0.000000 -0.202378 0.000000 0.000000
# 5 0.000000 0.000000 0.000000 0.000000 0.058352 0.000000
# 6 0.000000 0.000000 0.000000 0.000000 0.000000 0.036900
#
#
# Mechanical properties :
#
#
# Convention : Reuss Voigt Hill
#
# Bulk Modulus (GPa) = 15.05418 15.24206 15.14812
# Shear Modulus (GPa) = -223.49580 17.86152 -102.81714
#
# Velocity S-wave (km/s) = -10.20099 2.88381 -6.91895
# Velocity P-wave (km/s) = 11.47770 4.26441 7.53500
#
# Compressibility (1/GPa) = 0.06642675
#
# Stress axis : x y z
#
# Youngs Moduli (GPa) = 58.45317 38.58025 46.53080
#
# Poissons Ratio (x) = -0.07607 -0.05478
# Poissons Ratio (y) = -0.11526 0.10215
# Poissons Ratio (z) = -0.06882 0.08469
#
# Static dielectric constant tensor:
#      x y z
#    x 1.784870 0.000000 0.000000 
#    y 0.000000 1.840990 0.000000 
#    z 0.000000 0.000000 1.822460 
# 
# From -- ./inp_files/7187.got.cif
#   From: 2010.05.17/outbox.cif.g08.bks.cpg/sg58_4_cif.got.tgz:7187.got - 2010.06.03 14:20:14.
