data_PCOD9441400
_publ_section_title
;
Structure prediction by ZEFSAII (Michael W. Deem and Ramdas Pophale) SiO2 
 PCOD9441400
Probable space group: P N N M
;
_chemical_formula_sum "Si O2"
_cell_formula_units_Z 64
_cell_length_a 22.990360
_cell_length_b 17.131063
_cell_length_c 7.464208
_cell_angle_alpha 90.000000
_cell_angle_beta 90.000000
_cell_angle_gamma 90.000000
_cell_volume 2939.773137
_symmetry_space_group_name_H-M "P N N M"
_symmetry_group_IT_number 58
_symmetry_cell_setting 'orthorhombic'
loop_
_space_group_symop_operation_xyz
x,y,z
-x,-y,z
1/2+x,1/2-y,1/2-z
1/2-x,1/2+y,1/2-z
-x,-y,-z
x,y,-z
1/2-x,1/2+y,1/2+z
1/2+x,1/2-y,1/2+z
loop_
_atom_site_type_symbol
_atom_site_label
_atom_site_fract_x
_atom_site_fract_y
_atom_site_fract_z
Si Si1 0.857586 0.346461 0.280542
Si Si2 0.643179 0.140730 0.283834
Si Si3 0.494689 0.587232 0.710384
Si Si4 0.615293 0.671732 0.216854
Si Si5 0.231376 0.914244 0.286394
Si Si6 0.731636 0.401507 0.285357
Si Si7 0.935149 0.490391 0.287692
Si Si8 0.884883 0.814174 0.780318
O O1 0.856846 0.347565 0.500000
O O2 0.879688 0.261568 0.225581
O O3 0.791612 0.363120 0.220672
O O4 0.898914 0.416572 0.217574
O O5 0.645794 0.143345 0.500000
O O6 0.708615 0.123164 0.217544
O O7 0.601877 0.068826 0.235756
O O8 0.619260 0.224233 0.222449
O O9 0.500000 0.500000 0.787754
O O10 0.481076 0.577420 0.500000
O O11 0.555851 0.630998 0.726409
O O12 0.442025 0.639864 0.782668
O O13 0.672269 0.625072 0.281703
O O14 0.615766 0.670692 0.000000
O O15 0.231507 0.901589 0.500000
O O16 0.231581 0.006672 0.254528
O O17 0.731663 0.393111 0.500000
O O18 0.673276 0.359378 0.221474
O O19 0.941115 0.476238 0.500000
O O20 0.000000 0.500000 0.213032
O O21 0.885504 0.813456 0.000000
#
# Coordination Sequence:
#
# PCOD9441400 Si02
#       8
#     8   8   8   8   8   8   8   8
#     4   9  18  34  55  80 106 138 179 218 260 316
#     4  10  20  36  56  79 108 142 180 219 265 319
#     4  10  21  38  56  79 110 140 177 224 270 315
#     4  10  21  36  56  80 108 143 181 220 267 322
#     4  10  20  34  53  80 111 138 173 224 270 310
#     4  10  18  34  60  81 103 141 184 219 264 321
#     4  10  21  36  55  81 113 143 176 221 268 315
#     4   9  19  34  55  80 105 138 179 222 265 316
#
# _framework density 21.770385999999998
#
# number of rings (size 3 to 8) (size 9 to 14) (size 15 to 20)
#    0.000    2.250    1.250    1.500    1.750    5.000 
#    0.000    2.500    0.000    1.500    0.000    0.000 
#    0.000    0.000    0.000    0.000    0.000    0.000 
#
# Total GULP energy -357715.833971 kJ/mol
# GULP energy per Si atom -5589.309906 kJ/mol
# Density = 2.172084 g / cm^3
# Si number density = 21.770386 Si / 1000 Ang^3
#
#
#
# Elastic Constant Matrix: (Units=GPa)
#
#
# Indices 1 2 3 4 5 6 
#
# 1 203.3383 106.0612 -11.0663 0.0000 0.0000 0.0000
# 2 106.0612 188.7135 -17.9446 0.0000 0.0000 0.0000
# 3 -11.0663 -17.9446 56.8488 0.0000 0.0000 0.0000
# 4 0.0000 0.0000 0.0000 19.3831 0.0000 0.0000
# 5 0.0000 0.0000 0.0000 0.0000 10.6548 0.0000
# 6 0.0000 0.0000 0.0000 0.0000 0.0000 44.6349
#
#
#
# Elastic Compliance Matrix: (Units=1/GPa)
#
#
# Indices 1 2 3 4 5 6 
#
# 1 0.006958 -0.003899 0.000124 0.000000 0.000000 0.000000
# 2 -0.003899 0.007648 0.001655 0.000000 0.000000 0.000000
# 3 0.000124 0.001655 0.018137 0.000000 0.000000 0.000000
# 4 0.000000 0.000000 0.000000 0.051591 0.000000 0.000000
# 5 0.000000 0.000000 0.000000 0.000000 0.093854 0.000000
# 6 0.000000 0.000000 0.000000 0.000000 0.000000 0.022404
#
#
# Mechanical properties :
#
#
# Convention : Reuss Voigt Hill
#
# Bulk Modulus (GPa) = 35.08420 67.00015 51.04217
# Shear Modulus (GPa) = 23.32809 39.72457 31.52633
#
# Velocity S-wave (km/s) = 3.27701 4.27629 3.80956
# Velocity P-wave (km/s) = 5.51987 7.43134 6.54575
#
# Compressibility (1/GPa) = 0.02850286
#
# Stress axis : x y z
#
# Youngs Moduli (GPa) = 143.71203 130.75775 55.13582
#
# Poissons Ratio (x) = 0.50982 -0.00683
# Poissons Ratio (y) = 0.56033 -0.09125
# Poissons Ratio (z) = -0.01779 -0.21641
#
# Static dielectric constant tensor:
#      x y z
#    x 1.754520 0.000000 0.000000 
#    y 0.000000 1.742350 0.000000 
#    z 0.000000 0.000000 1.841110 
# 
# From -- ./inp_files/16555.got.cif
#   From: 2010.05.17/outbox.cif.g08.bks.cpg/sg58_9_cif.got.tgz:16555.got - 2010.06.03 14:20:14.
