data_PCOD9441232
_publ_section_title
;
Structure prediction by ZEFSAII (Michael W. Deem and Ramdas Pophale) SiO2 
 PCOD9441232
Probable space group: P N N M
;
_chemical_formula_sum "Si O2"
_cell_formula_units_Z 56
_cell_length_a 19.020683
_cell_length_b 17.955586
_cell_length_c 7.358410
_cell_angle_alpha 90.000000
_cell_angle_beta 90.000000
_cell_angle_gamma 90.000000
_cell_volume 2513.099440
_symmetry_space_group_name_H-M "P N N M"
_symmetry_group_IT_number 58
_symmetry_cell_setting 'orthorhombic'
loop_
_space_group_symop_operation_xyz
x,y,z
-x,-y,z
1/2+x,1/2-y,1/2-z
1/2-x,1/2+y,1/2-z
-x,-y,-z
x,y,-z
1/2-x,1/2+y,1/2+z
1/2+x,1/2-y,1/2+z
loop_
_atom_site_type_symbol
_atom_site_label
_atom_site_fract_x
_atom_site_fract_y
_atom_site_fract_z
Si Si1 0.114438 0.677140 0.288228
Si Si2 0.607513 0.384064 0.221537
Si Si3 0.955499 0.174751 0.277575
Si Si4 0.153257 0.952410 0.719626
Si Si5 0.306404 0.895227 0.211034
Si Si6 0.919201 0.487371 0.722240
Si Si7 0.271887 0.730441 0.220067
O O1 0.095219 0.671011 0.500000
O O2 0.065345 0.742921 0.213397
O O3 0.105800 0.594091 0.213940
O O4 0.194250 0.705671 0.276413
O O5 0.531973 0.353244 0.279371
O O6 0.622789 0.468347 0.279975
O O7 0.670134 0.329441 0.277898
O O8 0.606812 0.384683 0.000000
O O9 0.954891 0.175452 0.500000
O O10 0.896041 0.115708 0.220829
O O11 0.153198 0.952328 0.500000
O O12 0.232993 0.939323 0.778831
O O13 0.292033 0.812934 0.287297
O O14 0.368005 0.946858 0.287578
O O15 0.324566 0.882824 0.000000
O O16 0.915186 0.488199 0.500000
O O17 0.000000 0.500000 0.771942
O O18 0.271059 0.731944 0.000000
#
# Coordination Sequence:
#
# PCOD9441232 Si02
#       7
#     8   8   8   8   8   8   8
#     4  10  19  33  54  76 100 131 167 208 251 295
#     4   9  18  30  49  75  99 125 162 205 245 287
#     4   9  17  29  49  77 101 123 158 206 249 285
#     4  10  18  32  53  75  99 128 162 202 247 296
#     4  10  20  33  50  73 102 133 165 204 249 297
#     4   9  19  33  52  78 104 132 171 216 255 294
#     4  10  20  33  51  74 101 134 168 204 246 297
#
# _framework density 22.283239999999999
#
# number of rings (size 3 to 8) (size 9 to 14) (size 15 to 20)
#    0.000    2.429    1.429    1.286    2.000    1.714 
#    0.000    0.000    0.000    6.000    0.000    0.000 
#    0.000    0.000    0.000    0.000    0.000    0.000 
#
# Total GULP energy -313016.144413 kJ/mol
# GULP energy per Si atom -5589.574007 kJ/mol
# Density = 2.223252 g / cm^3
# Si number density = 22.283240 Si / 1000 Ang^3
#
#
#
# Elastic Constant Matrix: (Units=GPa)
#
#
# Indices 1 2 3 4 5 6 
#
# 1 46.8315 51.6568 -15.8157 0.0000 0.0000 0.0000
# 2 51.6568 177.6446 2.3795 0.0000 0.0000 0.0000
# 3 -15.8157 2.3795 79.9078 0.0000 0.0000 0.0000
# 4 0.0000 0.0000 0.0000 -8.5378 0.0000 0.0000
# 5 0.0000 0.0000 0.0000 0.0000 17.8504 0.0000
# 6 0.0000 0.0000 0.0000 0.0000 0.0000 0.3778
#
#
#
# Elastic Compliance Matrix: (Units=1/GPa)
#
#
# Indices 1 2 3 4 5 6 
#
# 1 0.035213 -0.010337 0.007277 0.000000 0.000000 0.000000
# 2 -0.010337 0.008666 -0.002304 0.000000 0.000000 0.000000
# 3 0.007277 -0.002304 0.014023 0.000000 0.000000 0.000000
# 4 0.000000 0.000000 0.000000 -0.117126 0.000000 0.000000
# 5 0.000000 0.000000 0.000000 0.000000 0.056021 0.000000
# 6 0.000000 0.000000 0.000000 0.000000 0.000000 2.646972
#
#
# Mechanical properties :
#
#
# Convention : Reuss Voigt Hill
#
# Bulk Modulus (GPa) = 21.19772 42.31389 31.75581
# Shear Modulus (GPa) = 1.87250 19.68228 10.77739
#
# Velocity S-wave (km/s) = 0.91768 2.97522 2.20160
# Velocity P-wave (km/s) = 3.26441 5.55274 4.55463
#
# Compressibility (1/GPa) = 0.04717488
#
# Stress axis : x y z
#
# Youngs Moduli (GPa) = 28.39878 115.39460 71.30946
#
# Poissons Ratio (x) = 1.19282 -0.51894
# Poissons Ratio (y) = 0.29356 0.16430
# Poissons Ratio (z) = -0.20667 0.26587
#
# Static dielectric constant tensor:
#      x y z
#    x 1.739780 0.000000 0.000000 
#    y 0.000000 1.794720 0.000000 
#    z 0.000000 0.000000 1.871630 
# 
# From -- ./inp_files/8991.got.cif
#   From: 2010.05.17/outbox.cif.g08.bks.cpg/sg58_5_cif.got.tgz:8991.got - 2010.06.03 14:20:14.
