data_PCOD9441548
_publ_section_title
;
Structure prediction by ZEFSAII (Michael W. Deem and Ramdas Pophale) SiO2 
 PCOD9441548
Probable space group: P N N M
;
_chemical_formula_sum "Si O2"
_cell_formula_units_Z 64
_cell_length_a 8.032067
_cell_length_b 26.806949
_cell_length_c 16.502642
_cell_angle_alpha 90.000000
_cell_angle_beta 90.000000
_cell_angle_gamma 90.000000
_cell_volume 3553.269835
_symmetry_space_group_name_H-M "P N N M"
_symmetry_group_IT_number 58
_symmetry_cell_setting 'orthorhombic'
loop_
_space_group_symop_operation_xyz
x,y,z
-x,-y,z
1/2+x,1/2-y,1/2-z
1/2-x,1/2+y,1/2-z
-x,-y,-z
x,y,-z
1/2-x,1/2+y,1/2+z
1/2+x,1/2-y,1/2+z
loop_
_atom_site_type_symbol
_atom_site_label
_atom_site_fract_x
_atom_site_fract_y
_atom_site_fract_z
Si Si1 0.428374 0.287214 0.405663
Si Si2 0.607963 0.653073 0.243870
Si Si3 0.245801 0.463202 0.406461
Si Si4 0.067263 0.302677 0.589188
Si Si5 0.922442 0.604918 0.285722
Si Si6 0.623597 0.424992 0.592907
Si Si7 0.244086 0.140018 0.759365
Si Si8 0.262646 0.245940 0.163759
O O1 0.459259 0.301270 0.500000
O O2 0.424778 0.331263 0.338537
O O3 0.235902 0.270143 0.402038
O O4 0.578656 0.252625 0.374861
O O5 0.752027 0.612654 0.237122
O O6 0.429391 0.635187 0.211953
O O7 0.677657 0.703410 0.204128
O O8 0.196026 0.454323 0.500000
O O9 0.110949 0.441709 0.344264
O O10 0.286567 0.521489 0.397237
O O11 0.426168 0.436019 0.394074
O O12 0.073607 0.325655 0.500000
O O13 0.068355 0.346497 0.654987
O O14 0.902610 0.270529 0.600046
O O15 0.088321 0.611945 0.232809
O O16 0.644028 0.408737 0.500000
O O17 0.708390 0.386757 0.653986
O O18 0.264641 0.199486 0.772925
#
# Coordination Sequence:
#
# PCOD9441548 Si02
#       8
#     8   8   8   8   8   8   8   8
#     4   9  19  31  46  64  87 119 155 198 245 286
#     4  10  21  33  46  66  94 124 161 209 252 299
#     4   9  17  31  49  66  94 131 165 206 256 296
#     4   9  18  30  44  66  93 117 158 209 246 283
#     4  10  19  30  46  67  90 123 163 203 252 288
#     4   9  18  32  48  69  95 128 166 210 255 293
#     4  10  21  30  46  66  86 115 161 205 245 290
#     4  10  21  31  48  65  91 125 162 203 253 302
#
# _framework density 18.011579000000001
#
# number of rings (size 3 to 8) (size 9 to 14) (size 15 to 20)
#    0.000    2.500    1.250    1.500   10.500    5.500 
#    0.000    1.250    0.000    0.000    0.000    0.000 
#    0.000    0.000    0.000    0.000    0.000   13.750 
#
# Total GULP energy -356474.230052 kJ/mol
# GULP energy per Si atom -5569.909845 kJ/mol
# Density = 1.797058 g / cm^3
# Si number density = 18.011579 Si / 1000 Ang^3
#
#
#
# Elastic Constant Matrix: (Units=GPa)
#
#
# Indices 1 2 3 4 5 6 
#
# 1 119.6611 7.6657 0.5878 0.0000 0.0000 0.0000
# 2 7.6657 49.5791 8.3817 0.0000 0.0000 0.0000
# 3 0.5878 8.3817 16.3690 0.0000 0.0000 0.0000
# 4 0.0000 0.0000 0.0000 10.8190 0.0000 0.0000
# 5 0.0000 0.0000 0.0000 0.0000 8.5030 0.0000
# 6 0.0000 0.0000 0.0000 0.0000 0.0000 21.6913
#
#
#
# Elastic Compliance Matrix: (Units=1/GPa)
#
#
# Indices 1 2 3 4 5 6 
#
# 1 0.008443 -0.001373 0.000400 0.000000 0.000000 0.000000
# 2 -0.001373 0.022305 -0.011372 0.000000 0.000000 0.000000
# 3 0.000400 -0.011372 0.066899 0.000000 0.000000 0.000000
# 4 0.000000 0.000000 0.000000 0.092430 0.000000 0.000000
# 5 0.000000 0.000000 0.000000 0.000000 0.117606 0.000000
# 6 0.000000 0.000000 0.000000 0.000000 0.000000 0.046101
#
#
# Mechanical properties :
#
#
# Convention : Reuss Voigt Hill
#
# Bulk Modulus (GPa) = 13.70667 24.31997 19.01332
# Shear Modulus (GPa) = 12.41334 19.46761 15.94047
#
# Velocity S-wave (km/s) = 2.62808 3.29118 2.97814
# Velocity P-wave (km/s) = 4.10311 5.28906 4.73338
#
# Compressibility (1/GPa) = 0.07295719
#
# Stress axis : x y z
#
# Youngs Moduli (GPa) = 118.44237 44.83386 14.94781
#
# Poissons Ratio (x) = 0.06156 -0.00598
# Poissons Ratio (y) = 0.16262 0.16998
# Poissons Ratio (z) = -0.04736 0.50984
#
# Static dielectric constant tensor:
#      x y z
#    x 1.766540 0.000000 0.000000 
#    y 0.000000 1.626020 0.000000 
#    z 0.000000 0.000000 1.613750 
# 
# From -- ./inp_files/25748.got.cif
#   From: 2010.05.17/outbox.cif.g08.bks.cpg/sg58_13_cif.got.tgz:25748.got - 2010.06.03 14:20:14.
