data_PCOD9441059
_publ_section_title
;
Structure prediction by ZEFSAII (Michael W. Deem and Ramdas Pophale) SiO2 
 PCOD9441059
Probable space group: P N N M
;
_chemical_formula_sum "Si O2"
_cell_formula_units_Z 64
_cell_length_a 19.589412
_cell_length_b 23.988919
_cell_length_c 8.646464
_cell_angle_alpha 90.000000
_cell_angle_beta 90.000000
_cell_angle_gamma 90.000000
_cell_volume 4063.222605
_symmetry_space_group_name_H-M "P N N M"
_symmetry_group_IT_number 58
_symmetry_cell_setting 'orthorhombic'
loop_
_space_group_symop_operation_xyz
x,y,z
-x,-y,z
1/2+x,1/2-y,1/2-z
1/2-x,1/2+y,1/2-z
-x,-y,-z
x,y,-z
1/2-x,1/2+y,1/2+z
1/2+x,1/2-y,1/2+z
loop_
_atom_site_type_symbol
_atom_site_label
_atom_site_fract_x
_atom_site_fract_y
_atom_site_fract_z
Si Si1 0.859350 0.562195 0.188146
Si Si2 0.645729 0.728663 0.683865
Si Si3 0.272665 0.165538 0.815801
Si Si4 0.650084 0.270000 0.814447
Si Si5 0.856296 0.434829 0.186800
Si Si6 0.500527 0.122234 0.313237
Si Si7 0.502674 0.752577 0.184616
Si Si8 0.268546 0.835673 0.314120
O O1 0.850206 0.498727 0.239456
O O2 0.800124 0.605213 0.234384
O O3 0.932233 0.588141 0.235187
O O4 0.860273 0.561086 0.000000
O O5 0.650115 0.731727 0.500000
O O6 0.676730 0.786189 0.752293
O O7 0.567953 0.724326 0.737481
O O8 0.695090 0.680179 0.746038
O O9 0.198545 0.181438 0.749355
O O10 0.301360 0.106694 0.759438
O O11 0.271714 0.168761 0.000000
O O12 0.570472 0.273908 0.774001
O O13 0.680448 0.212852 0.744003
O O14 0.656518 0.267245 0.000000
O O15 0.931590 0.411149 0.224508
O O16 0.849704 0.433001 0.000000
O O17 0.502842 0.129124 0.500000
O O18 0.499268 0.183032 0.238046
O O19 0.510619 0.750588 0.000000
O O20 0.265638 0.833281 0.500000
#
# Coordination Sequence:
#
# PCOD9441059 Si02
#       8
#     8   8   8   8   8   8   8   8
#     4   9  18  31  49  73  99 133 174 205 239 284
#     4  11  21  33  50  70  96 130 165 202 249 299
#     4  11  21  33  49  71  98 128 165 208 247 288
#     4  10  20  33  50  71  97 128 161 201 250 299
#     4  10  19  32  50  71  99 136 173 206 237 286
#     4  10  18  30  48  70  99 135 173 203 234 281
#     4  11  21  32  49  74 102 129 162 203 248 296
#     4  10  18  31  50  72  98 128 165 207 243 285
#
# _framework density 15.751042999999999
#
# number of rings (size 3 to 8) (size 9 to 14) (size 15 to 20)
#    0.000    1.750    2.500    5.250    0.000    3.000 
#    0.000    1.875    0.000    1.500    0.000    0.875 
#    0.000    7.000    0.000    0.000    0.000    0.000 
#
# Total GULP energy -357265.766690 kJ/mol
# GULP energy per Si atom -5582.277605 kJ/mol
# Density = 1.571519 g / cm^3
# Si number density = 15.751043 Si / 1000 Ang^3
#
#
#
# Elastic Constant Matrix: (Units=GPa)
#
#
# Indices 1 2 3 4 5 6 
#
# 1 147.1689 72.5227 50.2816 0.0000 0.0000 0.0000
# 2 72.5227 95.6634 29.4651 0.0000 0.0000 0.0000
# 3 50.2816 29.4651 58.9903 0.0000 0.0000 0.0000
# 4 0.0000 0.0000 0.0000 19.5503 0.0000 0.0000
# 5 0.0000 0.0000 0.0000 0.0000 21.0153 0.0000
# 6 0.0000 0.0000 0.0000 0.0000 0.0000 19.9011
#
#
#
# Elastic Compliance Matrix: (Units=1/GPa)
#
#
# Indices 1 2 3 4 5 6 
#
# 1 0.013064 -0.007651 -0.007314 0.000000 0.000000 0.000000
# 2 -0.007651 0.016835 -0.001887 0.000000 0.000000 0.000000
# 3 -0.007314 -0.001887 0.024129 0.000000 0.000000 0.000000
# 4 0.000000 0.000000 0.000000 0.051150 0.000000 0.000000
# 5 0.000000 0.000000 0.000000 0.000000 0.047584 0.000000
# 6 0.000000 0.000000 0.000000 0.000000 0.000000 0.050248
#
#
# Mechanical properties :
#
#
# Convention : Reuss Voigt Hill
#
# Bulk Modulus (GPa) = 49.20456 67.37348 58.28902
# Shear Modulus (GPa) = 20.53475 22.06357 21.29916
#
# Velocity S-wave (km/s) = 3.61461 3.74674 3.68127
# Velocity P-wave (km/s) = 6.98049 7.84757 7.42669
#
# Compressibility (1/GPa) = 0.02032332
#
# Stress axis : x y z
#
# Youngs Moduli (GPa) = 76.54515 59.39989 41.44450
#
# Poissons Ratio (x) = 0.45449 0.30312
# Poissons Ratio (y) = 0.58567 0.07821
# Poissons Ratio (z) = 0.55984 0.11210
#
# Static dielectric constant tensor:
#      x y z
#    x 1.532120 0.000000 0.000000 
#    y 0.000000 1.504710 0.000000 
#    z 0.000000 0.000000 1.531780 
# 
# From -- ./inp_files/8512.got.cif
#   From: 2010.05.17/outbox.cif.g08.bks.cpg/sg58_5_cif.got.tgz:8512.got - 2010.06.03 14:20:14.
