data_PCOD9441580
_publ_section_title
;
Structure prediction by ZEFSAII (Michael W. Deem and Ramdas Pophale) SiO2 
 PCOD9441580
Probable space group: P N N M
;
_chemical_formula_sum "Si O2"
_cell_formula_units_Z 64
_cell_length_a 15.899136
_cell_length_b 24.515847
_cell_length_c 7.516178
_cell_angle_alpha 90.000000
_cell_angle_beta 90.000000
_cell_angle_gamma 90.000000
_cell_volume 2929.661766
_symmetry_space_group_name_H-M "P N N M"
_symmetry_group_IT_number 58
_symmetry_cell_setting 'orthorhombic'
loop_
_space_group_symop_operation_xyz
x,y,z
-x,-y,z
1/2+x,1/2-y,1/2-z
1/2-x,1/2+y,1/2-z
-x,-y,-z
x,y,-z
1/2-x,1/2+y,1/2+z
1/2+x,1/2-y,1/2+z
loop_
_atom_site_type_symbol
_atom_site_label
_atom_site_fract_x
_atom_site_fract_y
_atom_site_fract_z
Si Si1 0.975531 0.092208 0.208038
Si Si2 0.985664 0.783326 0.283904
Si Si3 0.338134 0.566784 0.204250
Si Si4 0.063231 0.577398 0.716836
Si Si5 0.695821 0.311850 0.786802
Si Si6 0.119740 0.458239 0.717654
Si Si7 0.299700 0.447926 0.297977
Si Si8 0.882011 0.305365 0.712198
O O1 0.886711 0.072419 0.285250
O O2 0.982212 0.157265 0.226496
O O3 0.060240 0.068031 0.291254
O O4 0.978761 0.076472 0.000000
O O5 0.986660 0.782489 0.500000
O O6 0.887982 0.780500 0.225926
O O7 0.047773 0.736261 0.219083
O O8 0.309561 0.625359 0.280100
O O9 0.305410 0.513576 0.301825
O O10 0.310378 0.562659 0.000000
O O11 0.066239 0.576782 0.500000
O O12 0.106704 0.521141 0.774537
O O13 0.104483 0.633179 0.781314
O O14 0.964929 0.573464 0.767502
O O15 0.786288 0.287575 0.744281
O O16 0.689187 0.315761 0.000000
O O17 0.122798 0.458402 0.500000
O O18 0.208618 0.435057 0.781819
O O19 0.299788 0.426189 0.500000
O O20 0.893541 0.308070 0.500000
#
# Coordination Sequence:
#
# PCOD9441580 Si02
#       8
#     8   8   8   8   8   8   8   8
#     4  10  20  33  49  72 101 134 172 217 264 304
#     4   9  20  38  53  72 104 138 174 218 263 314
#     4  10  20  33  51  74 102 138 173 206 255 312
#     4   8  14  26  47  73  99 127 160 203 252 299
#     4   9  19  35  52  74 103 134 169 213 262 309
#     4   8  14  26  44  71 105 130 154 199 254 301
#     4  10  19  30  47  76 105 130 168 212 252 303
#     4  10  19  33  56  81  99 130 179 221 259 307
#
# _framework density 21.845527000000001
#
# number of rings (size 3 to 8) (size 9 to 14) (size 15 to 20)
#    0.000    2.750    0.000    3.375    0.000    6.500 
#    2.250    0.000    0.000    0.750    0.000    3.500 
#    0.000    0.000    0.000    0.000    0.000    0.000 
#
# Total GULP energy -357238.177042 kJ/mol
# GULP energy per Si atom -5581.846516 kJ/mol
# Density = 2.179581 g / cm^3
# Si number density = 21.845527 Si / 1000 Ang^3
#
#
#
# Elastic Constant Matrix: (Units=GPa)
#
#
# Indices 1 2 3 4 5 6 
#
# 1 159.6882 44.5999 -6.6220 0.0000 0.0000 0.0000
# 2 44.5999 31.3159 -2.5864 0.0000 0.0000 0.0000
# 3 -6.6220 -2.5864 60.7098 0.0000 0.0000 0.0000
# 4 0.0000 0.0000 0.0000 12.3029 0.0000 0.0000
# 5 0.0000 0.0000 0.0000 0.0000 7.5603 0.0000
# 6 0.0000 0.0000 0.0000 0.0000 0.0000 18.9180
#
#
#
# Elastic Compliance Matrix: (Units=1/GPa)
#
#
# Indices 1 2 3 4 5 6 
#
# 1 0.010414 -0.014789 0.000506 0.000000 0.000000 0.000000
# 2 -0.014789 0.053049 0.000647 0.000000 0.000000 0.000000
# 3 0.000506 0.000647 0.016555 0.000000 0.000000 0.000000
# 4 0.000000 0.000000 0.000000 0.081282 0.000000 0.000000
# 5 0.000000 0.000000 0.000000 0.000000 0.132270 0.000000
# 6 0.000000 0.000000 0.000000 0.000000 0.000000 0.052860
#
#
# Mechanical properties :
#
#
# Convention : Reuss Voigt Hill
#
# Bulk Modulus (GPa) = 18.95954 35.83299 27.39627
# Shear Modulus (GPa) = 12.77844 22.17771 17.47807
#
# Velocity S-wave (km/s) = 2.42119 3.18969 2.83163
# Velocity P-wave (km/s) = 4.06374 5.47759 4.82275
#
# Compressibility (1/GPa) = 0.05274389
#
# Stress axis : x y z
#
# Youngs Moduli (GPa) = 96.02656 18.85046 60.40636
#
# Poissons Ratio (x) = 0.27879 -0.03055
# Poissons Ratio (y) = 1.42018 -0.03907
# Poissons Ratio (z) = -0.04857 -0.01219
#
# Static dielectric constant tensor:
#      x y z
#    x 1.826460 0.000000 0.000000 
#    y 0.000000 1.760190 0.000000 
#    z 0.000000 0.000000 1.824870 
# 
# From -- ./inp_files/6752.got.cif
#   From: 2010.05.17/outbox.cif.g08.bks.cpg/sg58_4_cif.got.tgz:6752.got - 2010.06.03 14:20:14.
