data_PCOD9441819
_publ_section_title
;
Structure prediction by ZEFSAII (Michael W. Deem and Ramdas Pophale) SiO2 
 PCOD9441819
Probable space group: P N N M
;
_chemical_formula_sum "Si O2"
_cell_formula_units_Z 64
_cell_length_a 14.594911
_cell_length_b 29.197283
_cell_length_c 8.501236
_cell_angle_alpha 90.000000
_cell_angle_beta 90.000000
_cell_angle_gamma 90.000000
_cell_volume 3622.646547
_symmetry_space_group_name_H-M "P N N M"
_symmetry_group_IT_number 58
_symmetry_cell_setting 'orthorhombic'
loop_
_space_group_symop_operation_xyz
x,y,z
-x,-y,z
1/2+x,1/2-y,1/2-z
1/2-x,1/2+y,1/2-z
-x,-y,-z
x,y,-z
1/2-x,1/2+y,1/2+z
1/2+x,1/2-y,1/2+z
loop_
_atom_site_type_symbol
_atom_site_label
_atom_site_fract_x
_atom_site_fract_y
_atom_site_fract_z
Si Si1 0.249967 0.947266 0.810964
Si Si2 0.604354 0.876181 0.309824
Si Si3 0.893768 0.124611 0.689070
Si Si4 0.249984 0.803413 0.189176
Si Si5 0.750018 0.447234 0.311531
Si Si6 0.750032 0.301352 0.808673
Si Si7 0.395598 0.623829 0.809824
Si Si8 0.893721 0.624609 0.189071
O O1 0.161965 0.919495 0.749198
O O2 0.337967 0.919484 0.749245
O O3 0.249994 0.000005 0.759521
O O4 0.249949 0.945463 0.000000
O O5 0.605826 0.877425 0.500000
O O6 0.661648 0.919532 0.249292
O O7 0.661419 0.831054 0.260088
O O8 0.499150 0.875626 0.258360
O O9 0.891010 0.125012 0.500000
O O10 0.838036 0.168496 0.751031
O O11 0.999198 0.124382 0.741637
O O12 0.249965 0.750935 0.245123
O O13 0.338007 0.831494 0.249013
O O14 0.250000 0.804232 0.000000
O O15 0.750026 0.446312 0.500000
O O16 0.661694 0.419522 0.250723
O O17 0.661468 0.331045 0.760097
O O18 0.750036 0.300280 0.000000
O O19 0.394124 0.622580 0.000000
O O20 0.890962 0.624994 0.000000
#
# Coordination Sequence:
#
# PCOD9441819 Si02
#       8
#     8   8   8   8   8   8   8   8
#     4  10  21  36  52  73 104 136 164 204 256 301
#     4   9  19  36  55  74 101 135 168 206 250 296
#     4  10  20  34  53  76 101 132 171 210 247 293
#     4  10  19  32  52  75 102 136 168 204 252 299
#     4  10  21  35  53  77 102 130 166 208 252 299
#     4   8  16  33  53  73 100 134 168 202 248 301
#     4   9  19  36  55  74 101 135 168 206 250 296
#     4  10  20  34  53  76 101 132 171 210 247 293
#
# _framework density 17.666640999999998
#
# number of rings (size 3 to 8) (size 9 to 14) (size 15 to 20)
#    0.000    2.500    0.000    4.125    0.000    6.000 
#    0.000   10.000    0.000    0.000    0.000    0.000 
#    0.000    0.000    0.000    0.000    0.000    0.000 
#
# Total GULP energy -357040.802089 kJ/mol
# GULP energy per Si atom -5578.762533 kJ/mol
# Density = 1.762643 g / cm^3
# Si number density = 17.666641 Si / 1000 Ang^3
#
#
#
# Elastic Constant Matrix: (Units=GPa)
#
#
# Indices 1 2 3 4 5 6 
#
# 1 204.4149 111.0464 32.4702 0.0000 0.0000 0.0000
# 2 111.0464 203.0697 29.9849 0.0000 0.0000 0.0000
# 3 32.4702 29.9849 33.3275 0.0000 0.0000 0.0000
# 4 0.0000 0.0000 0.0000 25.8371 0.0000 0.0000
# 5 0.0000 0.0000 0.0000 0.0000 4.4515 0.0000
# 6 0.0000 0.0000 0.0000 0.0000 0.0000 4.0941
#
#
#
# Elastic Compliance Matrix: (Units=1/GPa)
#
#
# Indices 1 2 3 4 5 6 
#
# 1 0.007421 -0.003449 -0.004127 0.000000 0.000000 0.000000
# 2 -0.003449 0.007282 -0.003191 0.000000 0.000000 0.000000
# 3 -0.004127 -0.003191 0.036898 0.000000 0.000000 0.000000
# 4 0.000000 0.000000 0.000000 0.038704 0.000000 0.000000
# 5 0.000000 0.000000 0.000000 0.000000 0.224644 0.000000
# 6 0.000000 0.000000 0.000000 0.000000 0.000000 0.244256
#
#
# Mechanical properties :
#
#
# Convention : Reuss Voigt Hill
#
# Bulk Modulus (GPa) = 33.26060 87.53501 60.39781
# Shear Modulus (GPa) = 8.46367 24.69725 16.58046
#
# Velocity S-wave (km/s) = 2.19116 3.74299 3.06685
# Velocity P-wave (km/s) = 5.02685 8.26654 6.84123
#
# Compressibility (1/GPa) = 0.03006560
#
# Stress axis : x y z
#
# Youngs Moduli (GPa) = 134.75095 137.33409 27.10204
#
# Poissons Ratio (x) = 0.47362 0.11186
# Poissons Ratio (y) = 0.46472 0.08649
# Poissons Ratio (z) = 0.55617 0.43826
#
# Static dielectric constant tensor:
#      x y z
#    x 1.587360 0.000000 0.000000 
#    y 0.000000 1.586590 0.000000 
#    z 0.000000 0.000000 1.602850 
# 
# From -- ./inp_files/7176.got.cif
#   From: 2010.05.17/outbox.cif.g08.bks.cpg/sg58_4_cif.got.tgz:7176.got - 2010.06.03 14:20:14.
