data_PCOD9441139
_publ_section_title
;
Structure prediction by ZEFSAII (Michael W. Deem and Ramdas Pophale) SiO2 
 PCOD9441139
Probable space group: P N N M
;
_chemical_formula_sum "Si O2"
_cell_formula_units_Z 64
_cell_length_a 23.606133
_cell_length_b 19.502383
_cell_length_c 9.094079
_cell_angle_alpha 90.000000
_cell_angle_beta 90.000000
_cell_angle_gamma 90.000000
_cell_volume 4186.694322
_symmetry_space_group_name_H-M "P N N M"
_symmetry_group_IT_number 58
_symmetry_cell_setting 'orthorhombic'
loop_
_space_group_symop_operation_xyz
x,y,z
-x,-y,z
1/2+x,1/2-y,1/2-z
1/2-x,1/2+y,1/2-z
-x,-y,-z
x,y,-z
1/2-x,1/2+y,1/2+z
1/2+x,1/2-y,1/2+z
loop_
_atom_site_type_symbol
_atom_site_label
_atom_site_fract_x
_atom_site_fract_y
_atom_site_fract_z
Si Si1 0.723531 0.355315 0.174729
Si Si2 0.841407 0.275817 0.174355
Si Si3 0.560291 0.857729 0.824652
Si Si4 0.268259 0.351361 0.676095
Si Si5 0.060648 0.361861 0.175543
Si Si6 0.250841 0.005471 0.175581
Si Si7 0.884568 0.505416 0.675740
Si Si8 0.666746 0.230727 0.675442
O O1 0.786012 0.322884 0.204066
O O2 0.723564 0.431294 0.239650
O O3 0.679569 0.303845 0.251295
O O4 0.715245 0.355080 0.000000
O O5 0.893980 0.303762 0.264886
O O6 0.820760 0.198696 0.209151
O O7 0.853494 0.280238 0.000000
O O8 0.499826 0.849190 0.748764
O O9 0.584593 0.933778 0.790585
O O10 0.555007 0.852540 0.000000
O O11 0.257367 0.345501 0.500000
O O12 0.275370 0.431193 0.710415
O O13 0.213954 0.320893 0.759317
O O14 0.086900 0.432048 0.239318
O O15 0.105645 0.301611 0.208186
O O16 0.054923 0.367461 0.000000
O O17 0.317935 0.000919 0.211249
O O18 0.246472 0.017133 0.000000
O O19 0.889192 0.517840 0.500000
O O20 0.673553 0.235419 0.500000
#
# Coordination Sequence:
#
# PCOD9441139 Si02
#       8
#     8   8   8   8   8   8   8   8
#     4  10  20  32  50  73  99 129 163 202 248 294
#     4   9  18  32  48  69  96 126 162 203 242 285
#     4  11  22  34  49  69  95 133 172 204 243 287
#     4   9  18  32  51  73  98 130 162 199 248 293
#     4  11  23  35  49  70  96 131 171 210 246 285
#     4  10  18  31  51  74 103 134 164 199 242 294
#     4  10  20  33  48  69 100 135 170 203 236 285
#     4  10  20  33  49  70  96 127 165 206 248 291
#
# _framework density 15.286523000000001
#
# number of rings (size 3 to 8) (size 9 to 14) (size 15 to 20)
#    0.000    2.000    2.500    2.625    0.000    7.000 
#    0.000    0.000    0.000    0.000    0.000    0.875 
#    0.000    7.000    0.000    0.000    0.000    0.000 
#
# Total GULP energy -357167.833892 kJ/mol
# GULP energy per Si atom -5580.747405 kJ/mol
# Density = 1.525173 g / cm^3
# Si number density = 15.286523 Si / 1000 Ang^3
#
#
#
# Elastic Constant Matrix: (Units=GPa)
#
#
# Indices 1 2 3 4 5 6 
#
# 1 94.2388 73.0527 55.8773 0.0000 0.0000 0.0000
# 2 73.0527 144.1260 66.2440 0.0000 0.0000 0.0000
# 3 55.8773 66.2440 52.5815 0.0000 0.0000 0.0000
# 4 0.0000 0.0000 0.0000 27.7244 0.0000 0.0000
# 5 0.0000 0.0000 0.0000 0.0000 24.7462 0.0000
# 6 0.0000 0.0000 0.0000 0.0000 0.0000 17.1944
#
#
#
# Elastic Compliance Matrix: (Units=1/GPa)
#
#
# Indices 1 2 3 4 5 6 
#
# 1 0.028783 -0.001260 -0.028999 0.000000 0.000000 0.000000
# 2 -0.001260 0.016538 -0.019496 0.000000 0.000000 0.000000
# 3 -0.028999 -0.019496 0.074397 0.000000 0.000000 0.000000
# 4 0.000000 0.000000 0.000000 0.036069 0.000000 0.000000
# 5 0.000000 0.000000 0.000000 0.000000 0.040410 0.000000
# 6 0.000000 0.000000 0.000000 0.000000 0.000000 0.058159
#
#
# Mechanical properties :
#
#
# Convention : Reuss Voigt Hill
#
# Bulk Modulus (GPa) = 49.48862 75.69936 62.59399
# Shear Modulus (GPa) = 13.86570 20.31781 17.09176
#
# Velocity S-wave (km/s) = 3.01500 3.64968 3.34742
# Velocity P-wave (km/s) = 6.67567 8.20902 7.48173
#
# Compressibility (1/GPa) = 0.02020667
#
# Stress axis : x y z
#
# Youngs Moduli (GPa) = 34.74271 60.46707 13.44148
#
# Poissons Ratio (x) = 0.07621 0.38979
# Poissons Ratio (y) = 0.04379 0.26205
# Poissons Ratio (z) = 1.00752 1.17885
#
# Static dielectric constant tensor:
#      x y z
#    x 1.482360 0.000000 0.000000 
#    y 0.000000 1.505410 0.000000 
#    z 0.000000 0.000000 1.507240 
# 
# From -- ./inp_files/8328.got.cif
#   From: 2010.05.17/outbox.cif.g08.bks.cpg/sg58_5_cif.got.tgz:8328.got - 2010.06.03 14:20:14.
