data_PCOD9441928
_publ_section_title
;
Structure prediction by ZEFSAII (Michael W. Deem and Ramdas Pophale) SiO2 
 PCOD9441928
Probable space group: P N N M
;
_chemical_formula_sum "Si O2"
_cell_formula_units_Z 64
_cell_length_a 12.314207
_cell_length_b 10.827041
_cell_length_c 24.220339
_cell_angle_alpha 90.000000
_cell_angle_beta 90.000000
_cell_angle_gamma 90.000000
_cell_volume 3229.211189
_symmetry_space_group_name_H-M "P N N M"
_symmetry_group_IT_number 58
_symmetry_cell_setting 'orthorhombic'
loop_
_space_group_symop_operation_xyz
x,y,z
-x,-y,z
1/2+x,1/2-y,1/2-z
1/2-x,1/2+y,1/2-z
-x,-y,-z
x,y,-z
1/2-x,1/2+y,1/2+z
1/2+x,1/2-y,1/2+z
loop_
_atom_site_type_symbol
_atom_site_label
_atom_site_fract_x
_atom_site_fract_y
_atom_site_fract_z
Si Si1 0.313056 0.535750 0.241681
Si Si2 0.528019 0.695268 0.245573
Si Si3 0.103501 0.580301 0.318457
Si Si4 0.673991 0.171889 0.437362
Si Si5 0.254302 0.076015 0.617680
Si Si6 0.372597 0.145682 0.938430
Si Si7 0.545401 0.367099 0.935700
Si Si8 0.480417 0.145035 0.355461
O O1 0.406373 0.641402 0.240538
O O2 0.383599 0.413052 0.252320
O O3 0.214856 0.553988 0.285062
O O4 0.260854 0.533637 0.180868
O O5 0.567988 0.779013 0.194776
O O6 0.528020 0.780640 0.299344
O O7 0.118368 0.562728 0.384091
O O8 0.000000 0.500000 0.299671
O O9 0.633700 0.157050 0.500000
O O10 0.757444 0.284447 0.435687
O O11 0.577604 0.189332 0.394142
O O12 0.736090 0.046491 0.419682
O O13 0.152466 0.156048 0.599281
O O14 0.365898 0.149838 0.613452
O O15 0.460642 0.256094 0.933617
O O16 0.384184 0.089247 0.000000
O O17 0.500000 0.500000 0.915349
O O18 0.574588 0.385016 0.000000
O O19 0.500000 0.000000 0.344245
#
# Coordination Sequence:
#
# PCOD9441928 Si02
#       8
#     8   8   8   8   8   8   8   8
#     4  11  26  40  64  92 122 170 211 262 316 373
#     4  11  24  43  62  90 126 165 212 260 316 376
#     4  12  26  41  67  92 127 168 209 261 316 379
#     4  10  20  35  61  87 121 162 201 249 311 370
#     4  11  20  33  53  86 123 160 199 253 309 371
#     4  10  21  39  61  89 120 162 210 257 301 366
#     4  10  19  32  55  86 123 161 203 251 311 371
#     4  10  22  38  59  86 126 161 200 256 310 374
#
# _framework density 19.819082000000002
#
# number of rings (size 3 to 8) (size 9 to 14) (size 15 to 20)
#    0.000    1.375    2.500    3.000    5.250    4.000 
#    0.000    0.000    0.000    0.750    0.000    3.500 
#    0.000    0.000    0.000    0.000    0.000    0.000 
#
# Total GULP energy -357600.201213 kJ/mol
# GULP energy per Si atom -5587.503144 kJ/mol
# Density = 1.977397 g / cm^3
# Si number density = 19.819082 Si / 1000 Ang^3
#
#
#
# Elastic Constant Matrix: (Units=GPa)
#
#
# Indices 1 2 3 4 5 6 
#
# 1 130.4494 20.6325 34.9628 0.0000 0.0000 0.0000
# 2 20.6325 26.4406 8.7869 0.0000 0.0000 0.0000
# 3 34.9628 8.7869 96.9041 0.0000 0.0000 0.0000
# 4 0.0000 0.0000 0.0000 -6.9434 0.0000 0.0000
# 5 0.0000 0.0000 0.0000 0.0000 9.1409 0.0000
# 6 0.0000 0.0000 0.0000 0.0000 0.0000 17.6569
#
#
#
# Elastic Compliance Matrix: (Units=1/GPa)
#
#
# Indices 1 2 3 4 5 6 
#
# 1 0.009439 -0.006427 -0.002823 0.000000 0.000000 0.000000
# 2 -0.006427 0.043372 -0.001614 0.000000 0.000000 0.000000
# 3 -0.002823 -0.001614 0.011484 0.000000 0.000000 0.000000
# 4 0.000000 0.000000 0.000000 -0.144022 0.000000 0.000000
# 5 0.000000 0.000000 0.000000 0.000000 0.109398 0.000000
# 6 0.000000 0.000000 0.000000 0.000000 0.000000 0.056635
#
#
# Mechanical properties :
#
#
# Convention : Reuss Voigt Hill
#
# Bulk Modulus (GPa) = 23.49205 42.50651 32.99928
# Shear Modulus (GPa) = 40.90854 16.59835 28.75344
#
# Velocity S-wave (km/s) = 4.54816 2.89709 3.81306
# Velocity P-wave (km/s) = 6.28172 5.71705 6.00603
#
# Compressibility (1/GPa) = 0.04256759
#
# Stress axis : x y z
#
# Youngs Moduli (GPa) = 105.94396 23.05611 87.07569
#
# Poissons Ratio (x) = 0.14819 0.24579
# Poissons Ratio (y) = 0.68095 0.14053
# Poissons Ratio (z) = 0.29905 0.03721
#
# Static dielectric constant tensor:
#      x y z
#    x 1.714520 0.000000 0.000000 
#    y 0.000000 1.691540 0.000000 
#    z 0.000000 0.000000 1.702590 
# 
# From -- ./inp_files/32063.got.cif
#   From: 2010.05.17/outbox.cif.g08.bks.cpg/sg58_17_cif.got.tgz:32063.got - 2010.06.03 14:20:14.
