data_PCOD9441384
_publ_section_title
;
Structure prediction by ZEFSAII (Michael W. Deem and Ramdas Pophale) SiO2 
 PCOD9441384
Probable space group: P N N M
;
_chemical_formula_sum "Si O2"
_cell_formula_units_Z 48
_cell_length_a 11.386621
_cell_length_b 9.058768
_cell_length_c 22.587684
_cell_angle_alpha 90.000000
_cell_angle_beta 90.000000
_cell_angle_gamma 90.000000
_cell_volume 2329.891549
_symmetry_space_group_name_H-M "P N N M"
_symmetry_group_IT_number 58
_symmetry_cell_setting 'orthorhombic'
loop_
_space_group_symop_operation_xyz
x,y,z
-x,-y,z
1/2+x,1/2-y,1/2-z
1/2-x,1/2+y,1/2-z
-x,-y,-z
x,y,-z
1/2-x,1/2+y,1/2+z
1/2+x,1/2-y,1/2+z
loop_
_atom_site_type_symbol
_atom_site_label
_atom_site_fract_x
_atom_site_fract_y
_atom_site_fract_z
Si Si1 0.024418 0.670104 0.429881
Si Si2 0.218759 0.091096 0.932918
Si Si3 0.765613 0.570773 0.747202
Si Si4 0.415794 0.122968 0.669340
Si Si5 0.794809 0.708661 0.380648
Si Si6 0.877919 0.834132 0.808870
O O1 0.003756 0.679078 0.500000
O O2 0.163202 0.687887 0.421667
O O3 0.000000 0.500000 0.410845
O O4 0.923981 0.764608 0.398131
O O5 0.135567 0.121137 0.877530
O O6 0.256858 0.919473 0.926411
O O7 0.176915 0.117860 0.000000
O O8 0.857103 0.456284 0.774807
O O9 0.803824 0.631159 0.683411
O O10 0.779772 0.710792 0.790712
O O11 0.649859 0.473641 0.733187
O O12 0.310871 0.176896 0.627530
O O13 0.496654 0.254996 0.693433
O O14 0.500000 0.000000 0.640459
#
# Coordination Sequence:
#
# PCOD9441384 Si02
#       6
#     8   8   8   8   8   8
#     4   8  15  30  55  85 113 141 189 253 301 347
#     4   9  19  35  59  89 118 154 206 262 304 354
#     4  10  20  37  55  87 118 157 196 242 303 373
#     4  10  22  38  55  81 128 158 197 257 303 367
#     4  10  18  34  57  87 116 155 199 247 311 365
#     4  10  21  37  59  86 123 157 199 248 313 360
#
# _framework density 20.601817
#
# number of rings (size 3 to 8) (size 9 to 14) (size 15 to 20)
#    0.000    2.500    1.667    1.500    0.000   12.667 
#    0.000    2.500    0.000   14.500    0.000    9.333 
#    0.000    0.000    0.000    0.000    0.000    0.000 
#
# Total GULP energy -267312.192208 kJ/mol
# GULP energy per Si atom -5569.004004 kJ/mol
# Density = 2.055493 g / cm^3
# Si number density = 20.601817 Si / 1000 Ang^3
#
#
#
# Elastic Constant Matrix: (Units=GPa)
#
#
# Indices 1 2 3 4 5 6 
#
# 1 57.7501 35.6237 7.8265 0.0000 0.0000 0.0000
# 2 35.6237 55.1513 16.3663 0.0000 0.0000 0.0000
# 3 7.8265 16.3663 65.0509 0.0000 0.0000 0.0000
# 4 0.0000 0.0000 0.0000 28.3108 0.0000 0.0000
# 5 0.0000 0.0000 0.0000 0.0000 18.9091 0.0000
# 6 0.0000 0.0000 0.0000 0.0000 0.0000 42.8315
#
#
#
# Elastic Compliance Matrix: (Units=1/GPa)
#
#
# Indices 1 2 3 4 5 6 
#
# 1 0.028889 -0.019051 0.001317 0.000000 0.000000 0.000000
# 2 -0.019051 0.032159 -0.005799 0.000000 0.000000 0.000000
# 3 0.001317 -0.005799 0.016673 0.000000 0.000000 0.000000
# 4 0.000000 0.000000 0.000000 0.035322 0.000000 0.000000
# 5 0.000000 0.000000 0.000000 0.000000 0.052885 0.000000
# 6 0.000000 0.000000 0.000000 0.000000 0.000000 0.023347
#
#
# Mechanical properties :
#
#
# Convention : Reuss Voigt Hill
#
# Bulk Modulus (GPa) = 32.62050 33.06502 32.84276
# Shear Modulus (GPa) = 20.27911 25.88599 23.08255
#
# Velocity S-wave (km/s) = 3.14082 3.54855 3.35089
# Velocity P-wave (km/s) = 5.38713 5.73358 5.56305
#
# Compressibility (1/GPa) = 0.03065557
#
# Stress axis : x y z
#
# Youngs Moduli (GPa) = 34.61467 31.09595 59.97729
#
# Poissons Ratio (x) = 0.59242 -0.07901
# Poissons Ratio (y) = 0.65946 0.34779
# Poissons Ratio (z) = -0.04560 0.18032
#
# Static dielectric constant tensor:
#      x y z
#    x 1.595830 0.000000 0.000000 
#    y 0.000000 1.796060 0.000000 
#    z 0.000000 0.000000 1.703990 
# 
# From -- ./inp_files/31911.got.cif
#   From: 2010.05.17/outbox.cif.g08.bks.cpg/sg58_16_cif.got.tgz:31911.got - 2010.06.03 14:20:14.
