data_PCOD9441500
_publ_section_title
;
Structure prediction by ZEFSAII (Michael W. Deem and Ramdas Pophale) SiO2 
 PCOD9441500
Probable space group: P N N M
;
_chemical_formula_sum "Si O2"
_cell_formula_units_Z 48
_cell_length_a 34.030670
_cell_length_b 6.721606
_cell_length_c 7.286120
_cell_angle_alpha 90.000000
_cell_angle_beta 90.000000
_cell_angle_gamma 90.000000
_cell_volume 1666.632595
_symmetry_space_group_name_H-M "P N N M"
_symmetry_group_IT_number 58
_symmetry_cell_setting 'orthorhombic'
loop_
_space_group_symop_operation_xyz
x,y,z
-x,-y,z
1/2+x,1/2-y,1/2-z
1/2-x,1/2+y,1/2-z
-x,-y,-z
x,y,-z
1/2-x,1/2+y,1/2+z
1/2+x,1/2-y,1/2+z
loop_
_atom_site_type_symbol
_atom_site_label
_atom_site_fract_x
_atom_site_fract_y
_atom_site_fract_z
Si Si1 0.947720 0.186116 0.279276
Si Si2 0.968482 0.718921 0.720512
Si Si3 0.303523 0.995805 0.206671
Si Si4 0.636094 0.585033 0.779467
Si Si5 0.283443 0.558938 0.283045
Si Si6 0.115987 0.370265 0.275013
O O1 0.946739 0.218894 0.500000
O O2 0.902715 0.203329 0.214722
O O3 0.986699 0.300605 0.211791
O O4 0.957958 0.952219 0.251398
O O5 0.970020 0.689785 0.500000
O O6 0.929320 0.603051 0.782726
O O7 0.299718 0.755732 0.191987
O O8 0.347419 0.006642 0.287634
O O9 0.260795 0.037700 0.291380
O O10 0.304331 0.076578 0.000000
O O11 0.682776 0.610023 0.735445
O O12 0.626404 0.357188 0.721145
O O13 0.634044 0.590875 0.000000
O O14 0.279806 0.589386 0.500000
O O15 0.116379 0.382140 0.500000
#
# Coordination Sequence:
#
# PCOD9441500 Si02
#       6
#     8   8   8   8   8   8
#     4   7   9  13  24  45  70  94 121 152 185 226
#     4   7   8  11  23  45  69  91 119 152 185 226
#     4   9  18  31  44  60  83 108 136 170 205 241
#     4   8  13  22  35  51  75 104 129 157 195 234
#     4  10  19  29  43  62  82 107 139 170 201 240
#     4   7  10  18  32  49  71  98 124 155 195 233
#
# _framework density 28.800588000000001
#
# number of rings (size 3 to 8) (size 9 to 14) (size 15 to 20)
#    0.000    4.000    0.000    4.500    0.000    1.333 
#    0.000    0.000    0.000    0.000    0.000   21.000 
#    0.000    1.333    0.000   16.667    0.000   14.333 
#
# Total GULP energy -268049.286510 kJ/mol
# GULP energy per Si atom -5584.360136 kJ/mol
# Density = 2.873504 g / cm^3
# Si number density = 28.800588 Si / 1000 Ang^3
#
#
#
# Elastic Constant Matrix: (Units=GPa)
#
#
# Indices 1 2 3 4 5 6 
#
# 1 419.2669 82.2749 17.7687 0.0000 0.0000 0.0000
# 2 82.2749 80.1085 -5.0236 0.0000 0.0000 0.0000
# 3 17.7687 -5.0236 134.8714 0.0000 0.0000 0.0000
# 4 0.0000 0.0000 0.0000 -1.4678 0.0000 0.0000
# 5 0.0000 0.0000 0.0000 0.0000 2.6766 0.0000
# 6 0.0000 0.0000 0.0000 0.0000 0.0000 87.4512
#
#
#
# Elastic Compliance Matrix: (Units=1/GPa)
#
#
# Indices 1 2 3 4 5 6 
#
# 1 0.003022 -0.003136 -0.000515 0.000000 0.000000 0.000000
# 2 -0.003136 0.015767 0.001000 0.000000 0.000000 0.000000
# 3 -0.000515 0.001000 0.007520 0.000000 0.000000 0.000000
# 4 0.000000 0.000000 0.000000 -0.681305 0.000000 0.000000
# 5 0.000000 0.000000 0.000000 0.000000 0.373605 0.000000
# 6 0.000000 0.000000 0.000000 0.000000 0.000000 0.011435
#
#
# Mechanical properties :
#
#
# Convention : Reuss Voigt Hill
#
# Bulk Modulus (GPa) = 47.60285 91.58744 69.59514
# Shear Modulus (GPa) = -19.40607 53.68045 17.13719
#
# Velocity S-wave (km/s) = -2.59860 4.32194 2.44197
# Velocity P-wave (km/s) = 2.74967 7.53492 5.67167
#
# Compressibility (1/GPa) = 0.02100715
#
# Stress axis : x y z
#
# Youngs Moduli (GPa) = 330.85999 63.42321 132.98600
#
# Poissons Ratio (x) = 0.19892 0.06849
# Poissons Ratio (y) = 1.03773 -0.13305
# Poissons Ratio (z) = 0.17040 -0.06345
#
# Static dielectric constant tensor:
#      x y z
#    x 2.317920 0.000000 0.000000 
#    y 0.000000 2.343990 0.000000 
#    z 0.000000 0.000000 2.095760 
# 
# From -- ./inp_files/4506.got.cif
#   From: 2010.05.17/outbox.cif.g08.bks.cpg/sg58_3_cif.got.tgz:4506.got - 2010.06.03 14:20:14.
