data_PCOD9441250
_publ_section_title
;
Structure prediction by ZEFSAII (Michael W. Deem and Ramdas Pophale) SiO2 
 PCOD9441250
Probable space group: P N N M
;
_chemical_formula_sum "Si O2"
_cell_formula_units_Z 64
_cell_length_a 24.347121
_cell_length_b 11.827581
_cell_length_c 12.712317
_cell_angle_alpha 90.000000
_cell_angle_beta 90.000000
_cell_angle_gamma 90.000000
_cell_volume 3660.734727
_symmetry_space_group_name_H-M "P N N M"
_symmetry_group_IT_number 58
_symmetry_cell_setting 'orthorhombic'
loop_
_space_group_symop_operation_xyz
x,y,z
-x,-y,z
1/2+x,1/2-y,1/2-z
1/2-x,1/2+y,1/2-z
-x,-y,-z
x,y,-z
1/2-x,1/2+y,1/2+z
1/2+x,1/2-y,1/2+z
loop_
_atom_site_type_symbol
_atom_site_label
_atom_site_fract_x
_atom_site_fract_y
_atom_site_fract_z
Si Si1 0.171970 0.001924 0.780875
Si Si2 0.914117 0.939190 0.619476
Si Si3 0.555179 0.929921 0.879659
Si Si4 0.848873 0.404965 0.223283
Si Si5 0.905173 0.189975 0.877324
Si Si6 0.265189 0.924565 0.621289
Si Si7 0.529282 0.671944 0.173461
Si Si8 0.745433 0.830610 0.881319
O O1 0.137323 0.908029 0.842689
O O2 0.213464 0.948575 0.695936
O O3 0.130896 0.076391 0.709582
O O4 0.209467 0.074755 0.857902
O O5 0.895943 0.916253 0.500000
O O6 0.967885 0.865660 0.645802
O O7 0.932595 0.071413 0.627407
O O8 0.603729 0.954789 0.798134
O O9 0.543178 0.795459 0.870560
O O10 0.500000 0.000000 0.855191
O O11 0.570836 0.956174 0.000000
O O12 0.876525 0.309600 0.150387
O O13 0.815987 0.500150 0.159877
O O14 0.804008 0.345162 0.299042
O O15 0.956601 0.176354 0.797776
O O16 0.918635 0.182371 0.000000
O O17 0.252342 0.952098 0.500000
O O18 0.274108 0.790811 0.629196
O O19 0.723571 0.839925 0.000000
#
# Coordination Sequence:
#
# PCOD9441250 Si02
#       8
#     8   8   8   8   8   8   8   8
#     4  10  20  33  51  80 107 135 173 216 262 317
#     4  10  18  32  54  77 104 133 170 219 265 305
#     4  10  20  34  54  78 105 137 172 214 265 312
#     4  10  20  35  55  78 105 139 177 218 256 312
#     4  10  19  34  54  77 104 138 173 216 261 307
#     4  10  20  35  54  77 106 141 177 214 259 311
#     4   9  19  33  51  77 103 135 172 215 258 316
#     4  10  20  35  54  76 106 141 174 212 259 314
#
# _framework density 17.482828999999999
#
# number of rings (size 3 to 8) (size 9 to 14) (size 15 to 20)
#    0.000    2.125    1.250    3.000    0.000    1.000 
#    0.000    5.625    0.000   10.875    0.000    0.000 
#    0.000    0.000    0.000    0.000    0.000    0.000 
#
# Total GULP energy -356987.488995 kJ/mol
# GULP energy per Si atom -5577.929516 kJ/mol
# Density = 1.744304 g / cm^3
# Si number density = 17.482829 Si / 1000 Ang^3
#
#
#
# Elastic Constant Matrix: (Units=GPa)
#
#
# Indices 1 2 3 4 5 6 
#
# 1 22.3801 -0.7989 7.0719 0.0000 0.0000 0.0000
# 2 -0.7989 38.3184 18.1338 0.0000 0.0000 0.0000
# 3 7.0719 18.1338 108.2879 0.0000 0.0000 0.0000
# 4 0.0000 0.0000 0.0000 17.1174 0.0000 0.0000
# 5 0.0000 0.0000 0.0000 0.0000 17.2825 0.0000
# 6 0.0000 0.0000 0.0000 0.0000 0.0000 18.1589
#
#
#
# Elastic Compliance Matrix: (Units=1/GPa)
#
#
# Indices 1 2 3 4 5 6 
#
# 1 0.045857 0.002578 -0.003426 0.000000 0.000000 0.000000
# 2 0.002578 0.028488 -0.004939 0.000000 0.000000 0.000000
# 3 -0.003426 -0.004939 0.010285 0.000000 0.000000 0.000000
# 4 0.000000 0.000000 0.000000 0.058420 0.000000 0.000000
# 5 0.000000 0.000000 0.000000 0.000000 0.057862 0.000000
# 6 0.000000 0.000000 0.000000 0.000000 0.000000 0.055070
#
#
# Mechanical properties :
#
#
# Convention : Reuss Voigt Hill
#
# Bulk Modulus (GPa) = 13.68824 24.20000 18.94412
# Shear Modulus (GPa) = 17.12857 20.15039 18.63948
#
# Velocity S-wave (km/s) = 3.13347 3.39865 3.26875
# Velocity P-wave (km/s) = 4.57581 5.41048 5.01056
#
# Compressibility (1/GPa) = 0.07305540
#
# Stress axis : x y z
#
# Youngs Moduli (GPa) = 21.80675 35.10234 97.22448
#
# Poissons Ratio (x) = -0.09048 0.33313
# Poissons Ratio (y) = -0.05621 0.48018
# Poissons Ratio (z) = 0.07472 0.17337
#
# Static dielectric constant tensor:
#      x y z
#    x 1.579920 0.000000 0.000000 
#    y 0.000000 1.583520 0.000000 
#    z 0.000000 0.000000 1.589160 
# 
# From -- ./inp_files/17549.got.cif
#   From: 2010.05.17/outbox.cif.g08.bks.cpg/sg58_9_cif.got.tgz:17549.got - 2010.06.03 14:20:14.
