data_PCOD9441510
_publ_section_title
;
Structure prediction by ZEFSAII (Michael W. Deem and Ramdas Pophale) SiO2 
 PCOD9441510
Probable space group: P N N M
;
_chemical_formula_sum "Si O2"
_cell_formula_units_Z 56
_cell_length_a 19.492989
_cell_length_b 5.394867
_cell_length_c 23.566585
_cell_angle_alpha 90.000000
_cell_angle_beta 90.000000
_cell_angle_gamma 90.000000
_cell_volume 2478.311170
_symmetry_space_group_name_H-M "P N N M"
_symmetry_group_IT_number 58
_symmetry_cell_setting 'orthorhombic'
loop_
_space_group_symop_operation_xyz
x,y,z
-x,-y,z
1/2+x,1/2-y,1/2-z
1/2-x,1/2+y,1/2-z
-x,-y,-z
x,y,-z
1/2-x,1/2+y,1/2+z
1/2+x,1/2-y,1/2+z
loop_
_atom_site_type_symbol
_atom_site_label
_atom_site_fract_x
_atom_site_fract_y
_atom_site_fract_z
Si Si1 0.754879 0.170043 0.564908
Si Si2 0.078952 0.841312 0.564048
Si Si3 0.480629 0.251345 0.638307
Si Si4 0.924699 0.657671 0.371835
Si Si5 0.758864 0.668811 0.630825
Si Si6 0.352483 0.248720 0.286394
Si Si7 0.417778 0.745074 0.250875
O O1 0.730200 0.190698 0.500000
O O2 0.837923 0.170243 0.562817
O O3 0.735311 0.408935 0.602659
O O4 0.737313 0.907059 0.593235
O O5 0.055748 0.791657 0.500000
O O6 0.059462 0.616514 0.605416
O O7 0.061531 0.117675 0.584833
O O8 0.500000 0.500000 0.606744
O O9 0.402673 0.255279 0.658624
O O10 0.528329 0.252898 0.696472
O O11 0.500000 0.000000 0.607898
O O12 0.841166 0.663869 0.365391
O O13 0.952827 0.722318 0.309734
O O14 0.723508 0.708558 0.691463
O O15 0.378000 0.484317 0.250596
O O16 0.369023 0.983636 0.259439
#
# Coordination Sequence:
#
# PCOD9441510 Si02
#       7
#     8   8   8   8   8   8   8
#     4   9  17  30  46  64  91 125 158 191 225 267
#     4   9  17  30  46  64  91 125 158 191 225 267
#     4   8  16  30  46  62  84 112 150 192 222 256
#     4  10  19  29  44  68  95 125 156 185 228 275
#     4  10  19  29  44  68  95 125 156 185 228 275
#     4  10  19  31  46  65  94 122 154 191 226 269
#     4  10  19  31  46  65  94 122 154 191 226 269
#
# _framework density 22.596032999999998
#
# number of rings (size 3 to 8) (size 9 to 14) (size 15 to 20)
#    0.000    2.571    0.000    2.571    0.000    4.571 
#    0.000    0.000    0.000    0.000    0.000    0.000 
#    0.000  205.714    0.000    0.000    0.000    0.000 
#
# Total GULP energy -313059.253198 kJ/mol
# GULP energy per Si atom -5590.343807 kJ/mol
# Density = 2.254460 g / cm^3
# Si number density = 22.596033 Si / 1000 Ang^3
#
#
#
# Elastic Constant Matrix: (Units=GPa)
#
#
# Indices 1 2 3 4 5 6 
#
# 1 55.7335 30.8038 17.5640 0.0000 0.0000 0.0000
# 2 30.8038 191.9030 27.8022 0.0000 0.0000 0.0000
# 3 17.5640 27.8022 54.5014 0.0000 0.0000 0.0000
# 4 0.0000 0.0000 0.0000 28.6496 0.0000 0.0000
# 5 0.0000 0.0000 0.0000 0.0000 14.0730 0.0000
# 6 0.0000 0.0000 0.0000 0.0000 0.0000 23.0870
#
#
#
# Elastic Compliance Matrix: (Units=1/GPa)
#
#
# Indices 1 2 3 4 5 6 
#
# 1 0.021102 -0.002594 -0.005477 0.000000 0.000000 0.000000
# 2 -0.002594 0.005946 -0.002197 0.000000 0.000000 0.000000
# 3 -0.005477 -0.002197 0.021234 0.000000 0.000000 0.000000
# 4 0.000000 0.000000 0.000000 0.034905 0.000000 0.000000
# 5 0.000000 0.000000 0.000000 0.000000 0.071058 0.000000
# 6 0.000000 0.000000 0.000000 0.000000 0.000000 0.043314
#
#
# Mechanical properties :
#
#
# Convention : Reuss Voigt Hill
#
# Bulk Modulus (GPa) = 36.04197 50.49757 43.26977
# Shear Modulus (GPa) = 21.99309 28.22643 25.10976
#
# Velocity S-wave (km/s) = 3.12319 3.53820 3.33715
# Velocity P-wave (km/s) = 5.38432 6.25207 5.83435
#
# Compressibility (1/GPa) = 0.02774543
#
# Stress axis : x y z
#
# Youngs Moduli (GPa) = 47.38827 168.19129 47.09397
#
# Poissons Ratio (x) = 0.43624 0.25796
# Poissons Ratio (y) = 0.12291 0.10347
# Poissons Ratio (z) = 0.25957 0.36953
#
# Static dielectric constant tensor:
#      x y z
#    x 1.914770 0.000000 0.000000 
#    y 0.000000 1.860270 0.000000 
#    z 0.000000 0.000000 1.802020 
# 
# From -- ./inp_files/30513.got.cif
#   From: 2010.05.17/outbox.cif.g08.bks.cpg/sg58_16_cif.got.tgz:30513.got - 2010.06.03 14:20:14.
