data_PCOD9441973
_publ_section_title
;
Structure prediction by ZEFSAII (Michael W. Deem and Ramdas Pophale) SiO2 
 PCOD9441973
Probable space group: P N N M
;
_chemical_formula_sum "Si O2"
_cell_formula_units_Z 48
_cell_length_a 12.657077
_cell_length_b 13.827783
_cell_length_c 13.530513
_cell_angle_alpha 90.000000
_cell_angle_beta 90.000000
_cell_angle_gamma 90.000000
_cell_volume 2368.101106
_symmetry_space_group_name_H-M "P N N M"
_symmetry_group_IT_number 58
_symmetry_cell_setting 'orthorhombic'
loop_
_space_group_symop_operation_xyz
x,y,z
-x,-y,z
1/2+x,1/2-y,1/2-z
1/2-x,1/2+y,1/2-z
-x,-y,-z
x,y,-z
1/2-x,1/2+y,1/2+z
1/2+x,1/2-y,1/2+z
loop_
_atom_site_type_symbol
_atom_site_label
_atom_site_fract_x
_atom_site_fract_y
_atom_site_fract_z
Si Si1 0.626384 0.497851 0.115346
Si Si2 0.531018 0.313908 0.384244
Si Si3 0.753691 0.423534 0.611542
Si Si4 0.007599 0.606560 0.887232
Si Si5 0.686965 0.618811 0.704754
Si Si6 0.274203 0.163928 0.310994
O O1 0.500000 0.500000 0.127272
O O2 0.681343 0.578494 0.183853
O O3 0.673181 0.396961 0.155524
O O4 0.651166 0.509984 0.000000
O O5 0.500308 0.305747 0.500000
O O6 0.636799 0.376039 0.381548
O O7 0.547288 0.203739 0.345991
O O8 0.434422 0.364407 0.328922
O O9 0.793295 0.409478 0.500000
O O10 0.739721 0.535789 0.638585
O O11 0.811896 0.371435 0.702155
O O12 0.130471 0.635839 0.883406
O O13 0.000000 0.500000 0.840040
O O14 0.968193 0.595928 0.000000
O O15 0.740967 0.722051 0.692067
#
# Coordination Sequence:
#
# PCOD9441973 Si02
#       6
#     8   8   8   8   8   8
#     4  10  21  37  57  83 116 151 186 227 280 345
#     4   9  17  30  51  77 103 133 174 224 272 320
#     4  10  20  33  51  77 107 139 176 220 272 326
#     4   9  18  33  54  80 108 140 181 229 278 324
#     4  10  19  33  53  76 104 139 181 227 274 323
#     4  10  21  35  54  79 109 143 182 229 277 331
#
# _framework density 20.269404999999999
#
# number of rings (size 3 to 8) (size 9 to 14) (size 15 to 20)
#    0.000    2.333    0.000    3.500    0.000    6.667 
#    0.000    1.667    0.000    0.500    0.000    0.000 
#    0.000    0.000    0.000    0.000    0.000    0.000 
#
# Total GULP energy -267775.227293 kJ/mol
# GULP energy per Si atom -5578.650569 kJ/mol
# Density = 2.022327 g / cm^3
# Si number density = 20.269405 Si / 1000 Ang^3
#
#
#
# Elastic Constant Matrix: (Units=GPa)
#
#
# Indices 1 2 3 4 5 6 
#
# 1 30.2842 17.9541 7.4675 0.0000 0.0000 0.0000
# 2 17.9541 155.2688 17.8085 0.0000 0.0000 0.0000
# 3 7.4675 17.8085 95.2949 0.0000 0.0000 0.0000
# 4 0.0000 0.0000 0.0000 14.1783 0.0000 0.0000
# 5 0.0000 0.0000 0.0000 0.0000 19.9257 0.0000
# 6 0.0000 0.0000 0.0000 0.0000 0.0000 28.6402
#
#
#
# Elastic Compliance Matrix: (Units=1/GPa)
#
#
# Indices 1 2 3 4 5 6 
#
# 1 0.035849 -0.003907 -0.002079 0.000000 0.000000 0.000000
# 2 -0.003907 0.007007 -0.001003 0.000000 0.000000 0.000000
# 3 -0.002079 -0.001003 0.010844 0.000000 0.000000 0.000000
# 4 0.000000 0.000000 0.000000 0.070531 0.000000 0.000000
# 5 0.000000 0.000000 0.000000 0.000000 0.050187 0.000000
# 6 0.000000 0.000000 0.000000 0.000000 0.000000 0.034916
#
#
# Mechanical properties :
#
#
# Convention : Reuss Voigt Hill
#
# Bulk Modulus (GPa) = 25.17491 40.81203 32.99347
# Shear Modulus (GPa) = 21.13688 28.39000 24.76344
#
# Velocity S-wave (km/s) = 3.23274 3.74656 3.49910
# Velocity P-wave (km/s) = 5.13627 6.23652 5.71294
#
# Compressibility (1/GPa) = 0.03972209
#
# Stress axis : x y z
#
# Youngs Moduli (GPa) = 27.89448 142.70853 92.21547
#
# Poissons Ratio (x) = 0.55755 0.19173
# Poissons Ratio (y) = 0.10898 0.09252
# Poissons Ratio (z) = 0.05800 0.14319
#
# Static dielectric constant tensor:
#      x y z
#    x 1.705730 0.000000 0.000000 
#    y 0.000000 1.744830 0.000000 
#    z 0.000000 0.000000 1.773040 
# 
# From -- ./inp_files/22104.got.cif
#   From: 2010.05.17/outbox.cif.g08.bks.cpg/sg58_12_cif.got.tgz:22104.got - 2010.06.03 14:20:14.
