data_PCOD9441390
_publ_section_title
;
Structure prediction by ZEFSAII (Michael W. Deem and Ramdas Pophale) SiO2 
 PCOD9441390
Probable space group: P N N M
;
_chemical_formula_sum "Si O2"
_cell_formula_units_Z 28
_cell_length_a 7.344941
_cell_length_b 12.181839
_cell_length_c 12.964535
_cell_angle_alpha 90.000000
_cell_angle_beta 90.000000
_cell_angle_gamma 90.000000
_cell_volume 1160.000327
_symmetry_space_group_name_H-M "P N N M"
_symmetry_group_IT_number 58
_symmetry_cell_setting 'orthorhombic'
loop_
_space_group_symop_operation_xyz
x,y,z
-x,-y,z
1/2+x,1/2-y,1/2-z
1/2-x,1/2+y,1/2-z
-x,-y,-z
x,y,-z
1/2-x,1/2+y,1/2+z
1/2+x,1/2-y,1/2+z
loop_
_atom_site_type_symbol
_atom_site_label
_atom_site_fract_x
_atom_site_fract_y
_atom_site_fract_z
Si Si1 0.706748 0.457672 0.677384
Si Si2 0.500000 0.000000 0.344995
Si Si3 0.446925 0.765974 0.344796
Si Si4 0.848203 0.683866 0.388864
O O1 0.500000 0.500000 0.696047
O O2 0.684237 0.336694 0.630170
O O3 0.811721 0.552721 0.615739
O O4 0.828159 0.454056 0.779874
O O5 0.415630 0.887625 0.388723
O O6 0.644887 0.731106 0.381792
O O7 0.437246 0.777620 0.218947
O O8 0.929109 0.714243 0.500000
#
# Coordination Sequence:
#
# PCOD9441390 Si02
#       4
#     8   4   8   8
#     4   9  19  34  59  88 119 165 207 262 323 375
#     4  10  18  34  58  88 122 170 202 262 328 386
#     4  10  19  37  61  88 130 163 205 268 326 379
#     4  10  21  38  64  91 122 167 216 267 320 388
#
# _framework density 24.137924999999999
#
# number of rings (size 3 to 8) (size 9 to 14) (size 15 to 20)
#    0.000    2.286    2.857    0.000    0.000    5.143 
#    0.000   13.571    0.000    7.714    0.000    0.000 
#    0.000    0.000    0.000    0.000    0.000    0.000 
#
# Total GULP energy -156018.359635 kJ/mol
# GULP energy per Si atom -5572.084273 kJ/mol
# Density = 2.408299 g / cm^3
# Si number density = 24.137925 Si / 1000 Ang^3
#
#
#
# Elastic Constant Matrix: (Units=GPa)
#
#
# Indices 1 2 3 4 5 6 
#
# 1 78.9832 -3.7897 11.3331 0.0000 0.0000 0.0000
# 2 -3.7897 206.0584 10.3523 0.0000 0.0000 0.0000
# 3 11.3331 10.3523 156.3340 0.0000 0.0000 0.0000
# 4 0.0000 0.0000 0.0000 -13.8513 0.0000 0.0000
# 5 0.0000 0.0000 0.0000 0.0000 -11.1708 0.0000
# 6 0.0000 0.0000 0.0000 0.0000 0.0000 39.2746
#
#
#
# Elastic Compliance Matrix: (Units=1/GPa)
#
#
# Indices 1 2 3 4 5 6 
#
# 1 0.012810 0.000283 -0.000947 0.000000 0.000000 0.000000
# 2 0.000283 0.004875 -0.000343 0.000000 0.000000 0.000000
# 3 -0.000947 -0.000343 0.006488 0.000000 0.000000 0.000000
# 4 0.000000 0.000000 0.000000 -0.072195 0.000000 0.000000
# 5 0.000000 0.000000 0.000000 0.000000 -0.089519 0.000000
# 6 0.000000 0.000000 0.000000 0.000000 0.000000 0.025462
#
#
# Mechanical properties :
#
#
# Convention : Reuss Voigt Hill
#
# Bulk Modulus (GPa) = 45.12902 53.01855 49.07378
# Shear Modulus (GPa) = -48.69640 31.08248 -8.80696
#
# Velocity S-wave (km/s) = -4.49645 3.59235 -1.91220
# Velocity P-wave (km/s) = 2.86714 6.26252 3.93692
#
# Compressibility (1/GPa) = 0.02215869
#
# Stress axis : x y z
#
# Youngs Moduli (GPa) = 78.06127 205.10912 154.13115
#
# Poissons Ratio (x) = -0.05809 0.14603
# Poissons Ratio (y) = -0.02211 0.05293
# Poissons Ratio (z) = 0.07396 0.07043
#
# Static dielectric constant tensor:
#      x y z
#    x 1.883380 0.000000 0.000000 
#    y 0.000000 2.016030 0.000000 
#    z 0.000000 0.000000 1.999370 
# 
# From -- ./inp_files/18991.got.cif
#   From: 2010.05.17/outbox.cif.g08.bks.cpg/sg58_10_cif.got.tgz:18991.got - 2010.06.03 14:20:14.
