data_PCOD9441434
_publ_section_title
;
Structure prediction by ZEFSAII (Michael W. Deem and Ramdas Pophale) SiO2 
 PCOD9441434
Probable space group: P N N M
;
_chemical_formula_sum "Si O2"
_cell_formula_units_Z 40
_cell_length_a 8.932092
_cell_length_b 12.195884
_cell_length_c 15.422837
_cell_angle_alpha 90.000000
_cell_angle_beta 90.000000
_cell_angle_gamma 90.000000
_cell_volume 1680.083015
_symmetry_space_group_name_H-M "P N N M"
_symmetry_group_IT_number 58
_symmetry_cell_setting 'orthorhombic'
loop_
_space_group_symop_operation_xyz
x,y,z
-x,-y,z
1/2+x,1/2-y,1/2-z
1/2-x,1/2+y,1/2-z
-x,-y,-z
x,y,-z
1/2-x,1/2+y,1/2+z
1/2+x,1/2-y,1/2+z
loop_
_atom_site_type_symbol
_atom_site_label
_atom_site_fract_x
_atom_site_fract_y
_atom_site_fract_z
Si Si1 0.515751 0.768277 0.271322
Si Si2 0.302412 0.596762 0.222720
Si Si3 0.650448 0.074985 0.398886
Si Si4 0.176645 0.007577 0.092953
Si Si5 0.062512 0.375701 0.590742
O O1 0.467300 0.646124 0.242420
O O2 0.682611 0.805956 0.297586
O O3 0.400381 0.817532 0.343656
O O4 0.485393 0.827154 0.180284
O O5 0.270915 0.500131 0.153575
O O6 0.263017 0.556377 0.318785
O O7 0.689291 0.096387 0.500000
O O8 0.500000 0.000000 0.398159
O O9 0.258406 0.891006 0.089428
O O10 0.210857 0.063822 0.000000
O O11 0.000000 0.000000 0.096971
O O12 0.019682 0.318439 0.500000
O O13 0.000000 0.500000 0.586505
#
# Coordination Sequence:
#
# PCOD9441434 Si02
#       5
#     8   8   8   8   8
#     4  11  22  37  58  88 118 159 199 249 300 359
#     4  11  23  37  60  88 122 156 203 246 300 359
#     4   9  19  40  62  82 116 161 203 245 296 357
#     4  10  21  37  60  87 116 150 190 244 304 356
#     4  10  18  35  61  83 110 148 189 240 302 355
#
# _framework density 23.808347000000001
#
# number of rings (size 3 to 8) (size 9 to 14) (size 15 to 20)
#    0.000    1.800    4.000    0.600    2.800    1.600 
#    0.000    0.000    0.000    4.200    0.000    0.000 
#    0.000    0.000    0.000    0.000    0.000    0.000 
#
# Total GULP energy -222807.006878 kJ/mol
# GULP energy per Si atom -5570.175172 kJ/mol
# Density = 2.375416 g / cm^3
# Si number density = 23.808347 Si / 1000 Ang^3
#
#
#
# Elastic Constant Matrix: (Units=GPa)
#
#
# Indices 1 2 3 4 5 6 
#
# 1 75.9469 5.1304 9.4607 0.0000 0.0000 0.0000
# 2 5.1304 36.6862 45.7625 0.0000 0.0000 0.0000
# 3 9.4607 45.7625 199.8915 0.0000 0.0000 0.0000
# 4 0.0000 0.0000 0.0000 -0.3347 0.0000 0.0000
# 5 0.0000 0.0000 0.0000 0.0000 26.3486 0.0000
# 6 0.0000 0.0000 0.0000 0.0000 0.0000 32.3248
#
#
#
# Elastic Compliance Matrix: (Units=1/GPa)
#
#
# Indices 1 2 3 4 5 6 
#
# 1 0.013304 -0.001505 -0.000285 0.000000 0.000000 0.000000
# 2 -0.001505 0.038324 -0.008703 0.000000 0.000000 0.000000
# 3 -0.000285 -0.008703 0.007009 0.000000 0.000000 0.000000
# 4 0.000000 0.000000 0.000000 -2.988062 0.000000 0.000000
# 5 0.000000 0.000000 0.000000 0.000000 0.037953 0.000000
# 6 0.000000 0.000000 0.000000 0.000000 0.000000 0.030936
#
#
# Mechanical properties :
#
#
# Convention : Reuss Voigt Hill
#
# Bulk Modulus (GPa) = 26.55903 48.13686 37.34794
# Shear Modulus (GPa) = -1.76866 28.47913 13.35524
#
# Velocity S-wave (km/s) = -0.86284 3.46234 2.37100
# Velocity P-wave (km/s) = 3.19169 6.02047 4.81835
#
# Compressibility (1/GPa) = 0.03765198
#
# Stress axis : x y z
#
# Youngs Moduli (GPa) = 75.16382 26.09307 142.68255
#
# Poissons Ratio (x) = 0.03926 0.04069
# Poissons Ratio (y) = 0.11311 1.24171
# Poissons Ratio (z) = 0.02144 0.22708
#
# Static dielectric constant tensor:
#      x y z
#    x 2.035500 0.000000 0.000000 
#    y 0.000000 1.929650 0.000000 
#    z 0.000000 0.000000 1.944070 
# 
# From -- ./inp_files/19470.got.cif
#   From: 2010.05.17/outbox.cif.g08.bks.cpg/sg58_10_cif.got.tgz:19470.got - 2010.06.03 14:20:14.
