data_PCOD9441649
_publ_section_title
;
Structure prediction by ZEFSAII (Michael W. Deem and Ramdas Pophale) SiO2 
 PCOD9441649
Probable space group: P N N M
;
_chemical_formula_sum "Si O2"
_cell_formula_units_Z 56
_cell_length_a 19.713472
_cell_length_b 18.416341
_cell_length_c 8.660210
_cell_angle_alpha 90.000000
_cell_angle_beta 90.000000
_cell_angle_gamma 90.000000
_cell_volume 3144.089437
_symmetry_space_group_name_H-M "P N N M"
_symmetry_group_IT_number 58
_symmetry_cell_setting 'orthorhombic'
loop_
_space_group_symop_operation_xyz
x,y,z
-x,-y,z
1/2+x,1/2-y,1/2-z
1/2-x,1/2+y,1/2-z
-x,-y,-z
x,y,-z
1/2-x,1/2+y,1/2+z
1/2+x,1/2-y,1/2+z
loop_
_atom_site_type_symbol
_atom_site_label
_atom_site_fract_x
_atom_site_fract_y
_atom_site_fract_z
Si Si1 0.712295 0.069866 0.814999
Si Si2 0.808634 0.182539 0.315616
Si Si3 0.923532 0.484895 0.686558
Si Si4 0.333595 0.149728 0.814781
Si Si5 0.072033 0.078668 0.181486
Si Si6 0.289626 0.566056 0.820034
Si Si7 0.064852 0.917346 0.683745
O O1 0.741358 0.147622 0.760405
O O2 0.637508 0.040222 0.763290
O O3 0.766202 0.010838 0.751155
O O4 0.712886 0.067395 0.000000
O O5 0.799024 0.176914 0.500000
O O6 0.831327 0.264870 0.282614
O O7 0.873227 0.133571 0.272297
O O8 0.925873 0.491837 0.500000
O O9 0.897996 0.402430 0.718930
O O10 0.000000 0.500000 0.744622
O O11 0.273878 0.116526 0.713619
O O12 0.320137 0.140032 0.000000
O O13 0.145758 0.101568 0.238016
O O14 0.008488 0.113549 0.269239
O O15 0.071335 0.993583 0.228617
O O16 0.063831 0.086988 0.000000
O O17 0.304022 0.556010 0.000000
O O18 0.066226 0.930421 0.500000
#
# Coordination Sequence:
#
# PCOD9441649 Si02
#       7
#     8   8   8   8   8   8   8
#     4  10  19  31  53  80 104 134 174 219 265 323
#     4  10  20  34  52  75 108 144 174 215 271 325
#     4   8  15  31  55  80 103 132 176 225 266 312
#     4   9  19  35  54  77 105 140 178 219 271 326
#     4  11  20  31  49  74 102 136 174 219 262 307
#     4  11  20  33  52  75 102 135 175 222 265 315
#     4  10  19  31  48  73 104 140 175 211 254 314
#
# _framework density 17.811198000000001
#
# number of rings (size 3 to 8) (size 9 to 14) (size 15 to 20)
#    0.000    2.143    1.429    5.143    0.000    1.143 
#    0.000    1.429    0.000   14.143    0.000    0.000 
#    0.000    0.000    0.000    0.000    0.000    0.000 
#
# Total GULP energy -311933.898698 kJ/mol
# GULP energy per Si atom -5570.248191 kJ/mol
# Density = 1.777066 g / cm^3
# Si number density = 17.811198 Si / 1000 Ang^3
#
#
#
# Elastic Constant Matrix: (Units=GPa)
#
#
# Indices 1 2 3 4 5 6 
#
# 1 129.3375 45.0676 20.2815 0.0000 0.0000 0.0000
# 2 45.0676 80.7481 22.5654 0.0000 0.0000 0.0000
# 3 20.2815 22.5654 39.6771 0.0000 0.0000 0.0000
# 4 0.0000 0.0000 0.0000 3.7131 0.0000 0.0000
# 5 0.0000 0.0000 0.0000 0.0000 27.2370 0.0000
# 6 0.0000 0.0000 0.0000 0.0000 0.0000 14.7971
#
#
#
# Elastic Compliance Matrix: (Units=1/GPa)
#
#
# Indices 1 2 3 4 5 6 
#
# 1 0.009764 -0.004821 -0.002249 0.000000 0.000000 0.000000
# 2 -0.004821 0.017105 -0.007264 0.000000 0.000000 0.000000
# 3 -0.002249 -0.007264 0.030484 0.000000 0.000000 0.000000
# 4 0.000000 0.000000 0.000000 0.269320 0.000000 0.000000
# 5 0.000000 0.000000 0.000000 0.000000 0.036715 0.000000
# 6 0.000000 0.000000 0.000000 0.000000 0.000000 0.067581
#
#
# Mechanical properties :
#
#
# Convention : Reuss Voigt Hill
#
# Bulk Modulus (GPa) = 34.86097 47.28795 41.07446
# Shear Modulus (GPa) = 10.65646 19.93931 15.29788
#
# Velocity S-wave (km/s) = 2.44867 3.34950 2.93386
# Velocity P-wave (km/s) = 5.25449 6.44717 5.88114
#
# Compressibility (1/GPa) = 0.02868538
#
# Stress axis : x y z
#
# Youngs Moduli (GPa) = 102.41335 58.46298 32.80394
#
# Poissons Ratio (x) = 0.28186 0.07378
# Poissons Ratio (y) = 0.49375 0.23827
# Poissons Ratio (z) = 0.23035 0.42465
#
# Static dielectric constant tensor:
#      x y z
#    x 1.677410 0.000000 0.000000 
#    y 0.000000 1.625820 0.000000 
#    z 0.000000 0.000000 1.598940 
# 
# From -- ./inp_files/9170.got.cif
#   From: 2010.05.17/outbox.cif.g08.bks.cpg/sg58_5_cif.got.tgz:9170.got - 2010.06.03 14:20:14.
