data_PCOD9441990
_publ_section_title
;
Structure prediction by ZEFSAII (Michael W. Deem and Ramdas Pophale) SiO2 
 PCOD9441990
Probable space group: P N N M
;
_chemical_formula_sum "Si O2"
_cell_formula_units_Z 48
_cell_length_a 19.395997
_cell_length_b 15.052953
_cell_length_c 7.633378
_cell_angle_alpha 90.000000
_cell_angle_beta 90.000000
_cell_angle_gamma 90.000000
_cell_volume 2228.694713
_symmetry_space_group_name_H-M "P N N M"
_symmetry_group_IT_number 58
_symmetry_cell_setting 'orthorhombic'
loop_
_space_group_symop_operation_xyz
x,y,z
-x,-y,z
1/2+x,1/2-y,1/2-z
1/2-x,1/2+y,1/2-z
-x,-y,-z
x,y,-z
1/2-x,1/2+y,1/2+z
1/2+x,1/2-y,1/2+z
loop_
_atom_site_type_symbol
_atom_site_label
_atom_site_fract_x
_atom_site_fract_y
_atom_site_fract_z
Si Si1 0.574774 0.265002 0.784156
Si Si2 0.696289 0.395346 0.213143
Si Si3 0.649452 0.884447 0.702753
Si Si4 0.641332 0.086701 0.796380
Si Si5 0.576573 0.716879 0.798947
Si Si6 0.797501 0.099984 0.712304
O O1 0.635500 0.331194 0.728606
O O2 0.593498 0.165295 0.726594
O O3 0.499389 0.294471 0.722367
O O4 0.574459 0.264133 0.000000
O O5 0.772995 0.369228 0.274078
O O6 0.685399 0.498196 0.260751
O O7 0.698304 0.392431 0.000000
O O8 0.648143 0.858305 0.500000
O O9 0.595702 0.820790 0.796147
O O10 0.636030 0.989613 0.712767
O O11 0.720740 0.118966 0.780185
O O12 0.625455 0.073794 0.000000
O O13 0.642018 0.664330 0.723272
O O14 0.571885 0.685787 0.000000
O O15 0.792861 0.105084 0.500000
#
# Coordination Sequence:
#
# PCOD9441990 Si02
#       6
#     8   8   8   8   8   8
#     4   9  18  31  49  74 102 133 169 207 248 298
#     4   8  15  30  51  74  98 127 165 206 246 291
#     4  10  20  35  54  75 100 131 170 215 260 303
#     4  10  19  33  54  76  99 132 174 215 253 296
#     4  10  20  33  50  75 105 135 168 206 249 300
#     4   9  18  32  52  78 105 132 165 207 253 300
#
# _framework density 21.537268999999998
#
# number of rings (size 3 to 8) (size 9 to 14) (size 15 to 20)
#    0.000    2.667    0.000    3.000    0.000    3.333 
#    0.000    8.333    0.000    6.000    0.000    5.833 
#    0.000    0.000    0.000    0.000    0.000    0.000 
#
# Total GULP energy -267971.151860 kJ/mol
# GULP energy per Si atom -5582.732330 kJ/mol
# Density = 2.148825 g / cm^3
# Si number density = 21.537269 Si / 1000 Ang^3
#
#
#
# Elastic Constant Matrix: (Units=GPa)
#
#
# Indices 1 2 3 4 5 6 
#
# 1 18.9386 3.4465 -3.3872 0.0000 0.0000 0.0000
# 2 3.4465 28.9852 -3.7320 0.0000 0.0000 0.0000
# 3 -3.3872 -3.7320 46.6995 0.0000 0.0000 0.0000
# 4 0.0000 0.0000 0.0000 15.1407 0.0000 0.0000
# 5 0.0000 0.0000 0.0000 0.0000 13.7853 0.0000
# 6 0.0000 0.0000 0.0000 0.0000 0.0000 5.9380
#
#
#
# Elastic Compliance Matrix: (Units=1/GPa)
#
#
# Indices 1 2 3 4 5 6 
#
# 1 0.054522 -0.006036 0.003472 0.000000 0.000000 0.000000
# 2 -0.006036 0.035527 0.002401 0.000000 0.000000 0.000000
# 3 0.003472 0.002401 0.021857 0.000000 0.000000 0.000000
# 4 0.000000 0.000000 0.000000 0.066047 0.000000 0.000000
# 5 0.000000 0.000000 0.000000 0.000000 0.072541 0.000000
# 6 0.000000 0.000000 0.000000 0.000000 0.000000 0.168406
#
#
# Mechanical properties :
#
#
# Convention : Reuss Voigt Hill
#
# Bulk Modulus (GPa) = 8.96208 9.69756 9.32982
# Shear Modulus (GPa) = 10.95486 13.52587 12.24036
#
# Velocity S-wave (km/s) = 2.25777 2.50875 2.38656
# Velocity P-wave (km/s) = 3.31163 3.59225 3.45479
#
# Compressibility (1/GPa) = 0.11158129
#
# Stress axis : x y z
#
# Youngs Moduli (GPa) = 18.34138 28.14737 45.75139
#
# Poissons Ratio (x) = 0.16990 -0.15886
# Poissons Ratio (y) = 0.11071 -0.10987
# Poissons Ratio (z) = -0.06368 -0.06759
#
# Static dielectric constant tensor:
#      x y z
#    x 1.766330 0.000000 0.000000 
#    y 0.000000 1.759640 0.000000 
#    z 0.000000 0.000000 1.812950 
# 
# From -- ./inp_files/5786.got.cif
#   From: 2010.05.17/outbox.cif.g08.bks.cpg/sg58_3_cif.got.tgz:5786.got - 2010.06.03 14:20:14.
