data_PCOD9441712
_publ_section_title
;
Structure prediction by ZEFSAII (Michael W. Deem and Ramdas Pophale) SiO2 
 PCOD9441712
Probable space group: P N N M
;
_chemical_formula_sum "Si O2"
_cell_formula_units_Z 56
_cell_length_a 14.753062
_cell_length_b 19.138503
_cell_length_c 7.412198
_cell_angle_alpha 90.000000
_cell_angle_beta 90.000000
_cell_angle_gamma 90.000000
_cell_volume 2092.845382
_symmetry_space_group_name_H-M "P N N M"
_symmetry_group_IT_number 58
_symmetry_cell_setting 'orthorhombic'
loop_
_space_group_symop_operation_xyz
x,y,z
-x,-y,z
1/2+x,1/2-y,1/2-z
1/2-x,1/2+y,1/2-z
-x,-y,-z
x,y,-z
1/2-x,1/2+y,1/2+z
1/2+x,1/2-y,1/2+z
loop_
_atom_site_type_symbol
_atom_site_label
_atom_site_fract_x
_atom_site_fract_y
_atom_site_fract_z
Si Si1 0.567481 0.790301 0.206012
Si Si2 0.127662 0.936555 0.715651
Si Si3 0.894245 0.490426 0.719907
Si Si4 0.279945 0.582639 0.707268
Si Si5 0.957572 0.849031 0.214893
Si Si6 0.277671 0.294713 0.785775
Si Si7 0.102470 0.359661 0.283868
O O1 0.509978 0.717559 0.203982
O O2 0.663446 0.769095 0.287722
O O3 0.497391 0.844405 0.289640
O O4 0.581746 0.813657 0.000000
O O5 0.137671 0.941882 0.500000
O O6 0.023358 0.915843 0.753827
O O7 0.181114 0.867555 0.784632
O O8 0.169448 0.007027 0.794277
O O9 0.893485 0.485301 0.500000
O O10 0.820839 0.433381 0.782636
O O11 0.858246 0.566736 0.778759
O O12 0.000000 0.500000 0.769325
O O13 0.267481 0.605638 0.500000
O O14 0.356996 0.633504 0.785801
O O15 0.952659 0.837141 0.000000
O O16 0.171462 0.298122 0.758356
O O17 0.293845 0.294399 0.000000
O O18 0.095384 0.363716 0.500000
#
# Coordination Sequence:
#
# PCOD9441712 Si02
#       7
#     8   8   8   8   8   8   8
#     4   9  20  37  53  78 110 142 182 223 266 324
#     4  10  19  31  51  78 107 142 176 211 263 324
#     4   9  18  34  56  81 106 136 177 226 272 318
#     4  10  19  32  51  79 108 137 178 221 263 317
#     4  10  20  32  49  78 112 142 172 219 269 316
#     4   9  18  33  52  76 106 138 174 219 266 317
#     4  10  19  35  60  81 102 140 184 223 265 320
#
# _framework density 26.757829000000001
#
# number of rings (size 3 to 8) (size 9 to 14) (size 15 to 20)
#    0.000    2.429    1.429    2.143    0.000    5.714 
#    2.571    0.000    0.000    1.714    0.000    0.000 
#    0.000    0.000    0.000    0.000    0.000    0.000 
#
# Total GULP energy -313044.078094 kJ/mol
# GULP energy per Si atom -5590.072823 kJ/mol
# Density = 2.669693 g / cm^3
# Si number density = 26.757829 Si / 1000 Ang^3
#
#
#
# Elastic Constant Matrix: (Units=GPa)
#
#
# Indices 1 2 3 4 5 6 
#
# 1 194.5479 26.6370 -4.0762 0.0000 0.0000 0.0000
# 2 26.6370 101.6106 -5.3273 0.0000 0.0000 0.0000
# 3 -4.0762 -5.3273 109.8151 0.0000 0.0000 0.0000
# 4 0.0000 0.0000 0.0000 1.8677 0.0000 0.0000
# 5 0.0000 0.0000 0.0000 0.0000 -0.7531 0.0000
# 6 0.0000 0.0000 0.0000 0.0000 0.0000 49.8607
#
#
#
# Elastic Compliance Matrix: (Units=1/GPa)
#
#
# Indices 1 2 3 4 5 6 
#
# 1 0.005333 -0.001391 0.000130 0.000000 0.000000 0.000000
# 2 -0.001391 0.010230 0.000445 0.000000 0.000000 0.000000
# 3 0.000130 0.000445 0.009133 0.000000 0.000000 0.000000
# 4 0.000000 0.000000 0.000000 0.535431 0.000000 0.000000
# 5 0.000000 0.000000 0.000000 0.000000 -1.327932 0.000000
# 6 0.000000 0.000000 0.000000 0.000000 0.000000 0.020056
#
#
# Mechanical properties :
#
#
# Convention : Reuss Voigt Hill
#
# Bulk Modulus (GPa) = 43.35934 48.93787 46.14860
# Shear Modulus (GPa) = -6.77113 36.11106 14.66997
#
# Velocity S-wave (km/s) = -1.59249 3.67761 2.34401
# Velocity P-wave (km/s) = 3.58583 6.03009 4.96085
#
# Compressibility (1/GPa) = 0.02306308
#
# Stress axis : x y z
#
# Youngs Moduli (GPa) = 187.49952 97.75628 109.49749
#
# Poissons Ratio (x) = 0.13601 -0.01429
# Poissons Ratio (y) = 0.26087 -0.04868
# Poissons Ratio (z) = -0.02446 -0.04346
#
# Static dielectric constant tensor:
#      x y z
#    x 2.124800 0.000000 0.000000 
#    y 0.000000 2.124850 0.000000 
#    z 0.000000 0.000000 1.997800 
# 
# From -- ./inp_files/6377.got.cif
#   From: 2010.05.17/outbox.cif.g08.bks.cpg/sg58_4_cif.got.tgz:6377.got - 2010.06.03 14:20:14.
