data_PCOD9441752
_publ_section_title
;
Structure prediction by ZEFSAII (Michael W. Deem and Ramdas Pophale) SiO2 
 PCOD9441752
Probable space group: P N N M
;
_chemical_formula_sum "Si O2"
_cell_formula_units_Z 64
_cell_length_a 21.251551
_cell_length_b 20.050934
_cell_length_c 8.904954
_cell_angle_alpha 90.000000
_cell_angle_beta 90.000000
_cell_angle_gamma 90.000000
_cell_volume 3794.520640
_symmetry_space_group_name_H-M "P N N M"
_symmetry_group_IT_number 58
_symmetry_cell_setting 'orthorhombic'
loop_
_space_group_symop_operation_xyz
x,y,z
-x,-y,z
1/2+x,1/2-y,1/2-z
1/2-x,1/2+y,1/2-z
-x,-y,-z
x,y,-z
1/2-x,1/2+y,1/2+z
1/2+x,1/2-y,1/2+z
loop_
_atom_site_type_symbol
_atom_site_label
_atom_site_fract_x
_atom_site_fract_y
_atom_site_fract_z
Si Si1 0.256707 0.071925 0.320721
Si Si2 0.879473 0.079352 0.180176
Si Si3 0.071192 0.203786 0.680403
Si Si4 0.759528 0.579025 0.178756
Si Si5 0.931276 0.211507 0.320644
Si Si6 0.690606 0.208140 0.818991
Si Si7 0.816960 0.291136 0.819812
Si Si8 0.381328 0.571240 0.679193
O O1 0.244137 0.078151 0.500000
O O2 0.302625 0.132204 0.279043
O O3 0.190308 0.079202 0.236927
O O4 0.281035 0.997097 0.292890
O O5 0.808205 0.086311 0.241068
O O6 0.918980 0.138250 0.253104
O O7 0.901316 0.004336 0.219404
O O8 0.879228 0.086057 0.000000
O O9 0.075209 0.197991 0.500000
O O10 0.129465 0.250001 0.728926
O O11 0.079227 0.130396 0.748578
O O12 0.002516 0.231967 0.718825
O O13 0.804030 0.636092 0.243647
O O14 0.751443 0.587329 0.000000
O O15 0.925716 0.208411 0.500000
O O16 0.877675 0.259682 0.256700
O O17 0.754164 0.249027 0.780637
O O18 0.689138 0.201265 0.000000
O O19 0.824490 0.286684 0.000000
O O20 0.383019 0.576685 0.500000
#
# Coordination Sequence:
#
# PCOD9441752 Si02
#       8
#     8   8   8   8   8   8   8   8
#     4   9  18  34  54  77 106 140 171 208 262 314
#     4  10  20  34  50  73 108 144 174 206 257 312
#     4  10  22  39  54  72 104 144 178 211 259 315
#     4  10  19  31  53  82 107 131 172 220 256 300
#     4  11  23  36  53  77 104 137 179 220 255 301
#     4  10  19  34  56  77 103 139 174 209 260 314
#     4  10  19  34  57  78 103 138 172 211 262 312
#     4  10  20  32  51  78 105 137 177 218 252 297
#
# _framework density 16.866425
#
# number of rings (size 3 to 8) (size 9 to 14) (size 15 to 20)
#    0.000    2.000    2.500    1.500    0.000    4.500 
#    0.000    2.500    0.000    0.750    0.000    5.250 
#    0.000    0.000    0.000    0.000    0.000    0.000 
#
# Total GULP energy -357163.146184 kJ/mol
# GULP energy per Si atom -5580.674159 kJ/mol
# Density = 1.682804 g / cm^3
# Si number density = 16.866425 Si / 1000 Ang^3
#
#
#
# Elastic Constant Matrix: (Units=GPa)
#
#
# Indices 1 2 3 4 5 6 
#
# 1 94.6725 54.8276 30.6188 0.0000 0.0000 0.0000
# 2 54.8276 102.9142 32.0183 0.0000 0.0000 0.0000
# 3 30.6188 32.0183 24.3891 0.0000 0.0000 0.0000
# 4 0.0000 0.0000 0.0000 192.6056 0.0000 0.0000
# 5 0.0000 0.0000 0.0000 0.0000 20.2906 0.0000
# 6 0.0000 0.0000 0.0000 0.0000 0.0000 22.0459
#
#
#
# Elastic Compliance Matrix: (Units=1/GPa)
#
#
# Indices 1 2 3 4 5 6 
#
# 1 0.018969 -0.004559 -0.017830 0.000000 0.000000 0.000000
# 2 -0.004559 0.017521 -0.017279 0.000000 0.000000 0.000000
# 3 -0.017830 -0.017279 0.086070 0.000000 0.000000 0.000000
# 4 0.000000 0.000000 0.000000 0.005192 0.000000 0.000000
# 5 0.000000 0.000000 0.000000 0.000000 0.049284 0.000000
# 6 0.000000 0.000000 0.000000 0.000000 0.000000 0.045360
#
#
# Mechanical properties :
#
#
# Convention : Reuss Voigt Hill
#
# Bulk Modulus (GPa) = 23.13441 50.76725 36.95083
# Shear Modulus (GPa) = 15.81573 53.95583 34.88578
#
# Velocity S-wave (km/s) = 3.06552 5.66211 4.55285
# Velocity P-wave (km/s) = 5.12600 8.53879 7.04226
#
# Compressibility (1/GPa) = 0.04322565
#
# Stress axis : x y z
#
# Youngs Moduli (GPa) = 52.71651 57.07353 11.61838
#
# Poissons Ratio (x) = 0.26018 0.20716
# Poissons Ratio (y) = 0.24032 0.20075
# Poissons Ratio (z) = 0.93994 0.98617
#
# Static dielectric constant tensor:
#      x y z
#    x 1.557030 0.000000 0.000000 
#    y 0.000000 1.580130 0.000000 
#    z 0.000000 0.000000 1.563700 
# 
# From -- ./inp_files/8252.got.cif
#   From: 2010.05.17/outbox.cif.g08.bks.cpg/sg58_5_cif.got.tgz:8252.got - 2010.06.03 14:20:14.
