data_PCOD9441659
_publ_section_title
;
Structure prediction by ZEFSAII (Michael W. Deem and Ramdas Pophale) SiO2 
 PCOD9441659
Probable space group: P N N M
;
_chemical_formula_sum "Si O2"
_cell_formula_units_Z 64
_cell_length_a 17.502553
_cell_length_b 21.639249
_cell_length_c 7.420898
_cell_angle_alpha 90.000000
_cell_angle_beta 90.000000
_cell_angle_gamma 90.000000
_cell_volume 2810.606511
_symmetry_space_group_name_H-M "P N N M"
_symmetry_group_IT_number 58
_symmetry_cell_setting 'orthorhombic'
loop_
_space_group_symop_operation_xyz
x,y,z
-x,-y,z
1/2+x,1/2-y,1/2-z
1/2-x,1/2+y,1/2-z
-x,-y,-z
x,y,-z
1/2-x,1/2+y,1/2+z
1/2+x,1/2-y,1/2+z
loop_
_atom_site_type_symbol
_atom_site_label
_atom_site_fract_x
_atom_site_fract_y
_atom_site_fract_z
Si Si1 0.471153 0.598711 0.794375
Si Si2 0.145288 0.206555 0.217778
Si Si3 0.933481 0.326298 0.285960
Si Si4 0.104887 0.343426 0.783831
Si Si5 0.221828 0.621772 0.716482
Si Si6 0.840785 0.985638 0.289719
Si Si7 0.600464 0.687536 0.220042
Si Si8 0.738065 0.608691 0.780055
O O1 0.411970 0.656052 0.796099
O O2 0.419216 0.543806 0.712992
O O3 0.546005 0.631345 0.715267
O O4 0.490131 0.581085 0.000000
O O5 0.124206 0.274299 0.280844
O O6 0.230273 0.183648 0.259624
O O7 0.137148 0.204513 0.000000
O O8 0.921758 0.321092 0.500000
O O9 0.863945 0.368331 0.216784
O O10 0.926495 0.255294 0.217115
O O11 0.016809 0.354941 0.258781
O O12 0.174349 0.386160 0.719246
O O13 0.109912 0.342604 0.000000
O O14 0.220851 0.615166 0.500000
O O15 0.273272 0.565149 0.782030
O O16 0.857232 0.996619 0.500000
O O17 0.806375 0.048370 0.213509
O O18 0.686951 0.668549 0.265292
O O19 0.594646 0.687612 0.000000
O O20 0.739200 0.605408 0.000000
#
# Coordination Sequence:
#
# PCOD9441659 Si02
#       8
#     8   8   8   8   8   8   8   8
#     4   9  16  27  47  75 100 125 154 195 241 280
#     4   9  16  28  47  70  95 124 157 191 235 290
#     4  10  19  32  51  75 100 125 157 200 247 291
#     4  10  19  31  49  71  97 127 160 198 241 286
#     4   9  18  32  51  71  93 127 165 197 235 288
#     4   9  18  32  50  72  99 128 164 202 237 277
#     4   9  16  28  49  75 102 126 155 195 241 293
#     4   9  18  32  49  71  98 131 165 197 234 286
#
# _framework density 22.770885
#
# number of rings (size 3 to 8) (size 9 to 14) (size 15 to 20)
#    0.000    2.750    1.250    0.750    0.000    4.000 
#    0.000    3.750    0.000    8.250    0.000    3.500 
#    0.000    0.000    0.000    0.000    0.000    0.000 
#
# Total GULP energy -357169.578715 kJ/mol
# GULP energy per Si atom -5580.774667 kJ/mol
# Density = 2.271906 g / cm^3
# Si number density = 22.770885 Si / 1000 Ang^3
#
#
#
# Elastic Constant Matrix: (Units=GPa)
#
#
# Indices 1 2 3 4 5 6 
#
# 1 149.9095 36.1019 2.6883 0.0000 0.0000 0.0000
# 2 36.1019 61.7482 1.2004 0.0000 0.0000 0.0000
# 3 2.6883 1.2004 72.1563 0.0000 0.0000 0.0000
# 4 0.0000 0.0000 0.0000 1.4684 0.0000 0.0000
# 5 0.0000 0.0000 0.0000 0.0000 13.9923 0.0000
# 6 0.0000 0.0000 0.0000 0.0000 0.0000 29.4869
#
#
#
# Elastic Compliance Matrix: (Units=1/GPa)
#
#
# Indices 1 2 3 4 5 6 
#
# 1 0.007767 -0.004537 -0.000214 0.000000 0.000000 0.000000
# 2 -0.004537 0.018850 -0.000145 0.000000 0.000000 0.000000
# 3 -0.000214 -0.000145 0.013869 0.000000 0.000000 0.000000
# 4 0.000000 0.000000 0.000000 0.681022 0.000000 0.000000
# 5 0.000000 0.000000 0.000000 0.000000 0.071468 0.000000
# 6 0.000000 0.000000 0.000000 0.000000 0.000000 0.033913
#
#
# Mechanical properties :
#
#
# Convention : Reuss Voigt Hill
#
# Bulk Modulus (GPa) = 32.57793 40.42169 36.49981
# Shear Modulus (GPa) = 5.90380 25.24441 15.57410
#
# Velocity S-wave (km/s) = 1.61193 3.33322 2.61808
# Velocity P-wave (km/s) = 4.21928 5.70997 5.02027
#
# Compressibility (1/GPa) = 0.03069563
#
# Stress axis : x y z
#
# Youngs Moduli (GPa) = 128.74738 53.04976 72.10232
#
# Poissons Ratio (x) = 0.24069 0.01542
# Poissons Ratio (y) = 0.58413 0.01042
# Poissons Ratio (z) = 0.02754 0.00767
#
# Static dielectric constant tensor:
#      x y z
#    x 1.870950 0.000000 0.000000 
#    y 0.000000 1.831820 0.000000 
#    z 0.000000 0.000000 1.899390 
# 
# From -- ./inp_files/8425.got.cif
#   From: 2010.05.17/outbox.cif.g08.bks.cpg/sg58_5_cif.got.tgz:8425.got - 2010.06.03 14:20:14.
