data_PCOD9441910
_publ_section_title
;
Structure prediction by ZEFSAII (Michael W. Deem and Ramdas Pophale) SiO2 
 PCOD9441910
Probable space group: P N N M
;
_chemical_formula_sum "Si O2"
_cell_formula_units_Z 64
_cell_length_a 21.121389
_cell_length_b 20.053677
_cell_length_c 8.725228
_cell_angle_alpha 90.000000
_cell_angle_beta 90.000000
_cell_angle_gamma 90.000000
_cell_volume 3695.670771
_symmetry_space_group_name_H-M "P N N M"
_symmetry_group_IT_number 58
_symmetry_cell_setting 'orthorhombic'
loop_
_space_group_symop_operation_xyz
x,y,z
-x,-y,z
1/2+x,1/2-y,1/2-z
1/2-x,1/2+y,1/2-z
-x,-y,-z
x,y,-z
1/2-x,1/2+y,1/2+z
1/2+x,1/2-y,1/2+z
loop_
_atom_site_type_symbol
_atom_site_label
_atom_site_fract_x
_atom_site_fract_y
_atom_site_fract_z
Si Si1 0.382190 0.573810 0.684386
Si Si2 0.065607 0.214467 0.184062
Si Si3 0.815027 0.706933 0.683569
Si Si4 0.241445 0.574483 0.183762
Si Si5 0.382569 0.424934 0.684437
Si Si6 0.066939 0.790462 0.318093
Si Si7 0.186063 0.712658 0.815747
Si Si8 0.740487 0.076015 0.683763
O O1 0.381911 0.573905 0.500000
O O2 0.421930 0.637700 0.735062
O O3 0.310379 0.582784 0.741597
O O4 0.403701 0.499587 0.731705
O O5 0.124207 0.257791 0.243912
O O6 0.998605 0.236796 0.250688
O O7 0.063972 0.216283 0.000000
O O8 0.820930 0.706037 0.500000
O O9 0.751294 0.748679 0.721816
O O10 0.803674 0.633019 0.747850
O O11 0.196663 0.635572 0.228903
O O12 0.218756 0.499613 0.218802
O O13 0.250008 0.578898 0.000000
O O14 0.383664 0.420386 0.500000
O O15 0.422544 0.364969 0.753184
O O16 0.310374 0.416726 0.742847
O O17 0.064618 0.792240 0.500000
O O18 0.126847 0.747355 0.263240
O O19 0.177631 0.716934 0.000000
O O20 0.745524 0.083315 0.500000
#
# Coordination Sequence:
#
# PCOD9441910 Si02
#       8
#     8   8   8   8   8   8   8   8
#     4   9  19  33  53  79 108 144 184 224 268 323
#     4  11  23  39  57  79 111 148 187 231 279 330
#     4  11  21  35  58  84 113 147 184 226 275 326
#     4   9  18  33  55  82 111 142 178 225 274 323
#     4  10  19  34  53  77 110 147 185 224 270 321
#     4  12  25  38  54  79 111 148 190 231 275 329
#     4  10  20  36  58  82 111 146 183 226 277 326
#     4  10  19  32  54  84 113 142 181 225 272 322
#
# _framework density 17.317558999999999
#
# number of rings (size 3 to 8) (size 9 to 14) (size 15 to 20)
#    0.000    1.750    2.500    2.625    0.000    3.000 
#    0.000    2.500    0.000    0.750    0.000    5.250 
#    0.000    0.000    0.000    0.000    0.000    0.000 
#
# Total GULP energy -357351.559459 kJ/mol
# GULP energy per Si atom -5583.618117 kJ/mol
# Density = 1.727814 g / cm^3
# Si number density = 17.317559 Si / 1000 Ang^3
#
#
#
# Elastic Constant Matrix: (Units=GPa)
#
#
# Indices 1 2 3 4 5 6 
#
# 1 103.0661 51.8462 41.7771 0.0000 0.0000 0.0000
# 2 51.8462 101.5676 36.1915 0.0000 0.0000 0.0000
# 3 41.7771 36.1915 55.5584 0.0000 0.0000 0.0000
# 4 0.0000 0.0000 0.0000 22.2111 0.0000 0.0000
# 5 0.0000 0.0000 0.0000 0.0000 24.4255 0.0000
# 6 0.0000 0.0000 0.0000 0.0000 0.0000 19.7009
#
#
#
# Elastic Compliance Matrix: (Units=1/GPa)
#
#
# Indices 1 2 3 4 5 6 
#
# 1 0.015656 -0.004945 -0.008552 0.000000 0.000000 0.000000
# 2 -0.004945 0.014384 -0.005651 0.000000 0.000000 0.000000
# 3 -0.008552 -0.005651 0.028111 0.000000 0.000000 0.000000
# 4 0.000000 0.000000 0.000000 0.045022 0.000000 0.000000
# 5 0.000000 0.000000 0.000000 0.000000 0.040941 0.000000
# 6 0.000000 0.000000 0.000000 0.000000 0.000000 0.050759
#
#
# Mechanical properties :
#
#
# Convention : Reuss Voigt Hill
#
# Bulk Modulus (GPa) = 50.36500 57.75797 54.06148
# Shear Modulus (GPa) = 20.85185 21.95933 21.40559
#
# Velocity S-wave (km/s) = 3.47376 3.56482 3.51958
# Velocity P-wave (km/s) = 6.72575 7.09708 6.91391
#
# Compressibility (1/GPa) = 0.01985506
#
# Stress axis : x y z
#
# Youngs Moduli (GPa) = 63.87242 69.52410 35.57339
#
# Poissons Ratio (x) = 0.34377 0.30421
# Poissons Ratio (y) = 0.31583 0.20104
# Poissons Ratio (z) = 0.54621 0.39291
#
# Static dielectric constant tensor:
#      x y z
#    x 1.559710 0.000000 0.000000 
#    y 0.000000 1.613160 0.000000 
#    z 0.000000 0.000000 1.575760 
# 
# From -- ./inp_files/8426.got.cif
#   From: 2010.05.17/outbox.cif.g08.bks.cpg/sg58_5_cif.got.tgz:8426.got - 2010.06.03 14:20:14.
