data_PCOD9441566
_publ_section_title
;
Structure prediction by ZEFSAII (Michael W. Deem and Ramdas Pophale) SiO2 
 PCOD9441566
Probable space group: P N N M
;
_chemical_formula_sum "Si O2"
_cell_formula_units_Z 56
_cell_length_a 19.850511
_cell_length_b 18.464539
_cell_length_c 7.624555
_cell_angle_alpha 90.000000
_cell_angle_beta 90.000000
_cell_angle_gamma 90.000000
_cell_volume 2794.632220
_symmetry_space_group_name_H-M "P N N M"
_symmetry_group_IT_number 58
_symmetry_cell_setting 'orthorhombic'
loop_
_space_group_symop_operation_xyz
x,y,z
-x,-y,z
1/2+x,1/2-y,1/2-z
1/2-x,1/2+y,1/2-z
-x,-y,-z
x,y,-z
1/2-x,1/2+y,1/2+z
1/2+x,1/2-y,1/2+z
loop_
_atom_site_type_symbol
_atom_site_label
_atom_site_fract_x
_atom_site_fract_y
_atom_site_fract_z
Si Si1 0.214622 0.518173 0.797301
Si Si2 0.072668 0.478203 0.207868
Si Si3 0.360070 0.539952 0.213939
Si Si4 0.891712 0.686443 0.711855
Si Si5 0.396184 0.374156 0.294484
Si Si6 0.044722 0.167853 0.704688
Si Si7 0.751201 0.145988 0.212999
O O1 0.139298 0.519143 0.718781
O O2 0.283022 0.553387 0.723828
O O3 0.233321 0.432854 0.788989
O O4 0.209629 0.541500 0.000000
O O5 0.083868 0.392160 0.226269
O O6 0.000000 0.500000 0.281542
O O7 0.071984 0.494569 0.000000
O O8 0.384705 0.460227 0.269433
O O9 0.411411 0.601286 0.277211
O O10 0.358910 0.538525 0.000000
O O11 0.895516 0.682994 0.500000
O O12 0.934592 0.754123 0.778610
O O13 0.812548 0.695290 0.758663
O O14 0.402016 0.359263 0.500000
O O15 0.465955 0.348911 0.214170
O O16 0.327038 0.336680 0.229168
O O17 0.063570 0.171031 0.500000
O O18 0.752749 0.139080 0.000000
#
# Coordination Sequence:
#
# PCOD9441566 Si02
#       7
#     8   8   8   8   8   8   8
#     4   8  14  26  45  67  88 113 147 184 223 269
#     4   9  17  30  49  73  97 119 149 193 240 280
#     4   9  17  30  47  66  90 123 160 193 226 269
#     4   9  18  33  50  67  90 123 160 192 226 273
#     4  10  19  30  47  71  95 120 153 192 233 275
#     4  10  20  32  46  66  94 125 156 191 229 272
#     4   8  15  29  47  65  85 112 148 187 224 266
#
# _framework density 20.038415000000001
#
# number of rings (size 3 to 8) (size 9 to 14) (size 15 to 20)
#    0.000    3.000    0.000    0.857    0.000    3.714 
#    0.000    1.429    0.000    5.143    0.000    0.000 
#    0.000    0.000    0.000    0.000    0.000    0.000 
#
# Total GULP energy -311813.856443 kJ/mol
# GULP energy per Si atom -5568.104579 kJ/mol
# Density = 1.999281 g / cm^3
# Si number density = 20.038415 Si / 1000 Ang^3
#
#
#
# Elastic Constant Matrix: (Units=GPa)
#
#
# Indices 1 2 3 4 5 6 
#
# 1 181.1912 49.9432 -4.1718 0.0000 0.0000 0.0000
# 2 49.9432 41.4597 -8.4912 0.0000 0.0000 0.0000
# 3 -4.1718 -8.4912 37.8663 0.0000 0.0000 0.0000
# 4 0.0000 0.0000 0.0000 8.7954 0.0000 0.0000
# 5 0.0000 0.0000 0.0000 0.0000 12.0950 0.0000
# 6 0.0000 0.0000 0.0000 0.0000 0.0000 16.6850
#
#
#
# Elastic Compliance Matrix: (Units=1/GPa)
#
#
# Indices 1 2 3 4 5 6 
#
# 1 0.008332 -0.010324 -0.001397 0.000000 0.000000 0.000000
# 2 -0.010324 0.038071 0.007400 0.000000 0.000000 0.000000
# 3 -0.001397 0.007400 0.027914 0.000000 0.000000 0.000000
# 4 0.000000 0.000000 0.000000 0.113695 0.000000 0.000000
# 5 0.000000 0.000000 0.000000 0.000000 0.082679 0.000000
# 6 0.000000 0.000000 0.000000 0.000000 0.000000 0.059934
#
#
# Mechanical properties :
#
#
# Convention : Reuss Voigt Hill
#
# Bulk Modulus (GPa) = 15.22617 37.23084 26.22851
# Shear Modulus (GPa) = 13.84430 22.39755 18.12093
#
# Velocity S-wave (km/s) = 2.63133 3.34687 3.01044
# Velocity P-wave (km/s) = 4.10449 5.79271 5.02008
#
# Compressibility (1/GPa) = 0.06567640
#
# Stress axis : x y z
#
# Youngs Moduli (GPa) = 120.01320 26.26655 35.82417
#
# Poissons Ratio (x) = 0.27116 0.05004
# Poissons Ratio (y) = 1.23896 -0.26509
# Poissons Ratio (z) = 0.16765 -0.19437
#
# Static dielectric constant tensor:
#      x y z
#    x 1.770450 0.000000 0.000000 
#    y 0.000000 1.669640 0.000000 
#    z 0.000000 0.000000 1.766450 
# 
# From -- ./inp_files/8111.got.cif
#   From: 2010.05.17/outbox.cif.g08.bks.cpg/sg58_5_cif.got.tgz:8111.got - 2010.06.03 14:20:14.
