data_PCOD9441010
_publ_section_title
;
Structure prediction by ZEFSAII (Michael W. Deem and Ramdas Pophale) SiO2 
 PCOD9441010
Probable space group: P N N M
;
_chemical_formula_sum "Si O2"
_cell_formula_units_Z 56
_cell_length_a 8.744760
_cell_length_b 17.623791
_cell_length_c 18.016419
_cell_angle_alpha 90.000000
_cell_angle_beta 90.000000
_cell_angle_gamma 90.000000
_cell_volume 2776.615234
_symmetry_space_group_name_H-M "P N N M"
_symmetry_group_IT_number 58
_symmetry_cell_setting 'orthorhombic'
loop_
_space_group_symop_operation_xyz
x,y,z
-x,-y,z
1/2+x,1/2-y,1/2-z
1/2-x,1/2+y,1/2-z
-x,-y,-z
x,y,-z
1/2-x,1/2+y,1/2+z
1/2+x,1/2-y,1/2+z
loop_
_atom_site_type_symbol
_atom_site_label
_atom_site_fract_x
_atom_site_fract_y
_atom_site_fract_z
Si Si1 0.703253 0.831149 0.334653
Si Si2 0.182087 0.006934 0.305998
Si Si3 0.646197 0.146305 0.672710
Si Si4 0.276280 0.197673 0.842448
Si Si5 0.323456 0.984227 0.143106
Si Si6 0.591533 0.424540 0.582052
Si Si7 0.874097 0.678805 0.351077
O O1 0.526266 0.842626 0.355463
O O2 0.712445 0.815597 0.245883
O O3 0.788727 0.757625 0.368111
O O4 0.779218 0.913258 0.344223
O O5 0.274624 0.934977 0.338979
O O6 0.239850 0.006161 0.220264
O O7 0.000000 0.000000 0.306809
O O8 0.747188 0.214396 0.641698
O O9 0.636029 0.161886 0.761962
O O10 0.127600 0.149928 0.869856
O O11 0.446717 0.179645 0.871565
O O12 0.296667 0.897675 0.118807
O O13 0.500000 0.000000 0.157745
O O14 0.261430 0.040318 0.081612
O O15 0.500000 0.500000 0.608819
O O16 0.536130 0.405553 0.500000
#
# Coordination Sequence:
#
# PCOD9441010 Si02
#       7
#     8   8   8   8   8   8   8
#     4  10  18  29  48  73 101 132 169 204 249 319
#     4  11  19  29  47  73 105 138 166 199 252 315
#     4   9  19  29  46  69 100 134 168 204 250 314
#     4  10  18  34  47  67 102 132 167 216 258 295
#     4  11  19  34  50  69  97 136 174 214 260 296
#     4  11  24  37  52  73  98 136 187 222 252 302
#     4   9  18  29  45  72  95 130 172 204 251 320
#
# _framework density 20.168441000000001
#
# number of rings (size 3 to 8) (size 9 to 14) (size 15 to 20)
#    0.000    1.857    2.857    3.429    2.000    2.571 
#    0.000    0.000    0.000    0.000    0.000    0.000 
#    0.000    8.571    0.000    0.000    0.000    0.286 
#
# Total GULP energy -311880.366189 kJ/mol
# GULP energy per Si atom -5569.292253 kJ/mol
# Density = 2.012254 g / cm^3
# Si number density = 20.168441 Si / 1000 Ang^3
#
#
#
# Elastic Constant Matrix: (Units=GPa)
#
#
# Indices 1 2 3 4 5 6 
#
# 1 87.1163 34.5108 -6.9547 0.0000 0.0000 0.0000
# 2 34.5108 163.0276 -4.8508 0.0000 0.0000 0.0000
# 3 -6.9547 -4.8508 5.1258 0.0000 0.0000 0.0000
# 4 0.0000 0.0000 0.0000 3.3545 0.0000 0.0000
# 5 0.0000 0.0000 0.0000 0.0000 3.5706 0.0000
# 6 0.0000 0.0000 0.0000 0.0000 0.0000 44.7750
#
#
#
# Elastic Compliance Matrix: (Units=1/GPa)
#
#
# Indices 1 2 3 4 5 6 
#
# 1 0.013744 -0.002423 0.016356 0.000000 0.000000 0.000000
# 2 -0.002423 0.006739 0.003090 0.000000 0.000000 0.000000
# 3 0.016356 0.003090 0.220206 0.000000 0.000000 0.000000
# 4 0.000000 0.000000 0.000000 0.298108 0.000000 0.000000
# 5 0.000000 0.000000 0.000000 0.000000 0.280065 0.000000
# 6 0.000000 0.000000 0.000000 0.000000 0.000000 0.022334
#
#
# Mechanical properties :
#
#
# Convention : Reuss Voigt Hill
#
# Bulk Modulus (GPa) = 3.63988 33.40892 18.52440
# Shear Modulus (GPa) = 5.56341 25.84431 15.70386
#
# Velocity S-wave (km/s) = 1.66267 3.58358 2.79343
# Velocity P-wave (km/s) = 2.34406 5.80721 4.42822
#
# Compressibility (1/GPa) = 0.27473434
#
# Stress axis : x y z
#
# Youngs Moduli (GPa) = 72.75678 148.39536 4.54120
#
# Poissons Ratio (x) = 0.35954 -0.07427
# Poissons Ratio (y) = 0.17628 -0.01403
# Poissons Ratio (z) = -1.18998 -0.45851
#
# Static dielectric constant tensor:
#      x y z
#    x 1.761350 0.000000 0.000000 
#    y 0.000000 1.767930 0.000000 
#    z 0.000000 0.000000 1.741410 
# 
# From -- ./inp_files/29069.got.cif
#   From: 2010.05.17/outbox.cif.g08.bks.cpg/sg58_15_cif.got.tgz:29069.got - 2010.06.03 14:20:14.
