data_PCOD9441721
_publ_section_title
;
Structure prediction by ZEFSAII (Michael W. Deem and Ramdas Pophale) SiO2 
 PCOD9441721
Probable space group: P N N M
;
_chemical_formula_sum "Si O2"
_cell_formula_units_Z 64
_cell_length_a 12.036233
_cell_length_b 29.625223
_cell_length_c 8.577432
_cell_angle_alpha 90.000000
_cell_angle_beta 90.000000
_cell_angle_gamma 90.000000
_cell_volume 3058.507137
_symmetry_space_group_name_H-M "P N N M"
_symmetry_group_IT_number 58
_symmetry_cell_setting 'orthorhombic'
loop_
_space_group_symop_operation_xyz
x,y,z
-x,-y,z
1/2+x,1/2-y,1/2-z
1/2-x,1/2+y,1/2-z
-x,-y,-z
x,y,-z
1/2-x,1/2+y,1/2+z
1/2+x,1/2-y,1/2+z
loop_
_atom_site_type_symbol
_atom_site_label
_atom_site_fract_x
_atom_site_fract_y
_atom_site_fract_z
Si Si1 0.024958 0.567440 0.679594
Si Si2 0.859084 0.335923 0.679725
Si Si3 0.468714 0.770910 0.679838
Si Si4 0.789791 0.572050 0.182073
Si Si5 0.248259 0.525121 0.188346
Si Si6 0.357816 0.616753 0.187705
Si Si7 0.775104 0.670183 0.319989
Si Si8 0.456981 0.316813 0.817274
O O1 0.996059 0.556932 0.500000
O O2 0.062282 0.619757 0.686321
O O3 0.132129 0.539614 0.733657
O O4 0.919703 0.560835 0.789659
O O5 0.851701 0.321021 0.500000
O O6 0.740578 0.353243 0.739402
O O7 0.918213 0.297841 0.780834
O O8 0.464615 0.757850 0.500000
O O9 0.367804 0.804316 0.719771
O O10 0.466106 0.726425 0.785575
O O11 0.725230 0.526533 0.230057
O O12 0.768863 0.617331 0.277179
O O13 0.768658 0.581107 0.000000
O O14 0.334932 0.564642 0.230753
O O15 0.234332 0.526116 0.000000
O O16 0.475213 0.638514 0.230559
O O17 0.348504 0.619980 0.000000
O O18 0.804846 0.675588 0.500000
O O19 0.654219 0.689332 0.280756
O O20 0.429054 0.319913 0.000000
#
# Coordination Sequence:
#
# PCOD9441721 Si02
#       8
#     8   8   8   8   8   8   8   8
#     4  10  19  31  51  83 124 164 202 252 309 366
#     4  10  20  35  58  89 125 162 201 249 304 365
#     4  12  25  42  66  93 124 162 204 253 315 378
#     4  11  21  35  58  87 122 165 210 259 316 375
#     4   9  19  35  57  87 122 163 211 258 311 378
#     4   9  20  40  64  89 123 164 209 258 310 370
#     4  12  26  45  66  92 127 164 210 262 317 375
#     4  11  25  45  68  92 122 162 210 260 313 374
#
# _framework density 20.925242999999998
#
# number of rings (size 3 to 8) (size 9 to 14) (size 15 to 20)
#    0.000    1.500    1.250    4.125    1.750    4.500 
#    0.000    0.625    0.000    3.750    0.000    0.000 
#    0.000    0.000    0.000    0.000    0.000    0.000 
#
# Total GULP energy -357775.615182 kJ/mol
# GULP energy per Si atom -5590.243987 kJ/mol
# Density = 2.087762 g / cm^3
# Si number density = 20.925243 Si / 1000 Ang^3
#
#
#
# Elastic Constant Matrix: (Units=GPa)
#
#
# Indices 1 2 3 4 5 6 
#
# 1 25.5344 7.5839 -2.5617 0.0000 0.0000 0.0000
# 2 7.5839 79.2667 -1.6295 0.0000 0.0000 0.0000
# 3 -2.5617 -1.6295 34.0285 0.0000 0.0000 0.0000
# 4 0.0000 0.0000 0.0000 27.7743 0.0000 0.0000
# 5 0.0000 0.0000 0.0000 0.0000 706.4382 0.0000
# 6 0.0000 0.0000 0.0000 0.0000 0.0000 11.8282
#
#
#
# Elastic Compliance Matrix: (Units=1/GPa)
#
#
# Indices 1 2 3 4 5 6 
#
# 1 0.040587 -0.003824 0.002872 0.000000 0.000000 0.000000
# 2 -0.003824 0.012988 0.000334 0.000000 0.000000 0.000000
# 3 0.002872 0.000334 0.029619 0.000000 0.000000 0.000000
# 4 0.000000 0.000000 0.000000 0.036005 0.000000 0.000000
# 5 0.000000 0.000000 0.000000 0.000000 0.001416 0.000000
# 6 0.000000 0.000000 0.000000 0.000000 0.000000 0.084544
#
#
# Mechanical properties :
#
#
# Convention : Reuss Voigt Hill
#
# Bulk Modulus (GPa) = 12.20119 16.17942 14.19031
# Shear Modulus (GPa) = 21.39370 158.23725 89.81547
#
# Velocity S-wave (km/s) = 3.20095 8.70543 6.55860
# Velocity P-wave (km/s) = 4.41644 10.43047 8.00936
#
# Compressibility (1/GPa) = 0.08195922
#
# Stress axis : x y z
#
# Youngs Moduli (GPa) = 24.63852 76.99188 33.76166
#
# Poissons Ratio (x) = 0.29443 -0.09697
# Poissons Ratio (y) = 0.09422 -0.01128
# Poissons Ratio (z) = -0.07077 -0.02572
#
# Static dielectric constant tensor:
#      x y z
#    x 1.731700 0.000000 0.000000 
#    y 0.000000 1.792980 0.000000 
#    z 0.000000 0.000000 1.704280 
# 
# From -- ./inp_files/4662.got.cif
#   From: 2010.05.17/outbox.cif.g08.bks.cpg/sg58_3_cif.got.tgz:4662.got - 2010.06.03 14:20:14.
