data_PCOD9441736
_publ_section_title
;
Structure prediction by ZEFSAII (Michael W. Deem and Ramdas Pophale) SiO2 
 PCOD9441736
Probable space group: P N N M
;
_chemical_formula_sum "Si O2"
_cell_formula_units_Z 48
_cell_length_a 8.191812
_cell_length_b 23.556903
_cell_length_c 12.488720
_cell_angle_alpha 90.000000
_cell_angle_beta 90.000000
_cell_angle_gamma 90.000000
_cell_volume 2409.994765
_symmetry_space_group_name_H-M "P N N M"
_symmetry_group_IT_number 58
_symmetry_cell_setting 'orthorhombic'
loop_
_space_group_symop_operation_xyz
x,y,z
-x,-y,z
1/2+x,1/2-y,1/2-z
1/2-x,1/2+y,1/2-z
-x,-y,-z
x,y,-z
1/2-x,1/2+y,1/2+z
1/2+x,1/2-y,1/2+z
loop_
_atom_site_type_symbol
_atom_site_label
_atom_site_fract_x
_atom_site_fract_y
_atom_site_fract_z
Si Si1 0.159343 0.057983 0.380616
Si Si2 0.347340 0.967539 0.236494
Si Si3 0.554820 0.871436 0.321916
Si Si4 0.758531 0.840131 0.123765
Si Si5 0.730237 0.204823 0.378090
Si Si6 0.915131 0.115981 0.234110
O O1 0.149934 0.035005 0.500000
O O2 0.280446 0.112159 0.381715
O O3 0.990177 0.079035 0.331693
O O4 0.242937 0.015195 0.297066
O O5 0.434751 0.925723 0.322406
O O6 0.221317 0.924452 0.179462
O O7 0.500000 0.000000 0.180748
O O8 0.614140 0.861697 0.200306
O O9 0.453395 0.818958 0.365645
O O10 0.766126 0.772121 0.137129
O O11 0.930775 0.866755 0.162068
O O12 0.729876 0.853557 0.000000
O O13 0.786751 0.192312 0.500000
O O14 0.833162 0.170934 0.288844
#
# Coordination Sequence:
#
# PCOD9441736 Si02
#       6
#     8   8   8   8   8   8
#     4  10  19  31  52  82 113 142 172 212 271 337
#     4   9  19  33  51  73 103 137 170 212 266 321
#     4   9  19  34  52  76 110 142 177 219 264 319
#     4  10  21  37  56  76 104 145 189 229 265 307
#     4  10  19  33  55  83 112 142 175 215 271 328
#     4  10  20  34  54  79 111 142 176 219 265 319
#
# _framework density 19.917055000000001
#
# number of rings (size 3 to 8) (size 9 to 14) (size 15 to 20)
#    0.000    2.333    0.000    2.500    0.000    7.000 
#    0.000    3.333    0.000   45.000    0.000    0.000 
#    0.000    0.000    0.000    0.000    0.000    0.000 
#
# Total GULP energy -267525.301868 kJ/mol
# GULP energy per Si atom -5573.443789 kJ/mol
# Density = 1.987172 g / cm^3
# Si number density = 19.917055 Si / 1000 Ang^3
#
#
#
# Elastic Constant Matrix: (Units=GPa)
#
#
# Indices 1 2 3 4 5 6 
#
# 1 63.3219 17.7096 5.6571 0.0000 0.0000 0.0000
# 2 17.7096 67.0387 21.9996 0.0000 0.0000 0.0000
# 3 5.6571 21.9996 64.9205 0.0000 0.0000 0.0000
# 4 0.0000 0.0000 0.0000 5.1305 0.0000 0.0000
# 5 0.0000 0.0000 0.0000 0.0000 10.3329 0.0000
# 6 0.0000 0.0000 0.0000 0.0000 0.0000 41.1166
#
#
#
# Elastic Compliance Matrix: (Units=1/GPa)
#
#
# Indices 1 2 3 4 5 6 
#
# 1 0.017052 -0.004520 0.000046 0.000000 0.000000 0.000000
# 2 -0.004520 0.017981 -0.005699 0.000000 0.000000 0.000000
# 3 0.000046 -0.005699 0.017331 0.000000 0.000000 0.000000
# 4 0.000000 0.000000 0.000000 0.194912 0.000000 0.000000
# 5 0.000000 0.000000 0.000000 0.000000 0.096778 0.000000
# 6 0.000000 0.000000 0.000000 0.000000 0.000000 0.024321
#
#
# Mechanical properties :
#
#
# Convention : Reuss Voigt Hill
#
# Bulk Modulus (GPa) = 31.23306 31.77929 31.50617
# Shear Modulus (GPa) = 12.51895 21.31034 16.91464
#
# Velocity S-wave (km/s) = 2.50982 3.27456 2.91736
# Velocity P-wave (km/s) = 4.91065 5.50341 5.21546
#
# Compressibility (1/GPa) = 0.03201736
#
# Stress axis : x y z
#
# Youngs Moduli (GPa) = 58.64313 55.61419 57.70070
#
# Poissons Ratio (x) = 0.25136 -0.00263
# Poissons Ratio (y) = 0.26505 0.32886
# Poissons Ratio (z) = -0.00268 0.31697
#
# Static dielectric constant tensor:
#      x y z
#    x 1.724010 0.000000 0.000000 
#    y 0.000000 1.722840 0.000000 
#    z 0.000000 0.000000 1.697910 
# 
# From -- ./inp_files/13080.got.cif
#   From: 2010.05.17/outbox.cif.g08.bks.cpg/sg58_7_cif.got.tgz:13080.got - 2010.06.03 14:20:14.
