data_PCOD9441029
_publ_section_title
;
Structure prediction by ZEFSAII (Michael W. Deem and Ramdas Pophale) SiO2 
 PCOD9441029
Probable space group: P N N M
;
_chemical_formula_sum "Si O2"
_cell_formula_units_Z 64
_cell_length_a 20.769780
_cell_length_b 17.617658
_cell_length_c 7.534734
_cell_angle_alpha 90.000000
_cell_angle_beta 90.000000
_cell_angle_gamma 90.000000
_cell_volume 2757.071293
_symmetry_space_group_name_H-M "P N N M"
_symmetry_group_IT_number 58
_symmetry_cell_setting 'orthorhombic'
loop_
_space_group_symop_operation_xyz
x,y,z
-x,-y,z
1/2+x,1/2-y,1/2-z
1/2-x,1/2+y,1/2-z
-x,-y,-z
x,y,-z
1/2-x,1/2+y,1/2+z
1/2+x,1/2-y,1/2+z
loop_
_atom_site_type_symbol
_atom_site_label
_atom_site_fract_x
_atom_site_fract_y
_atom_site_fract_z
Si Si1 0.815784 0.095889 0.206677
Si Si2 0.405590 0.529085 0.707588
Si Si3 0.715230 0.363481 0.786625
Si Si4 0.872073 0.730753 0.714341
Si Si5 0.358054 0.094938 0.201361
Si Si6 0.328838 0.932693 0.218456
Si Si7 0.509382 0.338093 0.294681
Si Si8 0.881066 0.243684 0.297308
O O1 0.745785 0.073746 0.279349
O O2 0.830704 0.184864 0.215393
O O3 0.877084 0.049360 0.283199
O O4 0.813698 0.074344 0.000000
O O5 0.421483 0.518343 0.500000
O O6 0.342608 0.582508 0.725156
O O7 0.463395 0.581804 0.779934
O O8 0.691879 0.278829 0.740971
O O9 0.781629 0.388160 0.701575
O O10 0.721365 0.369226 0.000000
O O11 0.877967 0.732328 0.500000
O O12 0.864914 0.644169 0.771337
O O13 0.931864 0.778400 0.786718
O O14 0.385977 0.172153 0.284459
O O15 0.361748 0.010635 0.280121
O O16 0.383697 0.089347 0.000000
O O17 0.327579 0.934264 0.000000
O O18 0.491194 0.350480 0.500000
O O19 0.449205 0.298198 0.206400
O O20 0.860479 0.254629 0.500000
#
# Coordination Sequence:
#
# PCOD9441029 Si02
#       8
#     8   8   8   8   8   8   8   8
#     4  10  19  35  59  83 112 143 179 221 268 328
#     4   9  18  34  57  81 107 145 183 219 262 323
#     4  10  18  29  51  82 112 138 169 217 274 322
#     4   9  18  33  55  81 106 136 177 223 270 317
#     4  10  20  36  55  76 107 147 185 219 265 328
#     4   9  17  33  58  83 107 139 179 220 263 322
#     4  10  21  38  58  78 105 144 190 227 266 321
#     4  11  24  38  54  78 110 146 184 230 275 318
#
# _framework density 23.213038999999998
#
# number of rings (size 3 to 8) (size 9 to 14) (size 15 to 20)
#    0.000    2.250    1.250    1.875    0.000    4.000 
#    0.000    4.375    0.000    3.750    0.000    0.000 
#    0.000    0.000    0.000    0.000    0.000    0.000 
#
# Total GULP energy -357368.527713 kJ/mol
# GULP energy per Si atom -5583.883246 kJ/mol
# Density = 2.316020 g / cm^3
# Si number density = 23.213039 Si / 1000 Ang^3
#
#
#
# Elastic Constant Matrix: (Units=GPa)
#
#
# Indices 1 2 3 4 5 6 
#
# 1 43.4238 20.4277 -5.6300 0.0000 0.0000 0.0000
# 2 20.4277 189.2228 8.3735 0.0000 0.0000 0.0000
# 3 -5.6300 8.3735 63.9222 0.0000 0.0000 0.0000
# 4 0.0000 0.0000 0.0000 16.2023 0.0000 0.0000
# 5 0.0000 0.0000 0.0000 0.0000 16.7992 0.0000
# 6 0.0000 0.0000 0.0000 0.0000 0.0000 31.5836
#
#
#
# Elastic Compliance Matrix: (Units=1/GPa)
#
#
# Indices 1 2 3 4 5 6 
#
# 1 0.024663 -0.002775 0.002536 0.000000 0.000000 0.000000
# 2 -0.002775 0.005628 -0.000982 0.000000 0.000000 0.000000
# 3 0.002536 -0.000982 0.015996 0.000000 0.000000 0.000000
# 4 0.000000 0.000000 0.000000 0.061720 0.000000 0.000000
# 5 0.000000 0.000000 0.000000 0.000000 0.059527 0.000000
# 6 0.000000 0.000000 0.000000 0.000000 0.000000 0.031662
#
#
# Mechanical properties :
#
#
# Convention : Reuss Voigt Hill
#
# Bulk Modulus (GPa) = 22.80746 38.10126 30.45436
# Shear Modulus (GPa) = 23.12126 31.14352 27.13239
#
# Velocity S-wave (km/s) = 3.15944 3.66681 3.42254
# Velocity P-wave (km/s) = 4.81207 5.86317 5.36343
#
# Compressibility (1/GPa) = 0.04384530
#
# Stress axis : x y z
#
# Youngs Moduli (GPa) = 40.54676 177.69060 62.51588
#
# Poissons Ratio (x) = 0.49304 -0.15852
# Poissons Ratio (y) = 0.11251 0.06137
# Poissons Ratio (z) = -0.10281 0.17442
#
# Static dielectric constant tensor:
#      x y z
#    x 1.841390 0.000000 0.000000 
#    y 0.000000 1.933870 0.000000 
#    z 0.000000 0.000000 1.888190 
# 
# From -- ./inp_files/9255.got.cif
#   From: 2010.05.17/outbox.cif.g08.bks.cpg/sg58_5_cif.got.tgz:9255.got - 2010.06.03 14:20:14.
