data_PCOD9441831
_publ_section_title
;
Structure prediction by ZEFSAII (Michael W. Deem and Ramdas Pophale) SiO2 
 PCOD9441831
Probable space group: P N N M
;
_chemical_formula_sum "Si O2"
_cell_formula_units_Z 56
_cell_length_a 22.068832
_cell_length_b 15.143102
_cell_length_c 7.498498
_cell_angle_alpha 90.000000
_cell_angle_beta 90.000000
_cell_angle_gamma 90.000000
_cell_volume 2505.927351
_symmetry_space_group_name_H-M "P N N M"
_symmetry_group_IT_number 58
_symmetry_cell_setting 'orthorhombic'
loop_
_space_group_symop_operation_xyz
x,y,z
-x,-y,z
1/2+x,1/2-y,1/2-z
1/2-x,1/2+y,1/2-z
-x,-y,-z
x,y,-z
1/2-x,1/2+y,1/2+z
1/2+x,1/2-y,1/2+z
loop_
_atom_site_type_symbol
_atom_site_label
_atom_site_fract_x
_atom_site_fract_y
_atom_site_fract_z
Si Si1 0.076680 0.088254 0.784414
Si Si2 0.437332 0.390655 0.717763
Si Si3 0.094524 0.703518 0.790820
Si Si4 0.522889 0.096260 0.784246
Si Si5 0.804517 0.807311 0.706506
Si Si6 0.659058 0.123403 0.789169
Si Si7 0.197466 0.571162 0.215875
O O1 0.128250 0.152702 0.715817
O O2 0.008278 0.112743 0.729791
O O3 0.087439 0.986430 0.728205
O O4 0.078338 0.091195 0.000000
O O5 0.436699 0.389867 0.500000
O O6 0.403361 0.303043 0.782087
O O7 0.140073 0.629283 0.719021
O O8 0.026316 0.668044 0.772198
O O9 0.109091 0.710451 0.000000
O O10 0.590580 0.114445 0.717535
O O11 0.500000 0.000000 0.723938
O O12 0.523846 0.094913 0.000000
O O13 0.785931 0.798317 0.500000
O O14 0.806883 0.709075 0.785634
O O15 0.757087 0.877804 0.781576
O O16 0.691937 0.030133 0.770980
O O17 0.652031 0.140397 0.000000
O O18 0.196386 0.568450 0.000000
#
# Coordination Sequence:
#
# PCOD9441831 Si02
#       7
#     8   8   8   8   8   8   8
#     4   9  17  33  56  80 105 137 176 217 260 312
#     4   8  16  31  53  81 109 133 169 222 267 305
#     4  10  19  32  52  77 105 139 176 215 265 317
#     4  10  19  32  52  79 110 137 168 218 270 318
#     4  10  22  38  54  76 108 142 177 218 264 312
#     4  10  21  38  58  78 105 142 176 213 268 325
#     4  10  22  37  52  74 105 137 175 221 257 300
#
# _framework density 22.347017000000001
#
# number of rings (size 3 to 8) (size 9 to 14) (size 15 to 20)
#    0.000    2.429    1.429    1.714    0.000    3.143 
#    0.000    5.000    0.000    0.000    0.000    0.000 
#    0.000    0.000    0.000    0.000    0.000    0.000 
#
# Total GULP energy -312762.320132 kJ/mol
# GULP energy per Si atom -5585.041431 kJ/mol
# Density = 2.229615 g / cm^3
# Si number density = 22.347017 Si / 1000 Ang^3
#
#
#
# Elastic Constant Matrix: (Units=GPa)
#
#
# Indices 1 2 3 4 5 6 
#
# 1 61.9496 48.4410 -4.1671 0.0000 0.0000 0.0000
# 2 48.4410 180.0133 -9.7850 0.0000 0.0000 0.0000
# 3 -4.1671 -9.7850 53.5396 0.0000 0.0000 0.0000
# 4 0.0000 0.0000 0.0000 2.7453 0.0000 0.0000
# 5 0.0000 0.0000 0.0000 0.0000 4.8654 0.0000
# 6 0.0000 0.0000 0.0000 0.0000 0.0000 17.3508
#
#
#
# Elastic Compliance Matrix: (Units=1/GPa)
#
#
# Indices 1 2 3 4 5 6 
#
# 1 0.020462 -0.005474 0.000592 0.000000 0.000000 0.000000
# 2 -0.005474 0.007075 0.000867 0.000000 0.000000 0.000000
# 3 0.000592 0.000867 0.018882 0.000000 0.000000 0.000000
# 4 0.000000 0.000000 0.000000 0.364257 0.000000 0.000000
# 5 0.000000 0.000000 0.000000 0.000000 0.205532 0.000000
# 6 0.000000 0.000000 0.000000 0.000000 0.000000 0.057634
#
#
# Mechanical properties :
#
#
# Convention : Reuss Voigt Hill
#
# Bulk Modulus (GPa) = 26.04834 40.49781 33.27308
# Shear Modulus (GPa) = 7.19766 22.39322 14.79544
#
# Velocity S-wave (km/s) = 1.79662 3.16898 2.57588
# Velocity P-wave (km/s) = 3.99817 5.61707 4.87529
#
# Compressibility (1/GPa) = 0.03839016
#
# Stress axis : x y z
#
# Youngs Moduli (GPa) = 48.86995 141.33553 52.95957
#
# Poissons Ratio (x) = 0.77370 -0.03136
# Poissons Ratio (y) = 0.26752 -0.04592
# Poissons Ratio (z) = -0.02894 -0.12254
#
# Static dielectric constant tensor:
#      x y z
#    x 1.790300 0.000000 0.000000 
#    y 0.000000 1.827600 0.000000 
#    z 0.000000 0.000000 1.847240 
# 
# From -- ./inp_files/6387.got.cif
#   From: 2010.05.17/outbox.cif.g08.bks.cpg/sg58_4_cif.got.tgz:6387.got - 2010.06.03 14:20:14.
