data_PCOD9441996
_publ_section_title
;
Structure prediction by ZEFSAII (Michael W. Deem and Ramdas Pophale) SiO2 
 PCOD9441996
Probable space group: P N N M
;
_chemical_formula_sum "Si O2"
_cell_formula_units_Z 64
_cell_length_a 19.114228
_cell_length_b 20.420771
_cell_length_c 7.472523
_cell_angle_alpha 90.000000
_cell_angle_beta 90.000000
_cell_angle_gamma 90.000000
_cell_volume 2916.729524
_symmetry_space_group_name_H-M "P N N M"
_symmetry_group_IT_number 58
_symmetry_cell_setting 'orthorhombic'
loop_
_space_group_symop_operation_xyz
x,y,z
-x,-y,z
1/2+x,1/2-y,1/2-z
1/2-x,1/2+y,1/2-z
-x,-y,-z
x,y,-z
1/2-x,1/2+y,1/2+z
1/2+x,1/2-y,1/2+z
loop_
_atom_site_type_symbol
_atom_site_label
_atom_site_fract_x
_atom_site_fract_y
_atom_site_fract_z
Si Si1 0.520211 0.301453 0.214210
Si Si2 0.248199 0.381988 0.716703
Si Si3 0.942809 0.947088 0.280624
Si Si4 0.396944 0.822197 0.210230
Si Si5 0.832525 0.370798 0.219393
Si Si6 0.857883 0.224740 0.214178
Si Si7 0.017189 0.573298 0.216390
Si Si8 0.214204 0.030587 0.711093
O O1 0.536800 0.374226 0.279019
O O2 0.571851 0.245265 0.286010
O O3 0.439843 0.282718 0.247795
O O4 0.529014 0.302779 0.000000
O O5 0.247689 0.381381 0.500000
O O6 0.175551 0.350618 0.782948
O O7 0.312371 0.336552 0.780028
O O8 0.256982 0.457324 0.768678
O O9 0.943468 0.947923 0.500000
O O10 0.864699 0.964470 0.218729
O O11 0.000000 0.000000 0.222425
O O12 0.457353 0.876367 0.226932
O O13 0.383972 0.810453 0.000000
O O14 0.830582 0.295309 0.278336
O O15 0.906628 0.402031 0.274819
O O16 0.768650 0.415795 0.282481
O O17 0.832143 0.370994 0.000000
O O18 0.850271 0.225417 0.000000
O O19 0.000000 0.500000 0.278061
O O20 0.017579 0.572714 0.000000
O O21 0.208905 0.044295 0.500000
#
# Coordination Sequence:
#
# PCOD9441996 Si02
#       8
#     8   8   8   8   8   8   8   8
#     4  10  20  35  56  82 111 140 180 227 271 322
#     4  10  22  37  54  78 111 145 178 220 274 331
#     4   9  18  32  54  83 110 136 174 229 278 315
#     4  10  21  35  52  79 110 144 178 215 269 326
#     4   9  18  32  52  79 105 137 179 221 263 313
#     4  10  20  36  57  78 107 146 184 220 268 325
#     4  10  19  33  54  78 105 136 177 222 260 307
#     4  10  20  36  59  82 106 141 185 228 272 320
#
# _framework density 21.942385999999999
#
# number of rings (size 3 to 8) (size 9 to 14) (size 15 to 20)
#    0.000    2.250    1.250    1.500    1.750    3.250 
#    0.000    1.875    0.000    2.250    0.000    0.000 
#    0.000    0.000    0.000    0.000    0.000    0.000 
#
# Total GULP energy -357702.761098 kJ/mol
# GULP energy per Si atom -5589.105642 kJ/mol
# Density = 2.189244 g / cm^3
# Si number density = 21.942386 Si / 1000 Ang^3
#
#
#
# Elastic Constant Matrix: (Units=GPa)
#
#
# Indices 1 2 3 4 5 6 
#
# 1 152.6425 77.9754 -5.6997 0.0000 0.0000 0.0000
# 2 77.9754 175.2659 -9.0643 0.0000 0.0000 0.0000
# 3 -5.6997 -9.0643 59.1148 0.0000 0.0000 0.0000
# 4 0.0000 0.0000 0.0000 7.9765 0.0000 0.0000
# 5 0.0000 0.0000 0.0000 0.0000 13.0113 0.0000
# 6 0.0000 0.0000 0.0000 0.0000 0.0000 47.1980
#
#
#
# Elastic Compliance Matrix: (Units=1/GPa)
#
#
# Indices 1 2 3 4 5 6 
#
# 1 0.008481 -0.003761 0.000241 0.000000 0.000000 0.000000
# 2 -0.003761 0.007419 0.000775 0.000000 0.000000 0.000000
# 3 0.000241 0.000775 0.017058 0.000000 0.000000 0.000000
# 4 0.000000 0.000000 0.000000 0.125369 0.000000 0.000000
# 5 0.000000 0.000000 0.000000 0.000000 0.076856 0.000000
# 6 0.000000 0.000000 0.000000 0.000000 0.000000 0.021187
#
#
# Mechanical properties :
#
#
# Convention : Reuss Voigt Hill
#
# Bulk Modulus (GPa) = 36.40478 57.04957 46.72717
# Shear Modulus (GPa) = 18.44902 35.22460 26.83681
#
# Velocity S-wave (km/s) = 2.90279 4.01099 3.50102
# Velocity P-wave (km/s) = 5.27845 6.89253 6.13877
#
# Compressibility (1/GPa) = 0.02746892
#
# Stress axis : x y z
#
# Youngs Moduli (GPa) = 117.90408 134.79048 58.62250
#
# Poissons Ratio (x) = 0.50694 -0.01413
# Poissons Ratio (y) = 0.44343 -0.04543
# Poissons Ratio (z) = -0.02842 -0.10446
#
# Static dielectric constant tensor:
#      x y z
#    x 1.758720 0.000000 0.000000 
#    y 0.000000 1.758380 0.000000 
#    z 0.000000 0.000000 1.816390 
# 
# From -- ./inp_files/8255.got.cif
#   From: 2010.05.17/outbox.cif.g08.bks.cpg/sg58_5_cif.got.tgz:8255.got - 2010.06.03 14:20:14.
