data_PCOD9441886
_publ_section_title
;
Structure prediction by ZEFSAII (Michael W. Deem and Ramdas Pophale) SiO2 
 PCOD9441886
Probable space group: P N N M
;
_chemical_formula_sum "Si O2"
_cell_formula_units_Z 56
_cell_length_a 5.680402
_cell_length_b 23.342276
_cell_length_c 23.790925
_cell_angle_alpha 90.000000
_cell_angle_beta 90.000000
_cell_angle_gamma 90.000000
_cell_volume 3154.522282
_symmetry_space_group_name_H-M "P N N M"
_symmetry_group_IT_number 58
_symmetry_cell_setting 'orthorhombic'
loop_
_space_group_symop_operation_xyz
x,y,z
-x,-y,z
1/2+x,1/2-y,1/2-z
1/2-x,1/2+y,1/2-z
-x,-y,-z
x,y,-z
1/2-x,1/2+y,1/2+z
1/2+x,1/2-y,1/2+z
loop_
_atom_site_type_symbol
_atom_site_label
_atom_site_fract_x
_atom_site_fract_y
_atom_site_fract_z
Si Si1 0.499889 0.626296 0.060280
Si Si2 0.651972 0.177701 0.630205
Si Si3 0.044306 0.259846 0.323321
Si Si4 0.164456 0.659740 0.764507
Si Si5 0.723370 0.758885 0.562586
Si Si6 0.751766 0.971008 0.732933
Si Si7 0.745726 0.974106 0.597464
O O1 0.688406 0.625144 0.109425
O O2 0.422205 0.692147 0.058458
O O3 0.271900 0.590255 0.075439
O O4 0.595483 0.609075 0.000000
O O5 0.489335 0.154399 0.679256
O O6 0.511641 0.206362 0.578828
O O7 0.806963 0.228899 0.656132
O O8 0.160111 0.211121 0.283187
O O9 0.202392 0.272424 0.379043
O O10 0.986706 0.315227 0.286778
O O11 0.261484 0.596677 0.752183
O O12 0.705620 0.731863 0.500000
O O13 0.747612 0.975348 0.664941
O O14 0.500000 0.000000 0.751592
O O15 0.000000 0.000000 0.751451
O O16 0.500000 0.000000 0.577280
O O17 0.000000 0.000000 0.578670
#
# Coordination Sequence:
#
# PCOD9441886 Si02
#       7
#     8   8   8   8   8   8   8
#     4  10  21  34  50  71  96 137 186 232 282 331
#     4  10  19  32  54  75 104 142 177 227 283 340
#     4  10  20  33  54  84 108 144 177 235 286 335
#     4  11  21  34  56  82 114 140 189 231 285 348
#     4   9  19  34  51  74 106 139 177 216 275 348
#     4  10  23  37  55  79 106 152 189 229 283 342
#     4  10  22  36  51  69  97 134 187 240 287 319
#
# _framework density 17.752291
#
# number of rings (size 3 to 8) (size 9 to 14) (size 15 to 20)
#    0.000    2.000    1.429    3.000   10.000    1.143 
#    0.000    0.000    0.000    0.000    0.000    0.000 
#    0.000    1.143    0.000    0.000    0.000    0.000 
#
# Total GULP energy -312026.429983 kJ/mol
# GULP energy per Si atom -5571.900535 kJ/mol
# Density = 1.771189 g / cm^3
# Si number density = 17.752291 Si / 1000 Ang^3
#
#
#
# Elastic Constant Matrix: (Units=GPa)
#
#
# Indices 1 2 3 4 5 6 
#
# 1 81.8778 41.0821 26.0386 0.0000 0.0000 0.0000
# 2 41.0821 74.3061 37.5208 0.0000 0.0000 0.0000
# 3 26.0386 37.5208 74.4880 0.0000 0.0000 0.0000
# 4 0.0000 0.0000 0.0000 10.7898 0.0000 0.0000
# 5 0.0000 0.0000 0.0000 0.0000 1.1801 0.0000
# 6 0.0000 0.0000 0.0000 0.0000 0.0000 28.5767
#
#
#
# Elastic Compliance Matrix: (Units=1/GPa)
#
#
# Indices 1 2 3 4 5 6 
#
# 1 0.017047 -0.008605 -0.001625 0.000000 0.000000 0.000000
# 2 -0.008605 0.022392 -0.008271 0.000000 0.000000 0.000000
# 3 -0.001625 -0.008271 0.018159 0.000000 0.000000 0.000000
# 4 0.000000 0.000000 0.000000 0.092680 0.000000 0.000000
# 5 0.000000 0.000000 0.000000 0.000000 0.847399 0.000000
# 6 0.000000 0.000000 0.000000 0.000000 0.000000 0.034994
#
#
# Mechanical properties :
#
#
# Convention : Reuss Voigt Hill
#
# Bulk Modulus (GPa) = 48.55075 48.88385 48.71730
# Shear Modulus (GPa) = 4.64452 16.51134 10.57793
#
# Velocity S-wave (km/s) = 1.61925 3.05306 2.44368
# Velocity P-wave (km/s) = 5.55917 6.32650 5.95521
#
# Compressibility (1/GPa) = 0.02059701
#
# Stress axis : x y z
#
# Youngs Moduli (GPa) = 58.65982 44.65955 55.06819
#
# Poissons Ratio (x) = 0.38428 0.08948
# Poissons Ratio (y) = 0.50474 0.45548
# Poissons Ratio (z) = 0.09532 0.36938
#
# Static dielectric constant tensor:
#      x y z
#    x 1.705360 0.000000 0.000000 
#    y 0.000000 1.655060 0.000000 
#    z 0.000000 0.000000 1.641070 
# 
# From -- ./inp_files/31025.got.cif
#   From: 2010.05.17/outbox.cif.g08.bks.cpg/sg58_16_cif.got.tgz:31025.got - 2010.06.03 14:20:14.
