data_PCOD9441119
_publ_section_title
;
Structure prediction by ZEFSAII (Michael W. Deem and Ramdas Pophale) SiO2 
 PCOD9441119
Probable space group: P N N M
;
_chemical_formula_sum "Si O2"
_cell_formula_units_Z 64
_cell_length_a 9.283104
_cell_length_b 20.549602
_cell_length_c 18.810356
_cell_angle_alpha 90.000000
_cell_angle_beta 90.000000
_cell_angle_gamma 90.000000
_cell_volume 3588.340492
_symmetry_space_group_name_H-M "P N N M"
_symmetry_group_IT_number 58
_symmetry_cell_setting 'orthorhombic'
loop_
_space_group_symop_operation_xyz
x,y,z
-x,-y,z
1/2+x,1/2-y,1/2-z
1/2-x,1/2+y,1/2-z
-x,-y,-z
x,y,-z
1/2-x,1/2+y,1/2+z
1/2+x,1/2-y,1/2+z
loop_
_atom_site_type_symbol
_atom_site_label
_atom_site_fract_x
_atom_site_fract_y
_atom_site_fract_z
Si Si1 0.540472 0.728936 0.687230
Si Si2 0.659252 0.835794 0.923249
Si Si3 0.768127 0.679416 0.209039
Si Si4 0.212376 0.977660 0.081547
Si Si5 0.209946 0.246923 0.415488
Si Si6 0.093987 0.379665 0.655130
Si Si7 0.416915 0.316142 0.081765
Si Si8 0.057730 0.103239 0.117452
O O1 0.646864 0.725025 0.754130
O O2 0.401551 0.773253 0.693613
O O3 0.637638 0.757408 0.623393
O O4 0.496583 0.653225 0.676795
O O5 0.576006 0.870876 0.858620
O O6 0.638927 0.758666 0.919142
O O7 0.826687 0.852719 0.922964
O O8 0.596531 0.857086 0.000000
O O9 0.835162 0.629475 0.267179
O O10 0.686379 0.650769 0.140094
O O11 0.347867 0.944149 0.117759
O O12 0.086218 0.923076 0.080217
O O13 0.148355 0.036920 0.127683
O O14 0.236653 0.999090 0.000000
O O15 0.223435 0.247444 0.500000
O O16 0.152332 0.316666 0.388213
O O17 0.085820 0.193697 0.397390
O O18 0.408493 0.340336 0.000000
#
# Coordination Sequence:
#
# PCOD9441119 Si02
#       8
#     8   8   8   8   8   8   8   8
#     4  11  21  31  51  69  98 134 175 214 263 301
#     4  10  18  31  47  68  94 128 172 209 244 290
#     4  11  20  34  47  69  96 129 173 215 258 312
#     4  11  21  35  50  70 102 139 182 217 245 285
#     4   9  17  30  46  68  94 126 165 204 247 301
#     4  10  20  32  48  67  97 139 171 208 255 296
#     4   9  18  32  50  70  96 124 161 207 258 308
#     4  11  21  32  47  73  96 134 178 218 246 286
#
# _framework density 17.835542
#
# number of rings (size 3 to 8) (size 9 to 14) (size 15 to 20)
#    0.000    1.750    3.750    5.625    0.000    2.000 
#    0.000    1.250    0.000    0.000    0.000    0.000 
#    0.000    2.000    0.000    1.375    0.000    4.000 
#
# Total GULP energy -356283.642189 kJ/mol
# GULP energy per Si atom -5566.931909 kJ/mol
# Density = 1.779495 g / cm^3
# Si number density = 17.835542 Si / 1000 Ang^3
#
#
#
# Elastic Constant Matrix: (Units=GPa)
#
#
# Indices 1 2 3 4 5 6 
#
# 1 78.0636 15.7160 40.5004 0.0000 0.0000 0.0000
# 2 15.7160 23.4661 7.9240 0.0000 0.0000 0.0000
# 3 40.5004 7.9240 78.4080 0.0000 0.0000 0.0000
# 4 0.0000 0.0000 0.0000 0.7173 0.0000 0.0000
# 5 0.0000 0.0000 0.0000 0.0000 19.6148 0.0000
# 6 0.0000 0.0000 0.0000 0.0000 0.0000 22.2769
#
#
#
# Elastic Compliance Matrix: (Units=1/GPa)
#
#
# Indices 1 2 3 4 5 6 
#
# 1 0.019538 -0.010019 -0.009079 0.000000 0.000000 0.000000
# 2 -0.010019 0.049258 0.000197 0.000000 0.000000 0.000000
# 3 -0.009079 0.000197 0.017424 0.000000 0.000000 0.000000
# 4 0.000000 0.000000 0.000000 1.394206 0.000000 0.000000
# 5 0.000000 0.000000 0.000000 0.000000 0.050982 0.000000
# 6 0.000000 0.000000 0.000000 0.000000 0.000000 0.044890
#
#
# Mechanical properties :
#
#
# Convention : Reuss Voigt Hill
#
# Bulk Modulus (GPa) = 20.65390 34.24648 27.45019
# Shear Modulus (GPa) = 3.06703 16.24160 9.65432
#
# Velocity S-wave (km/s) = 1.31277 3.02094 2.32910
# Velocity P-wave (km/s) = 3.72869 5.60456 4.75995
#
# Compressibility (1/GPa) = 0.04841701
#
# Stress axis : x y z
#
# Youngs Moduli (GPa) = 51.18331 20.30116 57.39319
#
# Poissons Ratio (x) = 0.20340 0.52109
# Poissons Ratio (y) = 0.51281 -0.01131
# Poissons Ratio (z) = 0.46471 -0.00400
#
# Static dielectric constant tensor:
#      x y z
#    x 1.680220 0.000000 0.000000 
#    y 0.000000 1.604230 0.000000 
#    z 0.000000 0.000000 1.681340 
# 
# From -- ./inp_files/29223.got.cif
#   From: 2010.05.17/outbox.cif.g08.bks.cpg/sg58_15_cif.got.tgz:29223.got - 2010.06.03 14:20:14.
