data_PCOD9441383
_publ_section_title
;
Structure prediction by ZEFSAII (Michael W. Deem and Ramdas Pophale) SiO2 
 PCOD9441383
Probable space group: P N N M
;
_chemical_formula_sum "Si O2"
_cell_formula_units_Z 60
_cell_length_a 23.117827
_cell_length_b 5.590471
_cell_length_c 23.679015
_cell_angle_alpha 90.000000
_cell_angle_beta 90.000000
_cell_angle_gamma 90.000000
_cell_volume 3060.265040
_symmetry_space_group_name_H-M "P N N M"
_symmetry_group_IT_number 58
_symmetry_cell_setting 'orthorhombic'
loop_
_space_group_symop_operation_xyz
x,y,z
-x,-y,z
1/2+x,1/2-y,1/2-z
1/2-x,1/2+y,1/2-z
-x,-y,-z
x,y,-z
1/2-x,1/2+y,1/2+z
1/2+x,1/2-y,1/2+z
loop_
_atom_site_type_symbol
_atom_site_label
_atom_site_fract_x
_atom_site_fract_y
_atom_site_fract_z
Si Si1 0.368709 0.992327 0.567882
Si Si2 0.900672 0.303864 0.239631
Si Si3 0.806401 0.917045 0.264557
Si Si4 0.035829 0.249187 0.563769
Si Si5 0.588858 0.186846 0.179780
Si Si6 0.933804 0.006363 0.931674
Si Si7 0.500000 0.500000 0.253243
Si Si8 0.192654 0.428780 0.173124
O O1 0.359270 0.990970 0.500000
O O2 0.403290 0.746567 0.583127
O O3 0.311581 0.969642 0.606755
O O4 0.400777 0.244454 0.582217
O O5 0.847739 0.144016 0.261233
O O6 0.925769 0.426651 0.296007
O O7 0.869786 0.483687 0.196703
O O8 0.954958 0.165322 0.213158
O O9 0.745988 0.941809 0.295990
O O10 0.846013 0.731692 0.299178
O O11 0.799849 0.834170 0.199642
O O12 0.059459 0.239288 0.500000
O O13 0.081128 0.268815 0.614270
O O14 0.000000 0.500000 0.567726
O O15 0.000000 0.000000 0.571553
O O16 0.544554 0.354983 0.213919
O O17 0.935492 0.006933 0.000000
O O18 0.000000 0.000000 0.911705
#
# Coordination Sequence:
#
# PCOD9441383 Si02
#       8
#     8   8   8   8   8   8   4   8
#     4  10  22  38  64  93 122 164 206 257 317 370
#     4  10  21  36  58  86 115 157 200 254 313 370
#     4  10  22  38  61  87 109 163 214 257 308 364
#     4  10  20  34  57  88 123 166 208 246 302 380
#     4  10  20  35  58  85 121 159 200 257 311 374
#     4   9  18  37  60  88 123 163 207 247 303 380
#     4  10  18  34  57  86 121 148 192 248 328 372
#     4  11  22  40  62  85 121 158 215 261 304 381
#
# _framework density 19.606142999999999
#
# number of rings (size 3 to 8) (size 9 to 14) (size 15 to 20)
#    0.000    2.000    2.000    1.600    3.733    1.600 
#    1.200    4.667    0.000    0.800    0.000    0.000 
#    0.000    0.000    0.000    0.000    0.000    0.000 
#
# Total GULP energy -334104.198079 kJ/mol
# GULP energy per Si atom -5568.403301 kJ/mol
# Density = 1.956152 g / cm^3
# Si number density = 19.606143 Si / 1000 Ang^3
#
#
#
# Elastic Constant Matrix: (Units=GPa)
#
#
# Indices 1 2 3 4 5 6 
#
# 1 81.3245 32.4152 25.7146 0.0000 0.0000 0.0000
# 2 32.4152 108.0697 28.9838 0.0000 0.0000 0.0000
# 3 25.7146 28.9838 95.2594 0.0000 0.0000 0.0000
# 4 0.0000 0.0000 0.0000 6.1827 0.0000 0.0000
# 5 0.0000 0.0000 0.0000 0.0000 23.0892 0.0000
# 6 0.0000 0.0000 0.0000 0.0000 0.0000 29.8088
#
#
#
# Elastic Compliance Matrix: (Units=1/GPa)
#
#
# Indices 1 2 3 4 5 6 
#
# 1 0.014643 -0.003628 -0.002849 0.000000 0.000000 0.000000
# 2 -0.003628 0.010974 -0.002360 0.000000 0.000000 0.000000
# 3 -0.002849 -0.002360 0.011985 0.000000 0.000000 0.000000
# 4 0.000000 0.000000 0.000000 0.161741 0.000000 0.000000
# 5 0.000000 0.000000 0.000000 0.000000 0.043310 0.000000
# 6 0.000000 0.000000 0.000000 0.000000 0.000000 0.033547
#
#
# Mechanical properties :
#
#
# Convention : Reuss Voigt Hill
#
# Bulk Modulus (GPa) = 50.17860 50.98678 50.58269
# Shear Modulus (GPa) = 16.63799 24.98548 20.81174
#
# Velocity S-wave (km/s) = 2.91625 3.57370 3.26159
# Velocity P-wave (km/s) = 6.08180 6.56433 6.32767
#
# Compressibility (1/GPa) = 0.01992882
#
# Stress axis : x y z
#
# Youngs Moduli (GPa) = 68.29007 91.12114 83.43988
#
# Poissons Ratio (x) = 0.33060 0.23772
# Poissons Ratio (y) = 0.24777 0.19689
# Poissons Ratio (z) = 0.19456 0.21502
#
# Static dielectric constant tensor:
#      x y z
#    x 1.695770 0.000000 0.000000 
#    y 0.000000 1.843150 0.000000 
#    z 0.000000 0.000000 1.698260 
# 
# From -- ./inp_files/32405.got.cif
#   From: 2010.05.17/outbox.cif.g08.bks.cpg/sg58_17_cif.got.tgz:32405.got - 2010.06.03 14:20:14.
