data_PCOD9441140
_publ_section_title
;
Structure prediction by ZEFSAII (Michael W. Deem and Ramdas Pophale) SiO2 
 PCOD9441140
Probable space group: P N N M
;
_chemical_formula_sum "Si O2"
_cell_formula_units_Z 64
_cell_length_a 15.639622
_cell_length_b 20.481593
_cell_length_c 9.314872
_cell_angle_alpha 90.000000
_cell_angle_beta 90.000000
_cell_angle_gamma 90.000000
_cell_volume 2983.780528
_symmetry_space_group_name_H-M "P N N M"
_symmetry_group_IT_number 58
_symmetry_cell_setting 'orthorhombic'
loop_
_space_group_symop_operation_xyz
x,y,z
-x,-y,z
1/2+x,1/2-y,1/2-z
1/2-x,1/2+y,1/2-z
-x,-y,-z
x,y,-z
1/2-x,1/2+y,1/2+z
1/2+x,1/2-y,1/2+z
loop_
_atom_site_type_symbol
_atom_site_label
_atom_site_fract_x
_atom_site_fract_y
_atom_site_fract_z
Si Si1 0.320239 0.076140 0.839801
Si Si2 0.520556 0.326136 0.168609
Si Si3 0.813779 0.173444 0.667195
Si Si4 0.736518 0.527760 0.172072
Si Si5 0.020178 0.304673 0.163690
Si Si6 0.189287 0.698065 0.162603
Si Si7 0.516680 0.073088 0.161798
Si Si8 0.582212 0.453687 0.670249
O O1 0.313872 0.010067 0.747835
O O2 0.279291 0.136225 0.754187
O O3 0.418601 0.095940 0.856190
O O4 0.286064 0.066673 0.000000
O O5 0.417006 0.333576 0.180812
O O6 0.544146 0.256578 0.237611
O O7 0.562457 0.384647 0.256727
O O8 0.541727 0.328924 0.000000
O O9 0.796266 0.187930 0.500000
O O10 0.786370 0.233974 0.764103
O O11 0.772037 0.104195 0.704917
O O12 0.657461 0.490043 0.244995
O O13 0.737213 0.519954 0.000000
O O14 0.915408 0.304036 0.157728
O O15 0.053244 0.372436 0.232654
O O16 0.050248 0.297725 0.000000
O O17 0.220098 0.693323 0.000000
O O18 0.500000 0.000000 0.216799
O O19 0.555308 0.069575 0.000000
O O20 0.500000 0.500000 0.686540
O O21 0.597692 0.446721 0.500000
#
# Coordination Sequence:
#
# PCOD9441140 Si02
#       8
#     8   8   8   8   8   8   8   8
#     4  10  20  35  55  79 107 138 174 220 269 320
#     4  10  18  31  51  74 104 140 179 219 262 310
#     4   9  18  31  50  76 103 135 175 219 262 309
#     4  11  22  36  54  77 108 144 181 218 266 323
#     4   9  17  29  48  78 108 134 170 216 265 313
#     4   9  17  30  51  76 102 132 171 218 261 311
#     4   9  18  34  57  82 107 137 175 218 268 326
#     4  11  22  34  51  77 109 143 181 224 266 309
#
# _framework density 21.449300000000001
#
# number of rings (size 3 to 8) (size 9 to 14) (size 15 to 20)
#    0.000    2.250    1.250    2.250    0.000    5.750 
#    0.000    0.000    2.750    0.000    0.000    0.000 
#    0.000    0.000    0.000    0.000    0.000    0.000 
#
# Total GULP energy -357330.030975 kJ/mol
# GULP energy per Si atom -5583.281734 kJ/mol
# Density = 2.140048 g / cm^3
# Si number density = 21.449300 Si / 1000 Ang^3
#
#
#
# Elastic Constant Matrix: (Units=GPa)
#
#
# Indices 1 2 3 4 5 6 
#
# 1 30.8303 -6.2002 7.9940 0.0000 0.0000 0.0000
# 2 -6.2002 172.3749 102.3928 0.0000 0.0000 0.0000
# 3 7.9940 102.3928 140.8762 0.0000 0.0000 0.0000
# 4 0.0000 0.0000 0.0000 37.4899 0.0000 0.0000
# 5 0.0000 0.0000 0.0000 0.0000 9.9816 0.0000
# 6 0.0000 0.0000 0.0000 0.0000 0.0000 17.0134
#
#
#
# Elastic Compliance Matrix: (Units=1/GPa)
#
#
# Indices 1 2 3 4 5 6 
#
# 1 0.034597 0.004242 -0.005047 0.000000 0.000000 0.000000
# 2 0.004242 0.010729 -0.008039 0.000000 0.000000 0.000000
# 3 -0.005047 -0.008039 0.013228 0.000000 0.000000 0.000000
# 4 0.000000 0.000000 0.000000 0.026674 0.000000 0.000000
# 5 0.000000 0.000000 0.000000 0.000000 0.100184 0.000000
# 6 0.000000 0.000000 0.000000 0.000000 0.000000 0.058777
#
#
# Mechanical properties :
#
#
# Convention : Reuss Voigt Hill
#
# Bulk Modulus (GPa) = 24.46932 61.38384 42.92658
# Shear Modulus (GPa) = 18.14889 28.88995 23.51942
#
# Velocity S-wave (km/s) = 2.91199 3.67399 3.31495
# Velocity P-wave (km/s) = 4.76854 6.83212 5.89138
#
# Compressibility (1/GPa) = 0.04086750
#
# Stress axis : x y z
#
# Youngs Moduli (GPa) = 28.90397 93.20417 75.59873
#
# Poissons Ratio (x) = -0.39539 0.38151
# Poissons Ratio (y) = -0.12262 0.60773
# Poissons Ratio (z) = 0.14587 0.74926
#
# Static dielectric constant tensor:
#      x y z
#    x 1.932090 0.000000 0.000000 
#    y 0.000000 1.733810 0.000000 
#    z 0.000000 0.000000 1.750520 
# 
# From -- ./inp_files/9222.got.cif
#   From: 2010.05.17/outbox.cif.g08.bks.cpg/sg58_5_cif.got.tgz:9222.got - 2010.06.03 14:20:14.
