data_PCOD9441135
_publ_section_title
;
Structure prediction by ZEFSAII (Michael W. Deem and Ramdas Pophale) SiO2 
 PCOD9441135
Probable space group: P N N M
;
_chemical_formula_sum "Si O2"
_cell_formula_units_Z 56
_cell_length_a 21.344728
_cell_length_b 11.740391
_cell_length_c 13.482323
_cell_angle_alpha 90.000000
_cell_angle_beta 90.000000
_cell_angle_gamma 90.000000
_cell_volume 3378.608833
_symmetry_space_group_name_H-M "P N N M"
_symmetry_group_IT_number 58
_symmetry_cell_setting 'orthorhombic'
loop_
_space_group_symop_operation_xyz
x,y,z
-x,-y,z
1/2+x,1/2-y,1/2-z
1/2-x,1/2+y,1/2-z
-x,-y,-z
x,y,-z
1/2-x,1/2+y,1/2+z
1/2+x,1/2-y,1/2+z
loop_
_atom_site_type_symbol
_atom_site_label
_atom_site_fract_x
_atom_site_fract_y
_atom_site_fract_z
Si Si1 0.374969 0.597268 0.883739
Si Si2 0.989305 0.159349 0.613929
Si Si3 0.785534 0.040005 0.883232
Si Si4 0.447610 0.907274 0.887244
Si Si5 0.143612 0.865513 0.294917
Si Si6 0.329890 0.829171 0.785363
Si Si7 0.255211 0.727604 0.617955
O O1 0.448977 0.587485 0.855765
O O2 0.341979 0.478874 0.859592
O O3 0.344393 0.703801 0.828942
O O4 0.373982 0.621764 0.000000
O O5 0.970679 0.129195 0.500000
O O6 0.928539 0.160773 0.682447
O O7 0.017976 0.286018 0.611362
O O8 0.840859 0.092479 0.815930
O O9 0.725005 0.109574 0.846192
O O10 0.772797 0.905271 0.865342
O O11 0.795897 0.055218 0.000000
O O12 0.392285 0.900744 0.807724
O O13 0.500000 0.000000 0.866481
O O14 0.422378 0.927003 0.000000
O O15 0.189411 0.764908 0.331462
O O16 0.306096 0.806749 0.674101
O O17 0.252144 0.746038 0.500000
#
# Coordination Sequence:
#
# PCOD9441135 Si02
#       7
#     8   8   8   8   8   8   8
#     4  10  18  31  50  77 107 134 161 204 259 309
#     4   9  18  30  48  76 106 131 160 204 257 305
#     4  10  21  36  53  72 102 139 174 213 248 295
#     4   9  18  31  51  80 106 131 164 207 259 311
#     4  11  20  32  52  76 102 133 171 208 256 304
#     4  10  19  34  53  75 102 139 171 204 255 303
#     4  10  21  35  52  75 102 136 176 211 249 296
#
# _framework density 16.574870000000001
#
# number of rings (size 3 to 8) (size 9 to 14) (size 15 to 20)
#    0.000    2.143    1.429    3.857    2.000    1.143 
#    0.000    0.000    0.000    5.571    0.000    0.000 
#    0.000    0.000    0.000    0.000    0.000    0.000 
#
# Total GULP energy -312091.808646 kJ/mol
# GULP energy per Si atom -5573.068012 kJ/mol
# Density = 1.653714 g / cm^3
# Si number density = 16.574870 Si / 1000 Ang^3
#
#
#
# Elastic Constant Matrix: (Units=GPa)
#
#
# Indices 1 2 3 4 5 6 
#
# 1 73.0473 19.6187 47.1820 0.0000 0.0000 0.0000
# 2 19.6187 27.6989 24.4387 0.0000 0.0000 0.0000
# 3 47.1820 24.4387 99.2713 0.0000 0.0000 0.0000
# 4 0.0000 0.0000 0.0000 24.0315 0.0000 0.0000
# 5 0.0000 0.0000 0.0000 0.0000 26.0986 0.0000
# 6 0.0000 0.0000 0.0000 0.0000 0.0000 28.7259
#
#
#
# Elastic Compliance Matrix: (Units=1/GPa)
#
#
# Indices 1 2 3 4 5 6 
#
# 1 0.020978 -0.007743 -0.008064 0.000000 0.000000 0.000000
# 2 -0.007743 0.048978 -0.008377 0.000000 0.000000 0.000000
# 3 -0.008064 -0.008377 0.015969 0.000000 0.000000 0.000000
# 4 0.000000 0.000000 0.000000 0.041612 0.000000 0.000000
# 5 0.000000 0.000000 0.000000 0.000000 0.038316 0.000000
# 6 0.000000 0.000000 0.000000 0.000000 0.000000 0.034812
#
#
# Mechanical properties :
#
#
# Convention : Reuss Voigt Hill
#
# Bulk Modulus (GPa) = 26.62746 42.49959 34.56352
# Shear Modulus (GPa) = 19.11654 23.02307 21.06981
#
# Velocity S-wave (km/s) = 3.39978 3.73102 3.56924
# Velocity P-wave (km/s) = 5.61348 6.65262 6.15502
#
# Compressibility (1/GPa) = 0.03755522
#
# Stress axis : x y z
#
# Youngs Moduli (GPa) = 47.66833 20.41720 62.62308
#
# Poissons Ratio (x) = 0.15810 0.50501
# Poissons Ratio (y) = 0.36912 0.52461
# Poissons Ratio (z) = 0.38441 0.17104
#
# Static dielectric constant tensor:
#      x y z
#    x 1.572560 0.000000 0.000000 
#    y 0.000000 1.602030 0.000000 
#    z 0.000000 0.000000 1.549700 
# 
# From -- ./inp_files/14571.got.cif
#   From: 2010.05.17/outbox.cif.g08.bks.cpg/sg58_8_cif.got.tgz:14571.got - 2010.06.03 14:20:14.
