data_PCOD9441807
_publ_section_title
;
Structure prediction by ZEFSAII (Michael W. Deem and Ramdas Pophale) SiO2 
 PCOD9441807
Probable space group: P N N M
;
_chemical_formula_sum "Si O2"
_cell_formula_units_Z 48
_cell_length_a 32.664541
_cell_length_b 9.246148
_cell_length_c 8.695519
_cell_angle_alpha 90.000000
_cell_angle_beta 90.000000
_cell_angle_gamma 90.000000
_cell_volume 2626.230913
_symmetry_space_group_name_H-M "P N N M"
_symmetry_group_IT_number 58
_symmetry_cell_setting 'orthorhombic'
loop_
_space_group_symop_operation_xyz
x,y,z
-x,-y,z
1/2+x,1/2-y,1/2-z
1/2-x,1/2+y,1/2-z
-x,-y,-z
x,y,-z
1/2-x,1/2+y,1/2+z
1/2+x,1/2-y,1/2+z
loop_
_atom_site_type_symbol
_atom_site_label
_atom_site_fract_x
_atom_site_fract_y
_atom_site_fract_z
Si Si1 0.956130 0.320073 0.817837
Si Si2 0.210152 0.847178 0.685498
Si Si3 0.870672 0.327330 0.683622
Si Si4 0.288550 0.682535 0.815730
Si Si5 0.633528 0.150731 0.314678
Si Si6 0.955397 0.670458 0.817602
O O1 0.915000 0.268827 0.736001
O O2 0.955784 0.495476 0.803362
O O3 0.000938 0.273290 0.756392
O O4 0.953458 0.288033 0.000000
O O5 0.213808 0.839485 0.500000
O O6 0.166840 0.775676 0.728515
O O7 0.247623 0.760373 0.758037
O O8 0.211973 0.014663 0.731152
O O9 0.870653 0.344354 0.500000
O O10 0.864044 0.484805 0.758819
O O11 0.328164 0.761339 0.747295
O O12 0.290443 0.690063 0.000000
O O13 0.633372 0.151003 0.500000
O O14 0.589432 0.213872 0.258913
O O15 0.956306 0.701850 0.000000
#
# Coordination Sequence:
#
# PCOD9441807 Si02
#       6
#     8   8   8   8   8   8
#     4   8  13  25  45  70 100 134 171 209 250 291
#     4  10  23  40  55  74 103 135 165 203 252 305
#     4  10  19  32  51  77 107 137 171 210 252 297
#     4  11  23  38  56  77 100 128 166 209 251 299
#     4  10  19  33  53  77 105 136 170 208 253 300
#     4   7  12  24  44  69  99 134 168 205 247 292
#
# _framework density 18.277142999999999
#
# number of rings (size 3 to 8) (size 9 to 14) (size 15 to 20)
#    0.000    2.667    0.000    4.500    0.000    5.333 
#    0.000    7.500    0.000    1.000    0.000    7.000 
#    0.000    0.000    0.000    0.000    0.000    0.000 
#
# Total GULP energy -267497.551911 kJ/mol
# GULP energy per Si atom -5572.865665 kJ/mol
# Density = 1.823554 g / cm^3
# Si number density = 18.277143 Si / 1000 Ang^3
#
#
#
# Elastic Constant Matrix: (Units=GPa)
#
#
# Indices 1 2 3 4 5 6 
#
# 1 288.1703 118.4240 67.7223 0.0000 0.0000 0.0000
# 2 118.4240 102.8148 39.5144 0.0000 0.0000 0.0000
# 3 67.7223 39.5144 33.4115 0.0000 0.0000 0.0000
# 4 0.0000 0.0000 0.0000 -46.0813 0.0000 0.0000
# 5 0.0000 0.0000 0.0000 0.0000 29.7442 0.0000
# 6 0.0000 0.0000 0.0000 0.0000 0.0000 23.5069
#
#
#
# Elastic Compliance Matrix: (Units=1/GPa)
#
#
# Indices 1 2 3 4 5 6 
#
# 1 0.008019 -0.005481 -0.009772 0.000000 0.000000 0.000000
# 2 -0.005481 0.021577 -0.014409 0.000000 0.000000 0.000000
# 3 -0.009772 -0.014409 0.066777 0.000000 0.000000 0.000000
# 4 0.000000 0.000000 0.000000 -0.021701 0.000000 0.000000
# 5 0.000000 0.000000 0.000000 0.000000 0.033620 0.000000
# 6 0.000000 0.000000 0.000000 0.000000 0.000000 0.042541
#
#
# Mechanical properties :
#
#
# Convention : Reuss Voigt Hill
#
# Bulk Modulus (GPa) = 26.99054 97.30199 62.14626
# Shear Modulus (GPa) = 22.47128 14.68301 18.57715
#
# Velocity S-wave (km/s) = 3.51019 2.83742 3.19158
# Velocity P-wave (km/s) = 5.58820 8.00545 6.90345
#
# Compressibility (1/GPa) = 0.03705002
#
# Stress axis : x y z
#
# Youngs Moduli (GPa) = 124.70399 46.34591 14.97516
#
# Poissons Ratio (x) = 0.25402 0.14633
# Poissons Ratio (y) = 0.68348 0.21578
# Poissons Ratio (z) = 1.21859 0.66779
#
# Static dielectric constant tensor:
#      x y z
#    x 1.669730 0.000000 0.000000 
#    y 0.000000 1.604520 0.000000 
#    z 0.000000 0.000000 1.619660 
# 
# From -- ./inp_files/10742.got.cif
#   From: 2010.05.17/outbox.cif.g08.bks.cpg/sg58_6_cif.got.tgz:10742.got - 2010.06.03 14:20:14.
