data_PCOD9441532
_publ_section_title
;
Structure prediction by ZEFSAII (Michael W. Deem and Ramdas Pophale) SiO2 
 PCOD9441532
Probable space group: P N N M
;
_chemical_formula_sum "Si O2"
_cell_formula_units_Z 64
_cell_length_a 13.474304
_cell_length_b 23.609652
_cell_length_c 8.048423
_cell_angle_alpha 90.000000
_cell_angle_beta 90.000000
_cell_angle_gamma 90.000000
_cell_volume 2560.393528
_symmetry_space_group_name_H-M "P N N M"
_symmetry_group_IT_number 58
_symmetry_cell_setting 'orthorhombic'
loop_
_space_group_symop_operation_xyz
x,y,z
-x,-y,z
1/2+x,1/2-y,1/2-z
1/2-x,1/2+y,1/2-z
-x,-y,-z
x,y,-z
1/2-x,1/2+y,1/2+z
1/2+x,1/2-y,1/2+z
loop_
_atom_site_type_symbol
_atom_site_label
_atom_site_fract_x
_atom_site_fract_y
_atom_site_fract_z
Si Si1 0.146050 0.446613 0.693084
Si Si2 0.602366 0.174545 0.809181
Si Si3 0.200789 0.563549 0.301107
Si Si4 0.168930 0.685725 0.810106
Si Si5 0.161213 0.807350 0.807830
Si Si6 0.593557 0.297521 0.806149
Si Si7 0.139036 0.926104 0.683479
Si Si8 0.573104 0.421480 0.691414
O O1 0.097239 0.389045 0.766155
O O2 0.136862 0.510177 0.763316
O O3 0.266855 0.439643 0.700780
O O4 0.334758 0.445668 0.000000
O O5 0.720306 0.185205 0.819908
O O6 0.569337 0.234985 0.734379
O O7 0.615145 0.052906 0.000000
O O8 0.207393 0.557424 0.500000
O O9 0.152346 0.624718 0.268781
O O10 0.316573 0.563744 0.237771
O O11 0.135215 0.745731 0.737083
O O12 0.287444 0.694532 0.811360
O O13 0.134085 0.683134 0.000000
O O14 0.131262 0.858299 0.691669
O O15 0.126172 0.812870 0.000000
O O16 0.563833 0.353109 0.705378
O O17 0.564273 0.172431 0.000000
O O18 0.938014 0.800745 0.500000
O O19 0.028725 0.944480 0.731148
O O20 0.573733 0.438413 0.500000
#
# Coordination Sequence:
#
# PCOD9441532 Si02
#       8
#     8   8   8   8   8   8   8   8
#     4   9  17  31  45  58  81 114 145 171 202 244
#     4   7  11  22  42  60  75  98 129 163 202 243
#     4   9  18  29  43  61  82 111 146 176 201 233
#     4   8  14  25  43  62  81 104 130 163 208 251
#     4   8  14  27  44  60  78 104 132 162 206 256
#     4   8  13  24  41  60  77  97 128 166 204 243
#     4  11  21  30  41  59  80 107 142 180 211 238
#     4  10  19  30  41  56  80 111 141 171 205 242
#
# _framework density 24.996158000000001
#
# number of rings (size 3 to 8) (size 9 to 14) (size 15 to 20)
#    0.000    3.250    0.000    3.750    0.000    2.000 
#    0.000    8.750    0.000    0.000    0.000    0.000 
#    0.000    1.000    0.000   11.500    0.000    3.625 
#
# Total GULP energy -356601.250929 kJ/mol
# GULP energy per Si atom -5571.894546 kJ/mol
# Density = 2.493927 g / cm^3
# Si number density = 24.996158 Si / 1000 Ang^3
#
#
#
# Elastic Constant Matrix: (Units=GPa)
#
#
# Indices 1 2 3 4 5 6 
#
# 1 58.0793 -34.3528 -7.1422 0.0000 0.0000 0.0000
# 2 -34.3528 157.0153 4.0558 0.0000 0.0000 0.0000
# 3 -7.1422 4.0558 33.6218 0.0000 0.0000 0.0000
# 4 0.0000 0.0000 0.0000 22.1708 0.0000 0.0000
# 5 0.0000 0.0000 0.0000 0.0000 -2.4467 0.0000
# 6 0.0000 0.0000 0.0000 0.0000 0.0000 -22.5706
#
#
#
# Elastic Compliance Matrix: (Units=1/GPa)
#
#
# Indices 1 2 3 4 5 6 
#
# 1 0.020244 0.004332 0.003778 0.000000 0.000000 0.000000
# 2 0.004332 0.007316 0.000038 0.000000 0.000000 0.000000
# 3 0.003778 0.000038 0.030541 0.000000 0.000000 0.000000
# 4 0.000000 0.000000 0.000000 0.045104 0.000000 0.000000
# 5 0.000000 0.000000 0.000000 0.000000 -0.408712 0.000000
# 6 0.000000 0.000000 0.000000 0.000000 0.000000 -0.044305
#
#
# Mechanical properties :
#
#
# Convention : Reuss Voigt Hill
#
# Bulk Modulus (GPa) = 13.44171 19.31534 16.37853
# Shear Modulus (GPa) = -14.64950 18.50773 1.92912
#
# Velocity S-wave (km/s) = -2.42351 2.72402 0.87945
# Velocity P-wave (km/s) = 1.56270 4.19974 2.75643
#
# Compressibility (1/GPa) = 0.07439528
#
# Stress axis : x y z
#
# Youngs Moduli (GPa) = 49.39614 136.69546 32.74324
#
# Poissons Ratio (x) = -0.59211 -0.12370
# Poissons Ratio (y) = -0.21397 -0.00123
# Poissons Ratio (z) = -0.18662 -0.00515
#
# Static dielectric constant tensor:
#      x y z
#    x 2.056340 0.000000 0.000000 
#    y 0.000000 2.067390 0.000000 
#    z 0.000000 0.000000 1.910300 
# 
# From -- ./inp_files/9421.got.cif
#   From: 2010.05.17/outbox.cif.g08.bks.cpg/sg58_5_cif.got.tgz:9421.got - 2010.06.03 14:20:14.
