data_PCOD9441308
_publ_section_title
;
Structure prediction by ZEFSAII (Michael W. Deem and Ramdas Pophale) SiO2 
 PCOD9441308
Probable space group: P N N M
;
_chemical_formula_sum "Si O2"
_cell_formula_units_Z 52
_cell_length_a 8.023022
_cell_length_b 23.618943
_cell_length_c 12.220214
_cell_angle_alpha 90.000000
_cell_angle_beta 90.000000
_cell_angle_gamma 90.000000
_cell_volume 2315.673110
_symmetry_space_group_name_H-M "P N N M"
_symmetry_group_IT_number 58
_symmetry_cell_setting 'orthorhombic'
loop_
_space_group_symop_operation_xyz
x,y,z
-x,-y,z
1/2+x,1/2-y,1/2-z
1/2-x,1/2+y,1/2-z
-x,-y,-z
x,y,-z
1/2-x,1/2+y,1/2+z
1/2+x,1/2-y,1/2+z
loop_
_atom_site_type_symbol
_atom_site_label
_atom_site_fract_x
_atom_site_fract_y
_atom_site_fract_z
Si Si1 0.796295 0.434698 0.262657
Si Si2 0.984587 0.321726 0.259175
Si Si3 0.821256 0.137331 0.000000
Si Si4 0.342052 0.287195 0.283438
Si Si5 0.185323 0.971334 0.376463
Si Si6 0.839128 0.922176 0.000000
Si Si7 0.953059 0.337066 0.500000
Si Si8 0.981732 0.864599 0.629915
O O1 0.946425 0.388984 0.261601
O O2 0.804596 0.495306 0.204888
O O3 0.723385 0.446876 0.384223
O O4 0.664454 0.398873 0.190162
O O5 0.863099 0.279459 0.194933
O O6 0.965046 0.304774 0.386934
O O7 0.168395 0.303457 0.227297
O O8 0.852427 0.175660 0.893281
O O9 0.622093 0.123291 0.000000
O O10 0.962557 0.088672 0.000000
O O11 0.482395 0.309635 0.200939
O O12 0.246045 0.979133 0.500000
O O13 0.143387 0.906000 0.357386
O O14 0.000000 0.000000 0.370332
O O15 0.729377 0.864704 0.000000
O O16 0.952436 0.857270 0.500000
#
# Coordination Sequence:
#
# PCOD9441308 Si02
#       8
#     8   8   4   8   8   4   4   8
#     4  10  18  36  57  84 115 147 193 236 287 339
#     4  10  22  37  57  82 110 151 192 237 287 348
#     4  10  20  38  55  78 115 153 181 237 293 342
#     4  11  22  39  55  81 112 148 192 236 291 346
#     4   8  16  33  57  82 113 150 186 235 284 337
#     4  10  18  32  60  84 114 150 188 239 287 340
#     4   8  20  36  56  77 115 153 187 231 294 340
#     4  10  20  36  59  84 115 151 191 233 285 341
#
# _framework density 22.455673999999998
#
# number of rings (size 3 to 8) (size 9 to 14) (size 15 to 20)
#    0.000    2.308    1.538    2.308    3.231    0.000 
#    6.923    5.000    0.000    1.846    0.000    6.462 
#    0.000    0.000    0.000    0.000    0.000    0.000 
#
# Total GULP energy -289768.697108 kJ/mol
# GULP energy per Si atom -5572.474944 kJ/mol
# Density = 2.240456 g / cm^3
# Si number density = 22.455674 Si / 1000 Ang^3
#
#
#
# Elastic Constant Matrix: (Units=GPa)
#
#
# Indices 1 2 3 4 5 6 
#
# 1 62.7357 -6.8343 4.5538 0.0000 0.0000 0.0000
# 2 -6.8343 48.0555 12.4511 0.0000 0.0000 0.0000
# 3 4.5538 12.4511 64.8511 0.0000 0.0000 0.0000
# 4 0.0000 0.0000 0.0000 -3.8682 0.0000 0.0000
# 5 0.0000 0.0000 0.0000 0.0000 -65.6545 0.0000
# 6 0.0000 0.0000 0.0000 0.0000 0.0000 21.0066
#
#
#
# Elastic Compliance Matrix: (Units=1/GPa)
#
#
# Indices 1 2 3 4 5 6 
#
# 1 0.016363 0.002762 -0.001679 0.000000 0.000000 0.000000
# 2 0.002762 0.022365 -0.004488 0.000000 0.000000 0.000000
# 3 -0.001679 -0.004488 0.016400 0.000000 0.000000 0.000000
# 4 0.000000 0.000000 0.000000 -0.258521 0.000000 0.000000
# 5 0.000000 0.000000 0.000000 0.000000 -0.015231 0.000000
# 6 0.000000 0.000000 0.000000 0.000000 0.000000 0.047604
#
#
# Mechanical properties :
#
#
# Convention : Reuss Voigt Hill
#
# Bulk Modulus (GPa) = 20.69666 21.77595 21.23631
# Shear Modulus (GPa) = -33.75974 1.32824 -16.21575
#
# Velocity S-wave (km/s) = -3.88157 0.76992 -2.69015
# Velocity P-wave (km/s) = 3.29425 3.24172 0.41435
#
# Compressibility (1/GPa) = 0.04831697
#
# Stress axis : x y z
#
# Youngs Moduli (GPa) = 61.11467 44.71294 60.97743
#
# Poissons Ratio (x) = -0.12350 0.10240
# Poissons Ratio (y) = -0.16881 0.27366
# Poissons Ratio (z) = 0.10263 0.20067
#
# Static dielectric constant tensor:
#      x y z
#    x 1.885300 0.000000 0.000000 
#    y 0.000000 1.865920 0.000000 
#    z 0.000000 0.000000 1.830890 
# 
# From -- ./inp_files/13262.got.cif
#   From: 2010.05.17/outbox.cif.g08.bks.cpg/sg58_7_cif.got.tgz:13262.got - 2010.06.03 14:20:14.
