data_PCOD9441583
_publ_section_title
;
Structure prediction by ZEFSAII (Michael W. Deem and Ramdas Pophale) SiO2 
 PCOD9441583
Probable space group: P N N M
;
_chemical_formula_sum "Si O2"
_cell_formula_units_Z 40
_cell_length_a 7.736276
_cell_length_b 8.890607
_cell_length_c 24.762284
_cell_angle_alpha 90.000000
_cell_angle_beta 90.000000
_cell_angle_gamma 90.000000
_cell_volume 1703.154587
_symmetry_space_group_name_H-M "P N N M"
_symmetry_group_IT_number 58
_symmetry_cell_setting 'orthorhombic'
loop_
_space_group_symop_operation_xyz
x,y,z
-x,-y,z
1/2+x,1/2-y,1/2-z
1/2-x,1/2+y,1/2-z
-x,-y,-z
x,y,-z
1/2-x,1/2+y,1/2+z
1/2+x,1/2-y,1/2+z
loop_
_atom_site_type_symbol
_atom_site_label
_atom_site_fract_x
_atom_site_fract_y
_atom_site_fract_z
Si Si1 0.631317 0.207605 0.668140
Si Si2 0.539731 0.824090 0.228454
Si Si3 0.756287 0.350243 0.437386
Si Si4 0.829474 0.905607 0.654769
Si Si5 0.171386 0.303919 0.561942
O O1 0.470020 0.224232 0.708489
O O2 0.642192 0.264959 0.606922
O O3 0.780613 0.299378 0.698940
O O4 0.697866 0.035897 0.671631
O O5 0.406235 0.714547 0.197179
O O6 0.500000 0.000000 0.222659
O O7 0.710459 0.318914 0.500000
O O8 0.751965 0.530094 0.428897
O O9 0.961500 0.311941 0.430584
O O10 0.759153 0.815144 0.603941
O O11 0.000000 0.000000 0.637379
O O12 0.202991 0.262783 0.500000
#
# Coordination Sequence:
#
# PCOD9441583 Si02
#       5
#     8   8   8   8   8
#     4  11  22  36  57  86 116 149 193 234 284 340
#     4  11  22  38  56  79 116 156 186 234 282 336
#     4   9  17  31  54  81 111 148 189 237 289 334
#     4  10  19  30  47  77 111 144 184 227 278 333
#     4   9  16  28  49  77 113 147 182 234 294 331
#
# _framework density 23.485831000000001
#
# number of rings (size 3 to 8) (size 9 to 14) (size 15 to 20)
#    0.000    2.000    4.000    3.600    0.000    1.200 
#    0.000    2.000    0.000    0.600    0.000    2.800 
#    0.000   28.000    0.000    0.000    0.000    0.400 
#
# Total GULP energy -223707.016879 kJ/mol
# GULP energy per Si atom -5592.675422 kJ/mol
# Density = 2.343238 g / cm^3
# Si number density = 23.485831 Si / 1000 Ang^3
#
#
#
# Elastic Constant Matrix: (Units=GPa)
#
#
# Indices 1 2 3 4 5 6 
#
# 1 57.0364 5.6901 15.2913 0.0000 0.0000 0.0000
# 2 5.6901 110.7990 75.9136 0.0000 0.0000 0.0000
# 3 15.2913 75.9136 138.9851 0.0000 0.0000 0.0000
# 4 0.0000 0.0000 0.0000 12.6712 0.0000 0.0000
# 5 0.0000 0.0000 0.0000 0.0000 -1.0899 0.0000
# 6 0.0000 0.0000 0.0000 0.0000 0.0000 15.1200
#
#
#
# Elastic Compliance Matrix: (Units=1/GPa)
#
#
# Indices 1 2 3 4 5 6 
#
# 1 0.018099 0.000695 -0.002371 0.000000 0.000000 0.000000
# 2 0.000695 0.014449 -0.007969 0.000000 0.000000 0.000000
# 3 -0.002371 -0.007969 0.011808 0.000000 0.000000 0.000000
# 4 0.000000 0.000000 0.000000 0.078919 0.000000 0.000000
# 5 0.000000 0.000000 0.000000 0.000000 -0.917486 0.000000
# 6 0.000000 0.000000 0.000000 0.000000 0.000000 0.066138
#
#
# Mechanical properties :
#
#
# Convention : Reuss Voigt Hill
#
# Bulk Modulus (GPa) = 39.89242 55.62339 47.75791
# Shear Modulus (GPa) = -7.13850 19.33528 6.09839
#
# Velocity S-wave (km/s) = -1.74530 2.87239 1.61315
# Velocity P-wave (km/s) = 3.60016 5.89373 4.88350
#
# Compressibility (1/GPa) = 0.02506742
#
# Stress axis : x y z
#
# Youngs Moduli (GPa) = 55.25187 69.20700 84.68579
#
# Poissons Ratio (x) = -0.04809 0.20077
# Poissons Ratio (y) = -0.03839 0.67484
# Poissons Ratio (z) = 0.13099 0.55149
#
# Static dielectric constant tensor:
#      x y z
#    x 1.984620 0.000000 0.000000 
#    y 0.000000 1.875140 0.000000 
#    z 0.000000 0.000000 1.874780 
# 
# From -- ./inp_files/29412.got.cif
#   From: 2010.05.17/outbox.cif.g08.bks.cpg/sg58_15_cif.got.tgz:29412.got - 2010.06.03 14:20:14.
