data_PCOD9441099
_publ_section_title
;
Structure prediction by ZEFSAII (Michael W. Deem and Ramdas Pophale) SiO2 
 PCOD9441099
Probable space group: P N N M
;
_chemical_formula_sum "Si O2"
_cell_formula_units_Z 64
_cell_length_a 21.310333
_cell_length_b 20.326484
_cell_length_c 8.376077
_cell_angle_alpha 90.000000
_cell_angle_beta 90.000000
_cell_angle_gamma 90.000000
_cell_volume 3628.216213
_symmetry_space_group_name_H-M "P N N M"
_symmetry_group_IT_number 58
_symmetry_cell_setting 'orthorhombic'
loop_
_space_group_symop_operation_xyz
x,y,z
-x,-y,z
1/2+x,1/2-y,1/2-z
1/2-x,1/2+y,1/2-z
-x,-y,-z
x,y,-z
1/2-x,1/2+y,1/2+z
1/2+x,1/2-y,1/2+z
loop_
_atom_site_type_symbol
_atom_site_label
_atom_site_fract_x
_atom_site_fract_y
_atom_site_fract_z
Si Si1 0.431073 0.707927 0.193115
Si Si2 0.740223 0.071759 0.809871
Si Si3 0.811503 0.709733 0.694464
Si Si4 0.767261 0.431362 0.190308
Si Si5 0.117948 0.933267 0.689402
Si Si6 0.070563 0.792027 0.692893
Si Si7 0.624916 0.425910 0.688626
Si Si8 0.188410 0.709092 0.192735
O O1 0.374978 0.755208 0.250385
O O2 0.500794 0.728136 0.244486
O O3 0.416384 0.634077 0.249031
O O4 0.429854 0.708050 0.000000
O O5 0.698340 0.133829 0.759944
O O6 0.808124 0.076242 0.726553
O O7 0.713347 0.000198 0.768580
O O8 0.750911 0.075780 0.000000
O O9 0.812367 0.711938 0.500000
O O10 0.750030 0.750429 0.746850
O O11 0.693635 0.420977 0.230269
O O12 0.804003 0.366469 0.245545
O O13 0.773239 0.437348 0.000000
O O14 0.109219 0.939930 0.500000
O O15 0.083833 0.867154 0.746087
O O16 0.098731 0.001935 0.769137
O O17 0.072662 0.792311 0.500000
O O18 0.125780 0.745142 0.752157
O O19 0.633489 0.421019 0.500000
O O20 0.189656 0.709306 0.000000
#
# Coordination Sequence:
#
# PCOD9441099 Si02
#       8
#     8   8   8   8   8   8   8   8
#     4  10  20  38  55  72 104 142 178 210 258 317
#     4  10  18  30  51  79 103 129 167 214 259 298
#     4   9  17  32  55  77  99 135 173 209 256 309
#     4  10  19  33  53  77 104 139 171 205 260 313
#     4  10  19  32  48  72 104 139 171 204 254 308
#     4  10  22  35  53  78 104 137 175 220 258 299
#     4  11  21  32  49  76 104 137 176 216 253 294
#     4  10  19  34  56  77 102 138 172 209 259 312
#
# _framework density 17.639521999999999
#
# number of rings (size 3 to 8) (size 9 to 14) (size 15 to 20)
#    0.000    2.000    2.500    3.750    0.000    2.500 
#    0.000    3.750    0.000    0.750    0.000    5.250 
#    0.000    0.000    0.000    0.000    0.000    0.000 
#
# Total GULP energy -357166.741502 kJ/mol
# GULP energy per Si atom -5580.730336 kJ/mol
# Density = 1.759937 g / cm^3
# Si number density = 17.639522 Si / 1000 Ang^3
#
#
#
# Elastic Constant Matrix: (Units=GPa)
#
#
# Indices 1 2 3 4 5 6 
#
# 1 107.1745 68.1804 -3.8539 0.0000 0.0000 0.0000
# 2 68.1804 127.3083 -2.5977 0.0000 0.0000 0.0000
# 3 -3.8539 -2.5977 -3.1371 0.0000 0.0000 0.0000
# 4 0.0000 0.0000 0.0000 35.4848 0.0000 0.0000
# 5 0.0000 0.0000 0.0000 0.0000 13.0155 0.0000
# 6 0.0000 0.0000 0.0000 0.0000 0.0000 23.2572
#
#
#
# Elastic Compliance Matrix: (Units=1/GPa)
#
#
# Indices 1 2 3 4 5 6 
#
# 1 0.013781 -0.007598 -0.010639 0.000000 0.000000 0.000000
# 2 -0.007598 0.011913 -0.000531 0.000000 0.000000 0.000000
# 3 -0.010639 -0.000531 -0.305260 0.000000 0.000000 0.000000
# 4 0.000000 0.000000 0.000000 0.028181 0.000000 0.000000
# 5 0.000000 0.000000 0.000000 0.000000 0.076831 0.000000
# 6 0.000000 0.000000 0.000000 0.000000 0.000000 0.042997
#
#
# Mechanical properties :
#
#
# Convention : Reuss Voigt Hill
#
# Bulk Modulus (GPa) = -3.15357 39.42260 18.13452
# Shear Modulus (GPa) = -25.03495 25.65930 0.31217
#
# Velocity S-wave (km/s) = -3.77139 3.81812 0.42114
# Velocity P-wave (km/s) = 4.55589 6.46799 3.24645
#
# Compressibility (1/GPa) = -0.31710141
#
# Stress axis : x y z
#
# Youngs Moduli (GPa) = 72.56143 83.94099 -3.27589
#
# Poissons Ratio (x) = 0.63776 -0.03485
# Poissons Ratio (y) = 0.55131 -0.00174
# Poissons Ratio (z) = 0.77198 0.04457
#
# Static dielectric constant tensor:
#      x y z
#    x 1.586050 0.000000 0.000000 
#    y 0.000000 1.615780 0.000000 
#    z 0.000000 0.000000 1.608080 
# 
# From -- ./inp_files/8367.got.cif
#   From: 2010.05.17/outbox.cif.g08.bks.cpg/sg58_5_cif.got.tgz:8367.got - 2010.06.03 14:20:14.
