data_PCOD9441082
_publ_section_title
;
Structure prediction by ZEFSAII (Michael W. Deem and Ramdas Pophale) SiO2 
 PCOD9441082
Probable space group: P N N M
;
_chemical_formula_sum "Si O2"
_cell_formula_units_Z 64
_cell_length_a 21.597536
_cell_length_b 15.564596
_cell_length_c 9.342464
_cell_angle_alpha 90.000000
_cell_angle_beta 90.000000
_cell_angle_gamma 90.000000
_cell_volume 3140.533946
_symmetry_space_group_name_H-M "P N N M"
_symmetry_group_IT_number 58
_symmetry_cell_setting 'orthorhombic'
loop_
_space_group_symop_operation_xyz
x,y,z
-x,-y,z
1/2+x,1/2-y,1/2-z
1/2-x,1/2+y,1/2-z
-x,-y,-z
x,y,-z
1/2-x,1/2+y,1/2+z
1/2+x,1/2-y,1/2+z
loop_
_atom_site_type_symbol
_atom_site_label
_atom_site_fract_x
_atom_site_fract_y
_atom_site_fract_z
Si Si1 0.040089 0.688794 0.835721
Si Si2 0.805309 0.909527 0.327011
Si Si3 0.073106 0.525917 0.335028
Si Si4 0.693481 0.598408 0.161342
Si Si5 0.225455 0.250228 0.172246
Si Si6 0.430993 0.577076 0.336860
Si Si7 0.938552 0.116369 0.766068
Si Si8 0.398838 0.857380 0.669800
O O1 0.075579 0.619332 0.738752
O O2 0.063635 0.786789 0.825196
O O3 0.966446 0.683920 0.797105
O O4 0.045038 0.660108 0.000000
O O5 0.810584 0.906775 0.500000
O O6 0.763869 0.835697 0.261418
O O7 0.870409 0.895136 0.246447
O O8 0.787749 0.005907 0.280276
O O9 0.092487 0.530158 0.500000
O O10 0.106214 0.447826 0.252527
O O11 0.000000 0.500000 0.330357
O O12 0.725091 0.680431 0.227679
O O13 0.619322 0.608177 0.160397
O O14 0.717377 0.598257 0.000000
O O15 0.158227 0.293761 0.199460
O O16 0.230194 0.233819 0.000000
O O17 0.437068 0.612686 0.500000
O O18 0.488653 0.603882 0.237132
O O19 0.429011 0.473269 0.351960
O O20 0.397961 0.874846 0.500000
#
# Coordination Sequence:
#
# PCOD9441082 Si02
#       8
#     8   8   8   8   8   8   8   8
#     4  10  18  30  50  79 111 141 179 228 280 334
#     4  10  21  38  59  87 119 152 192 241 291 342
#     4   9  18  32  49  72 106 144 177 219 276 330
#     4   9  21  40  58  80 120 158 189 235 292 347
#     4  10  20  39  64  84 108 151 198 238 284 338
#     4  10  19  34  58  86 116 149 188 236 285 340
#     4  10  19  32  54  84 115 145 187 233 283 338
#     4   9  18  33  56  81 105 138 186 235 278 327
#
# _framework density 20.378701
#
# number of rings (size 3 to 8) (size 9 to 14) (size 15 to 20)
#    0.000    2.375    0.000    3.000    0.000    4.000 
#    2.250    9.375    0.000    0.000    0.000    0.000 
#    0.000    0.000    0.000    0.000    0.000    0.000 
#
# Total GULP energy -356272.568272 kJ/mol
# GULP energy per Si atom -5566.758879 kJ/mol
# Density = 2.033232 g / cm^3
# Si number density = 20.378701 Si / 1000 Ang^3
#
#
#
# Elastic Constant Matrix: (Units=GPa)
#
#
# Indices 1 2 3 4 5 6 
#
# 1 25.6217 35.2700 14.8861 0.0000 0.0000 0.0000
# 2 35.2700 150.6865 49.2290 0.0000 0.0000 0.0000
# 3 14.8861 49.2290 43.5918 0.0000 0.0000 0.0000
# 4 0.0000 0.0000 0.0000 -67.5433 0.0000 0.0000
# 5 0.0000 0.0000 0.0000 0.0000 6.8093 0.0000
# 6 0.0000 0.0000 0.0000 0.0000 0.0000 25.5527
#
#
#
# Elastic Compliance Matrix: (Units=1/GPa)
#
#
# Indices 1 2 3 4 5 6 
#
# 1 0.058979 -0.011449 -0.007211 0.000000 0.000000 0.000000
# 2 -0.011449 0.012739 -0.010476 0.000000 0.000000 0.000000
# 3 -0.007211 -0.010476 0.037234 0.000000 0.000000 0.000000
# 4 0.000000 0.000000 0.000000 -0.014805 0.000000 0.000000
# 5 0.000000 0.000000 0.000000 0.000000 0.146858 0.000000
# 6 0.000000 0.000000 0.000000 0.000000 0.000000 0.039135
#
#
# Mechanical properties :
#
#
# Convention : Reuss Voigt Hill
#
# Bulk Modulus (GPa) = 19.73220 46.51891 33.12555
# Shear Modulus (GPa) = 14.07240 0.99807 7.53524
#
# Velocity S-wave (km/s) = 2.63067 0.70059 1.92500
# Velocity P-wave (km/s) = 4.35098 4.85090 4.60772
#
# Compressibility (1/GPa) = 0.05067860
#
# Stress axis : x y z
#
# Youngs Moduli (GPa) = 16.95512 78.50140 26.85732
#
# Poissons Ratio (x) = 0.89875 0.19368
# Poissons Ratio (y) = 0.19412 0.28137
# Poissons Ratio (z) = 0.12227 0.82241
#
# Static dielectric constant tensor:
#      x y z
#    x 1.774830 0.000000 0.000000 
#    y 0.000000 1.768130 0.000000 
#    z 0.000000 0.000000 1.697280 
# 
# From -- ./inp_files/10050.got.cif
#   From: 2010.05.17/outbox.cif.g08.bks.cpg/sg58_6_cif.got.tgz:10050.got - 2010.06.03 14:20:14.
