data_PCOD9441871
_publ_section_title
;
Structure prediction by ZEFSAII (Michael W. Deem and Ramdas Pophale) SiO2 
 PCOD9441871
Probable space group: P N N M
;
_chemical_formula_sum "Si O2"
_cell_formula_units_Z 56
_cell_length_a 22.569117
_cell_length_b 15.177169
_cell_length_c 7.729417
_cell_angle_alpha 90.000000
_cell_angle_beta 90.000000
_cell_angle_gamma 90.000000
_cell_volume 2647.598193
_symmetry_space_group_name_H-M "P N N M"
_symmetry_group_IT_number 58
_symmetry_cell_setting 'orthorhombic'
loop_
_space_group_symop_operation_xyz
x,y,z
-x,-y,z
1/2+x,1/2-y,1/2-z
1/2-x,1/2+y,1/2-z
-x,-y,-z
x,y,-z
1/2-x,1/2+y,1/2+z
1/2+x,1/2-y,1/2+z
loop_
_atom_site_type_symbol
_atom_site_label
_atom_site_fract_x
_atom_site_fract_y
_atom_site_fract_z
Si Si1 0.216448 0.326497 0.708596
Si Si2 0.615372 0.300886 0.292870
Si Si3 0.526845 0.147028 0.704893
Si Si4 0.151360 0.851953 0.200232
Si Si5 0.568633 0.490496 0.712456
Si Si6 0.871610 0.520116 0.709466
Si Si7 0.894186 0.332050 0.698266
O O1 0.217792 0.328959 0.500000
O O2 0.180300 0.237990 0.753675
O O3 0.283102 0.336869 0.775707
O O4 0.177160 0.409617 0.769274
O O5 0.610219 0.302603 0.500000
O O6 0.568117 0.227704 0.230461
O O7 0.597534 0.397839 0.231183
O O8 0.516632 0.157791 0.500000
O O9 0.565441 0.059788 0.734224
O O10 0.463950 0.148244 0.795252
O O11 0.109183 0.928111 0.273703
O O12 0.118990 0.758299 0.206652
O O13 0.160619 0.877344 0.000000
O O14 0.500000 0.500000 0.766516
O O15 0.567803 0.491480 0.500000
O O16 0.870957 0.518065 0.500000
O O17 0.863486 0.420218 0.770370
O O18 0.875305 0.319489 0.500000
#
# Coordination Sequence:
#
# PCOD9441871 Si02
#       7
#     8   8   8   8   8   8   8
#     4   9  19  36  54  74 102 135 171 213 262 312
#     4   9  18  33  56  81 103 134 173 212 257 311
#     4  10  19  32  53  81 109 135 167 209 256 307
#     4  10  21  36  54  75 101 135 175 219 264 310
#     4   9  17  32  55  80 104 133 174 222 266 309
#     4   9  19  35  53  74 103 138 173 208 253 310
#     4  11  22  34  51  76 106 139 171 208 256 307
#
# _framework density 21.151244999999999
#
# number of rings (size 3 to 8) (size 9 to 14) (size 15 to 20)
#    0.000    2.429    0.000    2.143    0.000    7.429 
#    0.000    3.571    0.000    1.714    0.000    0.000 
#    0.000    0.000    0.000    0.000    0.000    0.000 
#
# Total GULP energy -312599.318072 kJ/mol
# GULP energy per Si atom -5582.130680 kJ/mol
# Density = 2.110310 g / cm^3
# Si number density = 21.151245 Si / 1000 Ang^3
#
#
#
# Elastic Constant Matrix: (Units=GPa)
#
#
# Indices 1 2 3 4 5 6 
#
# 1 126.7014 69.1832 1.9838 0.0000 0.0000 0.0000
# 2 69.1832 169.4473 4.3427 0.0000 0.0000 0.0000
# 3 1.9838 4.3427 33.5410 0.0000 0.0000 0.0000
# 4 0.0000 0.0000 0.0000 9.1839 0.0000 0.0000
# 5 0.0000 0.0000 0.0000 0.0000 16.7295 0.0000
# 6 0.0000 0.0000 0.0000 0.0000 0.0000 19.0467
#
#
#
# Elastic Compliance Matrix: (Units=1/GPa)
#
#
# Indices 1 2 3 4 5 6 
#
# 1 0.010157 -0.004145 -0.000064 0.000000 0.000000 0.000000
# 2 -0.004145 0.007613 -0.000740 0.000000 0.000000 0.000000
# 3 -0.000064 -0.000740 0.029914 0.000000 0.000000 0.000000
# 4 0.000000 0.000000 0.000000 0.108886 0.000000 0.000000
# 5 0.000000 0.000000 0.000000 0.000000 0.059775 0.000000
# 6 0.000000 0.000000 0.000000 0.000000 0.000000 0.052502
#
#
# Mechanical properties :
#
#
# Convention : Reuss Voigt Hill
#
# Bulk Modulus (GPa) = 26.46607 53.41213 39.93910
# Shear Modulus (GPa) = 17.16195 25.93735 21.54965
#
# Velocity S-wave (km/s) = 2.85158 3.50563 3.19538
# Velocity P-wave (km/s) = 4.83549 6.45703 5.70417
#
# Compressibility (1/GPa) = 0.03778422
#
# Stress axis : x y z
#
# Youngs Moduli (GPa) = 98.45343 131.35391 33.42923
#
# Poissons Ratio (x) = 0.54451 0.00214
# Poissons Ratio (y) = 0.40813 0.02475
# Poissons Ratio (z) = 0.00631 0.09727
#
# Static dielectric constant tensor:
#      x y z
#    x 1.747580 0.000000 0.000000 
#    y 0.000000 1.754720 0.000000 
#    z 0.000000 0.000000 1.789800 
# 
# From -- ./inp_files/9048.got.cif
#   From: 2010.05.17/outbox.cif.g08.bks.cpg/sg58_5_cif.got.tgz:9048.got - 2010.06.03 14:20:14.
