data_PCOD9441360
_publ_section_title
;
Structure prediction by ZEFSAII (Michael W. Deem and Ramdas Pophale) SiO2 
 PCOD9441360
Probable space group: P N N M
;
_chemical_formula_sum "Si O2"
_cell_formula_units_Z 64
_cell_length_a 11.442053
_cell_length_b 17.081978
_cell_length_c 16.690293
_cell_angle_alpha 90.000000
_cell_angle_beta 90.000000
_cell_angle_gamma 90.000000
_cell_volume 3262.166129
_symmetry_space_group_name_H-M "P N N M"
_symmetry_group_IT_number 58
_symmetry_cell_setting 'orthorhombic'
loop_
_space_group_symop_operation_xyz
x,y,z
-x,-y,z
1/2+x,1/2-y,1/2-z
1/2-x,1/2+y,1/2-z
-x,-y,-z
x,y,-z
1/2-x,1/2+y,1/2+z
1/2+x,1/2-y,1/2+z
loop_
_atom_site_type_symbol
_atom_site_label
_atom_site_fract_x
_atom_site_fract_y
_atom_site_fract_z
Si Si1 0.204733 0.696607 0.912171
Si Si2 0.744771 0.893898 0.735974
Si Si3 0.975126 0.796420 0.913632
Si Si4 0.608286 0.773059 0.842820
Si Si5 0.761063 0.570726 0.742826
Si Si6 0.002455 0.867086 0.754067
Si Si7 0.375602 0.834430 0.093680
Si Si8 0.791161 0.657375 0.090532
O O1 0.182452 0.633087 0.845227
O O2 0.321982 0.746804 0.899394
O O3 0.105963 0.763264 0.910140
O O4 0.205504 0.660703 0.000000
O O5 0.704074 0.827179 0.798666
O O6 0.882967 0.894654 0.713597
O O7 0.710234 0.979593 0.764096
O O8 0.961073 0.858314 0.844935
O O9 0.894680 0.720531 0.904551
O O10 0.950842 0.831546 0.000000
O O11 0.540771 0.718705 0.777961
O O12 0.512937 0.825558 0.887699
O O13 0.674331 0.709962 0.898084
O O14 0.620295 0.582757 0.746469
O O15 0.815000 0.616486 0.666000
O O16 0.800863 0.603649 0.830168
O O17 0.355546 0.859265 0.000000
O O18 0.792328 0.622637 0.000000
#
# Coordination Sequence:
#
# PCOD9441360 Si02
#       8
#     8   8   8   8   8   8   8   8
#     4  10  20  36  62  90 113 151 208 256 291 343
#     4  12  23  39  60  89 123 160 195 243 304 363
#     4  10  18  33  62  89 108 143 203 261 295 334
#     4  11  21  36  64  88 115 156 206 247 292 343
#     4  11  25  39  59  88 126 166 192 234 309 369
#     4  11  20  39  61  86 118 155 204 249 288 346
#     4  11  22  41  64  88 118 156 205 249 294 353
#     4  10  21  39  62  90 122 156 200 253 299 349
#
# _framework density 19.618866000000001
#
# number of rings (size 3 to 8) (size 9 to 14) (size 15 to 20)
#    0.000    1.250    5.000    2.250    0.000    1.000 
#    0.000    2.500    0.000    6.000    0.000    0.000 
#    0.000    0.000    0.000    0.000    0.000    0.000 
#
# Total GULP energy -356733.523789 kJ/mol
# GULP energy per Si atom -5573.961309 kJ/mol
# Density = 1.957421 g / cm^3
# Si number density = 19.618866 Si / 1000 Ang^3
#
#
#
# Elastic Constant Matrix: (Units=GPa)
#
#
# Indices 1 2 3 4 5 6 
#
# 1 43.0513 -12.4209 -3.9749 0.0000 0.0000 0.0000
# 2 -12.4209 54.0505 32.2698 0.0000 0.0000 0.0000
# 3 -3.9749 32.2698 107.6935 0.0000 0.0000 0.0000
# 4 0.0000 0.0000 0.0000 15.1943 0.0000 0.0000
# 5 0.0000 0.0000 0.0000 0.0000 22.4521 0.0000
# 6 0.0000 0.0000 0.0000 0.0000 0.0000 11.9412
#
#
#
# Elastic Compliance Matrix: (Units=1/GPa)
#
#
# Indices 1 2 3 4 5 6 
#
# 1 0.024961 0.006316 -0.000971 0.000000 0.000000 0.000000
# 2 0.006316 0.024130 -0.006997 0.000000 0.000000 0.000000
# 3 -0.000971 -0.006997 0.011346 0.000000 0.000000 0.000000
# 4 0.000000 0.000000 0.000000 0.065814 0.000000 0.000000
# 5 0.000000 0.000000 0.000000 0.000000 0.044539 0.000000
# 6 0.000000 0.000000 0.000000 0.000000 0.000000 0.083744
#
#
# Mechanical properties :
#
#
# Convention : Reuss Voigt Hill
#
# Bulk Modulus (GPa) = 17.50337 26.28259 21.89298
# Shear Modulus (GPa) = 18.05813 22.51230 20.28522
#
# Velocity S-wave (km/s) = 3.03718 3.39113 3.21902
# Velocity P-wave (km/s) = 4.60872 5.36271 4.99995
#
# Compressibility (1/GPa) = 0.05713186
#
# Stress axis : x y z
#
# Youngs Moduli (GPa) = 40.06307 41.44177 88.13296
#
# Poissons Ratio (x) = -0.26174 0.08560
# Poissons Ratio (y) = -0.25303 0.61670
# Poissons Ratio (z) = 0.03891 0.28998
#
# Static dielectric constant tensor:
#      x y z
#    x 1.735250 0.000000 0.000000 
#    y 0.000000 1.657140 0.000000 
#    z 0.000000 0.000000 1.741640 
# 
# From -- ./inp_files/26359.got.cif
#   From: 2010.05.17/outbox.cif.g08.bks.cpg/sg58_14_cif.got.tgz:26359.got - 2010.06.03 14:20:14.
