data_PCOD9441546
_publ_section_title
;
Structure prediction by ZEFSAII (Michael W. Deem and Ramdas Pophale) SiO2 
 PCOD9441546
Probable space group: P N N M
;
_chemical_formula_sum "Si O2"
_cell_formula_units_Z 48
_cell_length_a 21.087612
_cell_length_b 15.147787
_cell_length_c 7.443703
_cell_angle_alpha 90.000000
_cell_angle_beta 90.000000
_cell_angle_gamma 90.000000
_cell_volume 2377.746924
_symmetry_space_group_name_H-M "P N N M"
_symmetry_group_IT_number 58
_symmetry_cell_setting 'orthorhombic'
loop_
_space_group_symop_operation_xyz
x,y,z
-x,-y,z
1/2+x,1/2-y,1/2-z
1/2-x,1/2+y,1/2-z
-x,-y,-z
x,y,-z
1/2-x,1/2+y,1/2+z
1/2+x,1/2-y,1/2+z
loop_
_atom_site_type_symbol
_atom_site_label
_atom_site_fract_x
_atom_site_fract_y
_atom_site_fract_z
Si Si1 0.161038 0.812916 0.783649
Si Si2 0.695784 0.494150 0.789317
Si Si3 0.441265 0.555107 0.790790
Si Si4 0.041689 0.582155 0.780808
Si Si5 0.184532 0.615146 0.219537
Si Si6 0.982096 0.220352 0.783199
O O1 0.188254 0.718091 0.726107
O O2 0.087144 0.815910 0.724472
O O3 0.197681 0.900090 0.725281
O O4 0.160361 0.812927 0.000000
O O5 0.627698 0.464503 0.711574
O O6 0.756984 0.443643 0.715718
O O7 0.694672 0.470854 0.000000
O O8 0.500000 0.500000 0.709848
O O9 0.462627 0.656410 0.780614
O O10 0.437327 0.528431 0.000000
O O11 0.115328 0.579798 0.725165
O O12 0.014640 0.677762 0.726330
O O13 0.000000 0.500000 0.719211
O O14 0.041270 0.581305 0.000000
O O15 0.183924 0.614221 0.000000
O O16 0.982513 0.218736 0.000000
#
# Coordination Sequence:
#
# PCOD9441546 Si02
#       6
#     8   8   8   8   8   8
#     4   9  17  31  50  68  90 123 157 190 233 279
#     4  10  19  32  49  68  94 128 160 190 227 277
#     4  10  19  30  45  68  97 127 157 187 226 276
#     4   8  14  28  50  72  93 118 152 194 237 278
#     4   8  16  31  48  66  91 125 158 185 229 287
#     4   9  17  29  48  72  94 119 153 195 236 274
#
# _framework density 20.187177999999999
#
# number of rings (size 3 to 8) (size 9 to 14) (size 15 to 20)
#    0.000    3.000    1.667    2.000    0.000    1.000 
#    3.000    0.833    0.000    1.500    0.000    0.000 
#    0.000    0.000    0.000    0.000    0.000    0.000 
#
# Total GULP energy -267740.851786 kJ/mol
# GULP energy per Si atom -5577.934412 kJ/mol
# Density = 2.014123 g / cm^3
# Si number density = 20.187178 Si / 1000 Ang^3
#
#
#
# Elastic Constant Matrix: (Units=GPa)
#
#
# Indices 1 2 3 4 5 6 
#
# 1 148.0430 115.3354 4.0970 0.0000 0.0000 0.0000
# 2 115.3354 156.9454 -7.3518 0.0000 0.0000 0.0000
# 3 4.0970 -7.3518 59.4114 0.0000 0.0000 0.0000
# 4 0.0000 0.0000 0.0000 28.9115 0.0000 0.0000
# 5 0.0000 0.0000 0.0000 0.0000 -0.8705 0.0000
# 6 0.0000 0.0000 0.0000 0.0000 0.0000 41.0253
#
#
#
# Elastic Compliance Matrix: (Units=1/GPa)
#
#
# Indices 1 2 3 4 5 6 
#
# 1 0.016192 -0.012021 -0.002604 0.000000 0.000000 0.000000
# 2 -0.012021 0.015334 0.002726 0.000000 0.000000 0.000000
# 3 -0.002604 0.002726 0.017349 0.000000 0.000000 0.000000
# 4 0.000000 0.000000 0.000000 0.034588 0.000000 0.000000
# 5 0.000000 0.000000 0.000000 0.000000 -1.148801 0.000000
# 6 0.000000 0.000000 0.000000 0.000000 0.000000 0.024375
#
#
# Mechanical properties :
#
#
# Convention : Reuss Voigt Hill
#
# Bulk Modulus (GPa) = 39.87808 65.39566 52.63687
# Shear Modulus (GPa) = -4.95635 30.63454 12.83910
#
# Velocity S-wave (km/s) = -1.56861 3.89977 2.52464
# Velocity P-wave (km/s) = 4.06403 7.26241 5.88468
#
# Compressibility (1/GPa) = 0.02507643
#
# Stress axis : x y z
#
# Youngs Moduli (GPa) = 61.75791 65.21661 57.64101
#
# Poissons Ratio (x) = 0.78399 0.15011
# Poissons Ratio (y) = 0.74241 -0.15715
# Poissons Ratio (z) = 0.16083 -0.17781
#
# Static dielectric constant tensor:
#      x y z
#    x 1.706940 0.000000 0.000000 
#    y 0.000000 1.703770 0.000000 
#    z 0.000000 0.000000 1.762500 
# 
# From -- ./inp_files/4234.got.cif
#   From: 2010.05.17/outbox.cif.g08.bks.cpg/sg58_3_cif.got.tgz:4234.got - 2010.06.03 14:20:14.
