data_PCOD9441782
_publ_section_title
;
Structure prediction by ZEFSAII (Michael W. Deem and Ramdas Pophale) SiO2 
 PCOD9441782
Probable space group: P N N M
;
_chemical_formula_sum "Si O2"
_cell_formula_units_Z 44
_cell_length_a 8.881507
_cell_length_b 13.159979
_cell_length_c 18.471582
_cell_angle_alpha 90.000000
_cell_angle_beta 90.000000
_cell_angle_gamma 90.000000
_cell_volume 2158.966735
_symmetry_space_group_name_H-M "P N N M"
_symmetry_group_IT_number 58
_symmetry_cell_setting 'orthorhombic'
loop_
_space_group_symop_operation_xyz
x,y,z
-x,-y,z
1/2+x,1/2-y,1/2-z
1/2-x,1/2+y,1/2-z
-x,-y,-z
x,y,-z
1/2-x,1/2+y,1/2+z
1/2+x,1/2-y,1/2+z
loop_
_atom_site_type_symbol
_atom_site_label
_atom_site_fract_x
_atom_site_fract_y
_atom_site_fract_z
Si Si1 0.000000 0.500000 0.700112
Si Si2 0.094782 0.373303 0.418763
Si Si3 0.150957 0.048351 0.914702
Si Si4 0.784493 0.328746 0.083487
Si Si5 0.329654 0.977891 0.339810
Si Si6 0.365336 0.775603 0.586391
O O1 0.990105 0.403267 0.647780
O O2 0.140077 0.482713 0.754132
O O3 0.026369 0.378590 0.500000
O O4 0.221971 0.461635 0.413962
O O5 0.172030 0.265304 0.409886
O O6 0.179098 0.162860 0.888266
O O7 0.118645 0.067042 0.000000
O O8 0.000000 0.000000 0.881551
O O9 0.741285 0.424382 0.132681
O O10 0.953683 0.287257 0.098398
O O11 0.784438 0.363100 0.000000
O O12 0.500000 0.000000 0.370637
O O13 0.287938 0.868092 0.370279
O O14 0.336945 0.788271 0.500000
#
# Coordination Sequence:
#
# PCOD9441782 Si02
#       6
#     4   8   8   8   8   8
#     4  10  21  34  41  68 102 138 166 188 237 300
#     4  10  19  32  50  68  94 131 170 203 233 285
#     4   9  15  25  45  73  94 112 152 207 253 280
#     4   9  15  27  50  72  90 119 159 205 247 284
#     4   8  17  30  42  66  99 122 155 194 244 295
#     4   9  14  25  46  71  96 116 145 196 254 299
#
# _framework density 20.380120000000002
#
# number of rings (size 3 to 8) (size 9 to 14) (size 15 to 20)
#    0.545    2.364    1.818    0.818    0.000    2.182 
#    3.273    0.000    0.000    0.000    0.000    1.273 
#    0.000    7.273    0.000    0.000    0.000    0.000 
#
# Total GULP energy -244968.637238 kJ/mol
# GULP energy per Si atom -5567.469028 kJ/mol
# Density = 2.033373 g / cm^3
# Si number density = 20.380120 Si / 1000 Ang^3
#
#
#
# Elastic Constant Matrix: (Units=GPa)
#
#
# Indices 1 2 3 4 5 6 
#
# 1 20.2253 20.0505 20.5577 0.0000 0.0000 0.0000
# 2 20.0505 166.3914 72.8079 0.0000 0.0000 0.0000
# 3 20.5577 72.8079 96.8198 0.0000 0.0000 0.0000
# 4 0.0000 0.0000 0.0000 -3.0026 0.0000 0.0000
# 5 0.0000 0.0000 0.0000 0.0000 -5.5934 0.0000
# 6 0.0000 0.0000 0.0000 0.0000 0.0000 18.3799
#
#
#
# Elastic Compliance Matrix: (Units=1/GPa)
#
#
# Indices 1 2 3 4 5 6 
#
# 1 0.063810 -0.002624 -0.011575 0.000000 0.000000 0.000000
# 2 -0.002624 0.009065 -0.006260 0.000000 0.000000 0.000000
# 3 -0.011575 -0.006260 0.017494 0.000000 0.000000 0.000000
# 4 0.000000 0.000000 0.000000 -0.333041 0.000000 0.000000
# 5 0.000000 0.000000 0.000000 0.000000 -0.178781 0.000000
# 6 0.000000 0.000000 0.000000 0.000000 0.000000 0.054407
#
#
# Mechanical properties :
#
#
# Convention : Reuss Voigt Hill
#
# Bulk Modulus (GPa) = 20.22238 56.69651 38.45945
# Shear Modulus (GPa) = -16.14761 13.29146 -1.42807
#
# Velocity S-wave (km/s) = -2.81787 2.55655 -0.83800
# Velocity P-wave (km/s) = 0.80192 6.04934 4.23978
#
# Compressibility (1/GPa) = 0.04945016
#
# Stress axis : x y z
#
# Youngs Moduli (GPa) = 15.67151 110.31125 57.16377
#
# Poissons Ratio (x) = 0.28948 0.66169
# Poissons Ratio (y) = 0.04113 0.35784
# Poissons Ratio (z) = 0.18140 0.69053
#
# Static dielectric constant tensor:
#      x y z
#    x 1.807490 0.000000 0.000000 
#    y 0.000000 1.735960 0.000000 
#    z 0.000000 0.000000 1.741410 
# 
# From -- ./inp_files/29478.got.cif
#   From: 2010.05.17/outbox.cif.g08.bks.cpg/sg58_15_cif.got.tgz:29478.got - 2010.06.03 14:20:14.
