data_PCOD9441572
_publ_section_title
;
Structure prediction by ZEFSAII (Michael W. Deem and Ramdas Pophale) SiO2 
 PCOD9441572
Probable space group: P N N M
;
_chemical_formula_sum "Si O2"
_cell_formula_units_Z 40
_cell_length_a 12.599299
_cell_length_b 5.139229
_cell_length_c 36.412442
_cell_angle_alpha 90.000000
_cell_angle_beta 90.000000
_cell_angle_gamma 90.000000
_cell_volume 2357.730482
_symmetry_space_group_name_H-M "P N N M"
_symmetry_group_IT_number 58
_symmetry_cell_setting 'orthorhombic'
loop_
_space_group_symop_operation_xyz
x,y,z
-x,-y,z
1/2+x,1/2-y,1/2-z
1/2-x,1/2+y,1/2-z
-x,-y,-z
x,y,-z
1/2-x,1/2+y,1/2+z
1/2+x,1/2-y,1/2+z
loop_
_atom_site_type_symbol
_atom_site_label
_atom_site_fract_x
_atom_site_fract_y
_atom_site_fract_z
Si Si1 0.255036 0.573832 0.335238
Si Si2 0.371897 0.493632 0.411837
Si Si3 0.871293 0.506120 0.041753
Si Si4 0.187156 0.978104 0.757026
Si Si5 0.884217 0.923530 0.679766
O O1 0.316827 0.538214 0.372969
O O2 0.331929 0.528512 0.299906
O O3 0.163005 0.354744 0.331575
O O4 0.200585 0.855633 0.331748
O O5 0.500000 0.500000 0.407364
O O6 0.340087 0.223753 0.430827
O O7 0.341880 0.721094 0.440190
O O8 0.000000 0.500000 0.040045
O O9 0.832770 0.473913 0.000000
O O10 0.286829 0.173978 0.748991
O O11 0.111426 0.067967 0.724343
O O12 0.000000 0.000000 0.665314
#
# Coordination Sequence:
#
# PCOD9441572 Si02
#       5
#     8   8   8   8   8
#     4  10  19  32  47  70  99 122 158 203 236 276
#     4  10  19  30  47  71  99 129 153 184 233 280
#     4   9  17  30  47  68  96 127 155 182 221 282
#     4   8  16  29  44  61  85 118 152 191 232 268
#     4  10  19  32  49  67  92 128 166 201 238 274
#
# _framework density 16.965467
#
# number of rings (size 3 to 8) (size 9 to 14) (size 15 to 20)
#    0.000    2.600    0.000    2.400    0.000    3.200 
#    0.000    0.000    0.000   12.000    0.000    0.000 
#    0.000   56.000    0.000    0.000    0.000    0.000 
#
# Total GULP energy -222735.478370 kJ/mol
# GULP energy per Si atom -5568.386959 kJ/mol
# Density = 1.692685 g / cm^3
# Si number density = 16.965467 Si / 1000 Ang^3
#
#
#
# Elastic Constant Matrix: (Units=GPa)
#
#
# Indices 1 2 3 4 5 6 
#
# 1 15.9865 -12.1146 6.2385 0.0000 0.0000 0.0000
# 2 -12.1146 57.7878 -9.2913 0.0000 0.0000 0.0000
# 3 6.2385 -9.2913 104.2563 0.0000 0.0000 0.0000
# 4 0.0000 0.0000 0.0000 20.8389 0.0000 0.0000
# 5 0.0000 0.0000 0.0000 0.0000 10.4216 0.0000
# 6 0.0000 0.0000 0.0000 0.0000 0.0000 8.3505
#
#
#
# Elastic Compliance Matrix: (Units=1/GPa)
#
#
# Indices 1 2 3 4 5 6 
#
# 1 0.075371 0.015295 -0.003147 0.000000 0.000000 0.000000
# 2 0.015295 0.020660 0.000926 0.000000 0.000000 0.000000
# 3 -0.003147 0.000926 0.009863 0.000000 0.000000 0.000000
# 4 0.000000 0.000000 0.000000 0.047987 0.000000 0.000000
# 5 0.000000 0.000000 0.000000 0.000000 0.095954 0.000000
# 6 0.000000 0.000000 0.000000 0.000000 0.000000 0.119753
#
#
# Mechanical properties :
#
#
# Convention : Reuss Voigt Hill
#
# Bulk Modulus (GPa) = 7.57338 16.41064 11.99201
# Shear Modulus (GPa) = 12.90474 20.80209 16.85341
#
# Velocity S-wave (km/s) = 2.76098 3.50543 3.15524
# Velocity P-wave (km/s) = 3.82592 5.10667 4.51197
#
# Compressibility (1/GPa) = 0.13204153
#
# Stress axis : x y z
#
# Youngs Moduli (GPa) = 13.26763 48.40285 101.39334
#
# Poissons Ratio (x) = -0.74031 0.31908
# Poissons Ratio (y) = -0.20293 -0.09389
# Poissons Ratio (z) = 0.04175 -0.04482
#
# Static dielectric constant tensor:
#      x y z
#    x 1.561580 0.000000 0.000000 
#    y 0.000000 1.581160 0.000000 
#    z 0.000000 0.000000 1.572720 
# 
# From -- ./inp_files/11742.got.cif
#   From: 2010.05.17/outbox.cif.g08.bks.cpg/sg58_6_cif.got.tgz:11742.got - 2010.06.03 14:20:14.
