data_PCOD9441224
_publ_section_title
;
Structure prediction by ZEFSAII (Michael W. Deem and Ramdas Pophale) SiO2 
 PCOD9441224
Probable space group: P N N M
;
_chemical_formula_sum "Si O2"
_cell_formula_units_Z 52
_cell_length_a 15.054134
_cell_length_b 19.446504
_cell_length_c 7.974296
_cell_angle_alpha 90.000000
_cell_angle_beta 90.000000
_cell_angle_gamma 90.000000
_cell_volume 2334.477363
_symmetry_space_group_name_H-M "P N N M"
_symmetry_group_IT_number 58
_symmetry_cell_setting 'orthorhombic'
loop_
_space_group_symop_operation_xyz
x,y,z
-x,-y,z
1/2+x,1/2-y,1/2-z
1/2-x,1/2+y,1/2-z
-x,-y,-z
x,y,-z
1/2-x,1/2+y,1/2+z
1/2+x,1/2-y,1/2+z
loop_
_atom_site_type_symbol
_atom_site_label
_atom_site_fract_x
_atom_site_fract_y
_atom_site_fract_z
Si Si1 0.298704 0.031303 0.190924
Si Si2 0.171293 0.682072 0.805675
Si Si3 0.631779 0.541516 0.693256
Si Si4 0.043424 0.098972 0.696768
Si Si5 0.854367 0.764474 0.704539
Si Si6 0.484042 0.853813 0.802022
Si Si7 0.500000 0.000000 0.746476
O O1 0.231512 0.973124 0.256801
O O2 0.400222 0.007074 0.181303
O O3 0.296259 0.102409 0.291791
O O4 0.270432 0.047211 0.000000
O O5 0.253282 0.726552 0.738334
O O6 0.077978 0.685439 0.711275
O O7 0.155928 0.698914 0.000000
O O8 0.636642 0.563179 0.500000
O O9 0.587106 0.465762 0.709537
O O10 0.562666 0.592249 0.781747
O O11 0.064079 0.090182 0.500000
O O12 0.086397 0.169930 0.756441
O O13 0.852519 0.765995 0.500000
O O14 0.904371 0.695049 0.750123
O O15 0.491892 0.921243 0.686827
O O16 0.474309 0.874556 0.000000
#
# Coordination Sequence:
#
# PCOD9441224 Si02
#       7
#     8   8   8   8   8   8   4
#     4  10  19  33  55  81 107 143 182 225 275 325
#     4  10  19  35  56  81 107 140 183 225 273 329
#     4  10  19  30  48  80 114 141 176 230 275 310
#     4  10  18  32  52  75 105 147 184 214 264 338
#     4   9  19  35  56  79 108 146 185 220 272 339
#     4  10  20  38  60  81 107 145 186 232 276 331
#     4  10  19  36  61  82 101 138 193 232 273 330
#
# _framework density 22.274792000000001
#
# number of rings (size 3 to 8) (size 9 to 14) (size 15 to 20)
#    0.000    2.154    1.538    4.615    0.000    0.615 
#    2.769    9.231    0.000    0.000    0.000    0.000 
#    0.000    0.000    0.000    0.000    0.000    0.000 
#
# Total GULP energy -289764.780156 kJ/mol
# GULP energy per Si atom -5572.399618 kJ/mol
# Density = 2.222409 g / cm^3
# Si number density = 22.274792 Si / 1000 Ang^3
#
#
#
# Elastic Constant Matrix: (Units=GPa)
#
#
# Indices 1 2 3 4 5 6 
#
# 1 135.0191 47.5010 8.5585 0.0000 0.0000 0.0000
# 2 47.5010 67.7677 5.2556 0.0000 0.0000 0.0000
# 3 8.5585 5.2556 41.7005 0.0000 0.0000 0.0000
# 4 0.0000 0.0000 0.0000 -12.8941 0.0000 0.0000
# 5 0.0000 0.0000 0.0000 0.0000 9.7574 0.0000
# 6 0.0000 0.0000 0.0000 0.0000 0.0000 38.8417
#
#
#
# Elastic Compliance Matrix: (Units=1/GPa)
#
#
# Indices 1 2 3 4 5 6 
#
# 1 0.009886 -0.006839 -0.001167 0.000000 0.000000 0.000000
# 2 -0.006839 0.019633 -0.001071 0.000000 0.000000 0.000000
# 3 -0.001167 -0.001071 0.024355 0.000000 0.000000 0.000000
# 4 0.000000 0.000000 0.000000 -0.077555 0.000000 0.000000
# 5 0.000000 0.000000 0.000000 0.000000 0.102486 0.000000
# 6 0.000000 0.000000 0.000000 0.000000 0.000000 0.025746
#
#
# Mechanical properties :
#
#
# Convention : Reuss Voigt Hill
#
# Bulk Modulus (GPa) = 27.99516 40.79083 34.39300
# Shear Modulus (GPa) = 37.14374 19.35249 28.24811
#
# Velocity S-wave (km/s) = 4.08796 2.95075 3.56499
# Velocity P-wave (km/s) = 5.90570 5.47371 5.69381
#
# Compressibility (1/GPa) = 0.03572046
#
# Stress axis : x y z
#
# Youngs Moduli (GPa) = 101.14832 50.93394 41.05931
#
# Poissons Ratio (x) = 0.34835 0.04792
# Poissons Ratio (y) = 0.69178 0.04396
# Poissons Ratio (z) = 0.11805 0.05454
#
# Static dielectric constant tensor:
#      x y z
#    x 1.859480 0.000000 0.000000 
#    y 0.000000 1.806280 0.000000 
#    z 0.000000 0.000000 1.806500 
# 
# From -- ./inp_files/6138.got.cif
#   From: 2010.05.17/outbox.cif.g08.bks.cpg/sg58_4_cif.got.tgz:6138.got - 2010.06.03 14:20:14.
