data_PCOD9441116
_publ_section_title
;
Structure prediction by ZEFSAII (Michael W. Deem and Ramdas Pophale) SiO2 
 PCOD9441116
Probable space group: P N N M
;
_chemical_formula_sum "Si O2"
_cell_formula_units_Z 48
_cell_length_a 14.059108
_cell_length_b 18.681798
_cell_length_c 8.355341
_cell_angle_alpha 90.000000
_cell_angle_beta 90.000000
_cell_angle_gamma 90.000000
_cell_volume 2194.525432
_symmetry_space_group_name_H-M "P N N M"
_symmetry_group_IT_number 58
_symmetry_cell_setting 'orthorhombic'
loop_
_space_group_symop_operation_xyz
x,y,z
-x,-y,z
1/2+x,1/2-y,1/2-z
1/2-x,1/2+y,1/2-z
-x,-y,-z
x,y,-z
1/2-x,1/2+y,1/2+z
1/2+x,1/2-y,1/2+z
loop_
_atom_site_type_symbol
_atom_site_label
_atom_site_fract_x
_atom_site_fract_y
_atom_site_fract_z
Si Si1 0.608827 0.988303 0.806345
Si Si2 0.392043 0.475302 0.323937
Si Si3 0.919522 0.772824 0.308734
Si Si4 0.320903 0.859579 0.307903
Si Si5 0.736252 0.383883 0.313946
Si Si6 0.880222 0.169797 0.317989
O O1 0.663002 0.915640 0.749965
O O2 0.500000 0.000000 0.752011
O O3 0.664653 0.060524 0.757205
O O4 0.609137 0.984664 0.000000
O O5 0.500000 0.500000 0.326263
O O6 0.370090 0.442907 0.500000
O O7 0.327935 0.544631 0.305543
O O8 0.383964 0.416264 0.188595
O O9 0.923674 0.772934 0.500000
O O10 0.904240 0.692932 0.245908
O O11 0.830374 0.823043 0.260784
O O12 0.021050 0.802697 0.245311
O O13 0.315861 0.862947 0.500000
O O14 0.224406 0.820361 0.245577
O O15 0.750206 0.363589 0.500000
O O16 0.876995 0.196817 0.500000
#
# Coordination Sequence:
#
# PCOD9441116 Si02
#       6
#     8   8   8   8   8   8
#     4  10  22  41  65  90 120 162 206 248 297 358
#     4  10  18  30  55  88 116 143 182 232 286 346
#     4  11  24  40  60  88 122 159 201 249 305 364
#     4  11  24  42  62  86 120 160 202 250 302 357
#     4  10  20  36  59  89 121 153 194 244 295 352
#     4  10  22  38  58  84 114 151 192 240 296 353
#
# _framework density 21.872610000000002
#
# number of rings (size 3 to 8) (size 9 to 14) (size 15 to 20)
#    0.000    1.667    3.333    1.000    0.000    4.667 
#    0.000    6.667    0.000    0.000    0.000    0.000 
#    0.000    0.000    0.000    0.000    0.000    0.000 
#
# Total GULP energy -267650.332978 kJ/mol
# GULP energy per Si atom -5576.048604 kJ/mol
# Density = 2.182283 g / cm^3
# Si number density = 21.872610 Si / 1000 Ang^3
#
#
#
# Elastic Constant Matrix: (Units=GPa)
#
#
# Indices 1 2 3 4 5 6 
#
# 1 106.0145 11.0753 6.8332 0.0000 0.0000 0.0000
# 2 11.0753 54.4735 4.1945 0.0000 0.0000 0.0000
# 3 6.8332 4.1945 17.7403 0.0000 0.0000 0.0000
# 4 0.0000 0.0000 0.0000 52.9571 0.0000 0.0000
# 5 0.0000 0.0000 0.0000 0.0000 76.9722 0.0000
# 6 0.0000 0.0000 0.0000 0.0000 0.0000 30.6209
#
#
#
# Elastic Compliance Matrix: (Units=1/GPa)
#
#
# Indices 1 2 3 4 5 6 
#
# 1 0.009832 -0.001739 -0.003376 0.000000 0.000000 0.000000
# 2 -0.001739 0.019006 -0.003824 0.000000 0.000000 0.000000
# 3 -0.003376 -0.003824 0.058573 0.000000 0.000000 0.000000
# 4 0.000000 0.000000 0.000000 0.018883 0.000000 0.000000
# 5 0.000000 0.000000 0.000000 0.000000 0.012992 0.000000
# 6 0.000000 0.000000 0.000000 0.000000 0.000000 0.032657
#
#
# Mechanical properties :
#
#
# Convention : Reuss Voigt Hill
#
# Bulk Modulus (GPa) = 14.38162 24.71492 19.54827
# Shear Modulus (GPa) = 25.90701 42.51841 34.21271
#
# Velocity S-wave (km/s) = 3.44532 4.41376 3.95926
# Velocity P-wave (km/s) = 4.73460 6.10730 5.46422
#
# Compressibility (1/GPa) = 0.06953320
#
# Stress axis : x y z
#
# Youngs Moduli (GPa) = 101.70932 52.61624 17.07269
#
# Poissons Ratio (x) = 0.09150 0.05763
# Poissons Ratio (y) = 0.17688 0.06528
# Poissons Ratio (z) = 0.34336 0.20119
#
# Static dielectric constant tensor:
#      x y z
#    x 1.891250 0.000000 0.000000 
#    y 0.000000 1.768790 0.000000 
#    z 0.000000 0.000000 1.814640 
# 
# From -- ./inp_files/5802.got.cif
#   From: 2010.05.17/outbox.cif.g08.bks.cpg/sg58_3_cif.got.tgz:5802.got - 2010.06.03 14:20:14.
