data_PCOD9441760
_publ_section_title
;
Structure prediction by ZEFSAII (Michael W. Deem and Ramdas Pophale) SiO2 
 PCOD9441760
Probable space group: P N N M
;
_chemical_formula_sum "Si O2"
_cell_formula_units_Z 48
_cell_length_a 19.801998
_cell_length_b 15.451633
_cell_length_c 7.419949
_cell_angle_alpha 90.000000
_cell_angle_beta 90.000000
_cell_angle_gamma 90.000000
_cell_volume 2270.305582
_symmetry_space_group_name_H-M "P N N M"
_symmetry_group_IT_number 58
_symmetry_cell_setting 'orthorhombic'
loop_
_space_group_symop_operation_xyz
x,y,z
-x,-y,z
1/2+x,1/2-y,1/2-z
1/2-x,1/2+y,1/2-z
-x,-y,-z
x,y,-z
1/2-x,1/2+y,1/2+z
1/2+x,1/2-y,1/2+z
loop_
_atom_site_type_symbol
_atom_site_label
_atom_site_fract_x
_atom_site_fract_y
_atom_site_fract_z
Si Si1 0.578566 0.727231 0.782092
Si Si2 0.167270 0.128414 0.720671
Si Si3 0.074931 0.482118 0.787542
Si Si4 0.929255 0.716104 0.717206
Si Si5 0.319813 0.120559 0.710931
Si Si6 0.074650 0.969664 0.280387
O O1 0.505422 0.762343 0.720460
O O2 0.637620 0.791482 0.725204
O O3 0.587859 0.628393 0.721819
O O4 0.577374 0.727127 0.000000
O O5 0.166734 0.130681 0.500000
O O6 0.123095 0.210899 0.779407
O O7 0.244382 0.129670 0.784577
O O8 0.129187 0.040657 0.775574
O O9 0.090193 0.381027 0.768567
O O10 0.132596 0.544789 0.711306
O O11 0.000000 0.500000 0.711259
O O12 0.070826 0.503161 0.000000
O O13 0.930757 0.719847 0.500000
O O14 0.310175 0.100034 0.500000
O O15 0.074413 0.969103 0.500000
O O16 0.000000 0.000000 0.224582
#
# Coordination Sequence:
#
# PCOD9441760 Si02
#       6
#     8   8   8   8   8   8
#     4  10  19  31  54  83 103 127 169 217 258 295
#     4   9  18  33  52  76 105 135 168 209 260 308
#     4  10  20  34  52  75 103 139 177 206 245 306
#     4  10  19  32  54  81 103 129 170 217 260 300
#     4  10  21  36  52  72 105 143 171 204 254 309
#     4   9  15  28  52  79 102 125 163 214 256 297
#
# _framework density 21.142530000000001
#
# number of rings (size 3 to 8) (size 9 to 14) (size 15 to 20)
#    0.000    2.333    3.333    0.000    0.000    2.333 
#    0.000    2.500    0.000    2.500    0.000    0.000 
#    0.000    0.000    0.000    0.000    0.000    0.000 
#
# Total GULP energy -268142.569847 kJ/mol
# GULP energy per Si atom -5586.303538 kJ/mol
# Density = 2.109441 g / cm^3
# Si number density = 21.142530 Si / 1000 Ang^3
#
#
#
# Elastic Constant Matrix: (Units=GPa)
#
#
# Indices 1 2 3 4 5 6 
#
# 1 206.7986 98.6526 -2.1984 0.0000 0.0000 0.0000
# 2 98.6526 171.9443 -22.2821 0.0000 0.0000 0.0000
# 3 -2.1984 -22.2821 63.1950 0.0000 0.0000 0.0000
# 4 0.0000 0.0000 0.0000 21.9959 0.0000 0.0000
# 5 0.0000 0.0000 0.0000 0.0000 2.5460 0.0000
# 6 0.0000 0.0000 0.0000 0.0000 0.0000 31.7407
#
#
#
# Elastic Compliance Matrix: (Units=1/GPa)
#
#
# Indices 1 2 3 4 5 6 
#
# 1 0.006741 -0.004021 -0.001183 0.000000 0.000000 0.000000
# 2 -0.004021 0.008493 0.002855 0.000000 0.000000 0.000000
# 3 -0.001183 0.002855 0.016789 0.000000 0.000000 0.000000
# 4 0.000000 0.000000 0.000000 0.045463 0.000000 0.000000
# 5 0.000000 0.000000 0.000000 0.000000 0.392779 0.000000
# 6 0.000000 0.000000 0.000000 0.000000 0.000000 0.031505
#
#
# Mechanical properties :
#
#
# Convention : Reuss Voigt Hill
#
# Bulk Modulus (GPa) = 36.59791 65.58689 51.09240
# Shear Modulus (GPa) = 9.69785 35.77422 22.73603
#
# Velocity S-wave (km/s) = 2.14403 4.11792 3.28284
# Velocity P-wave (km/s) = 4.84529 7.32791 6.21189
#
# Compressibility (1/GPa) = 0.02732396
#
# Stress axis : x y z
#
# Youngs Moduli (GPa) = 148.33878 117.74542 59.56136
#
# Poissons Ratio (x) = 0.47347 0.07048
# Poissons Ratio (y) = 0.59649 -0.17003
# Poissons Ratio (z) = 0.17553 -0.33612
#
# Static dielectric constant tensor:
#      x y z
#    x 1.735970 0.000000 0.000000 
#    y 0.000000 1.716050 0.000000 
#    z 0.000000 0.000000 1.824580 
# 
# From -- ./inp_files/5902.got.cif
#   From: 2010.05.17/outbox.cif.g08.bks.cpg/sg58_3_cif.got.tgz:5902.got - 2010.06.03 14:20:14.
