data_PCOD9441963
_publ_section_title
;
Structure prediction by ZEFSAII (Michael W. Deem and Ramdas Pophale) SiO2 
 PCOD9441963
Probable space group: P N N M
;
_chemical_formula_sum "Si O2"
_cell_formula_units_Z 64
_cell_length_a 27.409293
_cell_length_b 8.229581
_cell_length_c 14.317832
_cell_angle_alpha 90.000000
_cell_angle_beta 90.000000
_cell_angle_gamma 90.000000
_cell_volume 3229.630366
_symmetry_space_group_name_H-M "P N N M"
_symmetry_group_IT_number 58
_symmetry_cell_setting 'orthorhombic'
loop_
_space_group_symop_operation_xyz
x,y,z
-x,-y,z
1/2+x,1/2-y,1/2-z
1/2-x,1/2+y,1/2-z
-x,-y,-z
x,y,-z
1/2-x,1/2+y,1/2+z
1/2+x,1/2-y,1/2+z
loop_
_atom_site_type_symbol
_atom_site_label
_atom_site_fract_x
_atom_site_fract_y
_atom_site_fract_z
Si Si1 0.762817 0.433051 0.399916
Si Si2 0.379068 0.070527 0.891997
Si Si3 0.970897 0.830970 0.892781
Si Si4 0.273753 0.197937 0.395273
Si Si5 0.693678 0.361521 0.757963
Si Si6 0.931241 0.353808 0.107558
Si Si7 0.140393 0.799081 0.226531
Si Si8 0.900680 0.655087 0.236667
O O1 0.754001 0.352181 0.500000
O O2 0.820512 0.460242 0.391340
O O3 0.737636 0.609293 0.400146
O O4 0.736425 0.337796 0.318051
O O5 0.381524 0.223837 0.821584
O O6 0.407525 0.924043 0.839760
O O7 0.393441 0.094288 0.000000
O O8 0.933367 0.797332 0.808873
O O9 0.011947 0.689825 0.885406
O O10 0.950407 0.823768 0.000000
O O11 0.000000 0.000000 0.885004
O O12 0.285366 0.140782 0.500000
O O13 0.223496 0.128213 0.354367
O O14 0.318297 0.184631 0.322551
O O15 0.664831 0.529005 0.744884
O O16 0.654430 0.220563 0.742555
O O17 0.901906 0.200370 0.149384
O O18 0.912771 0.506306 0.167129
O O19 0.919314 0.378253 0.000000
#
# Coordination Sequence:
#
# PCOD9441963 Si02
#       8
#     8   8   8   8   8   8   8   8
#     4   9  18  33  51  71 106 150 190 232 285 338
#     4  10  20  37  56  77 110 155 196 236 290 347
#     4  10  21  39  64  92 125 157 190 241 309 371
#     4  10  19  33  52  76 109 148 190 240 292 345
#     4  11  21  33  54  83 114 149 196 244 291 343
#     4  10  21  38  59  86 121 156 190 237 295 357
#     4  10  21  35  56  80 112 148 194 242 290 350
#     4  11  22  35  60  88 116 156 202 240 290 360
#
# _framework density 19.816510000000001
#
# number of rings (size 3 to 8) (size 9 to 14) (size 15 to 20)
#    0.000    1.875    2.500    1.875    0.000    3.000 
#    0.000    0.000    0.000    6.375    0.000    0.000 
#    0.000    0.000    0.000    0.000    0.000    0.000 
#
# Total GULP energy -356641.329806 kJ/mol
# GULP energy per Si atom -5572.520778 kJ/mol
# Density = 1.977141 g / cm^3
# Si number density = 19.816510 Si / 1000 Ang^3
#
#
#
# Elastic Constant Matrix: (Units=GPa)
#
#
# Indices 1 2 3 4 5 6 
#
# 1 47.0554 3.4506 25.0781 0.0000 0.0000 0.0000
# 2 3.4506 48.3951 18.0430 0.0000 0.0000 0.0000
# 3 25.0781 18.0430 126.8743 0.0000 0.0000 0.0000
# 4 0.0000 0.0000 0.0000 16.4109 0.0000 0.0000
# 5 0.0000 0.0000 0.0000 0.0000 25.8445 0.0000
# 6 0.0000 0.0000 0.0000 0.0000 0.0000 25.9977
#
#
#
# Elastic Compliance Matrix: (Units=1/GPa)
#
#
# Indices 1 2 3 4 5 6 
#
# 1 0.023754 0.000060 -0.004704 0.000000 0.000000 0.000000
# 2 0.000060 0.021820 -0.003115 0.000000 0.000000 0.000000
# 3 -0.004704 -0.003115 0.009255 0.000000 0.000000 0.000000
# 4 0.000000 0.000000 0.000000 0.060935 0.000000 0.000000
# 5 0.000000 0.000000 0.000000 0.000000 0.038693 0.000000
# 6 0.000000 0.000000 0.000000 0.000000 0.000000 0.038465
#
#
# Mechanical properties :
#
#
# Convention : Reuss Voigt Hill
#
# Bulk Modulus (GPa) = 25.43790 35.05204 30.24497
# Shear Modulus (GPa) = 22.56898 25.36750 23.96824
#
# Velocity S-wave (km/s) = 3.37842 3.58176 3.48157
# Velocity P-wave (km/s) = 5.29933 5.90187 5.60869
#
# Compressibility (1/GPa) = 0.03931142
#
# Stress axis : x y z
#
# Youngs Moduli (GPa) = 42.09818 45.82888 108.05493
#
# Poissons Ratio (x) = -0.00275 0.50827
# Poissons Ratio (y) = -0.00253 0.33659
# Poissons Ratio (z) = 0.19802 0.14276
#
# Static dielectric constant tensor:
#      x y z
#    x 1.716850 0.000000 0.000000 
#    y 0.000000 1.751530 0.000000 
#    z 0.000000 0.000000 1.718830 
# 
# From -- ./inp_files/23818.got.cif
#   From: 2010.05.17/outbox.cif.g08.bks.cpg/sg58_12_cif.got.tgz:23818.got - 2010.06.03 14:20:14.
