data_PCOD9441362
_publ_section_title
;
Structure prediction by ZEFSAII (Michael W. Deem and Ramdas Pophale) SiO2 
 PCOD9441362
Probable space group: P N N M
;
_chemical_formula_sum "Si O2"
_cell_formula_units_Z 44
_cell_length_a 14.039574
_cell_length_b 5.359473
_cell_length_c 23.934284
_cell_angle_alpha 90.000000
_cell_angle_beta 90.000000
_cell_angle_gamma 90.000000
_cell_volume 1800.928445
_symmetry_space_group_name_H-M "P N N M"
_symmetry_group_IT_number 58
_symmetry_cell_setting 'orthorhombic'
loop_
_space_group_symop_operation_xyz
x,y,z
-x,-y,z
1/2+x,1/2-y,1/2-z
1/2-x,1/2+y,1/2-z
-x,-y,-z
x,y,-z
1/2-x,1/2+y,1/2+z
1/2+x,1/2-y,1/2+z
loop_
_atom_site_type_symbol
_atom_site_label
_atom_site_fract_x
_atom_site_fract_y
_atom_site_fract_z
Si Si1 0.686169 0.190758 0.248509
Si Si2 0.860594 0.236506 0.934656
Si Si3 0.140748 0.637189 0.348799
Si Si4 0.500000 0.500000 0.855183
Si Si5 0.861440 0.735998 0.133884
Si Si6 0.870044 0.710476 0.562598
O O1 0.746603 0.444862 0.241680
O O2 0.613174 0.219484 0.300296
O O3 0.646140 0.111175 0.188715
O O4 0.886877 0.489693 0.901444
O O5 0.744782 0.234491 0.935948
O O6 0.888657 0.987220 0.899919
O O7 0.892371 0.233305 0.000000
O O8 0.061268 0.805477 0.320345
O O9 0.246097 0.744304 0.357630
O O10 0.107009 0.555869 0.409978
O O11 0.419852 0.596140 0.897510
O O12 0.902697 0.733707 0.500000
#
# Coordination Sequence:
#
# PCOD9441362 Si02
#       6
#     8   8   8   4   8   8
#     4  10  20  34  56  73  93 124 171 222 258 307
#     4  10  19  32  51  74 100 129 165 208 254 299
#     4  10  22  33  49  69  95 129 176 219 264 295
#     4  12  21  34  46  66  98 134 179 216 258 294
#     4  10  18  34  50  72  95 128 166 209 257 304
#     4  10  21  34  46  64  95 136 180 218 250 288
#
# _framework density 24.431840999999999
#
# number of rings (size 3 to 8) (size 9 to 14) (size 15 to 20)
#    0.000    1.818    1.818    4.636    2.545    2.909 
#    0.000    0.000    0.000    0.000    0.000    0.000 
#    0.000    0.000    0.000    4.909    0.000    5.273 
#
# Total GULP energy -245705.154837 kJ/mol
# GULP energy per Si atom -5584.208064 kJ/mol
# Density = 2.437623 g / cm^3
# Si number density = 24.431841 Si / 1000 Ang^3
#
#
#
# Elastic Constant Matrix: (Units=GPa)
#
#
# Indices 1 2 3 4 5 6 
#
# 1 64.8989 7.8736 7.4052 0.0000 0.0000 0.0000
# 2 7.8736 163.8989 71.1844 0.0000 0.0000 0.0000
# 3 7.4052 71.1844 165.7374 0.0000 0.0000 0.0000
# 4 0.0000 0.0000 0.0000 41.3429 0.0000 0.0000
# 5 0.0000 0.0000 0.0000 0.0000 5.4088 0.0000
# 6 0.0000 0.0000 0.0000 0.0000 0.0000 8.4326
#
#
#
# Elastic Compliance Matrix: (Units=1/GPa)
#
#
# Indices 1 2 3 4 5 6 
#
# 1 0.015527 -0.000547 -0.000459 0.000000 0.000000 0.000000
# 2 -0.000547 0.007520 -0.003205 0.000000 0.000000 0.000000
# 3 -0.000459 -0.003205 0.007431 0.000000 0.000000 0.000000
# 4 0.000000 0.000000 0.000000 0.024188 0.000000 0.000000
# 5 0.000000 0.000000 0.000000 0.000000 0.184885 0.000000
# 6 0.000000 0.000000 0.000000 0.000000 0.000000 0.118588
#
#
# Mechanical properties :
#
#
# Convention : Reuss Voigt Hill
#
# Bulk Modulus (GPa) = 45.33903 63.05130 54.19517
# Shear Modulus (GPa) = 13.37210 31.57497 22.47353
#
# Velocity S-wave (km/s) = 2.34203 3.59885 3.03619
# Velocity P-wave (km/s) = 5.09030 6.56750 5.87551
#
# Compressibility (1/GPa) = 0.02205605
#
# Stress axis : x y z
#
# Youngs Moduli (GPa) = 64.40280 132.98397 134.57448
#
# Poissons Ratio (x) = 0.07268 0.06177
# Poissons Ratio (y) = 0.03520 0.43135
# Poissons Ratio (z) = 0.02956 0.42625
#
# Static dielectric constant tensor:
#      x y z
#    x 2.041520 0.000000 0.000000 
#    y 0.000000 2.076020 0.000000 
#    z 0.000000 0.000000 1.961770 
# 
# From -- ./inp_files/30339.got.cif
#   From: 2010.05.17/outbox.cif.g08.bks.cpg/sg58_16_cif.got.tgz:30339.got - 2010.06.03 14:20:14.
