data_PCOD9441291
_publ_section_title
;
Structure prediction by ZEFSAII (Michael W. Deem and Ramdas Pophale) SiO2 
 PCOD9441291
Probable space group: P N N M
;
_chemical_formula_sum "Si O2"
_cell_formula_units_Z 48
_cell_length_a 30.082219
_cell_length_b 10.512488
_cell_length_c 8.606549
_cell_angle_alpha 90.000000
_cell_angle_beta 90.000000
_cell_angle_gamma 90.000000
_cell_volume 2721.726159
_symmetry_space_group_name_H-M "P N N M"
_symmetry_group_IT_number 58
_symmetry_cell_setting 'orthorhombic'
loop_
_space_group_symop_operation_xyz
x,y,z
-x,-y,z
1/2+x,1/2-y,1/2-z
1/2-x,1/2+y,1/2-z
-x,-y,-z
x,y,-z
1/2-x,1/2+y,1/2+z
1/2+x,1/2-y,1/2+z
loop_
_atom_site_type_symbol
_atom_site_label
_atom_site_fract_x
_atom_site_fract_y
_atom_site_fract_z
Si Si1 0.974432 0.372102 0.812123
Si Si2 0.282886 0.505936 0.185737
Si Si3 0.880380 0.985482 0.814117
Si Si4 0.471876 0.622938 0.689284
Si Si5 0.386517 0.233692 0.185724
Si Si6 0.215265 0.713951 0.313075
O O1 0.925514 0.358008 0.741565
O O2 0.000000 0.500000 0.768507
O O3 0.003644 0.250806 0.760962
O O4 0.970595 0.368603 0.000000
O O5 0.332337 0.541554 0.242524
O O6 0.247383 0.607615 0.244747
O O7 0.274183 0.359473 0.238129
O O8 0.282871 0.504460 0.000000
O O9 0.920746 0.894820 0.762473
O O10 0.893315 0.128896 0.764984
O O11 0.876925 0.979878 0.000000
O O12 0.500000 0.500000 0.739955
O O13 0.472044 0.622552 0.500000
O O14 0.336527 0.190566 0.227300
O O15 0.387995 0.250135 0.000000
O O16 0.219065 0.710489 0.500000
#
# Coordination Sequence:
#
# PCOD9441291 Si02
#       6
#     8   8   8   8   8   8
#     4  10  20  35  54  77 106 142 184 221 264 327
#     4  10  21  37  57  83 112 139 180 228 270 324
#     4  10  18  32  57  80 106 141 179 221 270 317
#     4   9  16  30  53  79 104 133 176 221 256 306
#     4  10  20  35  55  79 110 141 180 224 269 323
#     4   9  20  38  57  79 108 142 179 221 270 325
#
# _framework density 17.635867000000001
#
# number of rings (size 3 to 8) (size 9 to 14) (size 15 to 20)
#    0.000    2.333    1.667    2.500    0.000    4.333 
#    3.000    2.500    0.000    0.000    0.000    0.000 
#    0.000    0.000    0.000    0.000    0.000    0.000 
#
# Total GULP energy -267749.177462 kJ/mol
# GULP energy per Si atom -5578.107864 kJ/mol
# Density = 1.759573 g / cm^3
# Si number density = 17.635867 Si / 1000 Ang^3
#
#
#
# Elastic Constant Matrix: (Units=GPa)
#
#
# Indices 1 2 3 4 5 6 
#
# 1 155.5041 99.5196 35.0651 0.0000 0.0000 0.0000
# 2 99.5196 125.7780 29.7374 0.0000 0.0000 0.0000
# 3 35.0651 29.7374 24.7439 0.0000 0.0000 0.0000
# 4 0.0000 0.0000 0.0000 18.6835 0.0000 0.0000
# 5 0.0000 0.0000 0.0000 0.0000 29.2872 0.0000
# 6 0.0000 0.0000 0.0000 0.0000 0.0000 36.5006
#
#
#
# Elastic Compliance Matrix: (Units=1/GPa)
#
#
# Indices 1 2 3 4 5 6 
#
# 1 0.014441 -0.009202 -0.009405 0.000000 0.000000 0.000000
# 2 -0.009202 0.016971 -0.007354 0.000000 0.000000 0.000000
# 3 -0.009405 -0.007354 0.062580 0.000000 0.000000 0.000000
# 4 0.000000 0.000000 0.000000 0.053523 0.000000 0.000000
# 5 0.000000 0.000000 0.000000 0.000000 0.034145 0.000000
# 6 0.000000 0.000000 0.000000 0.000000 0.000000 0.027397
#
#
# Mechanical properties :
#
#
# Convention : Reuss Voigt Hill
#
# Bulk Modulus (GPa) = 23.77083 70.51893 47.14488
# Shear Modulus (GPa) = 18.18168 26.34119 22.26143
#
# Velocity S-wave (km/s) = 3.21432 3.86892 3.55671
# Velocity P-wave (km/s) = 5.22339 7.74797 6.60737
#
# Compressibility (1/GPa) = 0.04206837
#
# Stress axis : x y z
#
# Youngs Moduli (GPa) = 69.24804 58.92550 15.97951
#
# Poissons Ratio (x) = 0.54226 0.15028
# Poissons Ratio (y) = 0.63726 0.11752
# Poissons Ratio (z) = 0.65126 0.43336
#
# Static dielectric constant tensor:
#      x y z
#    x 1.598730 0.000000 0.000000 
#    y 0.000000 1.587630 0.000000 
#    z 0.000000 0.000000 1.600480 
# 
# From -- ./inp_files/2894.got.cif
#   From: 2010.05.17/outbox.cif.g08.bks.cpg/sg58_2_cif.got.tgz:2894.got - 2010.06.03 14:20:14.
