data_PCOD9441705
_publ_section_title
;
Structure prediction by ZEFSAII (Michael W. Deem and Ramdas Pophale) SiO2 
 PCOD9441705
Probable space group: P N N M
;
_chemical_formula_sum "Si O2"
_cell_formula_units_Z 56
_cell_length_a 20.217536
_cell_length_b 11.214020
_cell_length_c 13.007974
_cell_angle_alpha 90.000000
_cell_angle_beta 90.000000
_cell_angle_gamma 90.000000
_cell_volume 2949.165954
_symmetry_space_group_name_H-M "P N N M"
_symmetry_group_IT_number 58
_symmetry_cell_setting 'orthorhombic'
loop_
_space_group_symop_operation_xyz
x,y,z
-x,-y,z
1/2+x,1/2-y,1/2-z
1/2-x,1/2+y,1/2-z
-x,-y,-z
x,y,-z
1/2-x,1/2+y,1/2+z
1/2+x,1/2-y,1/2+z
loop_
_atom_site_type_symbol
_atom_site_label
_atom_site_fract_x
_atom_site_fract_y
_atom_site_fract_z
Si Si1 0.620490 0.181538 0.195117
Si Si2 0.571292 0.976112 0.317626
Si Si3 0.851886 0.184220 0.617635
Si Si4 0.973744 0.338583 0.614800
Si Si5 0.309625 0.571254 0.195335
Si Si6 0.746395 0.560212 0.611333
Si Si7 0.682270 0.796161 0.335012
O O1 0.551140 0.180819 0.134466
O O2 0.641298 0.318137 0.210724
O O3 0.682170 0.115984 0.140196
O O4 0.607601 0.101486 0.296913
O O5 0.554690 0.924218 0.203131
O O6 0.618404 0.874349 0.362400
O O7 0.500000 0.000000 0.367401
O O8 0.830073 0.211804 0.500000
O O9 0.929388 0.219490 0.623266
O O10 0.819770 0.260356 0.712022
O O11 0.839144 0.045396 0.641070
O O12 0.962135 0.385627 0.500000
O O13 0.279424 0.527757 0.302718
O O14 0.245857 0.624626 0.138237
O O15 0.750631 0.504174 0.500000
O O16 0.694423 0.669727 0.612705
#
# Coordination Sequence:
#
# PCOD9441705 Si02
#       7
#     8   8   8   8   8   8   8
#     4  10  19  31  51  76 107 138 167 202 255 307
#     4   9  17  31  52  75  98 134 163 203 256 307
#     4   9  19  34  51  75 106 139 166 204 258 312
#     4   9  18  31  49  79 111 134 164 200 250 326
#     4  10  20  33  50  72 106 140 176 211 246 304
#     4  10  20  33  52  74 101 139 176 214 255 291
#     4   9  18  34  50  72 103 132 170 215 250 303
#
# _framework density 18.988417999999999
#
# number of rings (size 3 to 8) (size 9 to 14) (size 15 to 20)
#    0.000    2.571    1.429    0.429    0.000    7.143 
#    0.000    1.429    0.000    0.429    0.000   31.000 
#    0.000    0.000    0.000    0.000    0.000    0.000 
#
# Total GULP energy -311938.454447 kJ/mol
# GULP energy per Si atom -5570.329544 kJ/mol
# Density = 1.894520 g / cm^3
# Si number density = 18.988418 Si / 1000 Ang^3
#
#
#
# Elastic Constant Matrix: (Units=GPa)
#
#
# Indices 1 2 3 4 5 6 
#
# 1 79.9720 39.7298 5.1912 0.0000 0.0000 0.0000
# 2 39.7298 88.9687 5.4820 0.0000 0.0000 0.0000
# 3 5.1912 5.4820 57.2311 0.0000 0.0000 0.0000
# 4 0.0000 0.0000 0.0000 -3.2814 0.0000 0.0000
# 5 0.0000 0.0000 0.0000 0.0000 9.3912 0.0000
# 6 0.0000 0.0000 0.0000 0.0000 0.0000 39.7914
#
#
#
# Elastic Compliance Matrix: (Units=1/GPa)
#
#
# Indices 1 2 3 4 5 6 
#
# 1 0.016104 -0.007143 -0.000776 0.000000 0.000000 0.000000
# 2 -0.007143 0.014475 -0.000739 0.000000 0.000000 0.000000
# 3 -0.000776 -0.000739 0.017614 0.000000 0.000000 0.000000
# 4 0.000000 0.000000 0.000000 -0.304752 0.000000 0.000000
# 5 0.000000 0.000000 0.000000 0.000000 0.106483 0.000000
# 6 0.000000 0.000000 0.000000 0.000000 0.000000 0.025131
#
#
# Mechanical properties :
#
#
# Convention : Reuss Voigt Hill
#
# Bulk Modulus (GPa) = 32.38732 36.33089 34.35910
# Shear Modulus (GPa) = -51.36853 20.89815 -15.23519
#
# Velocity S-wave (km/s) = -5.20685 3.32109 -2.83564
# Velocity P-wave (km/s) = 4.36520 5.82073 2.72267
#
# Compressibility (1/GPa) = 0.03087628
#
# Stress axis : x y z
#
# Youngs Moduli (GPa) = 62.09802 69.08296 56.77238
#
# Poissons Ratio (x) = 0.49348 0.04408
# Poissons Ratio (y) = 0.44359 0.04193
# Poissons Ratio (z) = 0.04822 0.05102
#
# Static dielectric constant tensor:
#      x y z
#    x 1.671290 0.000000 0.000000 
#    y 0.000000 1.671210 0.000000 
#    z 0.000000 0.000000 1.684770 
# 
# From -- ./inp_files/17042.got.cif
#   From: 2010.05.17/outbox.cif.g08.bks.cpg/sg58_9_cif.got.tgz:17042.got - 2010.06.03 14:20:14.
