data_PCOD9441655
_publ_section_title
;
Structure prediction by ZEFSAII (Michael W. Deem and Ramdas Pophale) SiO2 
 PCOD9441655
Probable space group: P N N M
;
_chemical_formula_sum "Si O2"
_cell_formula_units_Z 56
_cell_length_a 25.140303
_cell_length_b 13.874781
_cell_length_c 7.632190
_cell_angle_alpha 90.000000
_cell_angle_beta 90.000000
_cell_angle_gamma 90.000000
_cell_volume 2662.231501
_symmetry_space_group_name_H-M "P N N M"
_symmetry_group_IT_number 58
_symmetry_cell_setting 'orthorhombic'
loop_
_space_group_symop_operation_xyz
x,y,z
-x,-y,z
1/2+x,1/2-y,1/2-z
1/2-x,1/2+y,1/2-z
-x,-y,-z
x,y,-z
1/2-x,1/2+y,1/2+z
1/2+x,1/2-y,1/2+z
loop_
_atom_site_type_symbol
_atom_site_label
_atom_site_fract_x
_atom_site_fract_y
_atom_site_fract_z
Si Si1 0.880847 0.386270 0.288607
Si Si2 0.549816 0.059457 0.293409
Si Si3 0.058704 0.803636 0.289769
Si Si4 0.559203 0.276146 0.709860
Si Si5 0.662244 0.586420 0.788510
Si Si6 0.223689 0.725404 0.285715
Si Si7 0.331955 0.634544 0.707968
O O1 0.881820 0.387522 0.500000
O O2 0.899544 0.490167 0.226036
O O3 0.922375 0.302954 0.228629
O O4 0.822698 0.349673 0.233688
O O5 0.539159 0.071903 0.500000
O O6 0.556842 0.166413 0.220054
O O7 0.500000 0.000000 0.216451
O O8 0.061953 0.801787 0.500000
O O9 0.103614 0.878549 0.228094
O O10 0.998048 0.823465 0.243280
O O11 0.564753 0.271318 0.500000
O O12 0.610914 0.331464 0.779258
O O13 0.703682 0.668857 0.730877
O O14 0.675144 0.479155 0.732257
O O15 0.661868 0.587659 0.000000
O O16 0.224134 0.725443 0.500000
O O17 0.281200 0.692682 0.221463
O O18 0.332473 0.652924 0.500000
#
# Coordination Sequence:
#
# PCOD9441655 Si02
#       7
#     8   8   8   8   8   8   8
#     4   9  17  31  53  77  99 133 177 214 254 305
#     4  10  19  31  48  75 110 139 167 210 261 310
#     4   9  18  33  53  76 102 134 173 214 258 305
#     4  10  21  34  49  73 107 142 172 208 259 314
#     4   9  19  37  59  79 101 134 174 215 258 305
#     4   8  17  36  57  75 101 136 173 213 256 307
#     4  10  21  37  55  77 106 138 171 211 260 309
#
# _framework density 21.034986
#
# number of rings (size 3 to 8) (size 9 to 14) (size 15 to 20)
#    0.000    2.714    1.429    1.714    0.000    3.714 
#    0.000    7.857    0.000    0.000    0.000    0.000 
#    0.000    0.000    0.000    0.000    0.000    0.000 
#
# Total GULP energy -312509.718220 kJ/mol
# GULP energy per Si atom -5580.530682 kJ/mol
# Density = 2.098711 g / cm^3
# Si number density = 21.034986 Si / 1000 Ang^3
#
#
#
# Elastic Constant Matrix: (Units=GPa)
#
#
# Indices 1 2 3 4 5 6 
#
# 1 180.2216 77.2912 4.9044 0.0000 0.0000 0.0000
# 2 77.2912 91.8217 -0.2883 0.0000 0.0000 0.0000
# 3 4.9044 -0.2883 37.7085 0.0000 0.0000 0.0000
# 4 0.0000 0.0000 0.0000 17.6078 0.0000 0.0000
# 5 0.0000 0.0000 0.0000 0.0000 16.7176 0.0000
# 6 0.0000 0.0000 0.0000 0.0000 0.0000 23.0000
#
#
#
# Elastic Compliance Matrix: (Units=1/GPa)
#
#
# Indices 1 2 3 4 5 6 
#
# 1 0.008737 -0.007358 -0.001193 0.000000 0.000000 0.000000
# 2 -0.007358 0.017088 0.001088 0.000000 0.000000 0.000000
# 3 -0.001193 0.001088 0.026683 0.000000 0.000000 0.000000
# 4 0.000000 0.000000 0.000000 0.056793 0.000000 0.000000
# 5 0.000000 0.000000 0.000000 0.000000 0.059817 0.000000
# 6 0.000000 0.000000 0.000000 0.000000 0.000000 0.043478
#
#
# Mechanical properties :
#
#
# Convention : Reuss Voigt Hill
#
# Bulk Modulus (GPa) = 26.60898 52.61847 39.61373
# Shear Modulus (GPa) = 20.82913 26.65472 23.74193
#
# Velocity S-wave (km/s) = 3.15018 3.56358 3.36324
# Velocity P-wave (km/s) = 5.09007 6.48083 5.82709
#
# Compressibility (1/GPa) = 0.03758129
#
# Stress axis : x y z
#
# Youngs Moduli (GPa) = 114.45899 58.52184 37.47758
#
# Poissons Ratio (x) = 0.43060 0.04469
# Poissons Ratio (y) = 0.84218 -0.04076
# Poissons Ratio (z) = 0.13650 -0.06365
#
# Static dielectric constant tensor:
#      x y z
#    x 1.769560 0.000000 0.000000 
#    y 0.000000 1.729230 0.000000 
#    z 0.000000 0.000000 1.795970 
# 
# From -- ./inp_files/9010.got.cif
#   From: 2010.05.17/outbox.cif.g08.bks.cpg/sg58_5_cif.got.tgz:9010.got - 2010.06.03 14:20:14.
