data_PCOD9441460
_publ_section_title
;
Structure prediction by ZEFSAII (Michael W. Deem and Ramdas Pophale) SiO2 
 PCOD9441460
Probable space group: P N N M
;
_chemical_formula_sum "Si O2"
_cell_formula_units_Z 48
_cell_length_a 7.420000
_cell_length_b 15.085456
_cell_length_c 19.005884
_cell_angle_alpha 90.000000
_cell_angle_beta 90.000000
_cell_angle_gamma 90.000000
_cell_volume 2127.406207
_symmetry_space_group_name_H-M "P N N M"
_symmetry_group_IT_number 58
_symmetry_cell_setting 'orthorhombic'
loop_
_space_group_symop_operation_xyz
x,y,z
-x,-y,z
1/2+x,1/2-y,1/2-z
1/2-x,1/2+y,1/2-z
-x,-y,-z
x,y,-z
1/2-x,1/2+y,1/2+z
1/2+x,1/2-y,1/2+z
loop_
_atom_site_type_symbol
_atom_site_label
_atom_site_fract_x
_atom_site_fract_y
_atom_site_fract_z
Si Si1 0.195634 0.020032 0.347094
Si Si2 0.160660 0.687111 0.082301
Si Si3 0.786091 0.648267 0.340362
Si Si4 0.640329 0.362562 0.706278
Si Si5 0.285201 0.521531 0.577635
Si Si6 0.362698 0.832883 0.695463
O O1 0.288000 0.085871 0.401748
O O2 0.177149 0.076113 0.274235
O O3 0.278961 0.924452 0.331734
O O4 0.000000 0.000000 0.375470
O O5 0.294703 0.759375 0.117339
O O6 0.985064 0.697085 0.130458
O O7 0.137192 0.704785 0.000000
O O8 0.580432 0.638158 0.306318
O O9 0.806072 0.567694 0.394099
O O10 0.920505 0.639825 0.274574
O O11 0.725643 0.404551 0.636912
O O12 0.717914 0.263632 0.715787
O O13 0.500000 0.500000 0.573719
O O14 0.224459 0.547415 0.500000
#
# Coordination Sequence:
#
# PCOD9441460 Si02
#       6
#     8   8   8   8   8   8
#     4  12  22  40  65  90 125 169 223 265 311 382
#     4  11  26  43  62  95 137 171 213 269 323 377
#     4  10  18  36  64  94 122 161 208 259 321 384
#     4  10  19  34  58  91 126 156 208 261 314 383
#     4   9  16  29  55  90 123 153 193 256 325 378
#     4  11  22  37  65  95 124 169 211 265 321 387
#
# _framework density 22.562687
#
# number of rings (size 3 to 8) (size 9 to 14) (size 15 to 20)
#    0.000    1.500    5.000    1.500    0.000    5.667 
#    0.000    0.000    0.000    0.000    0.000    1.167 
#    0.000    0.000    0.000    0.000    0.000    0.000 
#
# Total GULP energy -267762.582997 kJ/mol
# GULP energy per Si atom -5578.387146 kJ/mol
# Density = 2.251133 g / cm^3
# Si number density = 22.562687 Si / 1000 Ang^3
#
#
#
# Elastic Constant Matrix: (Units=GPa)
#
#
# Indices 1 2 3 4 5 6 
#
# 1 27.0705 -1.9299 12.5105 0.0000 0.0000 0.0000
# 2 -1.9299 91.4879 -15.4733 0.0000 0.0000 0.0000
# 3 12.5105 -15.4733 124.0506 0.0000 0.0000 0.0000
# 4 0.0000 0.0000 0.0000 23.1737 0.0000 0.0000
# 5 0.0000 0.0000 0.0000 0.0000 27.1774 0.0000
# 6 0.0000 0.0000 0.0000 0.0000 0.0000 27.1208
#
#
#
# Elastic Compliance Matrix: (Units=1/GPa)
#
#
# Indices 1 2 3 4 5 6 
#
# 1 0.038749 0.000160 -0.003888 0.000000 0.000000 0.000000
# 2 0.000160 0.011167 0.001377 0.000000 0.000000 0.000000
# 3 -0.003888 0.001377 0.008625 0.000000 0.000000 0.000000
# 4 0.000000 0.000000 0.000000 0.043152 0.000000 0.000000
# 5 0.000000 0.000000 0.000000 0.000000 0.036795 0.000000
# 6 0.000000 0.000000 0.000000 0.000000 0.000000 0.036872
#
#
# Mechanical properties :
#
#
# Convention : Reuss Voigt Hill
#
# Bulk Modulus (GPa) = 18.57432 25.86928 22.22180
# Shear Modulus (GPa) = 25.25143 31.99449 28.62296
#
# Velocity S-wave (km/s) = 3.34903 3.76975 3.56560
# Velocity P-wave (km/s) = 4.81714 5.51711 5.17896
#
# Compressibility (1/GPa) = 0.05383777
#
# Stress axis : x y z
#
# Youngs Moduli (GPa) = 25.80733 89.55259 115.94143
#
# Poissons Ratio (x) = -0.01431 0.45076
# Poissons Ratio (y) = -0.00412 -0.15962
# Poissons Ratio (z) = 0.10034 -0.12329
#
# Static dielectric constant tensor:
#      x y z
#    x 2.024130 0.000000 0.000000 
#    y 0.000000 1.876120 0.000000 
#    z 0.000000 0.000000 1.800990 
# 
# From -- ./inp_files/25287.got.cif
#   From: 2010.05.17/outbox.cif.g08.bks.cpg/sg58_13_cif.got.tgz:25287.got - 2010.06.03 14:20:14.
