data_PCOD9441853
_publ_section_title
;
Structure prediction by ZEFSAII (Michael W. Deem and Ramdas Pophale) SiO2 
 PCOD9441853
Probable space group: P N N M
;
_chemical_formula_sum "Si O2"
_cell_formula_units_Z 64
_cell_length_a 11.660400
_cell_length_b 12.588497
_cell_length_c 22.883417
_cell_angle_alpha 90.000000
_cell_angle_beta 90.000000
_cell_angle_gamma 90.000000
_cell_volume 3358.986081
_symmetry_space_group_name_H-M "P N N M"
_symmetry_group_IT_number 58
_symmetry_cell_setting 'orthorhombic'
loop_
_space_group_symop_operation_xyz
x,y,z
-x,-y,z
1/2+x,1/2-y,1/2-z
1/2-x,1/2+y,1/2-z
-x,-y,-z
x,y,-z
1/2-x,1/2+y,1/2+z
1/2+x,1/2-y,1/2+z
loop_
_atom_site_type_symbol
_atom_site_label
_atom_site_fract_x
_atom_site_fract_y
_atom_site_fract_z
Si Si1 0.456181 0.615133 0.349836
Si Si2 0.564673 0.740027 0.746490
Si Si3 0.397590 0.920993 0.270479
Si Si4 0.270164 0.587907 0.750755
Si Si5 0.786396 0.758559 0.934613
Si Si6 0.626630 0.030865 0.409034
Si Si7 0.428109 0.338655 0.876260
Si Si8 0.659859 0.421993 0.115684
O O1 0.500000 0.500000 0.369910
O O2 0.556942 0.679635 0.315662
O O3 0.365409 0.599376 0.297596
O O4 0.383705 0.678536 0.398470
O O5 0.445150 0.807298 0.746655
O O6 0.670234 0.822904 0.750537
O O7 0.570535 0.672547 0.805837
O O8 0.380479 0.934935 0.340115
O O9 0.500000 0.000000 0.254092
O O10 0.285472 0.970824 0.242647
O O11 0.319865 0.593569 0.815617
O O12 0.829669 0.637225 0.938474
O O13 0.663221 0.745673 0.901717
O O14 0.771390 0.801538 0.000000
O O15 0.500000 0.000000 0.427539
O O16 0.715164 0.932387 0.413799
O O17 0.384336 0.456863 0.891132
O O18 0.558717 0.340407 0.900649
#
# Coordination Sequence:
#
# PCOD9441853 Si02
#       8
#     8   8   8   8   8   8   8   8
#     4  12  24  36  54  86 118 153 203 249 298 352
#     4  11  19  32  55  83 116 145 184 238 305 365
#     4   8  16  29  50  81 114 142 171 219 291 366
#     4  10  19  32  52  84 121 146 168 230 311 375
#     4  11  24  41  59  78 113 167 211 243 284 347
#     4   9  17  34  57  85 119 149 182 235 300 360
#     4  10  19  35  54  82 114 154 192 240 296 352
#     4   9  18  31  53  84 121 148 175 234 306 360
#
# _framework density 19.053369
#
# number of rings (size 3 to 8) (size 9 to 14) (size 15 to 20)
#    0.000    2.000    3.750    1.500    0.000    1.500 
#    0.000    5.000    0.000    0.000    0.000    1.750 
#    0.000    0.000    0.000    0.000    0.000    0.000 
#
# Total GULP energy -356582.321114 kJ/mol
# GULP energy per Si atom -5571.598767 kJ/mol
# Density = 1.901000 g / cm^3
# Si number density = 19.053369 Si / 1000 Ang^3
#
#
#
# Elastic Constant Matrix: (Units=GPa)
#
#
# Indices 1 2 3 4 5 6 
#
# 1 112.2267 27.0920 26.9762 0.0000 0.0000 0.0000
# 2 27.0920 54.0867 16.1582 0.0000 0.0000 0.0000
# 3 26.9762 16.1582 56.9373 0.0000 0.0000 0.0000
# 4 0.0000 0.0000 0.0000 8.2512 0.0000 0.0000
# 5 0.0000 0.0000 0.0000 0.0000 5.7207 0.0000
# 6 0.0000 0.0000 0.0000 0.0000 0.0000 24.7126
#
#
#
# Elastic Compliance Matrix: (Units=1/GPa)
#
#
# Indices 1 2 3 4 5 6 
#
# 1 0.010892 -0.004277 -0.003947 0.000000 0.000000 0.000000
# 2 -0.004277 0.021881 -0.004183 0.000000 0.000000 0.000000
# 3 -0.003947 -0.004183 0.020620 0.000000 0.000000 0.000000
# 4 0.000000 0.000000 0.000000 0.121195 0.000000 0.000000
# 5 0.000000 0.000000 0.000000 0.000000 0.174805 0.000000
# 6 0.000000 0.000000 0.000000 0.000000 0.000000 0.040465
#
#
# Mechanical properties :
#
#
# Convention : Reuss Voigt Hill
#
# Bulk Modulus (GPa) = 34.99017 40.41151 37.70084
# Shear Modulus (GPa) = 11.78698 17.93850 14.86274
#
# Velocity S-wave (km/s) = 2.48993 3.07170 2.79598
# Velocity P-wave (km/s) = 5.16435 5.81688 5.50030
#
# Compressibility (1/GPa) = 0.02857946
#
# Stress axis : x y z
#
# Youngs Moduli (GPa) = 91.81398 45.70240 48.49602
#
# Poissons Ratio (x) = 0.19545 0.19140
# Poissons Ratio (y) = 0.39265 0.20287
# Poissons Ratio (z) = 0.36236 0.19119
#
# Static dielectric constant tensor:
#      x y z
#    x 1.753760 0.000000 0.000000 
#    y 0.000000 1.702400 0.000000 
#    z 0.000000 0.000000 1.655330 
# 
# From -- ./inp_files/32077.got.cif
#   From: 2010.05.17/outbox.cif.g08.bks.cpg/sg58_17_cif.got.tgz:32077.got - 2010.06.03 14:20:14.
