data_PCOD9441799
_publ_section_title
;
Structure prediction by ZEFSAII (Michael W. Deem and Ramdas Pophale) SiO2 
 PCOD9441799
Probable space group: P N N M
;
_chemical_formula_sum "Si O2"
_cell_formula_units_Z 64
_cell_length_a 17.462398
_cell_length_b 21.515568
_cell_length_c 7.463664
_cell_angle_alpha 90.000000
_cell_angle_beta 90.000000
_cell_angle_gamma 90.000000
_cell_volume 2804.198665
_symmetry_space_group_name_H-M "P N N M"
_symmetry_group_IT_number 58
_symmetry_cell_setting 'orthorhombic'
loop_
_space_group_symop_operation_xyz
x,y,z
-x,-y,z
1/2+x,1/2-y,1/2-z
1/2-x,1/2+y,1/2-z
-x,-y,-z
x,y,-z
1/2-x,1/2+y,1/2+z
1/2+x,1/2-y,1/2+z
loop_
_atom_site_type_symbol
_atom_site_label
_atom_site_fract_x
_atom_site_fract_y
_atom_site_fract_z
Si Si1 0.658161 0.520036 0.715644
Si Si2 0.559929 0.169577 0.219965
Si Si3 0.463883 0.386008 0.212625
Si Si4 0.387979 0.153477 0.781147
Si Si5 0.394613 0.690919 0.215961
Si Si6 0.234627 0.102920 0.788918
Si Si7 0.333400 0.289936 0.216854
Si Si8 0.286973 0.884879 0.206273
O O1 0.660208 0.520456 0.500000
O O2 0.574505 0.547080 0.758463
O O3 0.682185 0.452533 0.784870
O O4 0.724460 0.567478 0.783763
O O5 0.475690 0.147927 0.276810
O O6 0.578086 0.240798 0.275159
O O7 0.628844 0.125350 0.282762
O O8 0.560883 0.169911 0.000000
O O9 0.544998 0.361648 0.282639
O O10 0.399700 0.337310 0.278146
O O11 0.468620 0.378478 0.000000
O O12 0.321163 0.107247 0.718406
O O13 0.357936 0.221645 0.729041
O O14 0.389112 0.151639 0.000000
O O15 0.310881 0.667492 0.269773
O O16 0.395364 0.692178 0.000000
O O17 0.241991 0.091008 0.000000
O O18 0.254357 0.317751 0.287205
O O19 0.329880 0.291451 0.000000
O O20 0.296993 0.903947 0.000000
#
# Coordination Sequence:
#
# PCOD9441799 Si02
#       8
#     8   8   8   8   8   8   8   8
#     4   9  19  34  47  66  99 132 162 194 229 274
#     4   9  16  29  50  75  98 120 150 196 246 284
#     4   9  17  30  50  73  93 121 158 197 235 278
#     4   9  16  29  49  70  94 124 155 190 237 286
#     4  10  19  32  51  75 100 120 153 202 245 284
#     4  10  21  34  48  68  97 132 163 192 230 280
#     4   9  15  27  48  70  92 118 151 189 235 284
#     4   9  17  29  48  70  93 123 157 192 233 277
#
# _framework density 22.82292
#
# number of rings (size 3 to 8) (size 9 to 14) (size 15 to 20)
#    0.000    2.750    1.250    0.750    0.000    1.500 
#    0.000    3.125    0.000    6.000    0.000    0.000 
#    0.000    5.000    0.000    0.000    0.000    0.000 
#
# Total GULP energy -357139.858574 kJ/mol
# GULP energy per Si atom -5580.310290 kJ/mol
# Density = 2.277097 g / cm^3
# Si number density = 22.822920 Si / 1000 Ang^3
#
#
#
# Elastic Constant Matrix: (Units=GPa)
#
#
# Indices 1 2 3 4 5 6 
#
# 1 136.0754 13.4333 -3.4772 0.0000 0.0000 0.0000
# 2 13.4333 42.6992 -3.1584 0.0000 0.0000 0.0000
# 3 -3.4772 -3.1584 63.1545 0.0000 0.0000 0.0000
# 4 0.0000 0.0000 0.0000 6.9334 0.0000 0.0000
# 5 0.0000 0.0000 0.0000 0.0000 8.0307 0.0000
# 6 0.0000 0.0000 0.0000 0.0000 0.0000 30.2445
#
#
#
# Elastic Compliance Matrix: (Units=1/GPa)
#
#
# Indices 1 2 3 4 5 6 
#
# 1 0.007590 -0.002366 0.000300 0.000000 0.000000 0.000000
# 2 -0.002366 0.024244 0.001082 0.000000 0.000000 0.000000
# 3 0.000300 0.001082 0.015905 0.000000 0.000000 0.000000
# 4 0.000000 0.000000 0.000000 0.144229 0.000000 0.000000
# 5 0.000000 0.000000 0.000000 0.000000 0.124522 0.000000
# 6 0.000000 0.000000 0.000000 0.000000 0.000000 0.033064
#
#
# Mechanical properties :
#
#
# Convention : Reuss Voigt Hill
#
# Bulk Modulus (GPa) = 21.84791 28.39163 25.11977
# Shear Modulus (GPa) = 13.63218 24.71714 19.17466
#
# Velocity S-wave (km/s) = 2.44663 3.29446 2.90168
# Velocity P-wave (km/s) = 4.19224 5.19021 4.71769
#
# Compressibility (1/GPa) = 0.04577097
#
# Stress axis : x y z
#
# Youngs Moduli (GPa) = 131.75122 41.24741 62.87410
#
# Poissons Ratio (x) = 0.09758 -0.01884
# Poissons Ratio (y) = 0.31168 -0.06804
# Poissons Ratio (z) = -0.03947 -0.04464
#
# Static dielectric constant tensor:
#      x y z
#    x 1.862620 0.000000 0.000000 
#    y 0.000000 1.857910 0.000000 
#    z 0.000000 0.000000 1.890410 
# 
# From -- ./inp_files/8338.got.cif
#   From: 2010.05.17/outbox.cif.g08.bks.cpg/sg58_5_cif.got.tgz:8338.got - 2010.06.03 14:20:14.
