data_PCOD9441305
_publ_section_title
;
Structure prediction by ZEFSAII (Michael W. Deem and Ramdas Pophale) SiO2 
 PCOD9441305
Probable space group: P N N M
;
_chemical_formula_sum "Si O2"
_cell_formula_units_Z 64
_cell_length_a 8.970726
_cell_length_b 25.255695
_cell_length_c 14.226540
_cell_angle_alpha 90.000000
_cell_angle_beta 90.000000
_cell_angle_gamma 90.000000
_cell_volume 3223.192214
_symmetry_space_group_name_H-M "P N N M"
_symmetry_group_IT_number 58
_symmetry_cell_setting 'orthorhombic'
loop_
_space_group_symop_operation_xyz
x,y,z
-x,-y,z
1/2+x,1/2-y,1/2-z
1/2-x,1/2+y,1/2-z
-x,-y,-z
x,y,-z
1/2-x,1/2+y,1/2+z
1/2+x,1/2-y,1/2+z
loop_
_atom_site_type_symbol
_atom_site_label
_atom_site_fract_x
_atom_site_fract_y
_atom_site_fract_z
Si Si1 0.822326 0.802852 0.701156
Si Si2 0.559380 0.870340 0.664687
Si Si3 0.191617 0.673925 0.399451
Si Si4 0.708937 0.061600 0.393697
Si Si5 0.118540 0.316731 0.678346
Si Si6 0.385480 0.566349 0.393634
Si Si7 0.347902 0.023847 0.766005
Si Si8 0.401736 0.376262 0.744551
O O1 0.706290 0.837148 0.638391
O O2 0.745611 0.796778 0.804887
O O3 0.852602 0.744885 0.662480
O O4 0.974434 0.834743 0.719588
O O5 0.445343 0.904572 0.602964
O O6 0.454640 0.828814 0.719654
O O7 0.622567 0.915864 0.734430
O O8 0.221278 0.701083 0.500000
O O9 0.283269 0.619374 0.400061
O O10 0.014441 0.664694 0.389544
O O11 0.754022 0.048911 0.500000
O O12 0.826516 0.096126 0.334508
O O13 0.684225 0.010329 0.327755
O O14 0.272767 0.348283 0.683011
O O15 0.429375 0.553511 0.500000
O O16 0.283061 0.523432 0.341429
O O17 0.516388 0.582024 0.322760
O O18 0.500000 0.000000 0.806769
#
# Coordination Sequence:
#
# PCOD9441305 Si02
#       8
#     8   8   8   8   8   8   8   8
#     4  10  18  35  59  84 116 160 194 239 308 355
#     4   9  18  37  57  82 115 152 204 241 279 352
#     4   9  18  34  57  79 109 150 199 232 273 354
#     4  10  23  40  62  86 115 163 210 251 305 353
#     4  10  18  32  58  87 114 157 194 236 303 359
#     4  10  20  38  61  86 117 153 185 238 303 355
#     4  10  19  37  64  84 117 153 202 245 285 360
#     4  10  20  36  58  86 128 153 196 249 302 369
#
# _framework density 19.856090999999999
#
# number of rings (size 3 to 8) (size 9 to 14) (size 15 to 20)
#    0.000    2.250    3.750    1.500    0.000    3.500 
#    0.000    9.375    0.000    3.000    0.000    0.000 
#    0.000    0.000    0.000    0.000    0.000    0.000 
#
# Total GULP energy -356514.784604 kJ/mol
# GULP energy per Si atom -5570.543509 kJ/mol
# Density = 1.981090 g / cm^3
# Si number density = 19.856091 Si / 1000 Ang^3
#
#
#
# Elastic Constant Matrix: (Units=GPa)
#
#
# Indices 1 2 3 4 5 6 
#
# 1 101.1992 20.2115 12.2968 0.0000 0.0000 0.0000
# 2 20.2115 64.6211 -6.6304 0.0000 0.0000 0.0000
# 3 12.2968 -6.6304 81.1434 0.0000 0.0000 0.0000
# 4 0.0000 0.0000 0.0000 8.3538 0.0000 0.0000
# 5 0.0000 0.0000 0.0000 0.0000 9.7219 0.0000
# 6 0.0000 0.0000 0.0000 0.0000 0.0000 31.5148
#
#
#
# Elastic Compliance Matrix: (Units=1/GPa)
#
#
# Indices 1 2 3 4 5 6 
#
# 1 0.010833 -0.003587 -0.001935 0.000000 0.000000 0.000000
# 2 -0.003587 0.016793 0.001916 0.000000 0.000000 0.000000
# 3 -0.001935 0.001916 0.012774 0.000000 0.000000 0.000000
# 4 0.000000 0.000000 0.000000 0.119706 0.000000 0.000000
# 5 0.000000 0.000000 0.000000 0.000000 0.102861 0.000000
# 6 0.000000 0.000000 0.000000 0.000000 0.000000 0.031731
#
#
# Mechanical properties :
#
#
# Convention : Reuss Voigt Hill
#
# Bulk Modulus (GPa) = 30.13107 33.19104 31.66106
# Shear Modulus (GPa) = 15.97586 24.65715 20.31650
#
# Velocity S-wave (km/s) = 2.83959 3.52773 3.20220
# Velocity P-wave (km/s) = 5.09497 5.77454 5.44536
#
# Compressibility (1/GPa) = 0.03318833
#
# Stress axis : x y z
#
# Youngs Moduli (GPa) = 92.31116 59.54789 78.28646
#
# Poissons Ratio (x) = 0.21358 0.15146
# Poissons Ratio (y) = 0.33109 -0.14998
# Poissons Ratio (z) = 0.17860 -0.11408
#
# Static dielectric constant tensor:
#      x y z
#    x 1.735520 0.000000 0.000000 
#    y 0.000000 1.702650 0.000000 
#    z 0.000000 0.000000 1.722610 
# 
# From -- ./inp_files/20279.got.cif
#   From: 2010.05.17/outbox.cif.g08.bks.cpg/sg58_11_cif.got.tgz:20279.got - 2010.06.03 14:20:14.
