data_PCOD9441530
_publ_section_title
;
Structure prediction by ZEFSAII (Michael W. Deem and Ramdas Pophale) SiO2 
 PCOD9441530
Probable space group: P N N M
;
_chemical_formula_sum "Si O2"
_cell_formula_units_Z 58
_cell_length_a 23.275501
_cell_length_b 15.117690
_cell_length_c 7.404102
_cell_angle_alpha 90.000000
_cell_angle_beta 90.000000
_cell_angle_gamma 90.000000
_cell_volume 2605.294763
_symmetry_space_group_name_H-M "P N N M"
_symmetry_group_IT_number 58
_symmetry_cell_setting 'orthorhombic'
loop_
_space_group_symop_operation_xyz
x,y,z
-x,-y,z
1/2+x,1/2-y,1/2-z
1/2-x,1/2+y,1/2-z
-x,-y,-z
x,y,-z
1/2-x,1/2+y,1/2+z
1/2+x,1/2-y,1/2+z
loop_
_atom_site_type_symbol
_atom_site_label
_atom_site_fract_x
_atom_site_fract_y
_atom_site_fract_z
Si Si1 0.631492 0.004571 0.780183
Si Si2 0.859931 0.788436 0.717598
Si Si3 0.772314 0.642540 0.279234
Si Si4 0.857418 0.131693 0.211647
Si Si5 0.457542 0.849550 0.780460
Si Si6 0.920142 0.959943 0.793026
Si Si7 0.912484 0.320265 0.718234
Si Si8 0.500000 0.500000 0.000000
O O1 0.686968 0.060939 0.723215
O O2 0.574851 0.060315 0.726219
O O3 0.625821 0.903640 0.721027
O O4 0.632358 0.004789 0.000000
O O5 0.858782 0.791107 0.500000
O O6 0.804237 0.733042 0.776494
O O7 0.915092 0.729807 0.773081
O O8 0.870193 0.886885 0.784526
O O9 0.771874 0.643061 0.500000
O O10 0.707218 0.635353 0.215292
O O11 0.887404 0.226074 0.228062
O O12 0.895924 0.052252 0.286892
O O13 0.852330 0.109315 0.000000
O O14 0.522286 0.835870 0.718408
O O15 0.458869 0.850861 0.000000
O O16 0.971568 0.936656 0.659389
O O17 0.938224 0.968220 0.000000
O O18 0.913460 0.321471 0.500000
#
# Coordination Sequence:
#
# PCOD9441530 Si02
#       8
#     8   8   8   8   8   8   8   2
#     4   8  14  28  51  82 107 140 187 233 279 345
#     4   9  17  34  60  86 112 161 206 246 300 364
#     4   8  16  34  58  79 114 157 201 245 298 358
#     4  10  23  39  52  78 116 157 199 250 303 360
#     4   8  15  27  50  81 113 140 179 229 286 354
#     4  11  25  41  63  92 126 166 211 256 318 371
#     4  10  19  29  52  82 110 138 180 235 294 350
#     4  12  26  44  68  86 128 166 210 268 306 386
#
# _framework density 22.262357000000002
#
# number of rings (size 3 to 8) (size 9 to 14) (size 15 to 20)
#    0.000    2.759    0.690    2.276    2.897    2.759 
#    0.000    2.069    0.000    5.793    0.000    0.000 
#    0.000    0.000    0.000    0.000    0.000    0.000 
#
# Total GULP energy -323451.405862 kJ/mol
# GULP energy per Si atom -5576.748377 kJ/mol
# Density = 2.221169 g / cm^3
# Si number density = 22.262357 Si / 1000 Ang^3
#
#
#
# Elastic Constant Matrix: (Units=GPa)
#
#
# Indices 1 2 3 4 5 6 
#
# 1 87.0673 30.9746 7.3690 0.0000 0.0000 0.0000
# 2 30.9746 137.9444 -3.0818 0.0000 0.0000 0.0000
# 3 7.3690 -3.0818 101.9525 0.0000 0.0000 0.0000
# 4 0.0000 0.0000 0.0000 -13.4744 0.0000 0.0000
# 5 0.0000 0.0000 0.0000 0.0000 43.6058 0.0000
# 6 0.0000 0.0000 0.0000 0.0000 0.0000 11.8964
#
#
#
# Elastic Compliance Matrix: (Units=1/GPa)
#
#
# Indices 1 2 3 4 5 6 
#
# 1 0.012583 -0.002848 -0.000996 0.000000 0.000000 0.000000
# 2 -0.002848 0.007899 0.000445 0.000000 0.000000 0.000000
# 3 -0.000996 0.000445 0.009894 0.000000 0.000000 0.000000
# 4 0.000000 0.000000 0.000000 -0.074215 0.000000 0.000000
# 5 0.000000 0.000000 0.000000 0.000000 0.022933 0.000000
# 6 0.000000 0.000000 0.000000 0.000000 0.000000 0.084059
#
#
# Mechanical properties :
#
#
# Convention : Reuss Voigt Hill
#
# Bulk Modulus (GPa) = 42.41227 44.16530 43.28878
# Shear Modulus (GPa) = 64.26039 27.85240 46.05640
#
# Velocity S-wave (km/s) = 5.37845 3.54092 4.55334
# Velocity P-wave (km/s) = 7.59360 6.04972 6.86520
#
# Compressibility (1/GPa) = 0.02357808
#
# Stress axis : x y z
#
# Youngs Moduli (GPa) = 79.47431 126.60400 101.07254
#
# Poissons Ratio (x) = 0.36052 0.10062
# Poissons Ratio (y) = 0.22631 -0.04493
# Poissons Ratio (z) = 0.07912 -0.05629
#
# Static dielectric constant tensor:
#      x y z
#    x 1.862940 0.000000 0.000000 
#    y 0.000000 1.817430 0.000000 
#    z 0.000000 0.000000 1.845900 
# 
# From -- ./inp_files/9878.got.cif
#   From: 2010.05.17/outbox.cif.g08.bks.cpg/sg58_5_cif.got.tgz:9878.got - 2010.06.03 14:20:14.
