data_PCOD9441573
_publ_section_title
;
Structure prediction by ZEFSAII (Michael W. Deem and Ramdas Pophale) SiO2 
 PCOD9441573
Probable space group: P N N M
;
_chemical_formula_sum "Si O2"
_cell_formula_units_Z 56
_cell_length_a 20.783150
_cell_length_b 17.043306
_cell_length_c 9.340647
_cell_angle_alpha 90.000000
_cell_angle_beta 90.000000
_cell_angle_gamma 90.000000
_cell_volume 3308.584061
_symmetry_space_group_name_H-M "P N N M"
_symmetry_group_IT_number 58
_symmetry_cell_setting 'orthorhombic'
loop_
_space_group_symop_operation_xyz
x,y,z
-x,-y,z
1/2+x,1/2-y,1/2-z
1/2-x,1/2+y,1/2-z
-x,-y,-z
x,y,-z
1/2-x,1/2+y,1/2+z
1/2+x,1/2-y,1/2+z
loop_
_atom_site_type_symbol
_atom_site_label
_atom_site_fract_x
_atom_site_fract_y
_atom_site_fract_z
Si Si1 0.523365 0.909138 0.836324
Si Si2 0.396621 0.469428 0.665265
Si Si3 0.377179 0.714387 0.829574
Si Si4 0.293009 0.561046 0.170966
Si Si5 0.854446 0.457545 0.169756
Si Si6 0.399248 0.863381 0.331148
Si Si7 0.515589 0.373003 0.333642
O O1 0.592574 0.911086 0.760833
O O2 0.469746 0.866875 0.740804
O O3 0.500000 0.000000 0.840571
O O4 0.525032 0.880325 0.000000
O O5 0.379092 0.455347 0.500000
O O6 0.334716 0.492419 0.756313
O O7 0.441602 0.547327 0.668060
O O8 0.443977 0.399118 0.712435
O O9 0.327143 0.644252 0.796428
O O10 0.361153 0.794965 0.749688
O O11 0.445923 0.685704 0.767236
O O12 0.379892 0.724783 0.000000
O O13 0.218546 0.560106 0.213563
O O14 0.295897 0.550487 0.000000
O O15 0.868348 0.550513 0.187834
O O16 0.862353 0.440398 0.000000
O O17 0.403623 0.847591 0.500000
O O18 0.513706 0.346574 0.500000
#
# Coordination Sequence:
#
# PCOD9441573 Si02
#       7
#     8   8   8   8   8   8   8
#     4   9  17  30  50  76  99 118 150 199 247 287
#     4   8  14  25  43  66  91 120 158 200 235 279
#     4  10  19  30  47  72 100 128 162 205 250 294
#     4   9  18  31  48  71  99 132 168 204 243 292
#     4   9  18  33  52  73  97 129 168 202 242 295
#     4  10  19  32  52  73  96 127 163 204 248 298
#     4   8  14  26  43  64  91 122 158 198 238 281
#
# _framework density 16.925668999999999
#
# number of rings (size 3 to 8) (size 9 to 14) (size 15 to 20)
#    0.000    3.000    0.000    2.143    0.000    4.000 
#    0.000    2.857    3.143    0.000    0.000    0.000 
#    0.000    0.000    0.000    0.000    0.000    0.000 
#
# Total GULP energy -311876.817315 kJ/mol
# GULP energy per Si atom -5569.228881 kJ/mol
# Density = 1.688715 g / cm^3
# Si number density = 16.925669 Si / 1000 Ang^3
#
#
#
# Elastic Constant Matrix: (Units=GPa)
#
#
# Indices 1 2 3 4 5 6 
#
# 1 119.6916 23.4971 50.0097 0.0000 0.0000 0.0000
# 2 23.4971 42.0754 33.7898 0.0000 0.0000 0.0000
# 3 50.0097 33.7898 73.2495 0.0000 0.0000 0.0000
# 4 0.0000 0.0000 0.0000 22.8354 0.0000 0.0000
# 5 0.0000 0.0000 0.0000 0.0000 24.6455 0.0000
# 6 0.0000 0.0000 0.0000 0.0000 0.0000 10.3309
#
#
#
# Elastic Compliance Matrix: (Units=1/GPa)
#
#
# Indices 1 2 3 4 5 6 
#
# 1 0.011690 -0.000189 -0.007894 0.000000 0.000000 0.000000
# 2 -0.000189 0.037756 -0.017288 0.000000 0.000000 0.000000
# 3 -0.007894 -0.017288 0.027016 0.000000 0.000000 0.000000
# 4 0.000000 0.000000 0.000000 0.043792 0.000000 0.000000
# 5 0.000000 0.000000 0.000000 0.000000 0.040575 0.000000
# 6 0.000000 0.000000 0.000000 0.000000 0.000000 0.096797
#
#
# Mechanical properties :
#
#
# Convention : Reuss Voigt Hill
#
# Bulk Modulus (GPa) = 38.87892 49.95664 44.41778
# Shear Modulus (GPa) = 15.77581 20.07702 17.92642
#
# Velocity S-wave (km/s) = 3.05629 3.44784 3.25795
# Velocity P-wave (km/s) = 5.95607 6.74015 6.36020
#
# Compressibility (1/GPa) = 0.02572088
#
# Stress axis : x y z
#
# Youngs Moduli (GPa) = 85.54154 26.48613 37.01466
#
# Poissons Ratio (x) = 0.00500 0.29220
# Poissons Ratio (y) = 0.01615 0.63990
# Poissons Ratio (z) = 0.67528 0.45788
#
# Static dielectric constant tensor:
#      x y z
#    x 1.566560 0.000000 0.000000 
#    y 0.000000 1.595690 0.000000 
#    z 0.000000 0.000000 1.566660 
# 
# From -- ./inp_files/9178.got.cif
#   From: 2010.05.17/outbox.cif.g08.bks.cpg/sg58_5_cif.got.tgz:9178.got - 2010.06.03 14:20:14.
