data_PCOD9441456
_publ_section_title
;
Structure prediction by ZEFSAII (Michael W. Deem and Ramdas Pophale) SiO2 
 PCOD9441456
Probable space group: P N N M
;
_chemical_formula_sum "Si O2"
_cell_formula_units_Z 40
_cell_length_a 10.339317
_cell_length_b 8.480704
_cell_length_c 24.803644
_cell_angle_alpha 90.000000
_cell_angle_beta 90.000000
_cell_angle_gamma 90.000000
_cell_volume 2174.899762
_symmetry_space_group_name_H-M "P N N M"
_symmetry_group_IT_number 58
_symmetry_cell_setting 'orthorhombic'
loop_
_space_group_symop_operation_xyz
x,y,z
-x,-y,z
1/2+x,1/2-y,1/2-z
1/2-x,1/2+y,1/2-z
-x,-y,-z
x,y,-z
1/2-x,1/2+y,1/2+z
1/2+x,1/2-y,1/2+z
loop_
_atom_site_type_symbol
_atom_site_label
_atom_site_fract_x
_atom_site_fract_y
_atom_site_fract_z
Si Si1 0.528527 0.320702 0.843724
Si Si2 0.857930 0.925068 0.939047
Si Si3 0.604009 0.134879 0.938532
Si Si4 0.256781 0.699457 0.329099
Si Si5 0.141342 0.420026 0.738024
O O1 0.500000 0.500000 0.830454
O O2 0.591931 0.286542 0.901285
O O3 0.389398 0.238444 0.844972
O O4 0.616309 0.227493 0.801467
O O5 0.835544 0.825326 0.884461
O O6 0.744996 0.056594 0.935384
O O7 0.842807 0.852872 0.000000
O O8 0.000000 0.000000 0.937067
O O9 0.500000 0.000000 0.921547
O O10 0.573631 0.173763 0.000000
O O11 0.238975 0.542520 0.291487
O O12 0.308664 0.843578 0.293124
O O13 0.000000 0.500000 0.745469
#
# Coordination Sequence:
#
# PCOD9441456 Si02
#       5
#     8   8   8   8   8
#     4  11  21  36  57  87 120 152 200 251 295 360
#     4  10  21  37  62  90 116 155 205 246 299 365
#     4  10  18  36  63  85 113 154 198 247 297 354
#     4  11  21  39  61  86 120 157 198 251 300 362
#     4  10  22  38  57  87 120 157 201 244 307 370
#
# _framework density 18.391652000000001
#
# number of rings (size 3 to 8) (size 9 to 14) (size 15 to 20)
#    0.000    1.600    4.000    1.800    0.000    4.400 
#    3.600    0.000    0.000    0.600    0.000    0.000 
#    0.000    0.000    0.000    0.000    0.000    0.000 
#
# Total GULP energy -222948.650108 kJ/mol
# GULP energy per Si atom -5573.716253 kJ/mol
# Density = 1.834979 g / cm^3
# Si number density = 18.391652 Si / 1000 Ang^3
#
#
#
# Elastic Constant Matrix: (Units=GPa)
#
#
# Indices 1 2 3 4 5 6 
#
# 1 69.8521 7.9615 26.2703 0.0000 0.0000 0.0000
# 2 7.9615 67.9573 43.0715 0.0000 0.0000 0.0000
# 3 26.2703 43.0715 129.0241 0.0000 0.0000 0.0000
# 4 0.0000 0.0000 0.0000 54.1241 0.0000 0.0000
# 5 0.0000 0.0000 0.0000 0.0000 32.0791 0.0000
# 6 0.0000 0.0000 0.0000 0.0000 0.0000 17.9473
#
#
#
# Elastic Compliance Matrix: (Units=1/GPa)
#
#
# Indices 1 2 3 4 5 6 
#
# 1 0.015506 0.000234 -0.003235 0.000000 0.000000 0.000000
# 2 0.000234 0.018668 -0.006279 0.000000 0.000000 0.000000
# 3 -0.003235 -0.006279 0.010505 0.000000 0.000000 0.000000
# 4 0.000000 0.000000 0.000000 0.018476 0.000000 0.000000
# 5 0.000000 0.000000 0.000000 0.000000 0.031173 0.000000
# 6 0.000000 0.000000 0.000000 0.000000 0.000000 0.055719
#
#
# Mechanical properties :
#
#
# Convention : Reuss Voigt Hill
#
# Bulk Modulus (GPa) = 38.28823 46.82667 42.55745
# Shear Modulus (GPa) = 28.19856 33.46543 30.83200
#
# Velocity S-wave (km/s) = 3.91989 4.27030 4.09884
# Velocity P-wave (km/s) = 6.43046 7.05904 6.75207
#
# Compressibility (1/GPa) = 0.02611769
#
# Stress axis : x y z
#
# Youngs Moduli (GPa) = 64.49111 53.56883 95.18906
#
# Poissons Ratio (x) = -0.01253 0.30796
# Poissons Ratio (y) = -0.01508 0.59772
# Poissons Ratio (z) = 0.20864 0.33638
#
# Static dielectric constant tensor:
#      x y z
#    x 1.619450 0.000000 0.000000 
#    y 0.000000 1.645890 0.000000 
#    z 0.000000 0.000000 1.682910 
# 
# From -- ./inp_files/28738.got.cif
#   From: 2010.05.17/outbox.cif.g08.bks.cpg/sg58_15_cif.got.tgz:28738.got - 2010.06.03 14:20:14.
