data_PCOD9441218
_publ_section_title
;
Structure prediction by ZEFSAII (Michael W. Deem and Ramdas Pophale) SiO2 
 PCOD9441218
Probable space group: P N N M
;
_chemical_formula_sum "Si O2"
_cell_formula_units_Z 64
_cell_length_a 19.638815
_cell_length_b 23.784453
_cell_length_c 8.817591
_cell_angle_alpha 90.000000
_cell_angle_beta 90.000000
_cell_angle_gamma 90.000000
_cell_volume 4118.683286
_symmetry_space_group_name_H-M "P N N M"
_symmetry_group_IT_number 58
_symmetry_cell_setting 'orthorhombic'
loop_
_space_group_symop_operation_xyz
x,y,z
-x,-y,z
1/2+x,1/2-y,1/2-z
1/2-x,1/2+y,1/2-z
-x,-y,-z
x,y,-z
1/2-x,1/2+y,1/2+z
1/2+x,1/2-y,1/2+z
loop_
_atom_site_type_symbol
_atom_site_label
_atom_site_fract_x
_atom_site_fract_y
_atom_site_fract_z
Si Si1 0.345819 0.771214 0.318051
Si Si2 0.366885 0.438341 0.317484
Si Si3 0.764523 0.842327 0.818699
Si Si4 0.995848 0.757872 0.183483
Si Si5 0.275475 0.334003 0.681704
Si Si6 0.857293 0.279371 0.817856
Si Si7 0.501321 0.383043 0.181790
Si Si8 0.353163 0.560793 0.818553
O O1 0.342836 0.774903 0.500000
O O2 0.312414 0.711019 0.274593
O O3 0.424560 0.770435 0.271200
O O4 0.297713 0.819072 0.249956
O O5 0.369996 0.438949 0.500000
O O6 0.311030 0.391693 0.269947
O O7 0.439342 0.417827 0.253189
O O8 0.349572 0.499541 0.254917
O O9 0.689502 0.825450 0.762347
O O10 0.795428 0.897498 0.743070
O O11 0.766152 0.847456 0.000000
O O12 0.063462 0.723236 0.224248
O O13 0.999886 0.819830 0.254458
O O14 0.995841 0.764382 0.000000
O O15 0.270010 0.334654 0.500000
O O16 0.325007 0.281654 0.721845
O O17 0.851716 0.285947 0.000000
O O18 0.573541 0.411611 0.220315
O O19 0.494445 0.382305 0.000000
O O20 0.349075 0.556503 0.000000
#
# Coordination Sequence:
#
# PCOD9441218 Si02
#       8
#     8   8   8   8   8   8   8   8
#     4   9  18  30  49  73  98 126 162 203 243 288
#     4  11  22  36  52  70  95 134 174 207 243 290
#     4  10  19  32  50  72  97 128 166 205 243 290
#     4  10  18  32  51  73 100 133 167 198 242 294
#     4   9  18  32  49  69  95 128 163 199 245 290
#     4   9  17  31  50  70  98 129 160 201 245 290
#     4  11  22  33  47  70 101 133 168 206 242 284
#     4  11  23  36  49  70  99 133 170 208 248 289
#
# _framework density 15.538947
#
# number of rings (size 3 to 8) (size 9 to 14) (size 15 to 20)
#    0.000    2.000    2.500    1.875    0.000    5.500 
#    0.000    0.000    0.000    0.000    0.000    0.875 
#    0.000    7.000    0.000    0.000    0.000    0.000 
#
# Total GULP energy -357139.783617 kJ/mol
# GULP energy per Si atom -5580.309119 kJ/mol
# Density = 1.550358 g / cm^3
# Si number density = 15.538947 Si / 1000 Ang^3
#
#
#
# Elastic Constant Matrix: (Units=GPa)
#
#
# Indices 1 2 3 4 5 6 
#
# 1 113.5134 47.8271 29.3135 0.0000 0.0000 0.0000
# 2 47.8271 76.5037 26.2963 0.0000 0.0000 0.0000
# 3 29.3135 26.2963 24.7481 0.0000 0.0000 0.0000
# 4 0.0000 0.0000 0.0000 25.7567 0.0000 0.0000
# 5 0.0000 0.0000 0.0000 0.0000 23.3797 0.0000
# 6 0.0000 0.0000 0.0000 0.0000 0.0000 18.3377
#
#
#
# Elastic Compliance Matrix: (Units=1/GPa)
#
#
# Indices 1 2 3 4 5 6 
#
# 1 0.013687 -0.004701 -0.011217 0.000000 0.000000 0.000000
# 2 -0.004701 0.022207 -0.018028 0.000000 0.000000 0.000000
# 3 -0.011217 -0.018028 0.072848 0.000000 0.000000 0.000000
# 4 0.000000 0.000000 0.000000 0.038825 0.000000 0.000000
# 5 0.000000 0.000000 0.000000 0.000000 0.042772 0.000000
# 6 0.000000 0.000000 0.000000 0.000000 0.000000 0.054533
#
#
# Mechanical properties :
#
#
# Convention : Reuss Voigt Hill
#
# Bulk Modulus (GPa) = 24.47898 46.84877 35.66388
# Shear Modulus (GPa) = 15.31961 20.91671 18.11816
#
# Velocity S-wave (km/s) = 3.14329 3.67288 3.41835
# Velocity P-wave (km/s) = 5.38156 6.94273 6.21139
#
# Compressibility (1/GPa) = 0.04085137
#
# Stress axis : x y z
#
# Youngs Moduli (GPa) = 73.06326 45.03134 13.72713
#
# Poissons Ratio (x) = 0.21169 0.15397
# Poissons Ratio (y) = 0.34347 0.24747
# Poissons Ratio (z) = 0.81952 0.81181
#
# Static dielectric constant tensor:
#      x y z
#    x 1.521130 0.000000 0.000000 
#    y 0.000000 1.488290 0.000000 
#    z 0.000000 0.000000 1.519300 
# 
# From -- ./inp_files/8276.got.cif
#   From: 2010.05.17/outbox.cif.g08.bks.cpg/sg58_5_cif.got.tgz:8276.got - 2010.06.03 14:20:14.
