data_PCOD9441854
_publ_section_title
;
Structure prediction by ZEFSAII (Michael W. Deem and Ramdas Pophale) SiO2 
 PCOD9441854
Probable space group: P N N M
;
_chemical_formula_sum "Si O2"
_cell_formula_units_Z 64
_cell_length_a 21.166346
_cell_length_b 12.780892
_cell_length_c 13.184488
_cell_angle_alpha 90.000000
_cell_angle_beta 90.000000
_cell_angle_gamma 90.000000
_cell_volume 3566.730745
_symmetry_space_group_name_H-M "P N N M"
_symmetry_group_IT_number 58
_symmetry_cell_setting 'orthorhombic'
loop_
_space_group_symop_operation_xyz
x,y,z
-x,-y,z
1/2+x,1/2-y,1/2-z
1/2-x,1/2+y,1/2-z
-x,-y,-z
x,y,-z
1/2-x,1/2+y,1/2+z
1/2+x,1/2-y,1/2+z
loop_
_atom_site_type_symbol
_atom_site_label
_atom_site_fract_x
_atom_site_fract_y
_atom_site_fract_z
Si Si1 0.232777 0.819968 0.686840
Si Si2 0.648480 0.309323 0.619216
Si Si3 0.683837 0.456199 0.196163
Si Si4 0.784761 0.307083 0.112318
Si Si5 0.908556 0.419283 0.191366
Si Si6 0.453507 0.858813 0.378960
Si Si7 0.106092 0.716081 0.383519
Si Si8 0.442016 0.433712 0.878293
O O1 0.297235 0.776865 0.640661
O O2 0.218800 0.777358 0.799185
O O3 0.175761 0.768401 0.622253
O O4 0.229798 0.943896 0.696907
O O5 0.648768 0.338583 0.500000
O O6 0.666414 0.402919 0.696185
O O7 0.582741 0.249598 0.643656
O O8 0.720597 0.372680 0.128096
O O9 0.620448 0.502942 0.149543
O O10 0.846371 0.378724 0.133158
O O11 0.788499 0.263154 0.000000
O O12 0.920261 0.542644 0.176551
O O13 0.899358 0.380292 0.306950
O O14 0.972657 0.364722 0.149742
O O15 0.447543 0.876606 0.500000
O O16 0.091648 0.689559 0.500000
O O17 0.062758 0.812958 0.345121
O O18 0.500000 0.500000 0.836852
O O19 0.446518 0.428245 0.000000
#
# Coordination Sequence:
#
# PCOD9441854 Si02
#       8
#     8   8   8   8   8   8   8   8
#     4   9  19  34  51  75 102 135 166 211 257 310
#     4  10  21  35  54  77 106 141 176 217 266 316
#     4  10  20  34  54  78 106 134 174 218 264 312
#     4  10  19  32  53  78 101 130 169 214 258 303
#     4  10  19  32  53  75 102 136 173 216 261 306
#     4  10  20  34  51  74 102 134 175 218 260 314
#     4   9  18  32  51  75 100 130 172 211 254 312
#     4   9  18  32  52  76 102 137 173 211 261 313
#
# _framework density 17.943601999999998
#
# number of rings (size 3 to 8) (size 9 to 14) (size 15 to 20)
#    0.000    2.375    0.000    3.000    1.750    3.000 
#    0.000    1.250    0.000    8.625    0.000    0.000 
#    0.000    0.000    0.000    0.000    0.000    0.000 
#
# Total GULP energy -356651.572606 kJ/mol
# GULP energy per Si atom -5572.680822 kJ/mol
# Density = 1.790276 g / cm^3
# Si number density = 17.943602 Si / 1000 Ang^3
#
#
#
# Elastic Constant Matrix: (Units=GPa)
#
#
# Indices 1 2 3 4 5 6 
#
# 1 40.1637 -11.2134 -5.1118 0.0000 0.0000 0.0000
# 2 -11.2134 24.7889 -1.2579 0.0000 0.0000 0.0000
# 3 -5.1118 -1.2579 58.5333 0.0000 0.0000 0.0000
# 4 0.0000 0.0000 0.0000 10.7738 0.0000 0.0000
# 5 0.0000 0.0000 0.0000 0.0000 16.7650 0.0000
# 6 0.0000 0.0000 0.0000 0.0000 0.0000 17.7201
#
#
#
# Elastic Compliance Matrix: (Units=1/GPa)
#
#
# Indices 1 2 3 4 5 6 
#
# 1 0.028953 0.013240 0.002813 0.000000 0.000000 0.000000
# 2 0.013240 0.046439 0.002154 0.000000 0.000000 0.000000
# 3 0.002813 0.002154 0.017376 0.000000 0.000000 0.000000
# 4 0.000000 0.000000 0.000000 0.092818 0.000000 0.000000
# 5 0.000000 0.000000 0.000000 0.000000 0.059648 0.000000
# 6 0.000000 0.000000 0.000000 0.000000 0.000000 0.056433
#
#
# Mechanical properties :
#
#
# Convention : Reuss Voigt Hill
#
# Bulk Modulus (GPa) = 7.74107 9.81331 8.77719
# Shear Modulus (GPa) = 16.21725 18.45637 17.33681
#
# Velocity S-wave (km/s) = 3.00957 3.21062 3.11172
# Velocity P-wave (km/s) = 4.04971 4.38463 4.22049
#
# Compressibility (1/GPa) = 0.12918112
#
# Stress axis : x y z
#
# Youngs Moduli (GPa) = 34.53933 21.53367 57.54983
#
# Poissons Ratio (x) = -0.28510 -0.16189
# Poissons Ratio (y) = -0.45729 -0.12397
# Poissons Ratio (z) = -0.09716 -0.04639
#
# Static dielectric constant tensor:
#      x y z
#    x 1.639450 0.000000 0.000000 
#    y 0.000000 1.615010 0.000000 
#    z 0.000000 0.000000 1.601770 
# 
# From -- ./inp_files/14807.got.cif
#   From: 2010.05.17/outbox.cif.g08.bks.cpg/sg58_8_cif.got.tgz:14807.got - 2010.06.03 14:20:14.
