data_PCOD9441575
_publ_section_title
;
Structure prediction by ZEFSAII (Michael W. Deem and Ramdas Pophale) SiO2 
 PCOD9441575
Probable space group: P N N M
;
_chemical_formula_sum "Si O2"
_cell_formula_units_Z 56
_cell_length_a 20.662557
_cell_length_b 17.725193
_cell_length_c 9.147377
_cell_angle_alpha 90.000000
_cell_angle_beta 90.000000
_cell_angle_gamma 90.000000
_cell_volume 3350.206800
_symmetry_space_group_name_H-M "P N N M"
_symmetry_group_IT_number 58
_symmetry_cell_setting 'orthorhombic'
loop_
_space_group_symop_operation_xyz
x,y,z
-x,-y,z
1/2+x,1/2-y,1/2-z
1/2-x,1/2+y,1/2-z
-x,-y,-z
x,y,-z
1/2-x,1/2+y,1/2+z
1/2+x,1/2-y,1/2+z
loop_
_atom_site_type_symbol
_atom_site_label
_atom_site_fract_x
_atom_site_fract_y
_atom_site_fract_z
Si Si1 0.652226 0.965564 0.675256
Si Si2 0.599897 0.131361 0.324958
Si Si3 0.877156 0.795108 0.174792
Si Si4 0.487398 0.622214 0.830871
Si Si5 0.104561 0.973801 0.670112
Si Si6 0.973288 0.413941 0.667146
Si Si7 0.211592 0.064299 0.824452
O O1 0.654519 0.957960 0.500000
O O2 0.592846 0.917853 0.742011
O O3 0.719252 0.942443 0.748789
O O4 0.636846 0.053726 0.710584
O O5 0.589368 0.130605 0.500000
O O6 0.636688 0.208489 0.285411
O O7 0.530673 0.130965 0.245421
O O8 0.946922 0.818433 0.238522
O O9 0.824527 0.857625 0.220614
O O10 0.880600 0.800051 0.000000
O O11 0.558649 0.595434 0.781554
O O12 0.442620 0.546928 0.827364
O O13 0.492046 0.645897 0.000000
O O14 0.123354 0.962230 0.500000
O O15 0.165284 0.996726 0.767769
O O16 0.962699 0.389556 0.500000
O O17 0.000000 0.500000 0.664038
O O18 0.217054 0.062404 0.000000
#
# Coordination Sequence:
#
# PCOD9441575 Si02
#       7
#     8   8   8   8   8   8   8
#     4  10  19  32  52  73  96 129 166 202 242 291
#     4   9  18  33  52  73  97 126 161 199 244 296
#     4   9  18  31  48  71  99 129 160 200 248 295
#     4   8  14  25  43  66  91 120 157 198 234 276
#     4   8  14  26  43  64  91 122 158 196 232 279
#     4   9  17  30  50  76  99 118 149 196 243 284
#     4  10  19  30  47  72 100 130 166 205 246 290
#
# _framework density 16.715385999999999
#
# number of rings (size 3 to 8) (size 9 to 14) (size 15 to 20)
#    0.000    3.000    0.000    2.143    0.000    4.000 
#    0.000    2.857    3.143    0.000    0.000    0.000 
#    0.000    0.000    0.000    0.000    0.000    0.000 
#
# Total GULP energy -311746.250282 kJ/mol
# GULP energy per Si atom -5566.897326 kJ/mol
# Density = 1.667734 g / cm^3
# Si number density = 16.715386 Si / 1000 Ang^3
#
#
#
# Elastic Constant Matrix: (Units=GPa)
#
#
# Indices 1 2 3 4 5 6 
#
# 1 122.9643 38.8656 53.0633 0.0000 0.0000 0.0000
# 2 38.8656 65.3660 27.2427 0.0000 0.0000 0.0000
# 3 53.0633 27.2427 49.7665 0.0000 0.0000 0.0000
# 4 0.0000 0.0000 0.0000 13.3591 0.0000 0.0000
# 5 0.0000 0.0000 0.0000 0.0000 29.9933 0.0000
# 6 0.0000 0.0000 0.0000 0.0000 0.0000 13.6046
#
#
#
# Elastic Compliance Matrix: (Units=1/GPa)
#
#
# Indices 1 2 3 4 5 6 
#
# 1 0.015510 -0.003018 -0.014885 0.000000 0.000000 0.000000
# 2 -0.003018 0.020408 -0.007953 0.000000 0.000000 0.000000
# 3 -0.014885 -0.007953 0.040319 0.000000 0.000000 0.000000
# 4 0.000000 0.000000 0.000000 0.074855 0.000000 0.000000
# 5 0.000000 0.000000 0.000000 0.000000 0.033341 0.000000
# 6 0.000000 0.000000 0.000000 0.000000 0.000000 0.073505
#
#
# Mechanical properties :
#
#
# Convention : Reuss Voigt Hill
#
# Bulk Modulus (GPa) = 40.77777 52.93777 46.85777
# Shear Modulus (GPa) = 15.73196 19.31976 17.52586
#
# Velocity S-wave (km/s) = 3.07117 3.40340 3.24155
# Velocity P-wave (km/s) = 6.08477 6.86899 6.48874
#
# Compressibility (1/GPa) = 0.02452316
#
# Stress axis : x y z
#
# Youngs Moduli (GPa) = 64.47520 49.00101 24.80238
#
# Poissons Ratio (x) = 0.14790 0.36919
# Poissons Ratio (y) = 0.19460 0.19726
# Poissons Ratio (z) = 0.95972 0.38972
#
# Static dielectric constant tensor:
#      x y z
#    x 1.549320 0.000000 0.000000 
#    y 0.000000 1.593390 0.000000 
#    z 0.000000 0.000000 1.559160 
# 
# From -- ./inp_files/9177.got.cif
#   From: 2010.05.17/outbox.cif.g08.bks.cpg/sg58_5_cif.got.tgz:9177.got - 2010.06.03 14:20:14.
