data_PCOD9441429
_publ_section_title
;
Structure prediction by ZEFSAII (Michael W. Deem and Ramdas Pophale) SiO2 
 PCOD9441429
Probable space group: P N N M
;
_chemical_formula_sum "Si O2"
_cell_formula_units_Z 64
_cell_length_a 11.204378
_cell_length_b 18.914856
_cell_length_c 15.913491
_cell_angle_alpha 90.000000
_cell_angle_beta 90.000000
_cell_angle_gamma 90.000000
_cell_volume 3372.533360
_symmetry_space_group_name_H-M "P N N M"
_symmetry_group_IT_number 58
_symmetry_cell_setting 'orthorhombic'
loop_
_space_group_symop_operation_xyz
x,y,z
-x,-y,z
1/2+x,1/2-y,1/2-z
1/2-x,1/2+y,1/2-z
-x,-y,-z
x,y,-z
1/2-x,1/2+y,1/2+z
1/2+x,1/2-y,1/2+z
loop_
_atom_site_type_symbol
_atom_site_label
_atom_site_fract_x
_atom_site_fract_y
_atom_site_fract_z
Si Si1 0.968994 0.922234 0.868671
Si Si2 0.219980 0.197004 0.903662
Si Si3 0.859386 0.771121 0.403965
Si Si4 0.553846 0.800919 0.211277
Si Si5 0.667901 0.558022 0.099129
Si Si6 0.833512 0.183995 0.827503
Si Si7 0.585162 0.413074 0.825359
Si Si8 0.852718 0.654762 0.182453
O O1 0.871785 0.868514 0.906426
O O2 0.924981 0.930608 0.772262
O O3 0.091120 0.878517 0.865957
O O4 0.000000 0.000000 0.902458
O O5 0.326983 0.178139 0.838933
O O6 0.161724 0.269616 0.866098
O O7 0.260517 0.210933 0.000000
O O8 0.887628 0.789153 0.500000
O O9 0.735599 0.729738 0.396147
O O10 0.850043 0.840559 0.346585
O O11 0.962240 0.724384 0.360855
O O12 0.583986 0.733846 0.270011
O O13 0.483793 0.852258 0.276115
O O14 0.550916 0.594826 0.140356
O O15 0.650662 0.477427 0.128458
O O16 0.791561 0.594191 0.126665
O O17 0.655129 0.562919 0.000000
O O18 0.733962 0.157248 0.763006
#
# Coordination Sequence:
#
# PCOD9441429 Si02
#       8
#     8   8   8   8   8   8   8   8
#     4  12  21  39  64  87 117 157 199 249 306 358
#     4  11  23  37  58  90 122 154 205 262 302 344
#     4  11  21  33  58  86 118 154 191 246 298 345
#     4  10  19  37  60  82 116 158 207 239 285 364
#     4  11  20  30  55  94 130 154 190 245 298 357
#     4  10  19  36  54  86 113 149 199 242 289 359
#     4  11  18  35  55  89 125 157 196 233 295 368
#     4  10  18  35  58  84 121 163 195 236 296 366
#
# _framework density 18.976834
#
# number of rings (size 3 to 8) (size 9 to 14) (size 15 to 20)
#    0.000    1.250    5.000    4.500    0.000    0.750 
#    0.000    0.000    0.000   12.000    0.000   13.125 
#    0.000    0.000    0.000    0.000    0.000    0.000 
#
# Total GULP energy -356976.077956 kJ/mol
# GULP energy per Si atom -5577.751218 kJ/mol
# Density = 1.893364 g / cm^3
# Si number density = 18.976834 Si / 1000 Ang^3
#
#
#
# Elastic Constant Matrix: (Units=GPa)
#
#
# Indices 1 2 3 4 5 6 
#
# 1 48.6226 36.3532 19.8515 0.0000 0.0000 0.0000
# 2 36.3532 84.8939 8.5352 0.0000 0.0000 0.0000
# 3 19.8515 8.5352 86.3526 0.0000 0.0000 0.0000
# 4 0.0000 0.0000 0.0000 12.9572 0.0000 0.0000
# 5 0.0000 0.0000 0.0000 0.0000 29.3988 0.0000
# 6 0.0000 0.0000 0.0000 0.0000 0.0000 27.2825
#
#
#
# Elastic Compliance Matrix: (Units=1/GPa)
#
#
# Indices 1 2 3 4 5 6 
#
# 1 0.033348 -0.013645 -0.006318 0.000000 0.000000 0.000000
# 2 -0.013645 0.017481 0.001409 0.000000 0.000000 0.000000
# 3 -0.006318 0.001409 0.012894 0.000000 0.000000 0.000000
# 4 0.000000 0.000000 0.000000 0.077177 0.000000 0.000000
# 5 0.000000 0.000000 0.000000 0.000000 0.034015 0.000000
# 6 0.000000 0.000000 0.000000 0.000000 0.000000 0.036654
#
#
# Mechanical properties :
#
#
# Convention : Reuss Voigt Hill
#
# Bulk Modulus (GPa) = 37.57294 38.81655 38.19474
# Shear Modulus (GPa) = 19.41401 24.26965 21.84183
#
# Velocity S-wave (km/s) = 3.20197 3.58006 3.39628
# Velocity P-wave (km/s) = 5.78900 6.13093 5.96241
#
# Compressibility (1/GPa) = 0.02661490
#
# Stress axis : x y z
#
# Youngs Moduli (GPa) = 29.98717 57.20580 77.55844
#
# Poissons Ratio (x) = 0.78057 0.48998
# Poissons Ratio (y) = 0.40917 -0.10928
# Poissons Ratio (z) = 0.18945 -0.08060
#
# Static dielectric constant tensor:
#      x y z
#    x 1.686210 0.000000 0.000000 
#    y 0.000000 1.671430 0.000000 
#    z 0.000000 0.000000 1.674150 
# 
# From -- ./inp_files/21494.got.cif
#   From: 2010.05.17/outbox.cif.g08.bks.cpg/sg58_11_cif.got.tgz:21494.got - 2010.06.03 14:20:14.
