data_PCOD9441244
_publ_section_title
;
Structure prediction by ZEFSAII (Michael W. Deem and Ramdas Pophale) SiO2 
 PCOD9441244
Probable space group: P N N M
;
_chemical_formula_sum "Si O2"
_cell_formula_units_Z 64
_cell_length_a 19.249153
_cell_length_b 20.651790
_cell_length_c 7.337267
_cell_angle_alpha 90.000000
_cell_angle_beta 90.000000
_cell_angle_gamma 90.000000
_cell_volume 2916.779828
_symmetry_space_group_name_H-M "P N N M"
_symmetry_group_IT_number 58
_symmetry_cell_setting 'orthorhombic'
loop_
_space_group_symop_operation_xyz
x,y,z
-x,-y,z
1/2+x,1/2-y,1/2-z
1/2-x,1/2+y,1/2-z
-x,-y,-z
x,y,-z
1/2-x,1/2+y,1/2+z
1/2+x,1/2-y,1/2+z
loop_
_atom_site_type_symbol
_atom_site_label
_atom_site_fract_x
_atom_site_fract_y
_atom_site_fract_z
Si Si1 0.797312 0.147183 0.287518
Si Si2 0.449826 0.318231 0.222314
Si Si3 0.199818 0.090488 0.277831
Si Si4 0.293663 0.973484 0.720920
Si Si5 0.542953 0.202935 0.222738
Si Si6 0.691006 0.261814 0.219958
Si Si7 0.547002 0.057018 0.211857
Si Si8 0.455486 0.561508 0.778186
O O1 0.808762 0.131546 0.500000
O O2 0.873359 0.162764 0.211845
O O3 0.754875 0.085817 0.213532
O O4 0.749120 0.210287 0.274471
O O5 0.479521 0.248787 0.278845
O O6 0.505092 0.373076 0.275142
O O7 0.448090 0.317418 0.000000
O O8 0.200094 0.091038 0.500000
O O9 0.205493 0.164970 0.218158
O O10 0.124528 0.063138 0.221118
O O11 0.260015 0.041367 0.220694
O O12 0.294185 0.972138 0.500000
O O13 0.372362 0.962214 0.779631
O O14 0.615691 0.235685 0.279800
O O15 0.538578 0.129281 0.288158
O O16 0.544611 0.202177 0.000000
O O17 0.689441 0.263277 0.000000
O O18 0.500000 0.000000 0.292493
O O19 0.526322 0.062728 0.000000
O O20 0.500000 0.500000 0.717327
O O21 0.454849 0.560011 0.000000
#
# Coordination Sequence:
#
# PCOD9441244 Si02
#       8
#     8   8   8   8   8   8   8   8
#     4  10  20  32  50  78 108 135 164 207 262 312
#     4   9  16  27  45  72 100 126 161 206 253 294
#     4   9  17  29  47  74 103 132 167 205 249 304
#     4  10  20  34  51  76 111 141 165 204 262 322
#     4   9  16  30  51  72  96 129 170 215 254 293
#     4  10  18  32  54  73  96 136 178 210 248 302
#     4  10  21  36  55  77  99 132 182 225 255 295
#     4   9  14  22  40  67  98 127 156 195 241 290
#
# _framework density 21.942004000000001
#
# number of rings (size 3 to 8) (size 9 to 14) (size 15 to 20)
#    0.000    2.500    2.500    0.750    0.000    4.250 
#    0.000    1.875    0.000    1.500    0.000    0.000 
#    0.000    3.500    0.000    0.000    0.000    0.000 
#
# Total GULP energy -357605.370116 kJ/mol
# GULP energy per Si atom -5587.583908 kJ/mol
# Density = 2.189206 g / cm^3
# Si number density = 21.942004 Si / 1000 Ang^3
#
#
#
# Elastic Constant Matrix: (Units=GPa)
#
#
# Indices 1 2 3 4 5 6 
#
# 1 111.4121 66.7790 -8.1925 0.0000 0.0000 0.0000
# 2 66.7790 191.1599 -2.5144 0.0000 0.0000 0.0000
# 3 -8.1925 -2.5144 81.0998 0.0000 0.0000 0.0000
# 4 0.0000 0.0000 0.0000 -5.3333 0.0000 0.0000
# 5 0.0000 0.0000 0.0000 0.0000 -4.5381 0.0000
# 6 0.0000 0.0000 0.0000 0.0000 0.0000 42.7074
#
#
#
# Elastic Compliance Matrix: (Units=1/GPa)
#
#
# Indices 1 2 3 4 5 6 
#
# 1 0.011439 -0.003982 0.001032 0.000000 0.000000 0.000000
# 2 -0.003982 0.006620 -0.000197 0.000000 0.000000 0.000000
# 3 0.001032 -0.000197 0.012429 0.000000 0.000000 0.000000
# 4 0.000000 0.000000 0.000000 -0.187503 0.000000 0.000000
# 5 0.000000 0.000000 0.000000 0.000000 -0.220356 0.000000
# 6 0.000000 0.000000 0.000000 0.000000 0.000000 0.023415
#
#
# Mechanical properties :
#
#
# Convention : Reuss Voigt Hill
#
# Bulk Modulus (GPa) = 41.33549 55.09066 48.21308
# Shear Modulus (GPa) = -14.72329 28.40719 6.84195
#
# Velocity S-wave (km/s) = -2.59319 3.60203 1.76776
# Velocity P-wave (km/s) = 3.14852 6.51624 5.11735
#
# Compressibility (1/GPa) = 0.02419228
#
# Stress axis : x y z
#
# Youngs Moduli (GPa) = 87.42398 151.06219 80.45939
#
# Poissons Ratio (x) = 0.60158 -0.08304
# Poissons Ratio (y) = 0.34815 0.01585
# Poissons Ratio (z) = -0.09022 0.02977
#
# Static dielectric constant tensor:
#      x y z
#    x 1.740140 0.000000 0.000000 
#    y 0.000000 1.774810 0.000000 
#    z 0.000000 0.000000 1.876740 
# 
# From -- ./inp_files/8291.got.cif
#   From: 2010.05.17/outbox.cif.g08.bks.cpg/sg58_5_cif.got.tgz:8291.got - 2010.06.03 14:20:14.
