data_PCOD9441536
_publ_section_title
;
Structure prediction by ZEFSAII (Michael W. Deem and Ramdas Pophale) SiO2 
 PCOD9441536
Probable space group: P N N M
;
_chemical_formula_sum "Si O2"
_cell_formula_units_Z 56
_cell_length_a 19.277934
_cell_length_b 21.435099
_cell_length_c 7.577722
_cell_angle_alpha 90.000000
_cell_angle_beta 90.000000
_cell_angle_gamma 90.000000
_cell_volume 3131.299807
_symmetry_space_group_name_H-M "P N N M"
_symmetry_group_IT_number 58
_symmetry_cell_setting 'orthorhombic'
loop_
_space_group_symop_operation_xyz
x,y,z
-x,-y,z
1/2+x,1/2-y,1/2-z
1/2-x,1/2+y,1/2-z
-x,-y,-z
x,y,-z
1/2-x,1/2+y,1/2+z
1/2+x,1/2-y,1/2+z
loop_
_atom_site_type_symbol
_atom_site_label
_atom_site_fract_x
_atom_site_fract_y
_atom_site_fract_z
Si Si1 0.576847 0.993030 0.294532
Si Si2 0.337205 0.123931 0.286469
Si Si3 0.143458 0.376905 0.290600
Si Si4 0.773324 0.195143 0.288927
Si Si5 0.430049 0.748455 0.782688
Si Si6 0.698501 0.322448 0.201343
Si Si7 0.086624 0.754122 0.289718
O O1 0.566751 0.975705 0.500000
O O2 0.615284 0.058989 0.285755
O O3 0.500000 0.000000 0.215195
O O4 0.623699 0.937355 0.219328
O O5 0.331378 0.121180 0.500000
O O6 0.258465 0.134126 0.218151
O O7 0.382613 0.185146 0.244283
O O8 0.134437 0.380393 0.500000
O O9 0.224119 0.363010 0.251111
O O10 0.100042 0.316163 0.227630
O O11 0.772066 0.205302 0.500000
O O12 0.735830 0.254563 0.201185
O O13 0.853209 0.198151 0.229133
O O14 0.376520 0.694770 0.721466
O O15 0.508692 0.739958 0.720833
O O16 0.428349 0.748221 0.000000
O O17 0.686889 0.343251 0.000000
O O18 0.081018 0.761713 0.500000
#
# Coordination Sequence:
#
# PCOD9441536 Si02
#       7
#     8   8   8   8   8   8   8
#     4  10  20  31  42  60  87 115 142 173 207 242
#     4   9  17  28  41  58  82 112 140 166 200 240
#     4  10  19  30  44  60  82 114 146 173 201 240
#     4   9  16  26  41  60  82 106 132 166 206 245
#     4   8  14  25  41  61  82 103 131 167 204 240
#     4   8  14  26  42  58  79 107 137 167 200 243
#     4   9  16  26  42  63  84 106 132 165 205 245
#
# _framework density 17.883946999999999
#
# number of rings (size 3 to 8) (size 9 to 14) (size 15 to 20)
#    0.000    3.000    0.000    2.571    0.000    1.429 
#    0.000    2.857    0.000    0.000    0.000    1.000 
#    0.000    8.000    0.000    0.000    0.000    0.000 
#
# Total GULP energy -311801.340164 kJ/mol
# GULP energy per Si atom -5567.881074 kJ/mol
# Density = 1.784324 g / cm^3
# Si number density = 17.883947 Si / 1000 Ang^3
#
#
#
# Elastic Constant Matrix: (Units=GPa)
#
#
# Indices 1 2 3 4 5 6 
#
# 1 175.9291 62.5492 -7.6803 0.0000 0.0000 0.0000
# 2 62.5492 68.4456 -10.7482 0.0000 0.0000 0.0000
# 3 -7.6803 -10.7482 39.2804 0.0000 0.0000 0.0000
# 4 0.0000 0.0000 0.0000 -55.5085 0.0000 0.0000
# 5 0.0000 0.0000 0.0000 0.0000 9.3974 0.0000
# 6 0.0000 0.0000 0.0000 0.0000 0.0000 25.7856
#
#
#
# Elastic Compliance Matrix: (Units=1/GPa)
#
#
# Indices 1 2 3 4 5 6 
#
# 1 0.008428 -0.007778 -0.000480 0.000000 0.000000 0.000000
# 2 -0.007778 0.022443 0.004620 0.000000 0.000000 0.000000
# 3 -0.000480 0.004620 0.026628 0.000000 0.000000 0.000000
# 4 0.000000 0.000000 0.000000 -0.018015 0.000000 0.000000
# 5 0.000000 0.000000 0.000000 0.000000 0.106412 0.000000
# 6 0.000000 0.000000 0.000000 0.000000 0.000000 0.038781
#
#
# Mechanical properties :
#
#
# Convention : Reuss Voigt Hill
#
# Bulk Modulus (GPa) = 19.91037 41.32181 30.61609
# Shear Modulus (GPa) = 23.95841 11.90387 17.93114
#
# Velocity S-wave (km/s) = 3.66411 2.58276 3.16988
# Velocity P-wave (km/s) = 5.39056 5.66126 5.52757
#
# Compressibility (1/GPa) = 0.05022508
#
# Stress axis : x y z
#
# Youngs Moduli (GPa) = 118.64633 44.55651 37.55389
#
# Poissons Ratio (x) = 0.34655 0.01804
# Poissons Ratio (y) = 0.92280 -0.17351
# Poissons Ratio (z) = 0.05698 -0.20587
#
# Static dielectric constant tensor:
#      x y z
#    x 1.676640 0.000000 0.000000 
#    y 0.000000 1.579580 0.000000 
#    z 0.000000 0.000000 1.668740 
# 
# From -- ./inp_files/8115.got.cif
#   From: 2010.05.17/outbox.cif.g08.bks.cpg/sg58_5_cif.got.tgz:8115.got - 2010.06.03 14:20:14.
