data_PCOD9441708
_publ_section_title
;
Structure prediction by ZEFSAII (Michael W. Deem and Ramdas Pophale) SiO2 
 PCOD9441708
Probable space group: P N N M
;
_chemical_formula_sum "Si O2"
_cell_formula_units_Z 58
_cell_length_a 17.569982
_cell_length_b 9.459724
_cell_length_c 13.925842
_cell_angle_alpha 90.000000
_cell_angle_beta 90.000000
_cell_angle_gamma 90.000000
_cell_volume 2314.574934
_symmetry_space_group_name_H-M "P N N M"
_symmetry_group_IT_number 58
_symmetry_cell_setting 'orthorhombic'
loop_
_space_group_symop_operation_xyz
x,y,z
-x,-y,z
1/2+x,1/2-y,1/2-z
1/2-x,1/2+y,1/2-z
-x,-y,-z
x,y,-z
1/2-x,1/2+y,1/2+z
1/2+x,1/2-y,1/2+z
loop_
_atom_site_type_symbol
_atom_site_label
_atom_site_fract_x
_atom_site_fract_y
_atom_site_fract_z
Si Si1 0.866621 0.112336 0.606218
Si Si2 0.107995 0.979543 0.110874
Si Si3 0.000000 0.500000 0.000000
Si Si4 0.282390 0.899350 0.106742
Si Si5 0.818811 0.350754 0.721560
Si Si6 0.475840 0.207000 0.680750
Si Si7 0.990745 0.670857 0.607569
Si Si8 0.153103 0.151236 0.719688
O O1 0.834454 0.096197 0.500000
O O2 0.812186 0.191967 0.681165
O O3 0.936823 0.221898 0.602395
O O4 0.887594 0.959589 0.648459
O O5 0.191243 0.904097 0.117073
O O6 0.048486 0.866981 0.152921
O O7 0.120799 0.118274 0.175066
O O8 0.092831 0.010383 0.000000
O O9 0.998322 0.622963 0.086588
O O10 0.316065 0.053799 0.126051
O O11 0.330849 0.802742 0.176169
O O12 0.294519 0.848947 0.000000
O O13 0.895137 0.362999 0.783226
O O14 0.743253 0.396314 0.776837
O O15 0.526635 0.201902 0.778016
O O16 0.955042 0.696792 0.500000
O O17 0.000000 0.500000 0.608098
#
# Coordination Sequence:
#
# PCOD9441708 Si02
#       8
#     8   8   2   8   8   8   8   8
#     4  10  19  31  51  77 106 139 185 228 272 339
#     4  10  19  33  51  73 113 153 190 234 289 338
#     4  12  24  32  62  88 114 148 216 250 316 324
#     4  10  20  32  52  79 113 158 188 223 295 370
#     4  10  19  34  50  72 116 151 184 227 291 343
#     4  11  19  35  53  82 113 147 190 249 284 347
#     4   9  17  30  50  77 105 132 170 233 294 324
#     4  11  18  32  50  79 110 153 189 226 275 351
#
# _framework density 25.058596000000001
#
# number of rings (size 3 to 8) (size 9 to 14) (size 15 to 20)
#    0.000    1.793    5.517    1.655    0.000    1.103 
#    1.241    0.000    1.517    0.000    0.000    9.655 
#    0.000   24.276    0.000    0.000    0.000    0.000 
#
# Total GULP energy -323154.539695 kJ/mol
# GULP energy per Si atom -5571.629995 kJ/mol
# Density = 2.500156 g / cm^3
# Si number density = 25.058596 Si / 1000 Ang^3
#
#
#
# Elastic Constant Matrix: (Units=GPa)
#
#
# Indices 1 2 3 4 5 6 
#
# 1 77.6574 -16.0139 26.6660 0.0000 0.0000 0.0000
# 2 -16.0139 48.8256 28.8899 0.0000 0.0000 0.0000
# 3 26.6660 28.8899 221.1254 0.0000 0.0000 0.0000
# 4 0.0000 0.0000 0.0000 32.2269 0.0000 0.0000
# 5 0.0000 0.0000 0.0000 0.0000 43.3983 0.0000
# 6 0.0000 0.0000 0.0000 0.0000 0.0000 32.3795
#
#
#
# Elastic Compliance Matrix: (Units=1/GPa)
#
#
# Indices 1 2 3 4 5 6 
#
# 1 0.015151 0.006557 -0.002684 0.000000 0.000000 0.000000
# 2 0.006557 0.025035 -0.004062 0.000000 0.000000 0.000000
# 3 -0.002684 -0.004062 0.005377 0.000000 0.000000 0.000000
# 4 0.000000 0.000000 0.000000 0.031030 0.000000 0.000000
# 5 0.000000 0.000000 0.000000 0.000000 0.023042 0.000000
# 6 0.000000 0.000000 0.000000 0.000000 0.000000 0.030884
#
#
# Mechanical properties :
#
#
# Convention : Reuss Voigt Hill
#
# Bulk Modulus (GPa) = 22.13074 47.41027 34.77050
# Shear Modulus (GPa) = 34.25674 42.13869 38.19771
#
# Velocity S-wave (km/s) = 3.70140 4.10519 3.90851
# Velocity P-wave (km/s) = 5.20748 6.43669 5.85443
#
# Compressibility (1/GPa) = 0.04518602
#
# Stress axis : x y z
#
# Youngs Moduli (GPa) = 66.00311 39.94424 185.99109
#
# Poissons Ratio (x) = -0.26192 0.49916
# Poissons Ratio (y) = -0.43279 0.75541
# Poissons Ratio (z) = 0.17714 0.16224
#
# Static dielectric constant tensor:
#      x y z
#    x 2.156430 0.000000 0.000000 
#    y 0.000000 1.026030 0.000000 
#    z 0.000000 0.000000 1.991080 
# 
# From -- ./inp_files/23492.got.cif
#   From: 2010.05.17/outbox.cif.g08.bks.cpg/sg58_12_cif.got.tgz:23492.got - 2010.06.03 14:20:14.
