data_PCOD9441350
_publ_section_title
;
Structure prediction by ZEFSAII (Michael W. Deem and Ramdas Pophale) SiO2 
 PCOD9441350
Probable space group: P N N M
;
_chemical_formula_sum "Si O2"
_cell_formula_units_Z 56
_cell_length_a 9.801609
_cell_length_b 22.335346
_cell_length_c 13.938439
_cell_angle_alpha 90.000000
_cell_angle_beta 90.000000
_cell_angle_gamma 90.000000
_cell_volume 3051.435520
_symmetry_space_group_name_H-M "P N N M"
_symmetry_group_IT_number 58
_symmetry_cell_setting 'orthorhombic'
loop_
_space_group_symop_operation_xyz
x,y,z
-x,-y,z
1/2+x,1/2-y,1/2-z
1/2-x,1/2+y,1/2-z
-x,-y,-z
x,y,-z
1/2-x,1/2+y,1/2+z
1/2+x,1/2-y,1/2+z
loop_
_atom_site_type_symbol
_atom_site_label
_atom_site_fract_x
_atom_site_fract_y
_atom_site_fract_z
Si Si1 0.902353 0.441425 0.608191
Si Si2 0.970198 0.882641 0.615181
Si Si3 0.776551 0.774276 0.384058
Si Si4 0.231276 0.543916 0.808422
Si Si5 0.661023 0.137765 0.888467
Si Si6 0.763452 0.594293 0.802492
Si Si7 0.034252 0.644935 0.113608
O O1 0.844930 0.441087 0.500000
O O2 0.799009 0.443906 0.696210
O O3 0.000000 0.500000 0.615943
O O4 0.004723 0.384987 0.618875
O O5 0.964434 0.887275 0.500000
O O6 0.891891 0.821847 0.645525
O O7 0.881649 0.936066 0.660671
O O8 0.124344 0.884661 0.649934
O O9 0.772390 0.776814 0.500000
O O10 0.814057 0.706570 0.360146
O O11 0.629469 0.799873 0.351737
O O12 0.207727 0.474400 0.829466
O O13 0.127012 0.586399 0.866097
O O14 0.744321 0.098523 0.812705
O O15 0.700001 0.129459 0.000000
O O16 0.891265 0.634583 0.834595
O O17 0.010943 0.650845 0.000000
#
# Coordination Sequence:
#
# PCOD9441350 Si02
#       7
#     8   8   8   8   8   8   8
#     4  10  18  33  58  86 113 144 190 245 289 335
#     4  10  23  40  56  79 119 159 191 235 289 343
#     4   8  18  38  58  77 108 151 188 228 291 351
#     4  11  20  36  54  82 115 150 194 230 283 346
#     4  10  20  36  60  83 111 148 185 236 297 343
#     4  12  22  33  55  87 113 147 193 237 281 343
#     4  10  20  34  55  81 111 143 187 239 279 333
#
# _framework density 18.352018000000001
#
# number of rings (size 3 to 8) (size 9 to 14) (size 15 to 20)
#    0.000    1.857    2.857    2.571    0.000    4.571 
#    0.000    0.714    0.000    1.714    0.000    0.000 
#    0.000    0.000    0.000    0.000    0.000    0.000 
#
# Total GULP energy -312390.415895 kJ/mol
# GULP energy per Si atom -5578.400284 kJ/mol
# Density = 1.831025 g / cm^3
# Si number density = 18.352018 Si / 1000 Ang^3
#
#
#
# Elastic Constant Matrix: (Units=GPa)
#
#
# Indices 1 2 3 4 5 6 
#
# 1 114.0213 33.6270 33.0876 0.0000 0.0000 0.0000
# 2 33.6270 83.4415 5.7461 0.0000 0.0000 0.0000
# 3 33.0876 5.7461 68.6733 0.0000 0.0000 0.0000
# 4 0.0000 0.0000 0.0000 22.1719 0.0000 0.0000
# 5 0.0000 0.0000 0.0000 0.0000 22.2140 0.0000
# 6 0.0000 0.0000 0.0000 0.0000 0.0000 18.0354
#
#
#
# Elastic Compliance Matrix: (Units=1/GPa)
#
#
# Indices 1 2 3 4 5 6 
#
# 1 0.011547 -0.004295 -0.005204 0.000000 0.000000 0.000000
# 2 -0.004295 0.013652 0.000927 0.000000 0.000000 0.000000
# 3 -0.005204 0.000927 0.016992 0.000000 0.000000 0.000000
# 4 0.000000 0.000000 0.000000 0.045102 0.000000 0.000000
# 5 0.000000 0.000000 0.000000 0.000000 0.045017 0.000000
# 6 0.000000 0.000000 0.000000 0.000000 0.000000 0.055446
#
#
# Mechanical properties :
#
#
# Convention : Reuss Voigt Hill
#
# Bulk Modulus (GPa) = 39.92654 45.67307 42.79981
# Shear Modulus (GPa) = 23.44684 25.39597 24.42140
#
# Velocity S-wave (km/s) = 3.57825 3.72401 3.65186
# Velocity P-wave (km/s) = 6.23498 6.59032 6.41511
#
# Compressibility (1/GPa) = 0.02504600
#
# Stress axis : x y z
#
# Youngs Moduli (GPa) = 86.60103 73.25180 58.85274
#
# Poissons Ratio (x) = 0.31463 0.30628
# Poissons Ratio (y) = 0.37197 -0.05457
# Poissons Ratio (z) = 0.45069 -0.06792
#
# Static dielectric constant tensor:
#      x y z
#    x 1.615450 0.000000 0.000000 
#    y 0.000000 1.656950 0.000000 
#    z 0.000000 0.000000 1.647460 
# 
# From -- ./inp_files/20143.got.cif
#   From: 2010.05.17/outbox.cif.g08.bks.cpg/sg58_11_cif.got.tgz:20143.got - 2010.06.03 14:20:14.
