data_PCOD9441837
_publ_section_title
;
Structure prediction by ZEFSAII (Michael W. Deem and Ramdas Pophale) SiO2 
 PCOD9441837
Probable space group: P N N M
;
_chemical_formula_sum "Si O2"
_cell_formula_units_Z 40
_cell_length_a 12.846894
_cell_length_b 21.088809
_cell_length_c 8.861707
_cell_angle_alpha 90.000000
_cell_angle_beta 90.000000
_cell_angle_gamma 90.000000
_cell_volume 2400.864117
_symmetry_space_group_name_H-M "P N N M"
_symmetry_group_IT_number 58
_symmetry_cell_setting 'orthorhombic'
loop_
_space_group_symop_operation_xyz
x,y,z
-x,-y,z
1/2+x,1/2-y,1/2-z
1/2-x,1/2+y,1/2-z
-x,-y,-z
x,y,-z
1/2-x,1/2+y,1/2+z
1/2+x,1/2-y,1/2+z
loop_
_atom_site_type_symbol
_atom_site_label
_atom_site_fract_x
_atom_site_fract_y
_atom_site_fract_z
Si Si1 0.511797 0.926025 0.679081
Si Si2 0.680971 0.836814 0.820009
Si Si3 0.839372 0.660110 0.678382
Si Si4 0.396014 0.692017 0.820713
Si Si5 0.386819 0.297712 0.319179
O O1 0.528325 0.919385 0.500000
O O2 0.607574 0.893453 0.765244
O O3 0.408621 0.887849 0.727261
O O4 0.500000 0.000000 0.715671
O O5 0.798055 0.841701 0.756904
O O6 0.634220 0.771709 0.751046
O O7 0.681081 0.832147 0.000000
O O8 0.852734 0.646906 0.500000
O O9 0.878240 0.732326 0.703898
O O10 0.716557 0.661359 0.714000
O O11 0.506999 0.675691 0.749329
O O12 0.394701 0.681200 0.000000
O O13 0.394660 0.291188 0.500000
#
# Coordination Sequence:
#
# PCOD9441837 Si02
#       5
#     8   8   8   8   8
#     4  11  23  37  54  76 105 141 181 224 265 310
#     4  11  21  33  51  76 106 141 178 215 264 315
#     4   9  19  33  50  76 106 137 175 213 259 317
#     4  10  19  32  52  79 109 138 171 214 266 318
#     4  10  19  32  52  78 109 138 170 216 265 316
#
# _framework density 16.660668999999999
#
# number of rings (size 3 to 8) (size 9 to 14) (size 15 to 20)
#    0.000    1.800    2.000    4.800    0.000    5.600 
#    0.000    0.000    0.000    1.200    0.000    8.400 
#    0.000    0.000    0.000    0.000    0.000    0.000 
#
# Total GULP energy -223320.159292 kJ/mol
# GULP energy per Si atom -5583.003982 kJ/mol
# Density = 1.662275 g / cm^3
# Si number density = 16.660669 Si / 1000 Ang^3
#
#
#
# Elastic Constant Matrix: (Units=GPa)
#
#
# Indices 1 2 3 4 5 6 
#
# 1 151.7557 38.1918 69.0489 0.0000 0.0000 0.0000
# 2 38.1918 55.1196 49.5262 0.0000 0.0000 0.0000
# 3 69.0489 49.5262 98.2136 0.0000 0.0000 0.0000
# 4 0.0000 0.0000 0.0000 16.3027 0.0000 0.0000
# 5 0.0000 0.0000 0.0000 0.0000 35.8276 0.0000
# 6 0.0000 0.0000 0.0000 0.0000 0.0000 13.8200
#
#
#
# Elastic Compliance Matrix: (Units=1/GPa)
#
#
# Indices 1 2 3 4 5 6 
#
# 1 0.009724 -0.001088 -0.006288 0.000000 0.000000 0.000000
# 2 -0.001088 0.033295 -0.016025 0.000000 0.000000 0.000000
# 3 -0.006288 -0.016025 0.022684 0.000000 0.000000 0.000000
# 4 0.000000 0.000000 0.000000 0.061339 0.000000 0.000000
# 5 0.000000 0.000000 0.000000 0.000000 0.027911 0.000000
# 6 0.000000 0.000000 0.000000 0.000000 0.000000 0.072359
#
#
# Mechanical properties :
#
#
# Convention : Reuss Voigt Hill
#
# Bulk Modulus (GPa) = 52.90669 68.73584 60.82126
# Shear Modulus (GPa) = 17.83075 23.07819 20.45447
#
# Velocity S-wave (km/s) = 3.27499 3.72585 3.50767
# Velocity P-wave (km/s) = 6.79155 7.73661 7.27943
#
# Compressibility (1/GPa) = 0.01890120
#
# Stress axis : x y z
#
# Youngs Moduli (GPa) = 102.83364 30.03481 44.08489
#
# Poissons Ratio (x) = 0.03268 0.27721
# Poissons Ratio (y) = 0.11188 0.70644
# Poissons Ratio (z) = 0.64663 0.48130
#
# Static dielectric constant tensor:
#      x y z
#    x 1.579770 0.000000 0.000000 
#    y 0.000000 1.526510 0.000000 
#    z 0.000000 0.000000 1.551650 
# 
# From -- ./inp_files/3767.got.cif
#   From: 2010.05.17/outbox.cif.g08.bks.cpg/sg58_2_cif.got.tgz:3767.got - 2010.06.03 14:20:14.
