data_PCOD9441070
_publ_section_title
;
Structure prediction by ZEFSAII (Michael W. Deem and Ramdas Pophale) SiO2 
 PCOD9441070
Probable space group: P N N M
;
_chemical_formula_sum "Si O2"
_cell_formula_units_Z 64
_cell_length_a 33.324092
_cell_length_b 8.279870
_cell_length_c 12.279116
_cell_angle_alpha 90.000000
_cell_angle_beta 90.000000
_cell_angle_gamma 90.000000
_cell_volume 3388.043245
_symmetry_space_group_name_H-M "P N N M"
_symmetry_group_IT_number 58
_symmetry_cell_setting 'orthorhombic'
loop_
_space_group_symop_operation_xyz
x,y,z
-x,-y,z
1/2+x,1/2-y,1/2-z
1/2-x,1/2+y,1/2-z
-x,-y,-z
x,y,-z
1/2-x,1/2+y,1/2+z
1/2+x,1/2-y,1/2+z
loop_
_atom_site_type_symbol
_atom_site_label
_atom_site_fract_x
_atom_site_fract_y
_atom_site_fract_z
Si Si1 0.833835 0.386093 0.125395
Si Si2 0.404688 0.334110 0.302005
Si Si3 0.724760 0.646221 0.730764
Si Si4 0.437194 0.673081 0.624731
Si Si5 0.848493 0.006053 0.628840
Si Si6 0.715022 0.320152 0.378684
Si Si7 0.980446 0.324616 0.871237
Si Si8 0.640056 0.212143 0.727337
O O1 0.868633 0.251624 0.134008
O O2 0.793912 0.297839 0.166829
O O3 0.845866 0.530013 0.207295
O O4 0.830680 0.442389 0.000000
O O5 0.422995 0.489650 0.362292
O O6 0.384873 0.401108 0.190686
O O7 0.441636 0.210174 0.298790
O O8 0.691873 0.581472 0.818104
O O9 0.730232 0.498926 0.648200
O O10 0.764282 0.701462 0.792937
O O11 0.432663 0.727761 0.500000
O O12 0.483557 0.699897 0.652499
O O13 0.406495 0.774712 0.697597
O O14 0.849274 0.024934 0.500000
O O15 0.851574 0.816923 0.664494
O O16 0.725504 0.272856 0.500000
O O17 0.667218 0.312412 0.359985
O O18 0.000000 0.500000 0.855738
O O19 0.969210 0.311137 0.000000
#
# Coordination Sequence:
#
# PCOD9441070 Si02
#       8
#     8   8   8   8   8   8   8   8
#     4  11  20  34  54  80 114 141 170 213 264 321
#     4  10  20  32  53  79 106 141 180 216 263 321
#     4  10  22  36  55  83 107 141 182 217 266 323
#     4  10  18  30  49  75 108 141 174 212 261 319
#     4   9  20  40  59  76 103 140 186 234 272 308
#     4  11  21  37  56  77 109 140 176 222 267 316
#     4  10  19  30  48  78 115 148 175 212 267 327
#     4  10  21  34  54  79 103 138 178 216 265 320
#
# _framework density 18.889961
#
# number of rings (size 3 to 8) (size 9 to 14) (size 15 to 20)
#    0.000    1.875    0.000    5.625    0.000    2.000 
#    0.000   11.250    0.000    6.375    0.000    0.000 
#    0.000    0.000    0.000    0.000    0.000    0.000 
#
# Total GULP energy -357176.857518 kJ/mol
# GULP energy per Si atom -5580.888399 kJ/mol
# Density = 1.884697 g / cm^3
# Si number density = 18.889961 Si / 1000 Ang^3
#
#
#
# Elastic Constant Matrix: (Units=GPa)
#
#
# Indices 1 2 3 4 5 6 
#
# 1 67.2784 2.7405 23.2445 0.0000 0.0000 0.0000
# 2 2.7405 74.7751 11.9950 0.0000 0.0000 0.0000
# 3 23.2445 11.9950 71.8840 0.0000 0.0000 0.0000
# 4 0.0000 0.0000 0.0000 16.9733 0.0000 0.0000
# 5 0.0000 0.0000 0.0000 0.0000 15.8543 0.0000
# 6 0.0000 0.0000 0.0000 0.0000 0.0000 34.0935
#
#
#
# Elastic Compliance Matrix: (Units=1/GPa)
#
#
# Indices 1 2 3 4 5 6 
#
# 1 0.016738 0.000262 -0.005456 0.000000 0.000000 0.000000
# 2 0.000262 0.013745 -0.002378 0.000000 0.000000 0.000000
# 3 -0.005456 -0.002378 0.016072 0.000000 0.000000 0.000000
# 4 0.000000 0.000000 0.000000 0.058916 0.000000 0.000000
# 5 0.000000 0.000000 0.000000 0.000000 0.063074 0.000000
# 6 0.000000 0.000000 0.000000 0.000000 0.000000 0.029331
#
#
# Mechanical properties :
#
#
# Convention : Reuss Voigt Hill
#
# Bulk Modulus (GPa) = 31.83636 32.21082 32.02359
# Shear Modulus (GPa) = 22.37211 25.11474 23.74343
#
# Velocity S-wave (km/s) = 3.44516 3.65023 3.54917
# Velocity P-wave (km/s) = 5.71976 5.90376 5.81249
#
# Compressibility (1/GPa) = 0.03141062
#
# Stress axis : x y z
#
# Youngs Moduli (GPa) = 59.74422 72.75187 62.21824
#
# Poissons Ratio (x) = -0.01905 0.33947
# Poissons Ratio (y) = -0.01564 0.14797
# Poissons Ratio (z) = 0.32597 0.17303
#
# Static dielectric constant tensor:
#      x y z
#    x 1.666930 0.000000 0.000000 
#    y 0.000000 1.722280 0.000000 
#    z 0.000000 0.000000 1.605680 
# 
# From -- ./inp_files/18012.got.cif
#   From: 2010.05.17/outbox.cif.g08.bks.cpg/sg58_10_cif.got.tgz:18012.got - 2010.06.03 14:20:14.
