data_PCOD9441427
_publ_section_title
;
Structure prediction by ZEFSAII (Michael W. Deem and Ramdas Pophale) SiO2 
 PCOD9441427
Probable space group: P N N M
;
_chemical_formula_sum "Si O2"
_cell_formula_units_Z 48
_cell_length_a 9.170171
_cell_length_b 16.203330
_cell_length_c 17.559470
_cell_angle_alpha 90.000000
_cell_angle_beta 90.000000
_cell_angle_gamma 90.000000
_cell_volume 2609.114357
_symmetry_space_group_name_H-M "P N N M"
_symmetry_group_IT_number 58
_symmetry_cell_setting 'orthorhombic'
loop_
_space_group_symop_operation_xyz
x,y,z
-x,-y,z
1/2+x,1/2-y,1/2-z
1/2-x,1/2+y,1/2-z
-x,-y,-z
x,y,-z
1/2-x,1/2+y,1/2+z
1/2+x,1/2-y,1/2+z
loop_
_atom_site_type_symbol
_atom_site_label
_atom_site_fract_x
_atom_site_fract_y
_atom_site_fract_z
Si Si1 0.072132 0.084815 0.863100
Si Si2 0.660858 0.830604 0.909928
Si Si3 0.054131 0.740955 0.914998
Si Si4 0.467732 0.409496 0.187656
Si Si5 0.622907 0.245894 0.140466
Si Si6 0.815913 0.686652 0.811731
O O1 0.244723 0.091496 0.880636
O O2 0.001471 0.165323 0.901752
O O3 0.034061 0.092477 0.773413
O O4 0.000000 0.000000 0.890143
O O5 0.489522 0.821251 0.893269
O O6 0.731580 0.756146 0.861033
O O7 0.684659 0.821188 0.000000
O O8 0.226176 0.744125 0.902950
O O9 0.971551 0.683123 0.853788
O O10 0.015785 0.714427 0.000000
O O11 0.500000 0.500000 0.156066
O O12 0.544228 0.334810 0.143308
O O13 0.294924 0.389894 0.190695
O O14 0.659444 0.218837 0.226663
#
# Coordination Sequence:
#
# PCOD9441427 Si02
#       6
#     8   8   8   8   8   8
#     4  10  19  34  55  82 113 148 188 228 283 345
#     4  10  20  33  54  82 114 151 188 231 283 340
#     4  11  21  34  58  86 113 149 186 231 287 343
#     4  10  20  35  59  85 109 141 191 242 287 330
#     4  11  19  36  58  83 113 148 192 237 276 336
#     4  10  18  35  58  80 108 148 191 232 276 336
#
# _framework density 18.397047000000001
#
# number of rings (size 3 to 8) (size 9 to 14) (size 15 to 20)
#    0.000    1.667    5.000    3.500    0.000    1.333 
#    0.000    1.667    0.000   21.000    0.000    0.000 
#    0.000    0.000    0.000    0.000    0.000    0.000 
#
# Total GULP energy -267507.023762 kJ/mol
# GULP energy per Si atom -5573.062995 kJ/mol
# Density = 1.835517 g / cm^3
# Si number density = 18.397047 Si / 1000 Ang^3
#
#
#
# Elastic Constant Matrix: (Units=GPa)
#
#
# Indices 1 2 3 4 5 6 
#
# 1 114.5431 38.6624 -1.6593 0.0000 0.0000 0.0000
# 2 38.6624 83.4477 0.4359 0.0000 0.0000 0.0000
# 3 -1.6593 0.4359 56.5647 0.0000 0.0000 0.0000
# 4 0.0000 0.0000 0.0000 8.1118 0.0000 0.0000
# 5 0.0000 0.0000 0.0000 0.0000 16.9954 0.0000
# 6 0.0000 0.0000 0.0000 0.0000 0.0000 28.0952
#
#
#
# Elastic Compliance Matrix: (Units=1/GPa)
#
#
# Indices 1 2 3 4 5 6 
#
# 1 0.010355 -0.004800 0.000341 0.000000 0.000000 0.000000
# 2 -0.004800 0.014209 -0.000250 0.000000 0.000000 0.000000
# 3 0.000341 -0.000250 0.017691 0.000000 0.000000 0.000000
# 4 0.000000 0.000000 0.000000 0.123277 0.000000 0.000000
# 5 0.000000 0.000000 0.000000 0.000000 0.058839 0.000000
# 6 0.000000 0.000000 0.000000 0.000000 0.000000 0.035593
#
#
# Mechanical properties :
#
#
# Convention : Reuss Voigt Hill
#
# Bulk Modulus (GPa) = 30.45391 36.60373 33.52882
# Shear Modulus (GPa) = 17.83624 25.11491 21.47558
#
# Velocity S-wave (km/s) = 3.11708 3.69882 3.42034
# Velocity P-wave (km/s) = 5.43549 6.17911 5.81919
#
# Compressibility (1/GPa) = 0.03283651
#
# Stress axis : x y z
#
# Youngs Moduli (GPa) = 96.56905 70.38017 56.52661
#
# Poissons Ratio (x) = 0.33779 -0.01926
# Poissons Ratio (y) = 0.46349 0.01415
# Poissons Ratio (z) = -0.03291 0.01761
#
# Static dielectric constant tensor:
#      x y z
#    x 1.710940 0.000000 0.000000 
#    y 0.000000 1.635270 0.000000 
#    z 0.000000 0.000000 1.624630 
# 
# From -- ./inp_files/25412.got.cif
#   From: 2010.05.17/outbox.cif.g08.bks.cpg/sg58_13_cif.got.tgz:25412.got - 2010.06.03 14:20:14.
