data_PCOD9441586
_publ_section_title
;
Structure prediction by ZEFSAII (Michael W. Deem and Ramdas Pophale) SiO2 
 PCOD9441586
Probable space group: P N N M
;
_chemical_formula_sum "Si O2"
_cell_formula_units_Z 48
_cell_length_a 37.715192
_cell_length_b 7.042326
_cell_length_c 7.938096
_cell_angle_alpha 90.000000
_cell_angle_beta 90.000000
_cell_angle_gamma 90.000000
_cell_volume 2108.379550
_symmetry_space_group_name_H-M "P N N M"
_symmetry_group_IT_number 58
_symmetry_cell_setting 'orthorhombic'
loop_
_space_group_symop_operation_xyz
x,y,z
-x,-y,z
1/2+x,1/2-y,1/2-z
1/2-x,1/2+y,1/2-z
-x,-y,-z
x,y,-z
1/2-x,1/2+y,1/2+z
1/2+x,1/2-y,1/2+z
loop_
_atom_site_type_symbol
_atom_site_label
_atom_site_fract_x
_atom_site_fract_y
_atom_site_fract_z
Si Si1 0.343881 0.389297 0.500000
Si Si2 0.470552 0.275490 0.809896
Si Si3 0.821355 0.677960 0.000000
Si Si4 0.096464 0.392795 0.000000
Si Si5 0.300964 0.314478 0.812102
Si Si6 0.949775 0.673406 0.309896
Si Si7 0.575570 0.663074 0.500000
Si Si8 0.222641 0.252525 0.689840
O O1 0.324922 0.593043 0.500000
O O2 0.330283 0.285122 0.668174
O O3 0.385596 0.425215 0.500000
O O4 0.512640 0.275741 0.775558
O O5 0.447406 0.372859 0.666504
O O6 0.459652 0.051926 0.809469
O O7 0.464291 0.345549 0.000000
O O8 0.799617 0.634136 0.169699
O O9 0.861352 0.607261 0.000000
O O10 0.079297 0.299776 0.833772
O O11 0.083801 0.610966 0.000000
O O12 0.262765 0.236260 0.755749
O O13 0.293733 0.541834 0.821120
O O14 0.311105 0.251013 0.000000
O O15 0.937854 0.719280 0.500000
O O16 0.222865 0.332590 0.500000
#
# Coordination Sequence:
#
# PCOD9441586 Si02
#       8
#     4   8   4   4   8   8   4   8
#     4  10  22  37  49  71 106 138 162 196 253 309
#     4   8  14  26  46  72 100 128 161 206 254 290
#     4  10  22  37  49  71 106 138 162 196 253 309
#     4  10  19  30  48  74 100 128 168 208 240 289
#     4  10  20  35  56  77  97 125 164 207 251 300
#     4   8  14  26  46  72 100 128 161 206 254 290
#     4  10  19  30  48  74 100 128 168 208 240 289
#     4  10  20  35  56  77  97 125 164 207 251 300
#
# _framework density 22.766300000000001
#
# number of rings (size 3 to 8) (size 9 to 14) (size 15 to 20)
#    0.000    2.667    1.667    1.500    0.000    4.667 
#    0.000    0.000    0.000    2.000    0.000    2.333 
#    0.000    0.000    0.000    0.000    0.000    0.000 
#
# Total GULP energy -268429.744713 kJ/mol
# GULP energy per Si atom -5592.286348 kJ/mol
# Density = 2.271448 g / cm^3
# Si number density = 22.766300 Si / 1000 Ang^3
#
#
#
# Elastic Constant Matrix: (Units=GPa)
#
#
# Indices 1 2 3 4 5 6 
#
# 1 144.9141 8.1370 129.1683 0.0000 0.0000 0.0000
# 2 8.1370 62.5577 16.3910 0.0000 0.0000 0.0000
# 3 129.1683 16.3910 238.0421 0.0000 0.0000 0.0000
# 4 0.0000 0.0000 0.0000 7.0622 0.0000 0.0000
# 5 0.0000 0.0000 0.0000 0.0000 -4.5930 0.0000
# 6 0.0000 0.0000 0.0000 0.0000 0.0000 24.3654
#
#
#
# Elastic Compliance Matrix: (Units=1/GPa)
#
#
# Indices 1 2 3 4 5 6 
#
# 1 0.013366 0.000165 -0.007264 0.000000 0.000000 0.000000
# 2 0.000165 0.016281 -0.001210 0.000000 0.000000 0.000000
# 3 -0.007264 -0.001210 0.008226 0.000000 0.000000 0.000000
# 4 0.000000 0.000000 0.000000 0.141599 0.000000 0.000000
# 5 0.000000 0.000000 0.000000 0.000000 -0.217725 0.000000
# 6 0.000000 0.000000 0.000000 0.000000 0.000000 0.041042
#
#
# Mechanical properties :
#
#
# Convention : Reuss Voigt Hill
#
# Bulk Modulus (GPa) = 47.05127 83.65627 65.35377
# Shear Modulus (GPa) = 188.72430 24.82144 106.77287
#
# Velocity S-wave (km/s) = 9.11462 3.30551 6.85575
# Velocity P-wave (km/s) = 11.46649 7.16896 9.56228
#
# Compressibility (1/GPa) = 0.02125341
#
# Stress axis : x y z
#
# Youngs Moduli (GPa) = 74.81444 61.42141 121.56409
#
# Poissons Ratio (x) = -0.01012 0.88308
# Poissons Ratio (y) = -0.01233 0.14715
# Poissons Ratio (z) = 0.54348 0.07435
#
# Static dielectric constant tensor:
#      x y z
#    x 1.760050 0.000000 0.000000 
#    y 0.000000 1.958640 0.000000 
#    z 0.000000 0.000000 1.832960 
# 
# From -- ./inp_files/10825.got.cif
#   From: 2010.05.17/outbox.cif.g08.bks.cpg/sg58_6_cif.got.tgz:10825.got - 2010.06.03 14:20:14.
