data_PCOD9441420
_publ_section_title
;
Structure prediction by ZEFSAII (Michael W. Deem and Ramdas Pophale) SiO2 
 PCOD9441420
Probable space group: P N N M
;
_chemical_formula_sum "Si O2"
_cell_formula_units_Z 52
_cell_length_a 7.752411
_cell_length_b 18.049169
_cell_length_c 14.578085
_cell_angle_alpha 90.000000
_cell_angle_beta 90.000000
_cell_angle_gamma 90.000000
_cell_volume 2039.832367
_symmetry_space_group_name_H-M "P N N M"
_symmetry_group_IT_number 58
_symmetry_cell_setting 'orthorhombic'
loop_
_space_group_symop_operation_xyz
x,y,z
-x,-y,z
1/2+x,1/2-y,1/2-z
1/2-x,1/2+y,1/2-z
-x,-y,-z
x,y,-z
1/2-x,1/2+y,1/2+z
1/2+x,1/2-y,1/2+z
loop_
_atom_site_type_symbol
_atom_site_label
_atom_site_fract_x
_atom_site_fract_y
_atom_site_fract_z
Si Si1 0.113302 0.888332 0.000000
Si Si2 0.317622 0.141528 0.353139
Si Si3 0.302027 0.484468 0.831901
Si Si4 0.207207 0.323403 0.142782
Si Si5 0.298374 0.005271 0.874300
Si Si6 0.162454 0.663740 0.632408
Si Si7 0.285336 0.795555 0.861663
O O1 0.124609 0.824326 0.081060
O O2 0.169840 0.949920 0.077828
O O3 0.270095 0.058370 0.380909
O O4 0.508900 0.163362 0.381834
O O5 0.324082 0.150191 0.242064
O O6 0.191031 0.208057 0.380109
O O7 0.500000 0.500000 0.811711
O O8 0.289762 0.403708 0.877337
O O9 0.206592 0.485709 0.733669
O O10 0.271130 0.244522 0.105805
O O11 0.231401 0.311163 0.253358
O O12 0.244559 0.089450 0.900967
O O13 0.500000 0.000000 0.900536
O O14 0.959886 0.663422 0.607540
#
# Coordination Sequence:
#
# PCOD9441420 Si02
#       7
#     4   8   8   8   8   8   8
#     4  12  21  34  59  78 121 158 191 222 256 348
#     4   9  19  33  53  78 108 143 187 236 288 331
#     4  11  20  33  56  85 114 141 184 245 290 329
#     4  10  18  35  56  78 111 141 188 240 287 332
#     4  11  20  35  52  80 112 158 195 218 270 329
#     4   9  18  30  50  77 107 143 188 237 271 319
#     4  10  19  32  52  80 108 150 193 221 277 322
#
# _framework density 25.492291000000002
#
# number of rings (size 3 to 8) (size 9 to 14) (size 15 to 20)
#    0.000    1.846    3.077    3.462    0.000    3.692 
#    0.000    0.385    0.000    0.923    0.000    8.077 
#    0.000    0.000    0.000    0.000    0.000    0.000 
#
# Total GULP energy -289672.259924 kJ/mol
# GULP energy per Si atom -5570.620383 kJ/mol
# Density = 2.543427 g / cm^3
# Si number density = 25.492291 Si / 1000 Ang^3
#
#
#
# Elastic Constant Matrix: (Units=GPa)
#
#
# Indices 1 2 3 4 5 6 
#
# 1 65.9872 21.8571 -4.0956 0.0000 0.0000 0.0000
# 2 21.8571 246.0298 -3.0093 0.0000 0.0000 0.0000
# 3 -4.0956 -3.0093 65.9589 0.0000 0.0000 0.0000
# 4 0.0000 0.0000 0.0000 2.9680 0.0000 0.0000
# 5 0.0000 0.0000 0.0000 0.0000 -85.9575 0.0000
# 6 0.0000 0.0000 0.0000 0.0000 0.0000 44.1008
#
#
#
# Elastic Compliance Matrix: (Units=1/GPa)
#
#
# Indices 1 2 3 4 5 6 
#
# 1 0.015668 -0.001381 0.000910 0.000000 0.000000 0.000000
# 2 -0.001381 0.004189 0.000105 0.000000 0.000000 0.000000
# 3 0.000910 0.000105 0.015222 0.000000 0.000000 0.000000
# 4 0.000000 0.000000 0.000000 0.336929 0.000000 0.000000
# 5 0.000000 0.000000 0.000000 0.000000 -0.011634 0.000000
# 6 0.000000 0.000000 0.000000 0.000000 0.000000 0.022675
#
#
# Mechanical properties :
#
#
# Convention : Reuss Voigt Hill
#
# Bulk Modulus (GPa) = 29.11386 45.27559 37.19472
# Shear Modulus (GPa) = 12.65085 16.43718 14.54401
#
# Velocity S-wave (km/s) = 2.23011 2.54203 2.39116
# Velocity P-wave (km/s) = 4.25166 5.13955 4.71654
#
# Compressibility (1/GPa) = 0.03434790
#
# Stress axis : x y z
#
# Youngs Moduli (GPa) = 63.82309 238.74846 65.69330
#
# Poissons Ratio (x) = 0.32967 -0.05977
# Poissons Ratio (y) = 0.08813 -0.00692
# Poissons Ratio (z) = -0.05807 -0.02515
#
# Static dielectric constant tensor:
#      x y z
#    x 2.039400 0.000000 0.000000 
#    y 0.000000 2.061580 0.000000 
#    z 0.000000 0.000000 2.060800 
# 
# From -- ./inp_files/25479.got.cif
#   From: 2010.05.17/outbox.cif.g08.bks.cpg/sg58_13_cif.got.tgz:25479.got - 2010.06.03 14:20:14.
