data_PCOD9441416
_publ_section_title
;
Structure prediction by ZEFSAII (Michael W. Deem and Ramdas Pophale) SiO2 
 PCOD9441416
Probable space group: P N N M
;
_chemical_formula_sum "Si O2"
_cell_formula_units_Z 48
_cell_length_a 11.520722
_cell_length_b 14.544345
_cell_length_c 13.773679
_cell_angle_alpha 90.000000
_cell_angle_beta 90.000000
_cell_angle_gamma 90.000000
_cell_volume 2307.936322
_symmetry_space_group_name_H-M "P N N M"
_symmetry_group_IT_number 58
_symmetry_cell_setting 'orthorhombic'
loop_
_space_group_symop_operation_xyz
x,y,z
-x,-y,z
1/2+x,1/2-y,1/2-z
1/2-x,1/2+y,1/2-z
-x,-y,-z
x,y,-z
1/2-x,1/2+y,1/2+z
1/2+x,1/2-y,1/2+z
loop_
_atom_site_type_symbol
_atom_site_label
_atom_site_fract_x
_atom_site_fract_y
_atom_site_fract_z
Si Si1 0.716285 0.633742 0.690330
Si Si2 0.061375 0.899069 0.000000
Si Si3 0.636481 0.979317 0.293775
Si Si4 0.159766 0.238505 0.000000
Si Si5 0.267725 0.688418 0.712264
Si Si6 0.987488 0.890602 0.296149
Si Si7 0.524680 0.608186 0.000000
Si Si8 0.793052 0.560405 0.000000
O O1 0.647433 0.614711 0.591503
O O2 0.796716 0.549787 0.722710
O O3 0.783428 0.727518 0.712406
O O4 0.610902 0.646562 0.765601
O O5 0.000000 0.000000 0.000000
O O6 0.957238 0.823738 0.000000
O O7 0.685643 0.001305 0.402397
O O8 0.500000 0.000000 0.294671
O O9 0.667294 0.878132 0.253355
O O10 0.231582 0.217952 0.099284
O O11 0.127906 0.347405 0.000000
O O12 0.386273 0.631158 0.723012
O O13 0.967275 0.853680 0.403696
O O14 0.000000 0.000000 0.299048
O O15 0.500000 0.500000 0.000000
O O16 0.664333 0.605300 0.000000
#
# Coordination Sequence:
#
# PCOD9441416 Si02
#       8
#     8   4   8   4   8   8   4   4
#     4  12  25  45  69 105 143 184 249 307 362 436
#     4  12  26  46  81 104 139 197 267 314 356 441
#     4  12  27  46  70 105 152 193 236 303 377 443
#     4  12  24  45  78 105 138 193 256 301 374 430
#     4  12  26  43  74 104 145 190 247 304 370 439
#     4  11  20  41  66  96 134 182 240 304 355 422
#     4  10  18  34  68  94 132 175 228 291 364 417
#     4  12  23  47  69 106 144 192 240 301 371 451
#
# _framework density 20.797802000000001
#
# number of rings (size 3 to 8) (size 9 to 14) (size 15 to 20)
#    0.000    0.333    6.667    2.750    4.667    1.333 
#    0.000    1.667    0.000    0.000    0.000    0.000 
#    0.000    0.000    0.000    0.000    0.000    0.000 
#
# Total GULP energy -267909.150095 kJ/mol
# GULP energy per Si atom -5581.440627 kJ/mol
# Density = 2.075046 g / cm^3
# Si number density = 20.797802 Si / 1000 Ang^3
#
#
#
# Elastic Constant Matrix: (Units=GPa)
#
#
# Indices 1 2 3 4 5 6 
#
# 1 58.6639 -2.8773 24.8381 0.0000 0.0000 0.0000
# 2 -2.8773 71.3796 48.8322 0.0000 0.0000 0.0000
# 3 24.8381 48.8322 172.5879 0.0000 0.0000 0.0000
# 4 0.0000 0.0000 0.0000 27.5138 0.0000 0.0000
# 5 0.0000 0.0000 0.0000 0.0000 35.6814 0.0000
# 6 0.0000 0.0000 0.0000 0.0000 0.0000 32.0497
#
#
#
# Elastic Compliance Matrix: (Units=1/GPa)
#
#
# Indices 1 2 3 4 5 6 
#
# 1 0.018732 0.003223 -0.003608 0.000000 0.000000 0.000000
# 2 0.003223 0.017927 -0.005536 0.000000 0.000000 0.000000
# 3 -0.003608 -0.005536 0.007880 0.000000 0.000000 0.000000
# 4 0.000000 0.000000 0.000000 0.036345 0.000000 0.000000
# 5 0.000000 0.000000 0.000000 0.000000 0.028026 0.000000
# 6 0.000000 0.000000 0.000000 0.000000 0.000000 0.031202
#
#
# Mechanical properties :
#
#
# Convention : Reuss Voigt Hill
#
# Bulk Modulus (GPa) = 30.58370 49.35750 39.97060
# Shear Modulus (GPa) = 30.70278 34.50488 32.60383
#
# Velocity S-wave (km/s) = 3.84637 4.07758 3.96366
# Velocity P-wave (km/s) = 5.87054 6.77882 6.34097
#
# Compressibility (1/GPa) = 0.03269716
#
# Stress axis : x y z
#
# Youngs Moduli (GPa) = 53.38495 55.78207 126.90729
#
# Poissons Ratio (x) = -0.17980 0.45786
# Poissons Ratio (y) = -0.17207 0.70258
# Poissons Ratio (z) = 0.19260 0.30882
#
# Static dielectric constant tensor:
#      x y z
#    x 1.756780 0.000000 0.000000 
#    y 0.000000 2.230560 0.000000 
#    z 0.000000 0.000000 1.803170 
# 
# From -- ./inp_files/21219.got.cif
#   From: 2010.05.17/outbox.cif.g08.bks.cpg/sg58_11_cif.got.tgz:21219.got - 2010.06.03 14:20:14.
