data_PCOD9441839
_publ_section_title
;
Structure prediction by ZEFSAII (Michael W. Deem and Ramdas Pophale) SiO2 
 PCOD9441839
Probable space group: P N N M
;
_chemical_formula_sum "Si O2"
_cell_formula_units_Z 40
_cell_length_a 28.872187
_cell_length_b 9.642178
_cell_length_c 8.914123
_cell_angle_alpha 90.000000
_cell_angle_beta 90.000000
_cell_angle_gamma 90.000000
_cell_volume 2481.609533
_symmetry_space_group_name_H-M "P N N M"
_symmetry_group_IT_number 58
_symmetry_cell_setting 'orthorhombic'
loop_
_space_group_symop_operation_xyz
x,y,z
-x,-y,z
1/2+x,1/2-y,1/2-z
1/2-x,1/2+y,1/2-z
-x,-y,-z
x,y,-z
1/2-x,1/2+y,1/2+z
1/2+x,1/2-y,1/2+z
loop_
_atom_site_type_symbol
_atom_site_label
_atom_site_fract_x
_atom_site_fract_y
_atom_site_fract_z
Si Si1 0.052091 0.027796 0.177133
Si Si2 0.795351 0.635380 0.179241
Si Si3 0.141694 0.876901 0.176199
Si Si4 0.708477 0.834339 0.178976
Si Si5 0.634651 0.338754 0.821631
O O1 0.085950 0.893687 0.190396
O O2 0.081455 0.142155 0.267655
O O3 0.051263 0.064440 0.000000
O O4 0.000000 0.000000 0.227433
O O5 0.787302 0.483471 0.245139
O O6 0.840269 0.706865 0.251987
O O7 0.752176 0.735949 0.214876
O O8 0.800254 0.628731 0.000000
O O9 0.163992 0.747632 0.258212
O O10 0.158169 0.021693 0.251858
O O11 0.153424 0.876435 0.000000
O O12 0.705747 0.849625 0.000000
O O13 0.638130 0.340374 0.000000
#
# Coordination Sequence:
#
# PCOD9441839 Si02
#       5
#     8   8   8   8   8
#     4   8  16  32  55  81 108 140 178 218 264 319
#     4  11  23  37  53  74 105 144 180 216 266 322
#     4   9  18  33  53  77 106 139 175 214 262 316
#     4  11  23  36  53  77 105 139 180 224 266 312
#     4  10  19  32  52  79 108 136 175 221 264 307
#
# _framework density 16.118570999999999
#
# number of rings (size 3 to 8) (size 9 to 14) (size 15 to 20)
#    1.200    1.000    0.000    4.200    0.000    6.800 
#    0.000    0.000    0.000    1.200    0.000    8.400 
#    0.000    0.000    0.000    0.000    0.000    0.000 
#
# Total GULP energy -222732.866948 kJ/mol
# GULP energy per Si atom -5568.321674 kJ/mol
# Density = 1.608188 g / cm^3
# Si number density = 16.118571 Si / 1000 Ang^3
#
#
#
# Elastic Constant Matrix: (Units=GPa)
#
#
# Indices 1 2 3 4 5 6 
#
# 1 86.2057 40.6179 43.2312 0.0000 0.0000 0.0000
# 2 40.6179 107.4699 46.7022 0.0000 0.0000 0.0000
# 3 43.2312 46.7022 72.8029 0.0000 0.0000 0.0000
# 4 0.0000 0.0000 0.0000 31.2570 0.0000 0.0000
# 5 0.0000 0.0000 0.0000 0.0000 506.8903 0.0000
# 6 0.0000 0.0000 0.0000 0.0000 0.0000 19.5442
#
#
#
# Elastic Compliance Matrix: (Units=1/GPa)
#
#
# Indices 1 2 3 4 5 6 
#
# 1 0.017126 -0.002847 -0.008343 0.000000 0.000000 0.000000
# 2 -0.002847 0.013375 -0.006889 0.000000 0.000000 0.000000
# 3 -0.008343 -0.006889 0.023109 0.000000 0.000000 0.000000
# 4 0.000000 0.000000 0.000000 0.031993 0.000000 0.000000
# 5 0.000000 0.000000 0.000000 0.000000 0.001973 0.000000
# 6 0.000000 0.000000 0.000000 0.000000 0.000000 0.051166
#
#
# Mechanical properties :
#
#
# Convention : Reuss Voigt Hill
#
# Bulk Modulus (GPa) = 57.30290 58.62013 57.96152
# Shear Modulus (GPa) = 27.66766 120.60010 74.13388
#
# Velocity S-wave (km/s) = 4.14757 8.65927 6.78916
# Velocity P-wave (km/s) = 7.65274 11.68008 9.87393
#
# Compressibility (1/GPa) = 0.01745112
#
# Stress axis : x y z
#
# Youngs Moduli (GPa) = 58.39243 74.76812 43.27288
#
# Poissons Ratio (x) = 0.21286 0.36103
# Poissons Ratio (y) = 0.16624 0.29811
# Poissons Ratio (z) = 0.48717 0.51509
#
# Static dielectric constant tensor:
#      x y z
#    x 1.557850 0.000000 0.000000 
#    y 0.000000 1.519060 0.000000 
#    z 0.000000 0.000000 1.533640 
# 
# From -- ./inp_files/2627.got.cif
#   From: 2010.05.17/outbox.cif.g08.bks.cpg/sg58_2_cif.got.tgz:2627.got - 2010.06.03 14:20:14.
