data_PCOD9441241
_publ_section_title
;
Structure prediction by ZEFSAII (Michael W. Deem and Ramdas Pophale) SiO2 
 PCOD9441241
Probable space group: P N N M
;
_chemical_formula_sum "Si O2"
_cell_formula_units_Z 58
_cell_length_a 14.353740
_cell_length_b 22.784521
_cell_length_c 7.331006
_cell_angle_alpha 90.000000
_cell_angle_beta 90.000000
_cell_angle_gamma 90.000000
_cell_volume 2397.554858
_symmetry_space_group_name_H-M "P N N M"
_symmetry_group_IT_number 58
_symmetry_cell_setting 'orthorhombic'
loop_
_space_group_symop_operation_xyz
x,y,z
-x,-y,z
1/2+x,1/2-y,1/2-z
1/2-x,1/2+y,1/2-z
-x,-y,-z
x,y,-z
1/2-x,1/2+y,1/2+z
1/2+x,1/2-y,1/2+z
loop_
_atom_site_type_symbol
_atom_site_label
_atom_site_fract_x
_atom_site_fract_y
_atom_site_fract_z
Si Si1 0.947988 0.284234 0.777449
Si Si2 0.957932 0.413927 0.204605
Si Si3 0.540320 0.409909 0.721932
Si Si4 0.286452 0.291412 0.294288
Si Si5 0.000000 0.500000 0.500000
Si Si6 0.877031 0.785719 0.220778
Si Si7 0.854448 0.027365 0.778598
Si Si8 0.324538 0.905158 0.777060
O O1 0.880631 0.232795 0.710193
O O2 0.924380 0.350424 0.724846
O O3 0.051088 0.265299 0.724302
O O4 0.944200 0.284014 0.000000
O O5 0.939457 0.465971 0.341926
O O6 0.071290 0.408543 0.203382
O O7 0.924763 0.424515 0.000000
O O8 0.538997 0.409038 0.500000
O O9 0.581778 0.347909 0.780280
O O10 0.434536 0.425787 0.777560
O O11 0.606555 0.464014 0.777622
O O12 0.309571 0.311214 0.500000
O O13 0.221638 0.233904 0.295971
O O14 0.226246 0.344725 0.218972
O O15 0.870659 0.786347 0.000000
O O16 0.751094 0.045885 0.722920
O O17 0.853795 0.027798 0.000000
O O18 0.337369 0.907062 0.000000
#
# Coordination Sequence:
#
# PCOD9441241 Si02
#       8
#     8   8   8   8   2   8   8   8
#     4   9  19  37  59  83 119 163 203 256 322 384
#     4  11  23  43  67  89 126 166 213 269 325 379
#     4   8  14  26  46  78 113 148 187 242 304 366
#     4  10  20  34  55  83 115 156 205 254 313 374
#     4  12  26  48  68  94 116 166 222 266 320 382
#     4  10  18  32  53  81 113 147 190 243 302 366
#     4   8  14  26  48  78 113 146 192 243 297 366
#     4  10  18  33  58  88 118 159 210 262 309 374
#
# _framework density 24.191313000000001
#
# number of rings (size 3 to 8) (size 9 to 14) (size 15 to 20)
#    0.000    2.483    2.069    1.862    0.000    3.310 
#    3.724    0.000    0.000    2.483    0.000    1.931 
#    0.000    0.000    0.000    0.000    0.000    0.000 
#
# Total GULP energy -323638.269834 kJ/mol
# GULP energy per Si atom -5579.970170 kJ/mol
# Density = 2.413625 g / cm^3
# Si number density = 24.191313 Si / 1000 Ang^3
#
#
#
# Elastic Constant Matrix: (Units=GPa)
#
#
# Indices 1 2 3 4 5 6 
#
# 1 57.4068 -16.4522 -10.9787 0.0000 0.0000 0.0000
# 2 -16.4522 75.3321 9.2592 0.0000 0.0000 0.0000
# 3 -10.9787 9.2592 107.9462 0.0000 0.0000 0.0000
# 4 0.0000 0.0000 0.0000 0.2643 0.0000 0.0000
# 5 0.0000 0.0000 0.0000 0.0000 5.3564 0.0000
# 6 0.0000 0.0000 0.0000 0.0000 0.0000 34.9503
#
#
#
# Elastic Compliance Matrix: (Units=1/GPa)
#
#
# Indices 1 2 3 4 5 6 
#
# 1 0.018846 0.003922 0.001580 0.000000 0.000000 0.000000
# 2 0.003922 0.014232 -0.000822 0.000000 0.000000 0.000000
# 3 0.001580 -0.000822 0.009495 0.000000 0.000000 0.000000
# 4 0.000000 0.000000 0.000000 3.783913 0.000000 0.000000
# 5 0.000000 0.000000 0.000000 0.000000 0.186692 0.000000
# 6 0.000000 0.000000 0.000000 0.000000 0.000000 0.028612
#
#
# Mechanical properties :
#
#
# Convention : Reuss Voigt Hill
#
# Bulk Modulus (GPa) = 19.25572 22.70466 20.98019
# Shear Modulus (GPa) = 1.23465 25.37131 13.30298
#
# Velocity S-wave (km/s) = 0.71518 3.24200 2.34755
# Velocity P-wave (km/s) = 2.94262 4.83941 4.00493
#
# Compressibility (1/GPa) = 0.05193262
#
# Stress axis : x y z
#
# Youngs Moduli (GPa) = 53.06272 70.26407 105.31743
#
# Poissons Ratio (x) = -0.27554 -0.16644
# Poissons Ratio (y) = -0.20809 0.08656
# Poissons Ratio (z) = -0.08386 0.05775
#
# Static dielectric constant tensor:
#      x y z
#    x 1.881690 0.000000 0.000000 
#    y 0.000000 1.958200 0.000000 
#    z 0.000000 0.000000 1.923360 
# 
# From -- ./inp_files/6643.got.cif
#   From: 2010.05.17/outbox.cif.g08.bks.cpg/sg58_4_cif.got.tgz:6643.got - 2010.06.03 14:20:14.
