data_PCOD9441665
_publ_section_title
;
Structure prediction by ZEFSAII (Michael W. Deem and Ramdas Pophale) SiO2 
 PCOD9441665
Probable space group: P N N M
;
_chemical_formula_sum "Si O2"
_cell_formula_units_Z 40
_cell_length_a 5.202497
_cell_length_b 20.808434
_cell_length_c 14.482180
_cell_angle_alpha 90.000000
_cell_angle_beta 90.000000
_cell_angle_gamma 90.000000
_cell_volume 1567.780206
_symmetry_space_group_name_H-M "P N N M"
_symmetry_group_IT_number 58
_symmetry_cell_setting 'orthorhombic'
loop_
_space_group_symop_operation_xyz
x,y,z
-x,-y,z
1/2+x,1/2-y,1/2-z
1/2-x,1/2+y,1/2-z
-x,-y,-z
x,y,-z
1/2-x,1/2+y,1/2+z
1/2+x,1/2-y,1/2+z
loop_
_atom_site_type_symbol
_atom_site_label
_atom_site_fract_x
_atom_site_fract_y
_atom_site_fract_z
Si Si1 0.251774 0.745227 0.362470
Si Si2 0.106678 0.569867 0.388544
Si Si3 0.261048 0.188451 0.344473
Si Si4 0.747264 0.958259 0.611016
Si Si5 0.900625 0.123019 0.895445
O O1 0.449232 0.802986 0.379735
O O2 0.229863 0.721575 0.256536
O O3 0.427369 0.686978 0.401125
O O4 0.970324 0.770316 0.391904
O O5 0.142043 0.577126 0.500000
O O6 0.886822 0.620331 0.355078
O O7 0.000000 0.500000 0.370862
O O8 0.391907 0.576693 0.349308
O O9 0.213721 0.112861 0.347341
O O10 0.718047 0.948634 0.500000
O O11 0.500000 0.000000 0.643011
O O12 0.000000 0.000000 0.627143
O O13 0.850585 0.100879 0.000000
#
# Coordination Sequence:
#
# PCOD9441665 Si02
#       5
#     8   8   8   8   8
#     4  10  21  36  55  79 108 145 183 219 269 331
#     4   9  17  30  47  67  97 136 170 207 258 302
#     4  10  21  38  57  77 109 146 177 219 275 335
#     4  10  21  38  61  88 115 144 184 236 290 343
#     4  10  19  31  49  74 102 131 174 225 260 305
#
# _framework density 25.513781000000002
#
# number of rings (size 3 to 8) (size 9 to 14) (size 15 to 20)
#    0.000    2.200    0.000    3.000    0.000    4.000 
#    0.000    3.000    0.000    0.000    0.000    0.000 
#    0.000    0.000    0.000    0.000    0.000    0.000 
#
# Total GULP energy -223130.941464 kJ/mol
# GULP energy per Si atom -5578.273537 kJ/mol
# Density = 2.545571 g / cm^3
# Si number density = 25.513781 Si / 1000 Ang^3
#
#
#
# Elastic Constant Matrix: (Units=GPa)
#
#
# Indices 1 2 3 4 5 6 
#
# 1 145.1060 17.7413 24.7145 0.0000 0.0000 0.0000
# 2 17.7413 125.1073 -1.8827 0.0000 0.0000 0.0000
# 3 24.7145 -1.8827 59.5301 0.0000 0.0000 0.0000
# 4 0.0000 0.0000 0.0000 15.8384 0.0000 0.0000
# 5 0.0000 0.0000 0.0000 0.0000 0.6270 0.0000
# 6 0.0000 0.0000 0.0000 0.0000 0.0000 50.4181
#
#
#
# Elastic Compliance Matrix: (Units=1/GPa)
#
#
# Indices 1 2 3 4 5 6 
#
# 1 0.007570 -0.001121 -0.003178 0.000000 0.000000 0.000000
# 2 -0.001121 0.008163 0.000724 0.000000 0.000000 0.000000
# 3 -0.003178 0.000724 0.018141 0.000000 0.000000 0.000000
# 4 0.000000 0.000000 0.000000 0.063138 0.000000 0.000000
# 5 0.000000 0.000000 0.000000 0.000000 1.594813 0.000000
# 6 0.000000 0.000000 0.000000 0.000000 0.000000 0.019834
#
#
# Mechanical properties :
#
#
# Convention : Reuss Voigt Hill
#
# Bulk Modulus (GPa) = 37.42250 45.65442 41.53846
# Shear Modulus (GPa) = 2.89399 32.65474 17.77436
#
# Velocity S-wave (km/s) = 1.06618 3.58143 2.64229
# Velocity P-wave (km/s) = 4.02679 5.91904 5.06212
#
# Compressibility (1/GPa) = 0.02672189
#
# Stress axis : x y z
#
# Youngs Moduli (GPa) = 132.10181 122.50333 55.12509
#
# Poissons Ratio (x) = 0.13736 0.17520
# Poissons Ratio (y) = 0.14813 -0.03989
# Poissons Ratio (z) = 0.41984 -0.08865
#
# Static dielectric constant tensor:
#      x y z
#    x 2.033330 0.000000 0.000000 
#    y 0.000000 2.092810 0.000000 
#    z 0.000000 0.000000 2.063400 
# 
# From -- ./inp_files/24166.got.cif
#   From: 2010.05.17/outbox.cif.g08.bks.cpg/sg58_13_cif.got.tgz:24166.got - 2010.06.03 14:20:14.
