data_PCOD9441753
_publ_section_title
;
Structure prediction by ZEFSAII (Michael W. Deem and Ramdas Pophale) SiO2 
 PCOD9441753
Probable space group: P N N M
;
_chemical_formula_sum "Si O2"
_cell_formula_units_Z 64
_cell_length_a 30.687971
_cell_length_b 12.059534
_cell_length_c 7.523035
_cell_angle_alpha 90.000000
_cell_angle_beta 90.000000
_cell_angle_gamma 90.000000
_cell_volume 2784.144576
_symmetry_space_group_name_H-M "P N N M"
_symmetry_group_IT_number 58
_symmetry_cell_setting 'orthorhombic'
loop_
_space_group_symop_operation_xyz
x,y,z
-x,-y,z
1/2+x,1/2-y,1/2-z
1/2-x,1/2+y,1/2-z
-x,-y,-z
x,y,-z
1/2-x,1/2+y,1/2+z
1/2+x,1/2-y,1/2+z
loop_
_atom_site_type_symbol
_atom_site_label
_atom_site_fract_x
_atom_site_fract_y
_atom_site_fract_z
Si Si1 0.937851 0.049170 0.292659
Si Si2 0.339823 0.700797 0.207700
Si Si3 0.025416 0.716977 0.286027
Si Si4 0.182956 0.445791 0.216155
Si Si5 0.776049 0.985445 0.291436
Si Si6 0.561964 0.303556 0.217839
Si Si7 0.348356 0.353074 0.286664
Si Si8 0.613752 0.881470 0.288901
O O1 0.949820 0.049836 0.500000
O O2 0.956152 0.164143 0.217125
O O3 0.885709 0.061502 0.276245
O O4 0.951279 0.928713 0.224961
O O5 0.318016 0.820186 0.221209
O O6 0.307986 0.607932 0.287281
O O7 0.388811 0.712744 0.281824
O O8 0.345753 0.671374 0.000000
O O9 0.025306 0.719692 0.500000
O O10 0.061987 0.626974 0.240511
O O11 0.975181 0.716396 0.226707
O O12 0.227263 0.504754 0.279063
O O13 0.140257 0.512832 0.278006
O O14 0.183267 0.443395 0.000000
O O15 0.771116 0.959340 0.500000
O O16 0.801943 0.101284 0.273729
O O17 0.562333 0.302565 0.000000
O O18 0.348734 0.351710 0.500000
O O19 0.363658 0.232230 0.220268
O O20 0.620029 0.879626 0.500000
#
# Coordination Sequence:
#
# PCOD9441753 Si02
#       8
#     8   8   8   8   8   8   8   8
#     4   9  15  28  49  75 111 148 177 216 271 326
#     4  10  21  38  60  83 111 144 181 224 276 329
#     4   9  17  29  53  83 108 140 187 230 267 320
#     4  10  23  41  59  78 107 146 187 228 271 324
#     4  10  21  38  59  81 108 143 179 221 278 334
#     4   9  16  30  52  80 111 144 180 224 276 326
#     4  10  19  31  53  82 110 141 178 221 268 322
#     4   9  20  38  55  75 110 150 182 221 275 325
#
# _framework density 22.987311999999999
#
# number of rings (size 3 to 8) (size 9 to 14) (size 15 to 20)
#    0.000    2.500    1.250    0.750    1.750    3.500 
#    0.000    1.875    0.000    6.750    0.000    0.000 
#    0.000    0.000    0.000    0.000    0.000    0.000 
#
# Total GULP energy -357199.275317 kJ/mol
# GULP energy per Si atom -5581.238677 kJ/mol
# Density = 2.293499 g / cm^3
# Si number density = 22.987312 Si / 1000 Ang^3
#
#
#
# Elastic Constant Matrix: (Units=GPa)
#
#
# Indices 1 2 3 4 5 6 
#
# 1 111.2825 12.7805 4.3961 0.0000 0.0000 0.0000
# 2 12.7805 41.8816 -2.3081 0.0000 0.0000 0.0000
# 3 4.3961 -2.3081 54.9495 0.0000 0.0000 0.0000
# 4 0.0000 0.0000 0.0000 11.6745 0.0000 0.0000
# 5 0.0000 0.0000 0.0000 0.0000 17.4727 0.0000
# 6 0.0000 0.0000 0.0000 0.0000 0.0000 19.2896
#
#
#
# Elastic Compliance Matrix: (Units=1/GPa)
#
#
# Indices 1 2 3 4 5 6 
#
# 1 0.009354 -0.002902 -0.000870 0.000000 0.000000 0.000000
# 2 -0.002902 0.024833 0.001275 0.000000 0.000000 0.000000
# 3 -0.000870 0.001275 0.018322 0.000000 0.000000 0.000000
# 4 0.000000 0.000000 0.000000 0.085657 0.000000 0.000000
# 5 0.000000 0.000000 0.000000 0.000000 0.057232 0.000000
# 6 0.000000 0.000000 0.000000 0.000000 0.000000 0.051841
#
#
# Mechanical properties :
#
#
# Convention : Reuss Voigt Hill
#
# Bulk Modulus (GPa) = 21.04658 26.42786 23.73722
# Shear Modulus (GPa) = 18.65177 22.57037 20.61107
#
# Velocity S-wave (km/s) = 2.85159 3.13687 2.99762
# Velocity P-wave (km/s) = 4.47411 4.96403 4.72542
#
# Compressibility (1/GPa) = 0.04751367
#
# Stress axis : x y z
#
# Youngs Moduli (GPa) = 106.90789 40.26937 54.58004
#
# Poissons Ratio (x) = 0.11688 0.04750
# Poissons Ratio (y) = 0.31029 -0.06960
# Poissons Ratio (z) = 0.09304 -0.05135
#
# Static dielectric constant tensor:
#      x y z
#    x 1.900550 0.000000 0.000000 
#    y 0.000000 1.834760 0.000000 
#    z 0.000000 0.000000 1.909190 
# 
# From -- ./inp_files/11071.got.cif
#   From: 2010.05.17/outbox.cif.g08.bks.cpg/sg58_6_cif.got.tgz:11071.got - 2010.06.03 14:20:14.
