data_PCOD9441389
_publ_section_title
;
Structure prediction by ZEFSAII (Michael W. Deem and Ramdas Pophale) SiO2 
 PCOD9441389
Probable space group: P N N M
;
_chemical_formula_sum "Si O2"
_cell_formula_units_Z 48
_cell_length_a 10.782938
_cell_length_b 17.401223
_cell_length_c 13.422127
_cell_angle_alpha 90.000000
_cell_angle_beta 90.000000
_cell_angle_gamma 90.000000
_cell_volume 2518.478366
_symmetry_space_group_name_H-M "P N N M"
_symmetry_group_IT_number 58
_symmetry_cell_setting 'orthorhombic'
loop_
_space_group_symop_operation_xyz
x,y,z
-x,-y,z
1/2+x,1/2-y,1/2-z
1/2-x,1/2+y,1/2-z
-x,-y,-z
x,y,-z
1/2-x,1/2+y,1/2+z
1/2+x,1/2-y,1/2+z
loop_
_atom_site_type_symbol
_atom_site_label
_atom_site_fract_x
_atom_site_fract_y
_atom_site_fract_z
Si Si1 0.506392 0.092185 0.205180
Si Si2 0.244810 0.906343 0.887514
Si Si3 0.900642 0.690048 0.114575
Si Si4 0.026716 0.822359 0.217184
Si Si5 0.865633 0.272942 0.618295
Si Si6 0.881021 0.942763 0.888998
O O1 0.613585 0.114805 0.126545
O O2 0.563617 0.122278 0.309691
O O3 0.389062 0.144421 0.171568
O O4 0.500000 0.000000 0.206078
O O5 0.154236 0.864039 0.811661
O O6 0.229203 0.997882 0.871403
O O7 0.202097 0.890688 0.000000
O O8 0.769194 0.733344 0.134381
O O9 0.003099 0.754581 0.138511
O O10 0.901088 0.665843 0.000000
O O11 0.038564 0.783974 0.324913
O O12 0.916974 0.882635 0.195438
O O13 0.883843 0.279369 0.500000
O O14 0.866767 0.906756 0.000000
O O15 0.000000 0.000000 0.894258
#
# Coordination Sequence:
#
# PCOD9441389 Si02
#       6
#     8   8   8   8   8   8
#     4  11  24  39  58  88 121 155 192 235 294 349
#     4  10  19  33  54  86 120 150 186 239 296 347
#     4  10  21  39  62  84 111 153 199 241 286 344
#     4  10  18  34  58  83 110 147 198 244 282 336
#     4  10  22  39  59  84 118 155 191 236 297 353
#     4   8  15  27  49  81 110 139 180 231 282 328
#
# _framework density 19.059127
#
# number of rings (size 3 to 8) (size 9 to 14) (size 15 to 20)
#    0.000    2.167    1.667    3.000    2.333    1.667 
#    0.000    0.000    0.000    5.500    0.000    0.000 
#    0.000    0.000    0.000    0.000    0.000    0.000 
#
# Total GULP energy -267432.641827 kJ/mol
# GULP energy per Si atom -5571.513371 kJ/mol
# Density = 1.901575 g / cm^3
# Si number density = 19.059127 Si / 1000 Ang^3
#
#
#
# Elastic Constant Matrix: (Units=GPa)
#
#
# Indices 1 2 3 4 5 6 
#
# 1 54.4208 22.0238 28.6940 0.0000 0.0000 0.0000
# 2 22.0238 91.6516 59.8820 0.0000 0.0000 0.0000
# 3 28.6940 59.8820 115.1930 0.0000 0.0000 0.0000
# 4 0.0000 0.0000 0.0000 20.7147 0.0000 0.0000
# 5 0.0000 0.0000 0.0000 0.0000 18.7812 0.0000
# 6 0.0000 0.0000 0.0000 0.0000 0.0000 31.9512
#
#
#
# Elastic Compliance Matrix: (Units=1/GPa)
#
#
# Indices 1 2 3 4 5 6 
#
# 1 0.021534 -0.002529 -0.004049 0.000000 0.000000 0.000000
# 2 -0.002529 0.016820 -0.008114 0.000000 0.000000 0.000000
# 3 -0.004049 -0.008114 0.013908 0.000000 0.000000 0.000000
# 4 0.000000 0.000000 0.000000 0.048275 0.000000 0.000000
# 5 0.000000 0.000000 0.000000 0.000000 0.053245 0.000000
# 6 0.000000 0.000000 0.000000 0.000000 0.000000 0.031298
#
#
# Mechanical properties :
#
#
# Convention : Reuss Voigt Hill
#
# Bulk Modulus (GPa) = 43.71132 53.60725 48.65928
# Shear Modulus (GPa) = 22.51361 24.33381 23.42371
#
# Velocity S-wave (km/s) = 3.44066 3.57705 3.50952
# Velocity P-wave (km/s) = 6.22644 6.72668 6.48139
#
# Compressibility (1/GPa) = 0.02287737
#
# Stress axis : x y z
#
# Youngs Moduli (GPa) = 46.43861 59.45389 71.90325
#
# Poissons Ratio (x) = 0.15035 0.29116
# Poissons Ratio (y) = 0.11744 0.58340
# Poissons Ratio (z) = 0.18805 0.48239
#
# Static dielectric constant tensor:
#      x y z
#    x 1.716540 0.000000 0.000000 
#    y 0.000000 1.698940 0.000000 
#    z 0.000000 0.000000 1.640640 
# 
# From -- ./inp_files/14377.got.cif
#   From: 2010.05.17/outbox.cif.g08.bks.cpg/sg58_8_cif.got.tgz:14377.got - 2010.06.03 14:20:14.
