data_PCOD9441162
_publ_section_title
;
Structure prediction by ZEFSAII (Michael W. Deem and Ramdas Pophale) SiO2 
 PCOD9441162
Probable space group: P N N M
;
_chemical_formula_sum "Si O2"
_cell_formula_units_Z 56
_cell_length_a 20.432932
_cell_length_b 15.925650
_cell_length_c 7.685545
_cell_angle_alpha 90.000000
_cell_angle_beta 90.000000
_cell_angle_gamma 90.000000
_cell_volume 2500.935702
_symmetry_space_group_name_H-M "P N N M"
_symmetry_group_IT_number 58
_symmetry_cell_setting 'orthorhombic'
loop_
_space_group_symop_operation_xyz
x,y,z
-x,-y,z
1/2+x,1/2-y,1/2-z
1/2-x,1/2+y,1/2-z
-x,-y,-z
x,y,-z
1/2-x,1/2+y,1/2+z
1/2+x,1/2-y,1/2+z
loop_
_atom_site_type_symbol
_atom_site_label
_atom_site_fract_x
_atom_site_fract_y
_atom_site_fract_z
Si Si1 0.577028 0.820842 0.212483
Si Si2 0.429730 0.823223 0.794510
Si Si3 0.137271 0.843231 0.290324
Si Si4 0.776335 0.996066 0.207752
Si Si5 0.641379 0.339070 0.695096
Si Si6 0.995193 0.900879 0.301741
Si Si7 0.873151 0.501688 0.286363
O O1 0.502659 0.798226 0.269605
O O2 0.633485 0.754297 0.266526
O O3 0.592381 0.915446 0.266937
O O4 0.577825 0.819006 0.000000
O O5 0.373653 0.752952 0.770748
O O6 0.407825 0.913459 0.723940
O O7 0.437614 0.834306 0.000000
O O8 0.139617 0.844446 0.500000
O O9 0.187972 0.914609 0.235674
O O10 0.065091 0.872729 0.234159
O O11 0.702189 0.000073 0.270797
O O12 0.814751 0.913418 0.277939
O O13 0.774986 0.984609 0.000000
O O14 0.665752 0.324520 0.500000
O O15 0.568435 0.377432 0.695939
O O16 0.986255 0.866530 0.500000
O O17 0.000000 0.000000 0.314284
O O18 0.873745 0.503037 0.500000
#
# Coordination Sequence:
#
# PCOD9441162 Si02
#       7
#     8   8   8   8   8   8   8
#     4   9  17  32  57  86 105 127 175 232 276 308
#     4  10  19  35  60  84 103 132 182 234 273 311
#     4  10  19  32  55  84 109 136 173 223 271 315
#     4  10  22  37  51  76 113 149 180 208 257 331
#     4  11  22  33  51  80 114 147 175 213 271 330
#     4  10  18  31  52  79 109 138 178 225 266 309
#     4   9  19  36  57  78 105 141 181 226 267 312
#
# _framework density 22.391618999999999
#
# number of rings (size 3 to 8) (size 9 to 14) (size 15 to 20)
#    0.000    2.143    2.857    0.857    0.000    4.286 
#    0.000    2.143    0.000    4.286    0.000    0.000 
#    0.000    0.000    0.000    0.000    0.000    0.000 
#
# Total GULP energy -312281.474522 kJ/mol
# GULP energy per Si atom -5576.454902 kJ/mol
# Density = 2.234065 g / cm^3
# Si number density = 22.391619 Si / 1000 Ang^3
#
#
#
# Elastic Constant Matrix: (Units=GPa)
#
#
# Indices 1 2 3 4 5 6 
#
# 1 75.8259 44.7369 3.9255 0.0000 0.0000 0.0000
# 2 44.7369 167.2795 0.1439 0.0000 0.0000 0.0000
# 3 3.9255 0.1439 31.8741 0.0000 0.0000 0.0000
# 4 0.0000 0.0000 0.0000 16.9804 0.0000 0.0000
# 5 0.0000 0.0000 0.0000 0.0000 10.9991 0.0000
# 6 0.0000 0.0000 0.0000 0.0000 0.0000 30.5259
#
#
#
# Elastic Compliance Matrix: (Units=1/GPa)
#
#
# Indices 1 2 3 4 5 6 
#
# 1 0.015776 -0.004217 -0.001924 0.000000 0.000000 0.000000
# 2 -0.004217 0.007105 0.000487 0.000000 0.000000 0.000000
# 3 -0.001924 0.000487 0.031608 0.000000 0.000000 0.000000
# 4 0.000000 0.000000 0.000000 0.058891 0.000000 0.000000
# 5 0.000000 0.000000 0.000000 0.000000 0.090917 0.000000
# 6 0.000000 0.000000 0.000000 0.000000 0.000000 0.032759
#
#
# Mechanical properties :
#
#
# Convention : Reuss Voigt Hill
#
# Bulk Modulus (GPa) = 23.15797 41.39911 32.27854
# Shear Modulus (GPa) = 19.02889 26.77932 22.90410
#
# Velocity S-wave (km/s) = 2.91833 3.46201 3.20173
# Velocity P-wave (km/s) = 4.66050 5.87447 5.30234
#
# Compressibility (1/GPa) = 0.04318168
#
# Stress axis : x y z
#
# Youngs Moduli (GPa) = 63.38758 140.73605 31.63741
#
# Poissons Ratio (x) = 0.59354 0.06087
# Poissons Ratio (y) = 0.26733 -0.01542
# Poissons Ratio (z) = 0.12195 -0.06858
#
# Static dielectric constant tensor:
#      x y z
#    x 1.794270 0.000000 0.000000 
#    y 0.000000 1.873710 0.000000 
#    z 0.000000 0.000000 1.926670 
# 
# From -- ./inp_files/8985.got.cif
#   From: 2010.05.17/outbox.cif.g08.bks.cpg/sg58_5_cif.got.tgz:8985.got - 2010.06.03 14:20:14.
