data_PCOD9441255
_publ_section_title
;
Structure prediction by ZEFSAII (Michael W. Deem and Ramdas Pophale) SiO2 
 PCOD9441255
Probable space group: P N N M
;
_chemical_formula_sum "Si O2"
_cell_formula_units_Z 32
_cell_length_a 9.899200
_cell_length_b 9.081049
_cell_length_c 14.488603
_cell_angle_alpha 90.000000
_cell_angle_beta 90.000000
_cell_angle_gamma 90.000000
_cell_volume 1302.454709
_symmetry_space_group_name_H-M "P N N M"
_symmetry_group_IT_number 58
_symmetry_cell_setting 'orthorhombic'
loop_
_space_group_symop_operation_xyz
x,y,z
-x,-y,z
1/2+x,1/2-y,1/2-z
1/2-x,1/2+y,1/2-z
-x,-y,-z
x,y,-z
1/2-x,1/2+y,1/2+z
1/2+x,1/2-y,1/2+z
loop_
_atom_site_type_symbol
_atom_site_label
_atom_site_fract_x
_atom_site_fract_y
_atom_site_fract_z
Si Si1 0.427372 0.303241 0.396237
Si Si2 0.935356 0.339440 0.395768
Si Si3 0.672285 0.403376 0.101190
Si Si4 0.674133 0.411022 0.302830
O O1 0.483230 0.310317 0.500000
O O2 0.317724 0.175096 0.395374
O O3 0.551105 0.300321 0.325151
O O4 0.347234 0.453295 0.372490
O O5 0.877803 0.336094 0.500000
O O6 0.053892 0.219016 0.393886
O O7 0.813668 0.330304 0.323738
O O8 0.000000 0.500000 0.381929
O O9 0.663353 0.478739 0.200431
O O10 0.660493 0.477841 0.000000
#
# Coordination Sequence:
#
# PCOD9441255 Si02
#       4
#     8   8   8   8
#     4  10  20  35  55  80 105 134 175 221 259 300
#     4  10  18  32  54  79 102 129 170 218 257 297
#     4  10  21  35  52  78 108 137 171 214 260 306
#     4  11  19  32  55  80 104 137 173 214 260 309
#
# _framework density 24.568992000000001
#
# number of rings (size 3 to 8) (size 9 to 14) (size 15 to 20)
#    0.000    1.750    2.500    4.500    0.000    0.000 
#    0.000    2.500    0.000    5.250    0.000    0.000 
#    0.000    0.000    0.000    0.000    0.000    0.000 
#
# Total GULP energy -178964.840199 kJ/mol
# GULP energy per Si atom -5592.651256 kJ/mol
# Density = 2.451307 g / cm^3
# Si number density = 24.568992 Si / 1000 Ang^3
#
#
#
# Elastic Constant Matrix: (Units=GPa)
#
#
# Indices 1 2 3 4 5 6 
#
# 1 101.5131 22.2139 43.2183 0.0000 0.0000 0.0000
# 2 22.2139 40.2058 1.4774 0.0000 0.0000 0.0000
# 3 43.2183 1.4774 170.9683 0.0000 0.0000 0.0000
# 4 0.0000 0.0000 0.0000 8.0687 0.0000 0.0000
# 5 0.0000 0.0000 0.0000 0.0000 26.7327 0.0000
# 6 0.0000 0.0000 0.0000 0.0000 0.0000 25.3122
#
#
#
# Elastic Compliance Matrix: (Units=1/GPa)
#
#
# Indices 1 2 3 4 5 6 
#
# 1 0.012703 -0.006903 -0.003152 0.000000 0.000000 0.000000
# 2 -0.006903 0.028631 0.001498 0.000000 0.000000 0.000000
# 3 -0.003152 0.001498 0.006633 0.000000 0.000000 0.000000
# 4 0.000000 0.000000 0.000000 0.123935 0.000000 0.000000
# 5 0.000000 0.000000 0.000000 0.000000 0.037407 0.000000
# 6 0.000000 0.000000 0.000000 0.000000 0.000000 0.039507
#
#
# Mechanical properties :
#
#
# Convention : Reuss Voigt Hill
#
# Bulk Modulus (GPa) = 32.41156 49.61181 41.01168
# Shear Modulus (GPa) = 18.10189 28.40788 23.25488
#
# Velocity S-wave (km/s) = 2.71731 3.40406 3.07988
# Velocity P-wave (km/s) = 4.80268 5.97384 5.41999
#
# Compressibility (1/GPa) = 0.03085319
#
# Stress axis : x y z
#
# Youngs Moduli (GPa) = 78.72030 34.92739 150.76682
#
# Poissons Ratio (x) = 0.24110 0.47515
# Poissons Ratio (y) = 0.54339 -0.22577
# Poissons Ratio (z) = 0.24809 -0.05230
#
# Static dielectric constant tensor:
#      x y z
#    x 1.931380 0.000000 0.000000 
#    y 0.000000 1.949680 0.000000 
#    z 0.000000 0.000000 1.972970 
# 
# From -- ./inp_files/13776.got.cif
#   From: 2010.05.17/outbox.cif.g08.bks.cpg/sg58_7_cif.got.tgz:13776.got - 2010.06.03 14:20:14.
