data_PCOD9441410
_publ_section_title
;
Structure prediction by ZEFSAII (Michael W. Deem and Ramdas Pophale) SiO2 
 PCOD9441410
Probable space group: P N N M
;
_chemical_formula_sum "Si O2"
_cell_formula_units_Z 48
_cell_length_a 31.027081
_cell_length_b 10.738829
_cell_length_c 7.747880
_cell_angle_alpha 90.000000
_cell_angle_beta 90.000000
_cell_angle_gamma 90.000000
_cell_volume 2581.551136
_symmetry_space_group_name_H-M "P N N M"
_symmetry_group_IT_number 58
_symmetry_cell_setting 'orthorhombic'
loop_
_space_group_symop_operation_xyz
x,y,z
-x,-y,z
1/2+x,1/2-y,1/2-z
1/2-x,1/2+y,1/2-z
-x,-y,-z
x,y,-z
1/2-x,1/2+y,1/2+z
1/2+x,1/2-y,1/2+z
loop_
_atom_site_type_symbol
_atom_site_label
_atom_site_fract_x
_atom_site_fract_y
_atom_site_fract_z
Si Si1 0.570919 0.946075 0.500000
Si Si2 0.285282 0.492272 0.293750
Si Si3 0.883155 0.045190 0.790972
Si Si4 0.965703 0.889877 0.302766
Si Si5 0.775815 0.287594 0.292209
Si Si6 0.375334 0.174169 0.798342
Si Si7 0.480652 0.802885 0.500000
O O1 0.598601 0.913073 0.669206
O O2 0.528361 0.860164 0.500000
O O3 0.553788 0.086046 0.500000
O O4 0.287319 0.506749 0.500000
O O5 0.334798 0.490142 0.231846
O O6 0.256716 0.606585 0.225967
O O7 0.266291 0.354714 0.259437
O O8 0.892284 0.184332 0.723739
O O9 0.918776 0.949747 0.726286
O O10 0.884139 0.048979 0.000000
O O11 0.970468 0.847821 0.500000
O O12 0.974069 0.781808 0.167404
O O13 0.000000 0.000000 0.271008
O O14 0.775088 0.290371 0.500000
O O15 0.825090 0.318672 0.242244
O O16 0.377919 0.138639 0.000000
#
# Coordination Sequence:
#
# PCOD9441410 Si02
#       7
#     4   8   8   8   8   8   4
#     4  11  24  42  62  86 114 164 200 238 299 348
#     4   9  19  35  55  82 114 153 193 239 295 348
#     4  10  18  34  61  87 116 150 192 245 296 351
#     4  11  23  39  62  90 118 152 194 245 304 357
#     4   9  19  36  55  84 117 150 197 245 291 354
#     4  10  20  37  62  87 115 153 202 241 286 356
#     4  11  25  42  60  86 125 151 198 250 294 359
#
# _framework density 18.593471999999998
#
# number of rings (size 3 to 8) (size 9 to 14) (size 15 to 20)
#    0.000    2.000    1.667    1.750    1.167    4.000 
#    3.000    1.667    0.000    0.000    0.000    0.000 
#    0.000    0.000    0.000    0.000    0.000    0.000 
#
# Total GULP energy -268062.845778 kJ/mol
# GULP energy per Si atom -5584.642620 kJ/mol
# Density = 1.855115 g / cm^3
# Si number density = 18.593472 Si / 1000 Ang^3
#
#
#
# Elastic Constant Matrix: (Units=GPa)
#
#
# Indices 1 2 3 4 5 6 
#
# 1 64.1490 63.9650 30.0180 0.0000 0.0000 0.0000
# 2 63.9650 115.9539 56.0339 0.0000 0.0000 0.0000
# 3 30.0180 56.0339 80.3928 0.0000 0.0000 0.0000
# 4 0.0000 0.0000 0.0000 0.3068 0.0000 0.0000
# 5 0.0000 0.0000 0.0000 0.0000 17.9304 0.0000
# 6 0.0000 0.0000 0.0000 0.0000 0.0000 25.1614
#
#
#
# Elastic Compliance Matrix: (Units=1/GPa)
#
#
# Indices 1 2 3 4 5 6 
#
# 1 0.034664 -0.019403 0.000580 0.000000 0.000000 0.000000
# 2 -0.019403 0.023865 -0.009389 0.000000 0.000000 0.000000
# 3 0.000580 -0.009389 0.018766 0.000000 0.000000 0.000000
# 4 0.000000 0.000000 0.000000 3.259596 0.000000 0.000000
# 5 0.000000 0.000000 0.000000 0.000000 0.055771 0.000000
# 6 0.000000 0.000000 0.000000 0.000000 0.000000 0.039743
#
#
# Mechanical properties :
#
#
# Convention : Reuss Voigt Hill
#
# Bulk Modulus (GPa) = 47.90941 62.28106 55.09524
# Shear Modulus (GPa) = 1.43029 16.04496 8.73763
#
# Velocity S-wave (km/s) = 0.87802 2.94076 2.17014
# Velocity P-wave (km/s) = 5.18176 6.71563 5.99793
#
# Compressibility (1/GPa) = 0.02087273
#
# Stress axis : x y z
#
# Youngs Moduli (GPa) = 28.84823 41.90318 53.28717
#
# Poissons Ratio (x) = 0.81303 -0.03093
# Poissons Ratio (y) = 0.55973 0.50030
# Poissons Ratio (z) = -0.01674 0.39342
#
# Static dielectric constant tensor:
#      x y z
#    x 1.647450 0.000000 0.000000 
#    y 0.000000 1.611390 0.000000 
#    z 0.000000 0.000000 1.647490 
# 
# From -- ./inp_files/10775.got.cif
#   From: 2010.05.17/outbox.cif.g08.bks.cpg/sg58_6_cif.got.tgz:10775.got - 2010.06.03 14:20:14.
