data_PCOD9441440
_publ_section_title
;
Structure prediction by ZEFSAII (Michael W. Deem and Ramdas Pophale) SiO2 
 PCOD9441440
Probable space group: P N N M
;
_chemical_formula_sum "Si O2"
_cell_formula_units_Z 32
_cell_length_a 11.745071
_cell_length_b 9.663892
_cell_length_c 14.083238
_cell_angle_alpha 90.000000
_cell_angle_beta 90.000000
_cell_angle_gamma 90.000000
_cell_volume 1598.491138
_symmetry_space_group_name_H-M "P N N M"
_symmetry_group_IT_number 58
_symmetry_cell_setting 'orthorhombic'
loop_
_space_group_symop_operation_xyz
x,y,z
-x,-y,z
1/2+x,1/2-y,1/2-z
1/2-x,1/2+y,1/2-z
-x,-y,-z
x,y,-z
1/2-x,1/2+y,1/2+z
1/2+x,1/2-y,1/2+z
loop_
_atom_site_type_symbol
_atom_site_label
_atom_site_fract_x
_atom_site_fract_y
_atom_site_fract_z
Si Si1 0.792703 0.388685 0.500000
Si Si2 0.500000 0.000000 0.663609
Si Si3 0.863571 0.111393 0.000000
Si Si4 0.624193 0.526871 0.282303
Si Si5 0.071162 0.311082 0.000000
Si Si6 0.329164 0.175825 0.791082
O O1 0.767686 0.554823 0.500000
O O2 0.669579 0.305455 0.500000
O O3 0.852008 0.345842 0.597260
O O4 0.576980 0.093879 0.593374
O O5 0.424084 0.099822 0.728133
O O6 0.891985 0.055299 0.105215
O O7 0.941811 0.249018 0.000000
O O8 0.500000 0.500000 0.240659
O O9 0.675441 0.664849 0.237302
O O10 0.709289 0.399624 0.271328
#
# Coordination Sequence:
#
# PCOD9441440 Si02
#       6
#     4   4   4   8   4   8
#     4  10  22  38  61  85 129 166 220 254 318 384
#     4  11  24  35  66  94 132 159 218 265 336 378
#     4  10  18  35  63  91 117 152 208 274 315 363
#     4  11  23  40  65  94 126 164 216 265 326 383
#     4  11  19  38  61  98 119 160 215 285 308 368
#     4  11  24  40  63  93 129 174 208 269 322 391
#
# _framework density 20.018878999999998
#
# number of rings (size 3 to 8) (size 9 to 14) (size 15 to 20)
#    0.000    1.250    2.500    5.250    3.500    0.500 
#    0.000    0.625    0.000    0.000    0.000    0.000 
#    0.000    0.000    0.000    0.000    0.000    0.000 
#
# Total GULP energy -178329.848052 kJ/mol
# GULP energy per Si atom -5572.807752 kJ/mol
# Density = 1.997332 g / cm^3
# Si number density = 20.018879 Si / 1000 Ang^3
#
#
#
# Elastic Constant Matrix: (Units=GPa)
#
#
# Indices 1 2 3 4 5 6 
#
# 1 51.0995 37.6969 34.7836 0.0000 0.0000 0.0000
# 2 37.6969 110.9264 37.6702 0.0000 0.0000 0.0000
# 3 34.7836 37.6702 126.8979 0.0000 0.0000 0.0000
# 4 0.0000 0.0000 0.0000 -22.0005 0.0000 0.0000
# 5 0.0000 0.0000 0.0000 0.0000 -18.3568 0.0000
# 6 0.0000 0.0000 0.0000 0.0000 0.0000 37.3808
#
#
#
# Elastic Compliance Matrix: (Units=1/GPa)
#
#
# Indices 1 2 3 4 5 6 
#
# 1 0.029365 -0.008058 -0.005657 0.000000 0.000000 0.000000
# 2 -0.008058 0.012237 -0.001424 0.000000 0.000000 0.000000
# 3 -0.005657 -0.001424 0.009854 0.000000 0.000000 0.000000
# 4 0.000000 0.000000 0.000000 -0.045454 0.000000 0.000000
# 5 0.000000 0.000000 0.000000 0.000000 -0.054476 0.000000
# 6 0.000000 0.000000 0.000000 0.000000 0.000000 0.026752
#
#
# Mechanical properties :
#
#
# Convention : Reuss Voigt Hill
#
# Bulk Modulus (GPa) = 47.21974 56.58059 51.90017
# Shear Modulus (GPa) = 320.19388 11.32291 165.75839
#
# Velocity S-wave (km/s) = 12.66069 2.38084 9.10938
# Velocity P-wave (km/s) = 15.40659 5.99023 11.68858
#
# Compressibility (1/GPa) = 0.02117758
#
# Stress axis : x y z
#
# Youngs Moduli (GPa) = 34.05400 81.71950 101.48518
#
# Poissons Ratio (x) = 0.65851 0.57411
# Poissons Ratio (y) = 0.27442 0.14449
# Poissons Ratio (z) = 0.19265 0.11635
#
# Static dielectric constant tensor:
#      x y z
#    x 1.722320 0.000000 0.000000 
#    y 0.000000 1.742950 0.000000 
#    z 0.000000 0.000000 1.701860 
# 
# From -- ./inp_files/19139.got.cif
#   From: 2010.05.17/outbox.cif.g08.bks.cpg/sg58_10_cif.got.tgz:19139.got - 2010.06.03 14:20:14.
