data_PCOD9441396
_publ_section_title
;
Structure prediction by ZEFSAII (Michael W. Deem and Ramdas Pophale) SiO2 
 PCOD9441396
Probable space group: P N N M
;
_chemical_formula_sum "Si O2"
_cell_formula_units_Z 64
_cell_length_a 20.798022
_cell_length_b 19.797806
_cell_length_c 8.643691
_cell_angle_alpha 90.000000
_cell_angle_beta 90.000000
_cell_angle_gamma 90.000000
_cell_volume 3559.084757
_symmetry_space_group_name_H-M "P N N M"
_symmetry_group_IT_number 58
_symmetry_cell_setting 'orthorhombic'
loop_
_space_group_symop_operation_xyz
x,y,z
-x,-y,z
1/2+x,1/2-y,1/2-z
1/2-x,1/2+y,1/2-z
-x,-y,-z
x,y,-z
1/2-x,1/2+y,1/2+z
1/2+x,1/2-y,1/2+z
loop_
_atom_site_type_symbol
_atom_site_label
_atom_site_fract_x
_atom_site_fract_y
_atom_site_fract_z
Si Si1 0.067845 0.038220 0.684400
Si Si2 0.634069 0.825224 0.315939
Si Si3 0.010201 0.327627 0.685889
Si Si4 0.009787 0.175371 0.687586
Si Si5 0.312695 0.457041 0.315779
Si Si6 0.686852 0.959553 0.184636
Si Si7 0.566182 0.039470 0.315912
Si Si8 0.860680 0.179652 0.314589
O O1 0.082113 0.038065 0.500000
O O2 0.054939 0.114614 0.740380
O O3 0.124407 0.999550 0.769616
O O4 0.000000 0.000000 0.703491
O O5 0.627106 0.825556 0.500000
O O6 0.563524 0.837050 0.240943
O O7 0.679052 0.886513 0.262803
O O8 0.656929 0.751755 0.258529
O O9 0.011924 0.332989 0.500000
O O10 0.028807 0.251187 0.731912
O O11 0.054472 0.384303 0.760905
O O12 0.009897 0.172384 0.500000
O O13 0.935151 0.165240 0.733655
O O14 0.310150 0.448045 0.500000
O O15 0.250179 0.499415 0.266533
O O16 0.318653 0.383567 0.238440
O O17 0.624791 0.003296 0.231471
O O18 0.688454 0.950546 0.000000
O O19 0.576363 0.036239 0.500000
O O20 0.500000 0.000000 0.280285
O O21 0.859799 0.185750 0.500000
#
# Coordination Sequence:
#
# PCOD9441396 Si02
#       8
#     8   8   8   8   8   8   8   8
#     4  10  18  34  59  84 113 151 193 232 282 348
#     4  11  21  35  57  87 117 146 190 243 287 335
#     4  10  19  33  56  84 116 153 191 233 290 350
#     4   8  16  31  53  84 113 144 189 233 273 338
#     4  11  24  39  56  86 120 151 195 245 288 336
#     4  11  24  41  59  81 115 158 198 235 286 354
#     4  11  22  36  57  86 115 143 188 245 293 340
#     4  10  19  36  60  84 113 152 193 232 286 350
#
# _framework density 17.982151999999999
#
# number of rings (size 3 to 8) (size 9 to 14) (size 15 to 20)
#    0.000    1.750    2.500    3.750    0.000    2.750 
#    0.000    2.500    0.000    4.500    0.000    0.000 
#    0.000    0.000    0.000    0.000    0.000    0.000 
#
# Total GULP energy -357377.904885 kJ/mol
# GULP energy per Si atom -5584.029764 kJ/mol
# Density = 1.794122 g / cm^3
# Si number density = 17.982152 Si / 1000 Ang^3
#
#
#
# Elastic Constant Matrix: (Units=GPa)
#
#
# Indices 1 2 3 4 5 6 
#
# 1 54.7381 38.1976 14.4610 0.0000 0.0000 0.0000
# 2 38.1976 142.2206 17.2748 0.0000 0.0000 0.0000
# 3 14.4610 17.2748 26.4499 0.0000 0.0000 0.0000
# 4 0.0000 0.0000 0.0000 35.2841 0.0000 0.0000
# 5 0.0000 0.0000 0.0000 0.0000 17.6831 0.0000
# 6 0.0000 0.0000 0.0000 0.0000 0.0000 27.6413
#
#
#
# Elastic Compliance Matrix: (Units=1/GPa)
#
#
# Indices 1 2 3 4 5 6 
#
# 1 0.024680 -0.005420 -0.009954 0.000000 0.000000 0.000000
# 2 -0.005420 0.008827 -0.002802 0.000000 0.000000 0.000000
# 3 -0.009954 -0.002802 0.045080 0.000000 0.000000 0.000000
# 4 0.000000 0.000000 0.000000 0.028341 0.000000 0.000000
# 5 0.000000 0.000000 0.000000 0.000000 0.056551 0.000000
# 6 0.000000 0.000000 0.000000 0.000000 0.000000 0.036178
#
#
# Mechanical properties :
#
#
# Convention : Reuss Voigt Hill
#
# Bulk Modulus (GPa) = 23.67655 40.36393 32.02024
# Shear Modulus (GPa) = 19.99299 26.35339 23.17319
#
# Velocity S-wave (km/s) = 3.33802 3.83238 3.59371
# Velocity P-wave (km/s) = 5.29639 6.48677 5.92157
#
# Compressibility (1/GPa) = 0.04223588
#
# Stress axis : x y z
#
# Youngs Moduli (GPa) = 40.51791 113.28509 22.18298
#
# Poissons Ratio (x) = 0.61396 0.22081
# Poissons Ratio (y) = 0.21959 0.06216
# Poissons Ratio (z) = 0.40331 0.31744
#
# Static dielectric constant tensor:
#      x y z
#    x 1.587140 0.000000 0.000000 
#    y 0.000000 1.632970 0.000000 
#    z 0.000000 0.000000 1.605300 
# 
# From -- ./inp_files/8296.got.cif
#   From: 2010.05.17/outbox.cif.g08.bks.cpg/sg58_5_cif.got.tgz:8296.got - 2010.06.03 14:20:14.
