data_PCOD9441359
_publ_section_title
;
Structure prediction by ZEFSAII (Michael W. Deem and Ramdas Pophale) SiO2 
 PCOD9441359
Probable space group: P N N M
;
_chemical_formula_sum "Si O2"
_cell_formula_units_Z 48
_cell_length_a 14.737345
_cell_length_b 11.230246
_cell_length_c 15.278152
_cell_angle_alpha 90.000000
_cell_angle_beta 90.000000
_cell_angle_gamma 90.000000
_cell_volume 2528.595417
_symmetry_space_group_name_H-M "P N N M"
_symmetry_group_IT_number 58
_symmetry_cell_setting 'orthorhombic'
loop_
_space_group_symop_operation_xyz
x,y,z
-x,-y,z
1/2+x,1/2-y,1/2-z
1/2-x,1/2+y,1/2-z
-x,-y,-z
x,y,-z
1/2-x,1/2+y,1/2+z
1/2+x,1/2-y,1/2+z
loop_
_atom_site_type_symbol
_atom_site_label
_atom_site_fract_x
_atom_site_fract_y
_atom_site_fract_z
Si Si1 0.565066 0.881422 0.500000
Si Si2 0.103728 0.542377 0.187134
Si Si3 0.954950 0.866566 0.000000
Si Si4 0.143408 0.031484 0.500000
Si Si5 0.707986 0.532202 0.812631
Si Si6 0.015319 0.796472 0.500000
Si Si7 0.432029 0.249986 0.190718
Si Si8 0.073705 0.108400 0.195310
O O1 0.615341 0.894623 0.407506
O O2 0.518749 0.751076 0.500000
O O3 0.500000 0.000000 0.500000
O O4 0.184929 0.448890 0.199927
O O5 0.110611 0.636252 0.264540
O O6 0.000000 0.500000 0.189451
O O7 0.906136 0.858318 0.905478
O O8 0.000000 0.000000 0.000000
O O9 0.086029 0.152311 0.500000
O O10 0.196317 0.018655 0.589771
O O11 0.075852 0.917296 0.500000
O O12 0.644334 0.647477 0.806840
O O13 0.661893 0.438649 0.745895
O O14 0.037448 0.732229 0.409310
O O15 0.518616 0.292992 0.248882
O O16 0.000000 0.000000 0.193173
#
# Coordination Sequence:
#
# PCOD9441359 Si02
#       8
#     4   8   4   4   8   4   8   8
#     4  10  21  39  59  85 120 164 203 243 309 372
#     4  11  24  40  58  82 124 164 200 246 308 370
#     4  10  18  33  61  89 120 155 196 249 310 362
#     4   9  15  30  58  89 113 132 191 258 291 341
#     4  10  20  35  58  88 115 152 205 250 297 359
#     4   9  16  30  58  89 113 145 183 243 312 344
#     4  10  19  36  59  85 119 152 196 254 303 363
#     4   9  17  31  57  87 114 147 191 248 299 348
#
# _framework density 18.982870999999999
#
# number of rings (size 3 to 8) (size 9 to 14) (size 15 to 20)
#    0.000    2.167    3.333    0.500    0.000    1.333 
#    0.000    1.250    0.000    0.000    0.000    0.000 
#    0.000    0.000    0.000    0.000    0.000    0.000 
#
# Total GULP energy -267298.567397 kJ/mol
# GULP energy per Si atom -5568.720154 kJ/mol
# Density = 1.893966 g / cm^3
# Si number density = 18.982871 Si / 1000 Ang^3
#
#
#
# Elastic Constant Matrix: (Units=GPa)
#
#
# Indices 1 2 3 4 5 6 
#
# 1 107.0287 15.9734 32.0498 0.0000 0.0000 0.0000
# 2 15.9734 44.0659 24.0607 0.0000 0.0000 0.0000
# 3 32.0498 24.0607 160.6809 0.0000 0.0000 0.0000
# 4 0.0000 0.0000 0.0000 21.6639 0.0000 0.0000
# 5 0.0000 0.0000 0.0000 0.0000 -17.9033 0.0000
# 6 0.0000 0.0000 0.0000 0.0000 0.0000 14.9855
#
#
#
# Elastic Compliance Matrix: (Units=1/GPa)
#
#
# Indices 1 2 3 4 5 6 
#
# 1 0.010251 -0.002831 -0.001621 0.000000 0.000000 0.000000
# 2 -0.002831 0.025496 -0.003253 0.000000 0.000000 0.000000
# 3 -0.001621 -0.003253 0.007034 0.000000 0.000000 0.000000
# 4 0.000000 0.000000 0.000000 0.046160 0.000000 0.000000
# 5 0.000000 0.000000 0.000000 0.000000 -0.055856 0.000000
# 6 0.000000 0.000000 0.000000 0.000000 0.000000 0.066731
#
#
# Mechanical properties :
#
#
# Convention : Reuss Voigt Hill
#
# Bulk Modulus (GPa) = 36.53492 50.66036 43.59764
# Shear Modulus (GPa) = 40.20924 19.72866 29.96895
#
# Velocity S-wave (km/s) = 4.60737 3.22730 3.97764
# Velocity P-wave (km/s) = 6.89868 6.37437 6.64170
#
# Compressibility (1/GPa) = 0.02737108
#
# Stress axis : x y z
#
# Youngs Moduli (GPa) = 97.55014 39.22224 142.16793
#
# Poissons Ratio (x) = 0.11104 0.23043
# Poissons Ratio (y) = 0.27616 0.46249
# Poissons Ratio (z) = 0.15811 0.12759
#
# Static dielectric constant tensor:
#      x y z
#    x 1.691700 0.000000 0.000000 
#    y 0.000000 1.711620 0.000000 
#    z 0.000000 0.000000 1.733700 
# 
# From -- ./inp_files/22158.got.cif
#   From: 2010.05.17/outbox.cif.g08.bks.cpg/sg58_12_cif.got.tgz:22158.got - 2010.06.03 14:20:14.
