data_PCOD9441950
_publ_section_title
;
Structure prediction by ZEFSAII (Michael W. Deem and Ramdas Pophale) SiO2 
 PCOD9441950
Probable space group: P N N M
;
_chemical_formula_sum "Si O2"
_cell_formula_units_Z 64
_cell_length_a 31.081451
_cell_length_b 14.729172
_cell_length_c 8.641218
_cell_angle_alpha 90.000000
_cell_angle_beta 90.000000
_cell_angle_gamma 90.000000
_cell_volume 3955.984492
_symmetry_space_group_name_H-M "P N N M"
_symmetry_group_IT_number 58
_symmetry_cell_setting 'orthorhombic'
loop_
_space_group_symop_operation_xyz
x,y,z
-x,-y,z
1/2+x,1/2-y,1/2-z
1/2-x,1/2+y,1/2-z
-x,-y,-z
x,y,-z
1/2-x,1/2+y,1/2+z
1/2+x,1/2-y,1/2+z
loop_
_atom_site_type_symbol
_atom_site_label
_atom_site_fract_x
_atom_site_fract_y
_atom_site_fract_z
Si Si1 0.323687 0.478478 0.822060
Si Si2 0.700945 0.827168 0.312363
Si Si3 0.712322 0.218678 0.812052
Si Si4 0.870450 0.828603 0.319479
Si Si5 0.547087 0.597657 0.817677
Si Si6 0.371906 0.312433 0.318113
Si Si7 0.230135 0.488584 0.685451
Si Si8 0.955118 0.896827 0.817437
O O1 0.351073 0.569976 0.814747
O O2 0.343199 0.401716 0.713191
O O3 0.275856 0.500886 0.768550
O O4 0.324232 0.446021 0.000000
O O5 0.702249 0.832259 0.500000
O O6 0.744285 0.772048 0.262409
O O7 0.658457 0.770723 0.268341
O O8 0.701709 0.927247 0.241414
O O9 0.667987 0.264869 0.758252
O O10 0.714472 0.112551 0.772036
O O11 0.712098 0.225441 0.000000
O O12 0.878628 0.806111 0.500000
O O13 0.915239 0.833847 0.229944
O O14 0.583759 0.668515 0.769854
O O15 0.499400 0.627781 0.768576
O O16 0.554824 0.501014 0.732937
O O17 0.548954 0.580332 0.000000
O O18 0.380777 0.303771 0.500000
O O19 0.235326 0.491422 0.500000
O O20 0.962169 0.895008 0.000000
#
# Coordination Sequence:
#
# PCOD9441950 Si02
#       8
#     8   8   8   8   8   8   8   8
#     4  11  20  30  49  73 102 138 173 211 252 300
#     4  10  20  36  52  71 102 138 172 209 257 305
#     4   9  18  34  51  69  98 137 173 207 251 299
#     4  10  19  33  51  70  98 138 176 207 251 303
#     4  11  21  34  51  73 103 135 170 206 251 307
#     4  11  21  34  52  73 102 138 174 211 255 302
#     4  11  21  34  51  73 101 135 177 219 252 294
#     4  11  21  33  50  74 104 133 168 209 254 303
#
# _framework density 16.17802
#
# number of rings (size 3 to 8) (size 9 to 14) (size 15 to 20)
#    0.000    1.500    3.750    4.125    0.000    1.500 
#    0.000    1.250    0.000    0.000    0.000    0.875 
#    0.000    7.000    0.000    0.000    0.000    0.000 
#
# Total GULP energy -357209.341043 kJ/mol
# GULP energy per Si atom -5581.395954 kJ/mol
# Density = 1.614120 g / cm^3
# Si number density = 16.178020 Si / 1000 Ang^3
#
#
#
# Elastic Constant Matrix: (Units=GPa)
#
#
# Indices 1 2 3 4 5 6 
#
# 1 70.3076 6.9655 -2.7193 0.0000 0.0000 0.0000
# 2 6.9655 47.2479 -1.3057 0.0000 0.0000 0.0000
# 3 -2.7193 -1.3057 17.3538 0.0000 0.0000 0.0000
# 4 0.0000 0.0000 0.0000 16.1883 0.0000 0.0000
# 5 0.0000 0.0000 0.0000 0.0000 27.1662 0.0000
# 6 0.0000 0.0000 0.0000 0.0000 0.0000 19.0672
#
#
#
# Elastic Compliance Matrix: (Units=1/GPa)
#
#
# Indices 1 2 3 4 5 6 
#
# 1 0.014511 -0.002081 0.002117 0.000000 0.000000 0.000000
# 2 -0.002081 0.021507 0.001292 0.000000 0.000000 0.000000
# 3 0.002117 0.001292 0.058053 0.000000 0.000000 0.000000
# 4 0.000000 0.000000 0.000000 0.061773 0.000000 0.000000
# 5 0.000000 0.000000 0.000000 0.000000 0.036810 0.000000
# 6 0.000000 0.000000 0.000000 0.000000 0.000000 0.052446
#
#
# Mechanical properties :
#
#
# Convention : Reuss Voigt Hill
#
# Bulk Modulus (GPa) = 10.33814 15.64337 12.99075
# Shear Modulus (GPa) = 18.20251 21.28224 19.74238
#
# Velocity S-wave (km/s) = 3.35795 3.63092 3.49710
# Velocity P-wave (km/s) = 4.63018 5.22194 4.93493
#
# Compressibility (1/GPa) = 0.09672919
#
# Stress axis : x y z
#
# Youngs Moduli (GPa) = 68.91202 46.49559 17.22559
#
# Poissons Ratio (x) = 0.09675 -0.03647
# Poissons Ratio (y) = 0.14339 -0.02226
# Poissons Ratio (z) = -0.14591 -0.06008
#
# Static dielectric constant tensor:
#      x y z
#    x 1.557260 0.000000 0.000000 
#    y 0.000000 1.529330 0.000000 
#    z 0.000000 0.000000 1.550290 
# 
# From -- ./inp_files/7151.got.cif
#   From: 2010.05.17/outbox.cif.g08.bks.cpg/sg58_4_cif.got.tgz:7151.got - 2010.06.03 14:20:14.
