data_PCOD9441602
_publ_section_title
;
Structure prediction by ZEFSAII (Michael W. Deem and Ramdas Pophale) SiO2 
 PCOD9441602
Probable space group: P N N M
;
_chemical_formula_sum "Si O2"
_cell_formula_units_Z 56
_cell_length_a 21.735845
_cell_length_b 14.840960
_cell_length_c 7.643333
_cell_angle_alpha 90.000000
_cell_angle_beta 90.000000
_cell_angle_gamma 90.000000
_cell_volume 2465.592521
_symmetry_space_group_name_H-M "P N N M"
_symmetry_group_IT_number 58
_symmetry_cell_setting 'orthorhombic'
loop_
_space_group_symop_operation_xyz
x,y,z
-x,-y,z
1/2+x,1/2-y,1/2-z
1/2-x,1/2+y,1/2-z
-x,-y,-z
x,y,-z
1/2-x,1/2+y,1/2+z
1/2+x,1/2-y,1/2+z
loop_
_atom_site_type_symbol
_atom_site_label
_atom_site_fract_x
_atom_site_fract_y
_atom_site_fract_z
Si Si1 0.957888 0.913795 0.789998
Si Si2 0.012521 0.285840 0.700389
Si Si3 0.139761 0.952716 0.788147
Si Si4 0.770289 0.504554 0.705791
Si Si5 0.382714 0.259319 0.796464
Si Si6 0.751150 0.799426 0.700855
Si Si7 0.855705 0.657671 0.284952
O O1 0.972444 0.820635 0.700434
O O2 0.890598 0.951731 0.745313
O O3 0.963036 0.899393 0.000000
O O4 0.000000 0.000000 0.747339
O O5 0.007337 0.318182 0.500000
O O6 0.074562 0.327961 0.779023
O O7 0.943174 0.291557 0.776591
O O8 0.208640 0.951700 0.718764
O O9 0.104735 0.865944 0.718289
O O10 0.137643 0.946066 0.000000
O O11 0.768714 0.524409 0.500000
O O12 0.761960 0.397987 0.721596
O O13 0.828889 0.560247 0.770076
O O14 0.316431 0.245976 0.709679
O O15 0.375867 0.234662 0.000000
O O16 0.767424 0.814587 0.500000
O O17 0.805680 0.734431 0.771653
O O18 0.858346 0.662596 0.500000
#
# Coordination Sequence:
#
# PCOD9441602 Si02
#       7
#     8   8   8   8   8   8   8
#     4  10  19  30  49  78 113 148 182 223 282 350
#     4  10  21  36  55  81 113 150 193 237 283 338
#     4  10  19  34  55  80 113 151 187 228 286 345
#     4  10  20  37  60  84 111 146 190 238 286 339
#     4  11  22  35  55  83 114 148 190 235 279 336
#     4  11  22  39  62  86 114 151 192 237 289 341
#     4   9  19  38  61  83 113 151 188 233 290 341
#
# _framework density 22.712592999999998
#
# number of rings (size 3 to 8) (size 9 to 14) (size 15 to 20)
#    0.000    1.857    2.857    1.714    0.000    2.000 
#    0.000    2.143    0.000    4.286    0.000    0.000 
#    0.000    0.000    0.000    0.000    0.000    0.000 
#
# Total GULP energy -312335.652113 kJ/mol
# GULP energy per Si atom -5577.422359 kJ/mol
# Density = 2.266090 g / cm^3
# Si number density = 22.712593 Si / 1000 Ang^3
#
#
#
# Elastic Constant Matrix: (Units=GPa)
#
#
# Indices 1 2 3 4 5 6 
#
# 1 75.5945 -7.0333 -4.7128 0.0000 0.0000 0.0000
# 2 -7.0333 34.8789 -12.8733 0.0000 0.0000 0.0000
# 3 -4.7128 -12.8733 41.0236 0.0000 0.0000 0.0000
# 4 0.0000 0.0000 0.0000 21.8784 0.0000 0.0000
# 5 0.0000 0.0000 0.0000 0.0000 4.5247 0.0000
# 6 0.0000 0.0000 0.0000 0.0000 0.0000 30.5240
#
#
#
# Elastic Compliance Matrix: (Units=1/GPa)
#
#
# Indices 1 2 3 4 5 6 
#
# 1 0.013754 0.003796 0.002771 0.000000 0.000000 0.000000
# 2 0.003796 0.033474 0.010940 0.000000 0.000000 0.000000
# 3 0.002771 0.010940 0.028128 0.000000 0.000000 0.000000
# 4 0.000000 0.000000 0.000000 0.045707 0.000000 0.000000
# 5 0.000000 0.000000 0.000000 0.000000 0.221011 0.000000
# 6 0.000000 0.000000 0.000000 0.000000 0.000000 0.032761
#
#
# Mechanical properties :
#
#
# Convention : Reuss Voigt Hill
#
# Bulk Modulus (GPa) = 9.06019 11.36203 10.21111
# Shear Modulus (GPa) = 13.27635 23.12650 18.20142
#
# Velocity S-wave (km/s) = 2.42034 3.19442 2.83394
# Velocity P-wave (km/s) = 3.43634 4.31499 3.90049
#
# Compressibility (1/GPa) = 0.11037296
#
# Stress axis : x y z
#
# Youngs Moduli (GPa) = 72.70361 29.87382 35.55210
#
# Poissons Ratio (x) = -0.11342 -0.09853
# Poissons Ratio (y) = -0.27602 -0.38895
# Poissons Ratio (z) = -0.20149 -0.32683
#
# Static dielectric constant tensor:
#      x y z
#    x 1.939900 0.000000 0.000000 
#    y 0.000000 1.848540 0.000000 
#    z 0.000000 0.000000 1.883500 
# 
# From -- ./inp_files/6354.got.cif
#   From: 2010.05.17/outbox.cif.g08.bks.cpg/sg58_4_cif.got.tgz:6354.got - 2010.06.03 14:20:14.
