data_PCOD9441484
_publ_section_title
;
Structure prediction by ZEFSAII (Michael W. Deem and Ramdas Pophale) SiO2 
 PCOD9441484
Probable space group: P N N M
;
_chemical_formula_sum "Si O2"
_cell_formula_units_Z 40
_cell_length_a 13.355207
_cell_length_b 8.268453
_cell_length_c 14.652143
_cell_angle_alpha 90.000000
_cell_angle_beta 90.000000
_cell_angle_gamma 90.000000
_cell_volume 1617.990750
_symmetry_space_group_name_H-M "P N N M"
_symmetry_group_IT_number 58
_symmetry_cell_setting 'orthorhombic'
loop_
_space_group_symop_operation_xyz
x,y,z
-x,-y,z
1/2+x,1/2-y,1/2-z
1/2-x,1/2+y,1/2-z
-x,-y,-z
x,y,-z
1/2-x,1/2+y,1/2+z
1/2+x,1/2-y,1/2+z
loop_
_atom_site_type_symbol
_atom_site_label
_atom_site_fract_x
_atom_site_fract_y
_atom_site_fract_z
Si Si1 0.239521 0.519790 0.805108
Si Si2 0.628599 0.791574 0.000000
Si Si3 0.592636 0.729497 0.795228
Si Si4 0.675126 0.482628 0.500000
Si Si5 0.067638 0.679052 0.000000
Si Si6 0.245061 0.045055 0.500000
Si Si7 0.080372 0.239692 0.844700
O O1 0.343246 0.434496 0.776896
O O2 0.169363 0.633395 0.743872
O O3 0.168668 0.365057 0.824934
O O4 0.270811 0.613598 0.898746
O O5 0.574918 0.774892 0.097926
O O6 0.707492 0.939475 0.000000
O O7 0.694574 0.628343 0.000000
O O8 0.486559 0.713251 0.745160
O O9 0.642665 0.667765 0.500000
O O10 0.626262 0.401200 0.590635
O O11 0.004531 0.688627 0.910118
O O12 0.135884 0.523184 0.000000
#
# Coordination Sequence:
#
# PCOD9441484 Si02
#       7
#     8   4   8   4   4   4   8
#     4  11  23  40  61  93 127 173 215 273 324 399
#     4  10  23  43  61  91 140 177 210 271 324 393
#     4  11  24  38  66  91 132 174 221 259 334 389
#     4  11  22  41  66 100 136 156 215 291 336 377
#     4  11  23  32  68 105 127 163 211 280 351 383
#     4  10  18  40  62  90 131 159 204 271 332 392
#     4  11  21  39  64  95 130 167 216 267 333 383
#
# _framework density 24.722021000000002
#
# number of rings (size 3 to 8) (size 9 to 14) (size 15 to 20)
#    0.000    1.200    6.000    2.400    2.800    2.400 
#    0.000    2.000    0.000    0.000    0.000    7.000 
#    0.000    0.000    0.000    0.000    0.000    0.000 
#
# Total GULP energy -223383.371955 kJ/mol
# GULP energy per Si atom -5584.584299 kJ/mol
# Density = 2.466575 g / cm^3
# Si number density = 24.722021 Si / 1000 Ang^3
#
#
#
# Elastic Constant Matrix: (Units=GPa)
#
#
# Indices 1 2 3 4 5 6 
#
# 1 62.6612 17.4303 67.5978 0.0000 0.0000 0.0000
# 2 17.4303 67.9282 52.4452 0.0000 0.0000 0.0000
# 3 67.5978 52.4452 190.7205 0.0000 0.0000 0.0000
# 4 0.0000 0.0000 0.0000 31.7686 0.0000 0.0000
# 5 0.0000 0.0000 0.0000 0.0000 47.8090 0.0000
# 6 0.0000 0.0000 0.0000 0.0000 0.0000 28.5117
#
#
#
# Elastic Compliance Matrix: (Units=1/GPa)
#
#
# Indices 1 2 3 4 5 6 
#
# 1 0.025855 0.000560 -0.009318 0.000000 0.000000 0.000000
# 2 0.000560 0.018701 -0.005341 0.000000 0.000000 0.000000
# 3 -0.009318 -0.005341 0.010014 0.000000 0.000000 0.000000
# 4 0.000000 0.000000 0.000000 0.031478 0.000000 0.000000
# 5 0.000000 0.000000 0.000000 0.000000 0.020917 0.000000
# 6 0.000000 0.000000 0.000000 0.000000 0.000000 0.035073
#
#
# Mechanical properties :
#
#
# Convention : Reuss Voigt Hill
#
# Bulk Modulus (GPa) = 37.91804 66.25074 52.08439
# Shear Modulus (GPa) = 27.92867 33.87365 30.90116
#
# Velocity S-wave (km/s) = 3.36476 3.70561 3.53929
# Velocity P-wave (km/s) = 5.51965 6.72051 6.14946
#
# Compressibility (1/GPa) = 0.02637267
#
# Stress axis : x y z
#
# Youngs Moduli (GPa) = 38.67721 53.47194 99.85531
#
# Poissons Ratio (x) = -0.02992 0.93043
# Poissons Ratio (y) = -0.02164 0.53332
# Poissons Ratio (z) = 0.36039 0.28559
#
# Static dielectric constant tensor:
#      x y z
#    x 1.924750 0.000000 0.000000 
#    y 0.000000 2.003670 0.000000 
#    z 0.000000 0.000000 2.082200 
# 
# From -- ./inp_files/21943.got.cif
#   From: 2010.05.17/outbox.cif.g08.bks.cpg/sg58_11_cif.got.tgz:21943.got - 2010.06.03 14:20:14.
