data_PCOD9441132
_publ_section_title
;
Structure prediction by ZEFSAII (Michael W. Deem and Ramdas Pophale) SiO2 
 PCOD9441132
Probable space group: P N N M
;
_chemical_formula_sum "Si O2"
_cell_formula_units_Z 64
_cell_length_a 21.951248
_cell_length_b 18.758867
_cell_length_c 9.307483
_cell_angle_alpha 90.000000
_cell_angle_beta 90.000000
_cell_angle_gamma 90.000000
_cell_volume 3832.640392
_symmetry_space_group_name_H-M "P N N M"
_symmetry_group_IT_number 58
_symmetry_cell_setting 'orthorhombic'
loop_
_space_group_symop_operation_xyz
x,y,z
-x,-y,z
1/2+x,1/2-y,1/2-z
1/2-x,1/2+y,1/2-z
-x,-y,-z
x,y,-z
1/2-x,1/2+y,1/2+z
1/2+x,1/2-y,1/2+z
loop_
_atom_site_type_symbol
_atom_site_label
_atom_site_fract_x
_atom_site_fract_y
_atom_site_fract_z
Si Si1 0.011456 0.415670 0.668821
Si Si2 0.906433 0.332422 0.170992
Si Si3 0.197516 0.581436 0.671221
Si Si4 0.814606 0.966095 0.333751
Si Si5 0.764321 0.129131 0.663422
Si Si6 0.879059 0.173559 0.830209
Si Si7 0.069551 0.981174 0.172553
Si Si8 0.848346 0.581041 0.669313
O O1 0.001817 0.398029 0.500000
O O2 0.964409 0.373119 0.765522
O O3 0.000000 0.500000 0.683386
O O4 0.081930 0.403140 0.706248
O O5 0.846913 0.362956 0.251397
O O6 0.912201 0.247921 0.197426
O O7 0.900615 0.344272 0.000000
O O8 0.201832 0.593711 0.500000
O O9 0.263948 0.577607 0.744975
O O10 0.166635 0.502972 0.691647
O O11 0.819388 0.943003 0.500000
O O12 0.788848 0.047353 0.334633
O O13 0.879839 0.972201 0.255447
O O14 0.758892 0.152734 0.500000
O O15 0.815424 0.172655 0.746906
O O16 0.699769 0.126342 0.741440
O O17 0.916168 0.101872 0.792905
O O18 0.866109 0.169150 0.000000
O O19 0.077334 0.990423 0.000000
O O20 0.000000 0.000000 0.209058
O O21 0.839573 0.594085 0.500000
#
# Coordination Sequence:
#
# PCOD9441132 Si02
#       8
#     8   8   8   8   8   8   8   8
#     4  10  19  34  51  73 103 139 182 217 249 303
#     4  11  22  33  49  74 104 138 171 214 267 313
#     4  10  18  31  50  72  99 133 171 208 250 303
#     4   9  17  29  47  76 106 126 155 206 260 302
#     4   9  17  29  49  75  98 122 161 208 250 297
#     4   9  19  35  52  73 103 134 167 210 263 317
#     4   9  17  32  56  80 100 132 177 216 256 312
#     4   9  17  30  50  72  98 131 167 210 253 293
#
# _framework density 16.69867
#
# number of rings (size 3 to 8) (size 9 to 14) (size 15 to 20)
#    0.000    2.500    1.250    1.500    0.000    5.500 
#    0.000    0.000    2.750    0.000    0.000    0.000 
#    0.000    0.000    0.000    0.000    0.000    0.000 
#
# Total GULP energy -356794.586290 kJ/mol
# GULP energy per Si atom -5574.915411 kJ/mol
# Density = 1.666066 g / cm^3
# Si number density = 16.698670 Si / 1000 Ang^3
#
#
#
# Elastic Constant Matrix: (Units=GPa)
#
#
# Indices 1 2 3 4 5 6 
#
# 1 148.4184 45.2593 75.9101 0.0000 0.0000 0.0000
# 2 45.2593 48.1282 43.8177 0.0000 0.0000 0.0000
# 3 75.9101 43.8177 74.5528 0.0000 0.0000 0.0000
# 4 0.0000 0.0000 0.0000 12.4535 0.0000 0.0000
# 5 0.0000 0.0000 0.0000 0.0000 27.8744 0.0000
# 6 0.0000 0.0000 0.0000 0.0000 0.0000 16.8288
#
#
#
# Elastic Compliance Matrix: (Units=1/GPa)
#
#
# Indices 1 2 3 4 5 6 
#
# 1 0.014063 -0.000405 -0.014081 0.000000 0.000000 0.000000
# 2 -0.000405 0.044705 -0.025863 0.000000 0.000000 0.000000
# 3 -0.014081 -0.025863 0.042952 0.000000 0.000000 0.000000
# 4 0.000000 0.000000 0.000000 0.080298 0.000000 0.000000
# 5 0.000000 0.000000 0.000000 0.000000 0.035875 0.000000
# 6 0.000000 0.000000 0.000000 0.000000 0.000000 0.059422
#
#
# Mechanical properties :
#
#
# Convention : Reuss Voigt Hill
#
# Bulk Modulus (GPa) = 47.56921 66.78596 57.17758
# Shear Modulus (GPa) = 13.69786 18.50550 16.10168
#
# Velocity S-wave (km/s) = 2.86719 3.33258 3.10861
# Velocity P-wave (km/s) = 6.28567 7.40876 6.87020
#
# Compressibility (1/GPa) = 0.02102200
#
# Stress axis : x y z
#
# Youngs Moduli (GPa) = 71.10787 22.36885 23.28197
#
# Poissons Ratio (x) = 0.00905 0.32784
# Poissons Ratio (y) = 0.02877 0.60214
# Poissons Ratio (z) = 1.00129 0.57852
#
# Static dielectric constant tensor:
#      x y z
#    x 1.548860 0.000000 0.000000 
#    y 0.000000 1.554090 0.000000 
#    z 0.000000 0.000000 1.559990 
# 
# From -- ./inp_files/8386.got.cif
#   From: 2010.05.17/outbox.cif.g08.bks.cpg/sg58_5_cif.got.tgz:8386.got - 2010.06.03 14:20:14.
