data_PCOD9441194
_publ_section_title
;
Structure prediction by ZEFSAII (Michael W. Deem and Ramdas Pophale) SiO2 
 PCOD9441194
Probable space group: P N N M
;
_chemical_formula_sum "Si O2"
_cell_formula_units_Z 52
_cell_length_a 8.844766
_cell_length_b 21.708863
_cell_length_c 14.850138
_cell_angle_alpha 90.000000
_cell_angle_beta 90.000000
_cell_angle_gamma 90.000000
_cell_volume 2851.372226
_symmetry_space_group_name_H-M "P N N M"
_symmetry_group_IT_number 58
_symmetry_cell_setting 'orthorhombic'
loop_
_space_group_symop_operation_xyz
x,y,z
-x,-y,z
1/2+x,1/2-y,1/2-z
1/2-x,1/2+y,1/2-z
-x,-y,-z
x,y,-z
1/2-x,1/2+y,1/2+z
1/2+x,1/2-y,1/2+z
loop_
_atom_site_type_symbol
_atom_site_label
_atom_site_fract_x
_atom_site_fract_y
_atom_site_fract_z
Si Si1 0.526563 0.747765 0.099604
Si Si2 0.202479 0.106897 0.253138
Si Si3 0.684997 0.804711 0.396999
Si Si4 0.936540 0.395782 0.398834
Si Si5 0.280881 0.410819 0.393920
Si Si6 0.000000 0.000000 0.788443
Si Si7 0.061858 0.802739 0.210941
O O1 0.348859 0.729693 0.102997
O O2 0.544234 0.821310 0.106578
O O3 0.599814 0.714694 0.185795
O O4 0.582810 0.729072 0.000000
O O5 0.287235 0.133866 0.339438
O O6 0.319553 0.086442 0.177273
O O7 0.088068 0.050903 0.269601
O O8 0.099651 0.162839 0.213623
O O9 0.641881 0.815358 0.500000
O O10 0.569249 0.759925 0.345739
O O11 0.883390 0.411078 0.500000
O O12 0.102983 0.423289 0.385706
O O13 0.312832 0.400399 0.500000
O O14 0.383258 0.464111 0.352436
O O15 0.325093 0.350310 0.336822
#
# Coordination Sequence:
#
# PCOD9441194 Si02
#       7
#     8   8   8   8   8   4   8
#     4   9  17  30  49  76 111 143 174 214 263 328
#     4  10  22  36  53  80 113 144 185 225 271 323
#     4  10  18  32  55  81 109 142 180 222 278 330
#     4  10  19  32  52  78 109 144 177 216 272 327
#     4  10  20  35  57  80 110 149 186 226 271 323
#     4  10  23  40  55  76 106 146 193 234 269 320
#     4  10  18  31  55  80 110 145 176 220 273 326
#
# _framework density 18.236832
#
# number of rings (size 3 to 8) (size 9 to 14) (size 15 to 20)
#    0.000    2.154    3.077    0.692    0.000    4.308 
#    0.000    1.923    0.000    0.923    0.000    1.077 
#    0.000    0.000    0.000    0.000    0.000    0.000 
#
# Total GULP energy -290101.712065 kJ/mol
# GULP energy per Si atom -5578.879078 kJ/mol
# Density = 1.819532 g / cm^3
# Si number density = 18.236832 Si / 1000 Ang^3
#
#
#
# Elastic Constant Matrix: (Units=GPa)
#
#
# Indices 1 2 3 4 5 6 
#
# 1 29.9949 28.8582 32.8628 0.0000 0.0000 0.0000
# 2 28.8582 80.1939 48.6725 0.0000 0.0000 0.0000
# 3 32.8628 48.6725 118.5377 0.0000 0.0000 0.0000
# 4 0.0000 0.0000 0.0000 10.1677 0.0000 0.0000
# 5 0.0000 0.0000 0.0000 0.0000 20.7477 0.0000
# 6 0.0000 0.0000 0.0000 0.0000 0.0000 26.3118
#
#
#
# Elastic Compliance Matrix: (Units=1/GPa)
#
#
# Indices 1 2 3 4 5 6 
#
# 1 0.058951 -0.015043 -0.010166 0.000000 0.000000 0.000000
# 2 -0.015043 0.020448 -0.004225 0.000000 0.000000 0.000000
# 3 -0.010166 -0.004225 0.012990 0.000000 0.000000 0.000000
# 4 0.000000 0.000000 0.000000 0.098351 0.000000 0.000000
# 5 0.000000 0.000000 0.000000 0.000000 0.048198 0.000000
# 6 0.000000 0.000000 0.000000 0.000000 0.000000 0.038006
#
#
# Mechanical properties :
#
#
# Convention : Reuss Voigt Hill
#
# Bulk Modulus (GPa) = 29.83493 49.94595 39.89044
# Shear Modulus (GPa) = 14.40981 19.33429 16.87205
#
# Velocity S-wave (km/s) = 2.81401 3.25957 3.04495
# Velocity P-wave (km/s) = 5.19167 6.45083 5.85520
#
# Compressibility (1/GPa) = 0.03351776
#
# Stress axis : x y z
#
# Youngs Moduli (GPa) = 16.96335 48.90497 76.98481
#
# Poissons Ratio (x) = 0.73570 0.78264
# Poissons Ratio (y) = 0.25519 0.32530
# Poissons Ratio (z) = 0.17245 0.20665
#
# Static dielectric constant tensor:
#      x y z
#    x 1.633150 0.000000 0.000000 
#    y 0.000000 1.641090 0.000000 
#    z 0.000000 0.000000 1.613170 
# 
# From -- ./inp_files/20052.got.cif
#   From: 2010.05.17/outbox.cif.g08.bks.cpg/sg58_11_cif.got.tgz:20052.got - 2010.06.03 14:20:14.
