data_PCOD9441959
_publ_section_title
;
Structure prediction by ZEFSAII (Michael W. Deem and Ramdas Pophale) SiO2 
 PCOD9441959
Probable space group: P N N M
;
_chemical_formula_sum "Si O2"
_cell_formula_units_Z 64
_cell_length_a 23.606824
_cell_length_b 19.410502
_cell_length_c 8.874012
_cell_angle_alpha 90.000000
_cell_angle_beta 90.000000
_cell_angle_gamma 90.000000
_cell_volume 4066.252480
_symmetry_space_group_name_H-M "P N N M"
_symmetry_group_IT_number 58
_symmetry_cell_setting 'orthorhombic'
loop_
_space_group_symop_operation_xyz
x,y,z
-x,-y,z
1/2+x,1/2-y,1/2-z
1/2-x,1/2+y,1/2-z
-x,-y,-z
x,y,-z
1/2-x,1/2+y,1/2+z
1/2+x,1/2-y,1/2+z
loop_
_atom_site_type_symbol
_atom_site_label
_atom_site_fract_x
_atom_site_fract_y
_atom_site_fract_z
Si Si1 0.248878 0.991852 0.179213
Si Si2 0.938500 0.149571 0.320616
Si Si3 0.733790 0.151234 0.679387
Si Si4 0.159984 0.768491 0.180088
Si Si5 0.876829 0.003457 0.679873
Si Si6 0.828454 0.788825 0.178649
Si Si7 0.939068 0.872220 0.180031
Si Si8 0.275672 0.131244 0.678562
O O1 0.185393 0.996318 0.247525
O O2 0.281416 0.059688 0.235025
O O3 0.275541 0.921511 0.241725
O O4 0.245240 0.990398 0.000000
O O5 0.940742 0.159629 0.500000
O O6 0.899957 0.207800 0.244101
O O7 0.000984 0.145516 0.252556
O O8 0.907241 0.076455 0.292208
O O9 0.739463 0.141520 0.500000
O O10 0.791900 0.184109 0.742887
O O11 0.686109 0.209152 0.708603
O O12 0.177601 0.689661 0.212715
O O13 0.162414 0.778404 0.000000
O O14 0.871829 0.993769 0.500000
O O15 0.913991 0.942450 0.750525
O O16 0.891686 0.813826 0.210312
O O17 0.783875 0.834616 0.270989
O O18 0.817471 0.800921 0.000000
O O19 0.944760 0.879850 0.000000
O O20 0.274873 0.118914 0.500000
#
# Coordination Sequence:
#
# PCOD9441959 Si02
#       8
#     8   8   8   8   8   8   8   8
#     4  12  22  32  50  76 104 136 172 207 251 303
#     4  11  23  36  51  71 101 141 178 213 251 297
#     4  10  19  33  52  73 101 133 166 207 255 306
#     4  10  20  34  52  75 100 130 170 213 253 301
#     4  11  22  35  49  70 101 138 178 212 247 295
#     4   9  19  34  51  73 100 132 168 208 255 301
#     4  11  22  35  52  74 101 136 176 216 252 297
#     4  10  20  33  52  75 101 132 166 208 258 304
#
# _framework density 15.739307
#
# number of rings (size 3 to 8) (size 9 to 14) (size 15 to 20)
#    0.000    1.500    2.500    3.750    0.000    5.500 
#    0.000    0.000    0.000    0.000    0.000    0.875 
#    0.000    7.000    0.000    0.000    0.000    0.000 
#
# Total GULP energy -357475.051539 kJ/mol
# GULP energy per Si atom -5585.547680 kJ/mol
# Density = 1.570348 g / cm^3
# Si number density = 15.739307 Si / 1000 Ang^3
#
#
#
# Elastic Constant Matrix: (Units=GPa)
#
#
# Indices 1 2 3 4 5 6 
#
# 1 62.3218 37.9051 41.6142 0.0000 0.0000 0.0000
# 2 37.9051 107.8616 59.2274 0.0000 0.0000 0.0000
# 3 41.6142 59.2274 78.0479 0.0000 0.0000 0.0000
# 4 0.0000 0.0000 0.0000 27.8380 0.0000 0.0000
# 5 0.0000 0.0000 0.0000 0.0000 24.2518 0.0000
# 6 0.0000 0.0000 0.0000 0.0000 0.0000 17.6542
#
#
#
# Elastic Compliance Matrix: (Units=1/GPa)
#
#
# Indices 1 2 3 4 5 6 
#
# 1 0.025318 -0.002546 -0.011568 0.000000 0.000000 0.000000
# 2 -0.002546 0.016150 -0.010898 0.000000 0.000000 0.000000
# 3 -0.011568 -0.010898 0.027251 0.000000 0.000000 0.000000
# 4 0.000000 0.000000 0.000000 0.035922 0.000000 0.000000
# 5 0.000000 0.000000 0.000000 0.000000 0.041234 0.000000
# 6 0.000000 0.000000 0.000000 0.000000 0.000000 0.056644
#
#
# Mechanical properties :
#
#
# Convention : Reuss Voigt Hill
#
# Bulk Modulus (GPa) = 53.48797 58.41386 55.95092
# Shear Modulus (GPa) = 19.32193 21.24778 20.28486
#
# Velocity S-wave (km/s) = 3.50755 3.67820 3.59388
# Velocity P-wave (km/s) = 7.10361 7.43188 7.26960
#
# Compressibility (1/GPa) = 0.01869579
#
# Stress axis : x y z
#
# Youngs Moduli (GPa) = 39.49760 61.91933 36.69642
#
# Poissons Ratio (x) = 0.15762 0.42449
# Poissons Ratio (y) = 0.10054 0.39993
# Poissons Ratio (z) = 0.45689 0.67482
#
# Static dielectric constant tensor:
#      x y z
#    x 1.496510 0.000000 0.000000 
#    y 0.000000 1.533030 0.000000 
#    z 0.000000 0.000000 1.524230 
# 
# From -- ./inp_files/8480.got.cif
#   From: 2010.05.17/outbox.cif.g08.bks.cpg/sg58_5_cif.got.tgz:8480.got - 2010.06.03 14:20:14.
