data_PCOD9441441
_publ_section_title
;
Structure prediction by ZEFSAII (Michael W. Deem and Ramdas Pophale) SiO2 
 PCOD9441441
Probable space group: P N N M
;
_chemical_formula_sum "Si O2"
_cell_formula_units_Z 32
_cell_length_a 6.591254
_cell_length_b 10.118173
_cell_length_c 17.868191
_cell_angle_alpha 90.000000
_cell_angle_beta 90.000000
_cell_angle_gamma 90.000000
_cell_volume 1191.655536
_symmetry_space_group_name_H-M "P N N M"
_symmetry_group_IT_number 58
_symmetry_cell_setting 'orthorhombic'
loop_
_space_group_symop_operation_xyz
x,y,z
-x,-y,z
1/2+x,1/2-y,1/2-z
1/2-x,1/2+y,1/2-z
-x,-y,-z
x,y,-z
1/2-x,1/2+y,1/2+z
1/2+x,1/2-y,1/2+z
loop_
_atom_site_type_symbol
_atom_site_label
_atom_site_fract_x
_atom_site_fract_y
_atom_site_fract_z
Si Si1 0.719490 0.400262 0.123437
Si Si2 0.114637 0.366381 0.335522
Si Si3 0.571863 0.340382 0.284245
Si Si4 0.819275 0.684226 0.916126
O O1 0.612496 0.257988 0.106793
O O2 0.691384 0.548970 0.093527
O O3 0.329677 0.587363 0.212479
O O4 0.948966 0.364317 0.099242
O O5 0.356800 0.390331 0.317441
O O6 0.039696 0.302108 0.257221
O O7 0.000000 0.500000 0.354233
O O8 0.707164 0.298246 0.354757
O O9 0.802071 0.733335 0.000000
#
# Coordination Sequence:
#
# PCOD9441441 Si02
#       4
#     8   8   8   8
#     4   8  18  32  59  97 137 179 232 283 351 422
#     4   9  19  33  58  90 137 179 236 287 344 416
#     4   9  20  36  61  98 136 184 238 286 359 427
#     4  10  18  35  67 105 142 181 229 305 366 407
#
# _framework density 26.853396
#
# number of rings (size 3 to 8) (size 9 to 14) (size 15 to 20)
#    1.500    1.500    0.000    1.500    7.000    0.000 
#    0.000    5.000    0.000   23.250    0.000    8.750 
#    0.000    0.000    0.000    0.000    0.000    0.000 
#
# Total GULP energy -178512.270848 kJ/mol
# GULP energy per Si atom -5578.508464 kJ/mol
# Density = 2.679228 g / cm^3
# Si number density = 26.853396 Si / 1000 Ang^3
#
#
#
# Elastic Constant Matrix: (Units=GPa)
#
#
# Indices 1 2 3 4 5 6 
#
# 1 126.8061 54.3944 18.4836 0.0000 0.0000 0.0000
# 2 54.3944 156.0843 36.4461 0.0000 0.0000 0.0000
# 3 18.4836 36.4461 162.7335 0.0000 0.0000 0.0000
# 4 0.0000 0.0000 0.0000 27.3621 0.0000 0.0000
# 5 0.0000 0.0000 0.0000 0.0000 51.9763 0.0000
# 6 0.0000 0.0000 0.0000 0.0000 0.0000 78.9360
#
#
#
# Elastic Compliance Matrix: (Units=1/GPa)
#
#
# Indices 1 2 3 4 5 6 
#
# 1 0.009291 -0.003156 -0.000348 0.000000 0.000000 0.000000
# 2 -0.003156 0.007833 -0.001396 0.000000 0.000000 0.000000
# 3 -0.000348 -0.001396 0.006497 0.000000 0.000000 0.000000
# 4 0.000000 0.000000 0.000000 0.036547 0.000000 0.000000
# 5 0.000000 0.000000 0.000000 0.000000 0.019240 0.000000
# 6 0.000000 0.000000 0.000000 0.000000 0.000000 0.012668
#
#
# Mechanical properties :
#
#
# Convention : Reuss Voigt Hill
#
# Bulk Modulus (GPa) = 72.36062 73.80800 73.08431
# Shear Modulus (GPa) = 46.95578 54.07488 50.51533
#
# Velocity S-wave (km/s) = 4.18616 4.49230 4.34193
# Velocity P-wave (km/s) = 7.09720 7.37922 7.23959
#
# Compressibility (1/GPa) = 0.01381967
#
# Stress axis : x y z
#
# Youngs Moduli (GPa) = 107.63323 127.66998 153.91323
#
# Poissons Ratio (x) = 0.40298 0.05361
# Poissons Ratio (y) = 0.33974 0.21482
# Poissons Ratio (z) = 0.03749 0.17819
#
# Static dielectric constant tensor:
#      x y z
#    x 2.376220 0.000000 0.000000 
#    y 0.000000 2.260380 0.000000 
#    z 0.000000 0.000000 1.961600 
# 
# From -- ./inp_files/31229.got.cif
#   From: 2010.05.17/outbox.cif.g08.bks.cpg/sg58_16_cif.got.tgz:31229.got - 2010.06.03 14:20:14.
