data_PCOD9441838
_publ_section_title
;
Structure prediction by ZEFSAII (Michael W. Deem and Ramdas Pophale) SiO2 
 PCOD9441838
Probable space group: P N N M
;
_chemical_formula_sum "Si O2"
_cell_formula_units_Z 56
_cell_length_a 18.151951
_cell_length_b 19.999447
_cell_length_c 7.685239
_cell_angle_alpha 90.000000
_cell_angle_beta 90.000000
_cell_angle_gamma 90.000000
_cell_volume 2789.964490
_symmetry_space_group_name_H-M "P N N M"
_symmetry_group_IT_number 58
_symmetry_cell_setting 'orthorhombic'
loop_
_space_group_symop_operation_xyz
x,y,z
-x,-y,z
1/2+x,1/2-y,1/2-z
1/2-x,1/2+y,1/2-z
-x,-y,-z
x,y,-z
1/2-x,1/2+y,1/2+z
1/2+x,1/2-y,1/2+z
loop_
_atom_site_type_symbol
_atom_site_label
_atom_site_fract_x
_atom_site_fract_y
_atom_site_fract_z
Si Si1 0.877986 0.606379 0.704850
Si Si2 0.636979 0.952067 0.288112
Si Si3 0.570362 0.688528 0.709812
Si Si4 0.801719 0.957070 0.295816
Si Si5 0.539005 0.431995 0.790837
Si Si6 0.031685 0.665200 0.203936
Si Si7 0.212828 0.888809 0.788355
O O1 0.879424 0.619397 0.500000
O O2 0.885803 0.526744 0.734043
O O3 0.796311 0.625265 0.770742
O O4 0.946467 0.645465 0.782830
O O5 0.637304 0.952860 0.500000
O O6 0.581327 0.895295 0.224159
O O7 0.720816 0.939488 0.224921
O O8 0.573010 0.691400 0.500000
O O9 0.510640 0.632083 0.754117
O O10 0.549050 0.761681 0.777876
O O11 0.650499 0.662851 0.768970
O O12 0.798914 0.939869 0.500000
O O13 0.808128 0.037250 0.276419
O O14 0.877242 0.926977 0.222370
O O15 0.500000 0.500000 0.724924
O O16 0.544361 0.439014 0.000000
O O17 0.050741 0.668408 0.000000
O O18 0.213455 0.891381 0.000000
#
# Coordination Sequence:
#
# PCOD9441838 Si02
#       7
#     8   8   8   8   8   8   8
#     4  10  20  34  55  82 106 132 170 217 266 311
#     4   9  18  34  56  78 101 137 177 216 257 304
#     4  10  21  36  53  73 103 142 178 212 255 308
#     4   9  17  31  52  79 104 130 168 212 257 304
#     4  10  19  32  52  79 107 134 170 215 260 308
#     4  10  21  37  53  74 104 138 179 216 254 309
#     4   9  18  33  52  76 102 133 170 210 255 305
#
# _framework density 20.071939
#
# number of rings (size 3 to 8) (size 9 to 14) (size 15 to 20)
#    0.000    2.429    1.429    0.857    0.000    4.286 
#    2.571    0.000    0.000    0.000    0.000    0.000 
#    0.000    0.000    0.000    0.000    0.000    0.000 
#
# Total GULP energy -312448.539454 kJ/mol
# GULP energy per Si atom -5579.438205 kJ/mol
# Density = 2.002625 g / cm^3
# Si number density = 20.071939 Si / 1000 Ang^3
#
#
#
# Elastic Constant Matrix: (Units=GPa)
#
#
# Indices 1 2 3 4 5 6 
#
# 1 135.5726 71.5399 -15.4681 0.0000 0.0000 0.0000
# 2 71.5399 89.8070 -18.3235 0.0000 0.0000 0.0000
# 3 -15.4681 -18.3235 27.4645 0.0000 0.0000 0.0000
# 4 0.0000 0.0000 0.0000 14.2915 0.0000 0.0000
# 5 0.0000 0.0000 0.0000 0.0000 19.0200 0.0000
# 6 0.0000 0.0000 0.0000 0.0000 0.0000 14.3137
#
#
#
# Elastic Compliance Matrix: (Units=1/GPa)
#
#
# Indices 1 2 3 4 5 6 
#
# 1 0.012730 -0.010046 0.000468 0.000000 0.000000 0.000000
# 2 -0.010046 0.020817 0.008230 0.000000 0.000000 0.000000
# 3 0.000468 0.008230 0.042165 0.000000 0.000000 0.000000
# 4 0.000000 0.000000 0.000000 0.069972 0.000000 0.000000
# 5 0.000000 0.000000 0.000000 0.000000 0.052576 0.000000
# 6 0.000000 0.000000 0.000000 0.000000 0.000000 0.069863
#
#
# Mechanical properties :
#
#
# Convention : Reuss Voigt Hill
#
# Bulk Modulus (GPa) = 13.69539 36.48232 25.08885
# Shear Modulus (GPa) = 16.94012 23.86474 20.40243
#
# Velocity S-wave (km/s) = 2.90827 3.45187 3.19166
# Velocity P-wave (km/s) = 4.25621 5.83973 5.10969
#
# Compressibility (1/GPa) = 0.07301729
#
# Stress axis : x y z
#
# Youngs Moduli (GPa) = 78.55222 48.03881 23.71625
#
# Poissons Ratio (x) = 0.48258 -0.01109
# Poissons Ratio (y) = 0.78910 -0.19520
# Poissons Ratio (z) = -0.03674 -0.39538
#
# Static dielectric constant tensor:
#      x y z
#    x 1.733120 0.000000 0.000000 
#    y 0.000000 1.669430 0.000000 
#    z 0.000000 0.000000 1.757860 
# 
# From -- ./inp_files/8159.got.cif
#   From: 2010.05.17/outbox.cif.g08.bks.cpg/sg58_5_cif.got.tgz:8159.got - 2010.06.03 14:20:14.
