data_PCOD9441535
_publ_section_title
;
Structure prediction by ZEFSAII (Michael W. Deem and Ramdas Pophale) SiO2 
 PCOD9441535
Probable space group: P N N M
;
_chemical_formula_sum "Si O2"
_cell_formula_units_Z 64
_cell_length_a 22.410953
_cell_length_b 18.169009
_cell_length_c 7.286061
_cell_angle_alpha 90.000000
_cell_angle_beta 90.000000
_cell_angle_gamma 90.000000
_cell_volume 2966.773340
_symmetry_space_group_name_H-M "P N N M"
_symmetry_group_IT_number 58
_symmetry_cell_setting 'orthorhombic'
loop_
_space_group_symop_operation_xyz
x,y,z
-x,-y,z
1/2+x,1/2-y,1/2-z
1/2-x,1/2+y,1/2-z
-x,-y,-z
x,y,-z
1/2-x,1/2+y,1/2+z
1/2+x,1/2-y,1/2+z
loop_
_atom_site_type_symbol
_atom_site_label
_atom_site_fract_x
_atom_site_fract_y
_atom_site_fract_z
Si Si1 0.107076 0.125200 0.275915
Si Si2 0.426232 0.075071 0.777157
Si Si3 0.030033 0.858197 0.722716
Si Si4 0.854019 0.717237 0.713174
Si Si5 0.137825 0.964173 0.723420
Si Si6 0.615611 0.770460 0.776608
Si Si7 0.435135 0.913534 0.776242
Si Si8 0.778459 0.164550 0.278867
O O1 0.108006 0.122766 0.500000
O O2 0.139278 0.200043 0.213752
O O3 0.037633 0.129448 0.218930
O O4 0.135872 0.048321 0.215239
O O5 0.389487 0.145729 0.714531
O O6 0.495351 0.087819 0.725842
O O7 0.409192 0.992852 0.717935
O O8 0.424337 0.074765 0.000000
O O9 0.029148 0.858745 0.500000
O O10 0.077087 0.921304 0.777863
O O11 0.059107 0.780154 0.777567
O O12 0.871110 0.724030 0.500000
O O13 0.898963 0.656548 0.791721
O O14 0.787771 0.684953 0.722127
O O15 0.138087 0.963961 0.500000
O O16 0.193415 0.913360 0.781634
O O17 0.674676 0.727144 0.718895
O O18 0.615540 0.770897 0.000000
O O19 0.433476 0.912987 0.000000
O O20 0.778849 0.163897 0.500000
#
# Coordination Sequence:
#
# PCOD9441535 Si02
#       8
#     8   8   8   8   8   8   8   8
#     4   9  15  23  39  64  90 111 133 173 224 264
#     4   8  12  21  38  61  87 108 131 169 218 261
#     4   8  12  19  36  63  90 109 130 170 222 262
#     4  10  19  30  43  63  90 115 142 177 216 254
#     4   8  14  25  41  61  85 113 143 174 211 256
#     4   8  13  22  38  59  81 108 140 174 208 246
#     4   8  14  23  37  60  88 111 130 166 220 263
#     4   9  18  32  45  58  83 118 152 177 202 244
#
# _framework density 21.572257
#
# number of rings (size 3 to 8) (size 9 to 14) (size 15 to 20)
#    0.000    3.500    0.000    3.375    0.000    4.500 
#    2.250    0.000    0.000    0.000    0.000    9.625 
#    0.000    5.000    0.000    0.000    0.000    0.000 
#
# Total GULP energy -357079.288168 kJ/mol
# GULP energy per Si atom -5579.363878 kJ/mol
# Density = 2.152316 g / cm^3
# Si number density = 21.572257 Si / 1000 Ang^3
#
#
#
# Elastic Constant Matrix: (Units=GPa)
#
#
# Indices 1 2 3 4 5 6 
#
# 1 63.3898 55.3953 -6.1612 0.0000 0.0000 0.0000
# 2 55.3953 177.2658 8.4397 0.0000 0.0000 0.0000
# 3 -6.1612 8.4397 89.6245 0.0000 0.0000 0.0000
# 4 0.0000 0.0000 0.0000 -15.0747 0.0000 0.0000
# 5 0.0000 0.0000 0.0000 0.0000 5.7925 0.0000
# 6 0.0000 0.0000 0.0000 0.0000 0.0000 9.5458
#
#
#
# Elastic Compliance Matrix: (Units=1/GPa)
#
#
# Indices 1 2 3 4 5 6 
#
# 1 0.022118 -0.007016 0.002181 0.000000 0.000000 0.000000
# 2 -0.007016 0.007892 -0.001225 0.000000 0.000000 0.000000
# 3 0.002181 -0.001225 0.011423 0.000000 0.000000 0.000000
# 4 0.000000 0.000000 0.000000 -0.066336 0.000000 0.000000
# 5 0.000000 0.000000 0.000000 0.000000 0.172636 0.000000
# 6 0.000000 0.000000 0.000000 0.000000 0.000000 0.104759
#
#
# Mechanical properties :
#
#
# Convention : Reuss Voigt Hill
#
# Bulk Modulus (GPa) = 34.11428 49.51420 41.81424
# Shear Modulus (GPa) = 18.22271 18.22647 18.22459
#
# Velocity S-wave (km/s) = 2.90958 2.90988 2.90973
# Velocity P-wave (km/s) = 5.20920 5.85597 5.54203
#
# Compressibility (1/GPa) = 0.02931324
#
# Stress axis : x y z
#
# Youngs Moduli (GPa) = 45.21118 126.71015 87.54264
#
# Poissons Ratio (x) = 0.88898 -0.19095
# Poissons Ratio (y) = 0.31719 0.10728
# Poissons Ratio (z) = -0.09861 0.15528
#
# Static dielectric constant tensor:
#      x y z
#    x 1.721610 0.000000 0.000000 
#    y 0.000000 1.787230 0.000000 
#    z 0.000000 0.000000 1.863250 
# 
# From -- ./inp_files/16616.got.cif
#   From: 2010.05.17/outbox.cif.g08.bks.cpg/sg58_9_cif.got.tgz:16616.got - 2010.06.03 14:20:14.
