data_PCOD9441079
_publ_section_title
;
Structure prediction by ZEFSAII (Michael W. Deem and Ramdas Pophale) SiO2 
 PCOD9441079
Probable space group: P N N M
;
_chemical_formula_sum "Si O2"
_cell_formula_units_Z 64
_cell_length_a 19.824401
_cell_length_b 23.766576
_cell_length_c 8.524502
_cell_angle_alpha 90.000000
_cell_angle_beta 90.000000
_cell_angle_gamma 90.000000
_cell_volume 4016.388447
_symmetry_space_group_name_H-M "P N N M"
_symmetry_group_IT_number 58
_symmetry_cell_setting 'orthorhombic'
loop_
_space_group_symop_operation_xyz
x,y,z
-x,-y,z
1/2+x,1/2-y,1/2-z
1/2-x,1/2+y,1/2-z
-x,-y,-z
x,y,-z
1/2-x,1/2+y,1/2+z
1/2+x,1/2-y,1/2+z
loop_
_atom_site_type_symbol
_atom_site_label
_atom_site_fract_x
_atom_site_fract_y
_atom_site_fract_z
Si Si1 0.861833 0.061436 0.314314
Si Si2 0.358956 0.563611 0.312684
Si Si3 0.225162 0.164122 0.311956
Si Si4 0.150883 0.274317 0.811957
Si Si5 0.498259 0.382042 0.689725
Si Si6 0.856486 0.274577 0.190337
Si Si7 0.223885 0.838307 0.187477
Si Si8 0.997118 0.750567 0.808759
O O1 0.862475 0.054884 0.500000
O O2 0.804177 0.105377 0.263968
O O3 0.932840 0.087825 0.258518
O O4 0.852098 0.000790 0.236442
O O5 0.355311 0.568786 0.500000
O O6 0.302918 0.604149 0.238615
O O7 0.432720 0.586937 0.263557
O O8 0.221235 0.170117 0.500000
O O9 0.178994 0.212855 0.236143
O O10 0.301919 0.178644 0.262129
O O11 0.201472 0.319468 0.737512
O O12 0.073206 0.276991 0.758575
O O13 0.153658 0.279112 0.000000
O O14 0.493000 0.384014 0.500000
O O15 0.501356 0.316470 0.736269
O O16 0.824562 0.214107 0.234900
O O17 0.933349 0.277814 0.246018
O O18 0.858438 0.275176 0.000000
O O19 0.219984 0.843302 0.000000
O O20 0.996785 0.749772 0.000000
#
# Coordination Sequence:
#
# PCOD9441079 Si02
#       8
#     8   8   8   8   8   8   8   8
#     4  12  24  35  49  73 100 130 170 217 253 292
#     4  11  22  36  52  69  95 138 177 208 248 301
#     4  10  19  31  48  72  99 130 168 214 254 293
#     4  10  18  30  50  75 101 130 167 209 249 294
#     4  10  19  34  51  69  98 139 177 202 238 296
#     4   8  15  28  49  71  94 126 164 200 243 293
#     4  10  19  34  52  70  97 134 169 205 249 301
#     4   9  15  28  50  74  99 133 169 199 238 297
#
# _framework density 15.934713
#
# number of rings (size 3 to 8) (size 9 to 14) (size 15 to 20)
#    0.000    2.000    2.500    3.750    0.000    2.500 
#    0.000    0.000    0.000    0.000    0.000    0.875 
#    0.000    7.000    0.000    0.000    0.000    0.000 
#
# Total GULP energy -357083.838634 kJ/mol
# GULP energy per Si atom -5579.434979 kJ/mol
# Density = 1.589845 g / cm^3
# Si number density = 15.934713 Si / 1000 Ang^3
#
#
#
# Elastic Constant Matrix: (Units=GPa)
#
#
# Indices 1 2 3 4 5 6 
#
# 1 128.8819 39.0002 0.2588 0.0000 0.0000 0.0000
# 2 39.0002 54.2875 -6.4373 0.0000 0.0000 0.0000
# 3 0.2588 -6.4373 16.1461 0.0000 0.0000 0.0000
# 4 0.0000 0.0000 0.0000 -2.7184 0.0000 0.0000
# 5 0.0000 0.0000 0.0000 0.0000 22.1345 0.0000
# 6 0.0000 0.0000 0.0000 0.0000 0.0000 19.5598
#
#
#
# Elastic Compliance Matrix: (Units=1/GPa)
#
#
# Indices 1 2 3 4 5 6 
#
# 1 0.010069 -0.007613 -0.003197 0.000000 0.000000 0.000000
# 2 -0.007613 0.025090 0.010125 0.000000 0.000000 0.000000
# 3 -0.003197 0.010125 0.066022 0.000000 0.000000 0.000000
# 4 0.000000 0.000000 0.000000 -0.367865 0.000000 0.000000
# 5 0.000000 0.000000 0.000000 0.000000 0.045178 0.000000
# 6 0.000000 0.000000 0.000000 0.000000 0.000000 0.051125
#
#
# Mechanical properties :
#
#
# Convention : Reuss Voigt Hill
#
# Bulk Modulus (GPa) = 10.01867 29.43986 19.72927
# Shear Modulus (GPa) = -36.83502 18.89478 -8.97012
#
# Velocity S-wave (km/s) = -4.81315 3.44723 -2.37519
# Velocity P-wave (km/s) = 4.95858 5.86173 2.21047
#
# Compressibility (1/GPa) = 0.09981366
#
# Stress axis : x y z
#
# Youngs Moduli (GPa) = 99.31379 39.85641 15.14637
#
# Poissons Ratio (x) = 0.30341 0.04842
# Poissons Ratio (y) = 0.75605 -0.15336
# Poissons Ratio (z) = 0.31746 -0.40356
#
# Static dielectric constant tensor:
#      x y z
#    x 1.550810 0.000000 0.000000 
#    y 0.000000 1.501230 0.000000 
#    z 0.000000 0.000000 1.542370 
# 
# From -- ./inp_files/9405.got.cif
#   From: 2010.05.17/outbox.cif.g08.bks.cpg/sg58_5_cif.got.tgz:9405.got - 2010.06.03 14:20:14.
