data_PCOD9441555
_publ_section_title
;
Structure prediction by ZEFSAII (Michael W. Deem and Ramdas Pophale) SiO2 
 PCOD9441555
Probable space group: P N N M
;
_chemical_formula_sum "Si O2"
_cell_formula_units_Z 48
_cell_length_a 7.941187
_cell_length_b 29.438863
_cell_length_c 7.596553
_cell_angle_alpha 90.000000
_cell_angle_beta 90.000000
_cell_angle_gamma 90.000000
_cell_volume 1775.918485
_symmetry_space_group_name_H-M "P N N M"
_symmetry_group_IT_number 58
_symmetry_cell_setting 'orthorhombic'
loop_
_space_group_symop_operation_xyz
x,y,z
-x,-y,z
1/2+x,1/2-y,1/2-z
1/2-x,1/2+y,1/2-z
-x,-y,-z
x,y,-z
1/2-x,1/2+y,1/2+z
1/2+x,1/2-y,1/2+z
loop_
_atom_site_type_symbol
_atom_site_label
_atom_site_fract_x
_atom_site_fract_y
_atom_site_fract_z
Si Si1 0.162868 0.850480 0.214176
Si Si2 0.355632 0.178694 0.289553
Si Si3 0.273519 0.990936 0.791891
Si Si4 0.055608 0.069486 0.213225
Si Si5 0.505475 0.092011 0.702007
Si Si6 0.521346 0.265379 0.712071
O O1 0.001023 0.880801 0.273010
O O2 0.128475 0.799229 0.272031
O O3 0.326950 0.876074 0.282218
O O4 0.170469 0.851976 0.000000
O O5 0.375991 0.173628 0.500000
O O6 0.372700 0.127707 0.213284
O O7 0.494972 0.214522 0.219408
O O8 0.187461 0.207140 0.259424
O O9 0.432732 0.957579 0.764324
O O10 0.110556 0.960489 0.740815
O O11 0.218050 0.040966 0.721939
O O12 0.268872 0.996360 0.000000
O O13 0.062416 0.071054 0.000000
O O14 0.468281 0.085071 0.500000
O O15 0.513648 0.263070 0.500000
#
# Coordination Sequence:
#
# PCOD9441555 Si02
#       6
#     8   8   8   8   8   8
#     4   9  17  31  51  74  98 124 160 203 241 280
#     4  10  22  37  51  72 102 129 155 196 245 286
#     4   8  13  24  43  66  93 126 161 196 237 278
#     4   7  11  22  42  67  94 122 153 197 244 275
#     4  10  19  30  46  71 102 132 161 194 237 286
#     4  10  21  36  55  76  95 123 164 200 234 287
#
# _framework density 27.028268000000001
#
# number of rings (size 3 to 8) (size 9 to 14) (size 15 to 20)
#    0.000    3.000    0.000    3.500    0.000    2.667 
#    0.000    6.667    0.000    1.000    0.000    7.000 
#    0.000    0.000    0.000    0.000    0.000    0.000 
#
# Total GULP energy -268133.648938 kJ/mol
# GULP energy per Si atom -5586.117686 kJ/mol
# Density = 2.696675 g / cm^3
# Si number density = 27.028268 Si / 1000 Ang^3
#
#
#
# Elastic Constant Matrix: (Units=GPa)
#
#
# Indices 1 2 3 4 5 6 
#
# 1 87.7528 8.6483 -6.7411 0.0000 0.0000 0.0000
# 2 8.6483 231.6673 25.1800 0.0000 0.0000 0.0000
# 3 -6.7411 25.1800 70.9694 0.0000 0.0000 0.0000
# 4 0.0000 0.0000 0.0000 14.1598 0.0000 0.0000
# 5 0.0000 0.0000 0.0000 0.0000 -39.5622 0.0000
# 6 0.0000 0.0000 0.0000 0.0000 0.0000 51.5103
#
#
#
# Elastic Compliance Matrix: (Units=1/GPa)
#
#
# Indices 1 2 3 4 5 6 
#
# 1 0.011552 -0.000573 0.001300 0.000000 0.000000 0.000000
# 2 -0.000573 0.004518 -0.001657 0.000000 0.000000 0.000000
# 3 0.001300 -0.001657 0.014802 0.000000 0.000000 0.000000
# 4 0.000000 0.000000 0.000000 0.070623 0.000000 0.000000
# 5 0.000000 0.000000 0.000000 0.000000 -0.025277 0.000000
# 6 0.000000 0.000000 0.000000 0.000000 0.000000 0.019414
#
#
# Mechanical properties :
#
#
# Convention : Reuss Voigt Hill
#
# Bulk Modulus (GPa) = 34.46722 49.39599 41.93161
# Shear Modulus (GPa) = 46.65835 29.44172 38.05003
#
# Velocity S-wave (km/s) = 4.15936 3.30403 3.75612
# Velocity P-wave (km/s) = 5.98724 5.73331 5.86165
#
# Compressibility (1/GPa) = 0.02901307
#
# Stress axis : x y z
#
# Youngs Moduli (GPa) = 86.56530 221.33425 67.55771
#
# Poissons Ratio (x) = 0.12673 -0.08785
# Poissons Ratio (y) = 0.04957 0.11197
# Poissons Ratio (z) = -0.11257 0.36684
#
# Static dielectric constant tensor:
#      x y z
#    x 2.271120 0.000000 0.000000 
#    y 0.000000 2.244350 0.000000 
#    z 0.000000 0.000000 1.967150 
# 
# From -- ./inp_files/2984.got.cif
#   From: 2010.05.17/outbox.cif.g08.bks.cpg/sg58_2_cif.got.tgz:2984.got - 2010.06.03 14:20:14.
