data_PCOD9441664
_publ_section_title
;
Structure prediction by ZEFSAII (Michael W. Deem and Ramdas Pophale) SiO2 
 PCOD9441664
Probable space group: P N N M
;
_chemical_formula_sum "Si O2"
_cell_formula_units_Z 56
_cell_length_a 19.823082
_cell_length_b 19.615883
_cell_length_c 7.626505
_cell_angle_alpha 90.000000
_cell_angle_beta 90.000000
_cell_angle_gamma 90.000000
_cell_volume 2965.545551
_symmetry_space_group_name_H-M "P N N M"
_symmetry_group_IT_number 58
_symmetry_cell_setting 'orthorhombic'
loop_
_space_group_symop_operation_xyz
x,y,z
-x,-y,z
1/2+x,1/2-y,1/2-z
1/2-x,1/2+y,1/2-z
-x,-y,-z
x,y,-z
1/2-x,1/2+y,1/2+z
1/2+x,1/2-y,1/2+z
loop_
_atom_site_type_symbol
_atom_site_label
_atom_site_fract_x
_atom_site_fract_y
_atom_site_fract_z
Si Si1 0.526359 0.709161 0.208623
Si Si2 0.290629 0.649239 0.295183
Si Si3 0.296659 0.496604 0.706988
Si Si4 0.945401 0.056191 0.287377
Si Si5 0.226073 0.364480 0.715233
Si Si6 0.826811 0.255297 0.790274
Si Si7 0.889551 0.730623 0.702664
O O1 0.535725 0.631943 0.276646
O O2 0.596046 0.748835 0.235568
O O3 0.461116 0.748112 0.282150
O O4 0.514938 0.701946 0.000000
O O5 0.309823 0.647607 0.500000
O O6 0.294122 0.573081 0.220340
O O7 0.216163 0.681159 0.278815
O O8 0.341703 0.702575 0.207296
O O9 0.282176 0.503242 0.500000
O O10 0.371300 0.465977 0.728072
O O11 0.244816 0.439914 0.776736
O O12 0.944739 0.057135 0.500000
O O13 0.000000 0.000000 0.231192
O O14 0.225336 0.364583 0.500000
O O15 0.286053 0.312588 0.767512
O O16 0.156568 0.330127 0.777742
O O17 0.823765 0.257534 0.000000
O O18 0.901692 0.711872 0.500000
#
# Coordination Sequence:
#
# PCOD9441664 Si02
#       7
#     8   8   8   8   8   8   8
#     4  10  19  31  49  74 102 131 166 208 250 294
#     4  10  20  32  49  73 101 128 163 211 252 295
#     4  10  19  32  49  71  98 129 165 206 248 294
#     4  10  20  31  45  70 105 138 163 194 243 304
#     4   8  15  30  50  70  91 123 166 204 241 290
#     4  10  19  33  53  71  95 131 169 208 249 302
#     4   9  18  33  52  72  99 133 167 205 247 299
#
# _framework density 18.883541000000001
#
# number of rings (size 3 to 8) (size 9 to 14) (size 15 to 20)
#    0.000    2.429    1.429    2.571    0.000    3.143 
#    0.000    0.000    0.000    0.857    0.000    6.000 
#    0.000    0.000    0.000    0.000    0.000    0.000 
#
# Total GULP energy -312413.329186 kJ/mol
# GULP energy per Si atom -5578.809450 kJ/mol
# Density = 1.884056 g / cm^3
# Si number density = 18.883541 Si / 1000 Ang^3
#
#
#
# Elastic Constant Matrix: (Units=GPa)
#
#
# Indices 1 2 3 4 5 6 
#
# 1 101.2711 9.7652 -16.4079 0.0000 0.0000 0.0000
# 2 9.7652 21.2306 -7.6558 0.0000 0.0000 0.0000
# 3 -16.4079 -7.6558 35.1833 0.0000 0.0000 0.0000
# 4 0.0000 0.0000 0.0000 7.5350 0.0000 0.0000
# 5 0.0000 0.0000 0.0000 0.0000 17.5165 0.0000
# 6 0.0000 0.0000 0.0000 0.0000 0.0000 24.6911
#
#
#
# Elastic Compliance Matrix: (Units=1/GPa)
#
#
# Indices 1 2 3 4 5 6 
#
# 1 0.010910 -0.003455 0.004336 0.000000 0.000000 0.000000
# 2 -0.003455 0.052206 0.009749 0.000000 0.000000 0.000000
# 3 0.004336 0.009749 0.032566 0.000000 0.000000 0.000000
# 4 0.000000 0.000000 0.000000 0.132715 0.000000 0.000000
# 5 0.000000 0.000000 0.000000 0.000000 0.057089 0.000000
# 6 0.000000 0.000000 0.000000 0.000000 0.000000 0.040500
#
#
# Mechanical properties :
#
#
# Convention : Reuss Voigt Hill
#
# Bulk Modulus (GPa) = 8.55108 14.34310 11.44709
# Shear Modulus (GPa) = 14.54728 21.41408 17.98068
#
# Velocity S-wave (km/s) = 2.77856 3.37116 3.08910
# Velocity P-wave (km/s) = 3.85124 4.77126 4.33572
#
# Compressibility (1/GPa) = 0.11694424
#
# Stress axis : x y z
#
# Youngs Moduli (GPa) = 91.65764 19.15474 30.70670
#
# Poissons Ratio (x) = 0.06617 -0.13315
# Poissons Ratio (y) = 0.31664 -0.29936
# Poissons Ratio (z) = -0.39745 -0.18674
#
# Static dielectric constant tensor:
#      x y z
#    x 1.645020 0.000000 0.000000 
#    y 0.000000 1.662780 0.000000 
#    z 0.000000 0.000000 1.701870 
# 
# From -- ./inp_files/8137.got.cif
#   From: 2010.05.17/outbox.cif.g08.bks.cpg/sg58_5_cif.got.tgz:8137.got - 2010.06.03 14:20:14.
