data_PCOD9441377
_publ_section_title
;
Structure prediction by ZEFSAII (Michael W. Deem and Ramdas Pophale) SiO2 
 PCOD9441377
Probable space group: P N N M
;
_chemical_formula_sum "Si O2"
_cell_formula_units_Z 64
_cell_length_a 19.428685
_cell_length_b 20.468142
_cell_length_c 7.509349
_cell_angle_alpha 90.000000
_cell_angle_beta 90.000000
_cell_angle_gamma 90.000000
_cell_volume 2986.235934
_symmetry_space_group_name_H-M "P N N M"
_symmetry_group_IT_number 58
_symmetry_cell_setting 'orthorhombic'
loop_
_space_group_symop_operation_xyz
x,y,z
-x,-y,z
1/2+x,1/2-y,1/2-z
1/2-x,1/2+y,1/2-z
-x,-y,-z
x,y,-z
1/2-x,1/2+y,1/2+z
1/2+x,1/2-y,1/2+z
loop_
_atom_site_type_symbol
_atom_site_label
_atom_site_fract_x
_atom_site_fract_y
_atom_site_fract_z
Si Si1 0.454028 0.561677 0.284235
Si Si2 0.312772 0.734573 0.217610
Si Si3 0.047881 0.820161 0.787675
Si Si4 0.797633 0.156459 0.782011
Si Si5 0.555498 0.053090 0.781539
Si Si6 0.798459 0.912918 0.293732
Si Si7 0.710078 0.034534 0.793782
Si Si8 0.044063 0.298670 0.713192
O O1 0.500000 0.500000 0.229854
O O2 0.451338 0.561746 0.500000
O O3 0.491864 0.627516 0.220544
O O4 0.375808 0.559478 0.221499
O O5 0.251733 0.783546 0.267869
O O6 0.300816 0.660656 0.280638
O O7 0.385819 0.763958 0.278942
O O8 0.315233 0.732724 0.000000
O O9 0.124337 0.834217 0.718930
O O10 0.019904 0.747837 0.754533
O O11 0.050444 0.829735 0.000000
O O12 0.761575 0.089576 0.719297
O O13 0.800494 0.155338 0.000000
O O14 0.632969 0.036546 0.720298
O O15 0.538549 0.126969 0.724091
O O16 0.500000 0.000000 0.721925
O O17 0.554348 0.051873 0.000000
O O18 0.779523 0.907904 0.500000
O O19 0.745557 0.964260 0.213064
O O20 0.701674 0.053500 0.000000
O O21 0.050356 0.301815 0.500000
#
# Coordination Sequence:
#
# PCOD9441377 Si02
#       8
#     8   8   8   8   8   8   8   8
#     4  10  20  35  53  76 106 142 182 223 266 316
#     4   9  17  32  54  76 100 141 185 214 253 321
#     4  10  20  32  52  81 107 132 176 232 271 309
#     4   9  17  33  56  78 100 140 190 221 254 319
#     4   9  18  33  58  88 110 138 186 235 273 319
#     4  11  22  34  52  80 112 143 178 221 269 323
#     4  10  19  35  58  79 107 146 186 226 268 320
#     4  10  18  34  57  78 106 144 180 215 269 333
#
# _framework density 21.431663
#
# number of rings (size 3 to 8) (size 9 to 14) (size 15 to 20)
#    0.000    2.250    2.500    1.125    0.000    3.250 
#    0.000    2.500    0.000    3.750    0.000    0.000 
#    0.000    0.000    0.000    0.000    0.000    0.000 
#
# Total GULP energy -357543.058709 kJ/mol
# GULP energy per Si atom -5586.610292 kJ/mol
# Density = 2.138288 g / cm^3
# Si number density = 21.431663 Si / 1000 Ang^3
#
#
#
# Elastic Constant Matrix: (Units=GPa)
#
#
# Indices 1 2 3 4 5 6 
#
# 1 154.5100 80.7008 1.4246 0.0000 0.0000 0.0000
# 2 80.7008 160.5454 -3.4499 0.0000 0.0000 0.0000
# 3 1.4246 -3.4499 50.9330 0.0000 0.0000 0.0000
# 4 0.0000 0.0000 0.0000 13.1807 0.0000 0.0000
# 5 0.0000 0.0000 0.0000 0.0000 -24.7013 0.0000
# 6 0.0000 0.0000 0.0000 0.0000 0.0000 39.6659
#
#
#
# Elastic Compliance Matrix: (Units=1/GPa)
#
#
# Indices 1 2 3 4 5 6 
#
# 1 0.008791 -0.004431 -0.000546 0.000000 0.000000 0.000000
# 2 -0.004431 0.008471 0.000698 0.000000 0.000000 0.000000
# 3 -0.000546 0.000698 0.019696 0.000000 0.000000 0.000000
# 4 0.000000 0.000000 0.000000 0.075868 0.000000 0.000000
# 5 0.000000 0.000000 0.000000 0.000000 -0.040484 0.000000
# 6 0.000000 0.000000 0.000000 0.000000 0.000000 0.025211
#
#
# Mechanical properties :
#
#
# Convention : Reuss Voigt Hill
#
# Bulk Modulus (GPa) = 35.21103 58.14881 46.67992
# Shear Modulus (GPa) = 43.26049 24.78324 34.02187
#
# Velocity S-wave (km/s) = 4.49768 3.40425 3.98861
# Velocity P-wave (km/s) = 6.59070 6.53016 6.56050
#
# Compressibility (1/GPa) = 0.02840019
#
# Stress axis : x y z
#
# Youngs Moduli (GPa) = 113.74821 118.04981 50.77134
#
# Poissons Ratio (x) = 0.52306 0.02772
# Poissons Ratio (y) = 0.50400 -0.03542
# Poissons Ratio (z) = 0.06211 -0.08236
#
# Static dielectric constant tensor:
#      x y z
#    x 1.732550 0.000000 0.000000 
#    y 0.000000 1.753600 0.000000 
#    z 0.000000 0.000000 1.842030 
# 
# From -- ./inp_files/9249.got.cif
#   From: 2010.05.17/outbox.cif.g08.bks.cpg/sg58_5_cif.got.tgz:9249.got - 2010.06.03 14:20:14.
