data_PCOD9441496
_publ_section_title
;
Structure prediction by ZEFSAII (Michael W. Deem and Ramdas Pophale) SiO2 
 PCOD9441496
Probable space group: P N N M
;
_chemical_formula_sum "Si O2"
_cell_formula_units_Z 64
_cell_length_a 18.635975
_cell_length_b 27.001530
_cell_length_c 8.868427
_cell_angle_alpha 90.000000
_cell_angle_beta 90.000000
_cell_angle_gamma 90.000000
_cell_volume 4462.591030
_symmetry_space_group_name_H-M "P N N M"
_symmetry_group_IT_number 58
_symmetry_cell_setting 'orthorhombic'
loop_
_space_group_symop_operation_xyz
x,y,z
-x,-y,z
1/2+x,1/2-y,1/2-z
1/2-x,1/2+y,1/2-z
-x,-y,-z
x,y,-z
1/2-x,1/2+y,1/2+z
1/2+x,1/2-y,1/2+z
loop_
_atom_site_type_symbol
_atom_site_label
_atom_site_fract_x
_atom_site_fract_y
_atom_site_fract_z
Si Si1 0.920530 0.050807 0.818887
Si Si2 0.414633 0.257106 0.820675
Si Si3 0.429845 0.744956 0.322111
Si Si4 0.161746 0.145144 0.820602
Si Si5 0.289895 0.199256 0.673864
Si Si6 0.922797 0.944925 0.319546
Si Si7 0.665646 0.648967 0.681633
Si Si8 0.694926 0.199902 0.826589
O O1 0.865492 0.094997 0.785525
O O2 0.998556 0.064532 0.752201
O O3 0.900196 0.998574 0.744384
O O4 0.926343 0.045267 0.000000
O O5 0.496157 0.252031 0.767022
O O6 0.364245 0.214147 0.751669
O O7 0.382981 0.309045 0.758583
O O8 0.409398 0.256538 0.000000
O O9 0.443981 0.747434 0.500000
O O10 0.390344 0.692401 0.291080
O O11 0.373911 0.787399 0.272392
O O12 0.240302 0.160388 0.761533
O O13 0.129968 0.097984 0.735528
O O14 0.162603 0.136877 0.000000
O O15 0.300252 0.184834 0.500000
O O16 0.243529 0.250235 0.674722
O O17 0.928121 0.946315 0.500000
O O18 0.661792 0.656805 0.500000
O O19 0.748631 0.658209 0.725206
O O20 0.673388 0.190695 0.000000
#
# Coordination Sequence:
#
# PCOD9441496 Si02
#       8
#     8   8   8   8   8   8   8   8
#     4  10  19  32  47  62  83 113 147 183 220 255
#     4  11  20  28  42  63  87 115 145 176 210 251
#     4  10  19  29  42  61  85 113 144 176 209 248
#     4  10  19  31  46  63  84 113 148 180 214 257
#     4   9  17  30  45  61  84 111 140 176 214 252
#     4  11  21  31  43  62  87 114 145 182 220 254
#     4   9  18  31  46  62  83 112 144 178 216 256
#     4   8  15  28  43  60  82 107 136 171 210 251
#
# _framework density 14.341443999999999
#
# number of rings (size 3 to 8) (size 9 to 14) (size 15 to 20)
#    0.000    2.250    0.000    6.000    0.000    8.500 
#    0.000    0.000    0.000    0.000    0.000    0.000 
#    0.000    1.000    0.000   10.750    0.000    4.750 
#
# Total GULP energy -356886.181075 kJ/mol
# GULP energy per Si atom -5576.346579 kJ/mol
# Density = 1.430880 g / cm^3
# Si number density = 14.341444 Si / 1000 Ang^3
#
#
#
# Elastic Constant Matrix: (Units=GPa)
#
#
# Indices 1 2 3 4 5 6 
#
# 1 78.1421 41.4938 47.6617 0.0000 0.0000 0.0000
# 2 41.4938 75.3331 40.1132 0.0000 0.0000 0.0000
# 3 47.6617 40.1132 82.8013 0.0000 0.0000 0.0000
# 4 0.0000 0.0000 0.0000 13.7525 0.0000 0.0000
# 5 0.0000 0.0000 0.0000 0.0000 23.6794 0.0000
# 6 0.0000 0.0000 0.0000 0.0000 0.0000 25.9106
#
#
#
# Elastic Compliance Matrix: (Units=1/GPa)
#
#
# Indices 1 2 3 4 5 6 
#
# 1 0.022397 -0.007374 -0.009320 0.000000 0.000000 0.000000
# 2 -0.007374 0.020317 -0.005598 0.000000 0.000000 0.000000
# 3 -0.009320 -0.005598 0.020154 0.000000 0.000000 0.000000
# 4 0.000000 0.000000 0.000000 0.072714 0.000000 0.000000
# 5 0.000000 0.000000 0.000000 0.000000 0.042231 0.000000
# 6 0.000000 0.000000 0.000000 0.000000 0.000000 0.038594
#
#
# Mechanical properties :
#
#
# Convention : Reuss Voigt Hill
#
# Bulk Modulus (GPa) = 54.69193 54.97933 54.83563
# Shear Modulus (GPa) = 18.72062 19.80236 19.26149
#
# Velocity S-wave (km/s) = 3.61688 3.71991 3.66876
# Velocity P-wave (km/s) = 7.46062 7.54119 7.50101
#
# Compressibility (1/GPa) = 0.01828423
#
# Stress axis : x y z
#
# Youngs Moduli (GPa) = 44.64814 49.22054 49.61848
#
# Poissons Ratio (x) = 0.36295 0.46244
# Poissons Ratio (y) = 0.32923 0.27776
# Poissons Ratio (z) = 0.41612 0.27553
#
# Static dielectric constant tensor:
#      x y z
#    x 1.467050 0.000000 0.000000 
#    y 0.000000 1.461230 0.000000 
#    z 0.000000 0.000000 1.479180 
# 
# From -- ./inp_files/8532.got.cif
#   From: 2010.05.17/outbox.cif.g08.bks.cpg/sg58_5_cif.got.tgz:8532.got - 2010.06.03 14:20:14.
