data_PCOD9441057
_publ_section_title
;
Structure prediction by ZEFSAII (Michael W. Deem and Ramdas Pophale) SiO2 
 PCOD9441057
Probable space group: P N N M
;
_chemical_formula_sum "Si O2"
_cell_formula_units_Z 56
_cell_length_a 18.761550
_cell_length_b 21.305956
_cell_length_c 8.707854
_cell_angle_alpha 90.000000
_cell_angle_beta 90.000000
_cell_angle_gamma 90.000000
_cell_volume 3480.814503
_symmetry_space_group_name_H-M "P N N M"
_symmetry_group_IT_number 58
_symmetry_cell_setting 'orthorhombic'
loop_
_space_group_symop_operation_xyz
x,y,z
-x,-y,z
1/2+x,1/2-y,1/2-z
1/2-x,1/2+y,1/2-z
-x,-y,-z
x,y,-z
1/2-x,1/2+y,1/2+z
1/2+x,1/2-y,1/2+z
loop_
_atom_site_type_symbol
_atom_site_label
_atom_site_fract_x
_atom_site_fract_y
_atom_site_fract_z
Si Si1 0.082512 0.249272 0.317770
Si Si2 0.656837 0.878389 0.316141
Si Si3 0.716238 0.689440 0.683984
Si Si4 0.343489 0.874096 0.683281
Si Si5 0.711245 0.314781 0.317298
Si Si6 0.572644 0.748927 0.683156
Si Si7 0.083941 0.497779 0.683719
O O1 0.091607 0.252404 0.500000
O O2 0.110830 0.314914 0.246122
O O3 0.132366 0.193928 0.250794
O O4 0.000563 0.241103 0.272177
O O5 0.659133 0.883938 0.500000
O O6 0.736521 0.866904 0.252883
O O7 0.609680 0.816115 0.280200
O O8 0.620888 0.938846 0.242074
O O9 0.725348 0.695449 0.500000
O O10 0.763996 0.632871 0.746260
O O11 0.750887 0.749912 0.765644
O O12 0.632265 0.695782 0.715850
O O13 0.340326 0.870236 0.500000
O O14 0.380249 0.937788 0.737409
O O15 0.708815 0.319560 0.500000
O O16 0.558544 0.748749 0.500000
O O17 0.091212 0.492427 0.500000
O O18 0.000000 0.500000 0.721077
#
# Coordination Sequence:
#
# PCOD9441057 Si02
#       7
#     8   8   8   8   8   8   8
#     4  11  20  30  47  71  99 127 158 198 240 283
#     4  10  20  34  50  69  96 128 162 198 238 283
#     4   9  17  31  49  68  93 123 157 197 239 284
#     4  11  21  33  49  68  95 129 163 198 237 283
#     4  10  18  30  48  68  93 124 159 196 237 285
#     4   9  18  31  48  71  98 126 155 193 241 287
#     4  11  23  36  50  70  96 128 166 201 233 275
#
# _framework density 16.088189
#
# number of rings (size 3 to 8) (size 9 to 14) (size 15 to 20)
#    0.000    1.857    0.000    8.571    0.000    6.857 
#    0.000    0.000    0.000    0.000    0.000    1.000 
#    0.000    8.000    0.000    0.000    0.000    0.000 
#
# Total GULP energy -312409.853832 kJ/mol
# GULP energy per Si atom -5578.747390 kJ/mol
# Density = 1.605157 g / cm^3
# Si number density = 16.088189 Si / 1000 Ang^3
#
#
#
# Elastic Constant Matrix: (Units=GPa)
#
#
# Indices 1 2 3 4 5 6 
#
# 1 122.5495 44.6492 52.4259 0.0000 0.0000 0.0000
# 2 44.6492 55.8245 26.2226 0.0000 0.0000 0.0000
# 3 52.4259 26.2226 91.8547 0.0000 0.0000 0.0000
# 4 0.0000 0.0000 0.0000 24.6596 0.0000 0.0000
# 5 0.0000 0.0000 0.0000 0.0000 45.2714 0.0000
# 6 0.0000 0.0000 0.0000 0.0000 0.0000 26.8439
#
#
#
# Elastic Compliance Matrix: (Units=1/GPa)
#
#
# Indices 1 2 3 4 5 6 
#
# 1 0.013441 -0.008253 -0.005315 0.000000 0.000000 0.000000
# 2 -0.008253 0.025756 -0.002642 0.000000 0.000000 0.000000
# 3 -0.005315 -0.002642 0.014675 0.000000 0.000000 0.000000
# 4 0.000000 0.000000 0.000000 0.040552 0.000000 0.000000
# 5 0.000000 0.000000 0.000000 0.000000 0.022089 0.000000
# 6 0.000000 0.000000 0.000000 0.000000 0.000000 0.037252
#
#
# Mechanical properties :
#
#
# Convention : Reuss Voigt Hill
#
# Bulk Modulus (GPa) = 46.62059 57.42489 52.02274
# Shear Modulus (GPa) = 25.86177 29.15038 27.50608
#
# Velocity S-wave (km/s) = 4.01371 4.26127 4.13935
# Velocity P-wave (km/s) = 7.10781 7.74484 7.43315
#
# Compressibility (1/GPa) = 0.02144975
#
# Stress axis : x y z
#
# Youngs Moduli (GPa) = 74.40059 38.82657 68.14501
#
# Poissons Ratio (x) = 0.32045 0.36220
# Poissons Ratio (y) = 0.61406 0.18004
# Poissons Ratio (z) = 0.39545 0.10258
#
# Static dielectric constant tensor:
#      x y z
#    x 1.563900 0.000000 0.000000 
#    y 0.000000 1.536260 0.000000 
#    z 0.000000 0.000000 1.533230 
# 
# From -- ./inp_files/8199.got.cif
#   From: 2010.05.17/outbox.cif.g08.bks.cpg/sg58_5_cif.got.tgz:8199.got - 2010.06.03 14:20:14.
