data_PCOD9441233
_publ_section_title
;
Structure prediction by ZEFSAII (Michael W. Deem and Ramdas Pophale) SiO2 
 PCOD9441233
Probable space group: P N N M
;
_chemical_formula_sum "Si O2"
_cell_formula_units_Z 56
_cell_length_a 19.819123
_cell_length_b 19.420885
_cell_length_c 8.794035
_cell_angle_alpha 90.000000
_cell_angle_beta 90.000000
_cell_angle_gamma 90.000000
_cell_volume 3384.867238
_symmetry_space_group_name_H-M "P N N M"
_symmetry_group_IT_number 58
_symmetry_cell_setting 'orthorhombic'
loop_
_space_group_symop_operation_xyz
x,y,z
-x,-y,z
1/2+x,1/2-y,1/2-z
1/2-x,1/2+y,1/2-z
-x,-y,-z
x,y,-z
1/2-x,1/2+y,1/2+z
1/2+x,1/2-y,1/2+z
loop_
_atom_site_type_symbol
_atom_site_label
_atom_site_fract_x
_atom_site_fract_y
_atom_site_fract_z
Si Si1 0.277252 0.368412 0.181836
Si Si2 0.879289 0.254164 0.318251
Si Si3 0.520586 0.285202 0.683280
Si Si4 0.203807 0.018011 0.181965
Si Si5 0.552215 0.441572 0.314954
Si Si6 0.330766 0.756185 0.682326
Si Si7 0.271546 0.146454 0.319269
O O1 0.337352 0.315268 0.222847
O O2 0.283729 0.440114 0.266815
O O3 0.208368 0.326844 0.216292
O O4 0.280121 0.379958 0.000000
O O5 0.877105 0.260266 0.500000
O O6 0.838473 0.317518 0.246238
O O7 0.954880 0.246653 0.259161
O O8 0.512550 0.283873 0.500000
O O9 0.530073 0.365051 0.731046
O O10 0.590630 0.247009 0.721120
O O11 0.128331 0.040603 0.232215
O O12 0.256451 0.071114 0.254283
O O13 0.206650 0.023518 0.000000
O O14 0.500000 0.500000 0.262873
O O15 0.551929 0.442098 0.500000
O O16 0.324659 0.744153 0.500000
O O17 0.289854 0.695266 0.763255
O O18 0.274055 0.145224 0.500000
#
# Coordination Sequence:
#
# PCOD9441233 Si02
#       7
#     8   8   8   8   8   8   8
#     4   9  19  34  51  74 105 139 176 217 262 311
#     4  10  21  36  53  76 109 141 175 221 268 311
#     4  10  18  32  53  76 105 141 178 212 260 318
#     4  11  20  33  53  76 106 141 176 217 267 313
#     4   9  17  28  46  74 107 140 172 205 248 313
#     4   9  18  35  55  75 105 142 178 219 265 316
#     4  11  21  34  54  77 103 137 182 223 261 316
#
# _framework density 16.544222999999999
#
# number of rings (size 3 to 8) (size 9 to 14) (size 15 to 20)
#    0.000    2.143    1.429    3.857    0.000    4.571 
#    0.000    0.000    0.000    3.857    0.000    6.000 
#    0.000    0.000    0.000    0.000    0.000    0.000 
#
# Total GULP energy -312542.070748 kJ/mol
# GULP energy per Si atom -5581.108406 kJ/mol
# Density = 1.650657 g / cm^3
# Si number density = 16.544223 Si / 1000 Ang^3
#
#
#
# Elastic Constant Matrix: (Units=GPa)
#
#
# Indices 1 2 3 4 5 6 
#
# 1 122.6864 32.1284 35.0048 0.0000 0.0000 0.0000
# 2 32.1284 35.5222 20.9856 0.0000 0.0000 0.0000
# 3 35.0048 20.9856 40.1750 0.0000 0.0000 0.0000
# 4 0.0000 0.0000 0.0000 25.4234 0.0000 0.0000
# 5 0.0000 0.0000 0.0000 0.0000 24.6114 0.0000
# 6 0.0000 0.0000 0.0000 0.0000 0.0000 21.8461
#
#
#
# Elastic Compliance Matrix: (Units=1/GPa)
#
#
# Indices 1 2 3 4 5 6 
#
# 1 0.011851 -0.006680 -0.006836 0.000000 0.000000 0.000000
# 2 -0.006680 0.044481 -0.017415 0.000000 0.000000 0.000000
# 3 -0.006836 -0.017415 0.039944 0.000000 0.000000 0.000000
# 4 0.000000 0.000000 0.000000 0.039334 0.000000 0.000000
# 5 0.000000 0.000000 0.000000 0.000000 0.040632 0.000000
# 6 0.000000 0.000000 0.000000 0.000000 0.000000 0.045775
#
#
# Mechanical properties :
#
#
# Convention : Reuss Voigt Hill
#
# Bulk Modulus (GPa) = 29.05770 41.62459 35.34115
# Shear Modulus (GPa) = 16.92908 21.72717 19.32812
#
# Velocity S-wave (km/s) = 3.20232 3.62785 3.42170
# Velocity P-wave (km/s) = 5.59240 6.53931 6.08430
#
# Compressibility (1/GPa) = 0.03441428
#
# Stress axis : x y z
#
# Youngs Moduli (GPa) = 84.38366 22.48146 25.03475
#
# Poissons Ratio (x) = 0.15017 0.17115
# Poissons Ratio (y) = 0.56365 0.43598
# Poissons Ratio (z) = 0.57688 0.39151
#
# Static dielectric constant tensor:
#      x y z
#    x 1.549370 0.000000 0.000000 
#    y 0.000000 1.538260 0.000000 
#    z 0.000000 0.000000 1.553310 
# 
# From -- ./inp_files/8175.got.cif
#   From: 2010.05.17/outbox.cif.g08.bks.cpg/sg58_5_cif.got.tgz:8175.got - 2010.06.03 14:20:14.
