data_PCOD9441366
_publ_section_title
;
Structure prediction by ZEFSAII (Michael W. Deem and Ramdas Pophale) SiO2 
 PCOD9441366
Probable space group: P N N M
;
_chemical_formula_sum "Si O2"
_cell_formula_units_Z 48
_cell_length_a 16.196027
_cell_length_b 7.495527
_cell_length_c 16.837232
_cell_angle_alpha 90.000000
_cell_angle_beta 90.000000
_cell_angle_gamma 90.000000
_cell_volume 2044.002210
_symmetry_space_group_name_H-M "P N N M"
_symmetry_group_IT_number 58
_symmetry_cell_setting 'orthorhombic'
loop_
_space_group_symop_operation_xyz
x,y,z
-x,-y,z
1/2+x,1/2-y,1/2-z
1/2-x,1/2+y,1/2-z
-x,-y,-z
x,y,-z
1/2-x,1/2+y,1/2+z
1/2+x,1/2-y,1/2+z
loop_
_atom_site_type_symbol
_atom_site_label
_atom_site_fract_x
_atom_site_fract_y
_atom_site_fract_z
Si Si1 0.922162 0.633237 0.669275
Si Si2 0.174263 0.745563 0.000000
Si Si3 0.258553 0.108241 0.169791
Si Si4 0.260039 0.113481 0.000000
Si Si5 0.016242 0.210351 0.172677
Si Si6 0.423196 0.864013 0.000000
Si Si7 0.326541 0.258809 0.672676
Si Si8 0.484556 0.713798 0.500000
O O1 0.839189 0.518786 0.667428
O O2 0.924756 0.736520 0.584501
O O3 0.000000 0.500000 0.667883
O O4 0.931105 0.738015 0.751036
O O5 0.189164 0.960819 0.000000
O O6 0.205506 0.688584 0.086979
O O7 0.077151 0.707719 0.000000
O O8 0.257359 0.210075 0.085093
O O9 0.182050 0.973266 0.170032
O O10 0.271988 0.207489 0.251886
O O11 0.342413 0.990551 0.000000
O O12 0.922902 0.291672 0.181502
O O13 0.051798 0.263373 0.085900
O O14 0.000000 0.000000 0.171995
O O15 0.500000 0.000000 0.000000
O O16 0.500000 0.500000 0.500000
#
# Coordination Sequence:
#
# PCOD9441366 Si02
#       8
#     8   4   8   4   8   4   8   4
#     4  10  18  34  53  76 101 132 169 211 250 300
#     4   8  16  32  52  68  99 134 168 200 253 302
#     4  10  20  34  55  76 103 133 174 210 255 300
#     4   8  16  32  51  72  93 136 176 203 235 307
#     4  10  20  34  54  76 104 133 172 211 254 299
#     4   8  16  28  51  72  95 130 169 203 245 296
#     4  10  20  35  53  77 101 136 170 210 252 303
#     4   8  16  32  50  71  97 136 169 203 243 304
#
# _framework density 23.483342
#
# number of rings (size 3 to 8) (size 9 to 14) (size 15 to 20)
#    0.000    2.667    1.667    0.000    2.333    0.000 
#    0.000    2.500    0.000    0.000    0.000    0.000 
#    0.000    0.000    0.000    0.000    0.000    0.000 
#
# Total GULP energy -267556.667495 kJ/mol
# GULP energy per Si atom -5574.097239 kJ/mol
# Density = 2.342989 g / cm^3
# Si number density = 23.483342 Si / 1000 Ang^3
#
#
#
# Elastic Constant Matrix: (Units=GPa)
#
#
# Indices 1 2 3 4 5 6 
#
# 1 95.9254 -1.1119 15.0389 0.0000 0.0000 0.0000
# 2 -1.1119 16.8252 35.9528 0.0000 0.0000 0.0000
# 3 15.0389 35.9528 308.1269 0.0000 0.0000 0.0000
# 4 0.0000 0.0000 0.0000 28.9735 0.0000 0.0000
# 5 0.0000 0.0000 0.0000 0.0000 5.7853 0.0000
# 6 0.0000 0.0000 0.0000 0.0000 0.0000 21.5509
#
#
#
# Elastic Compliance Matrix: (Units=1/GPa)
#
#
# Indices 1 2 3 4 5 6 
#
# 1 0.010577 0.002401 -0.000796 0.000000 0.000000 0.000000
# 2 0.002401 0.079720 -0.009419 0.000000 0.000000 0.000000
# 3 -0.000796 -0.009419 0.004383 0.000000 0.000000 0.000000
# 4 0.000000 0.000000 0.000000 0.034514 0.000000 0.000000
# 5 0.000000 0.000000 0.000000 0.000000 0.172850 0.000000
# 6 0.000000 0.000000 0.000000 0.000000 0.000000 0.046402
#
#
# Mechanical properties :
#
#
# Convention : Reuss Voigt Hill
#
# Bulk Modulus (GPa) = 12.64994 57.84858 35.24926
# Shear Modulus (GPa) = 12.80646 35.99511 24.40078
#
# Velocity S-wave (km/s) = 2.33779 3.91934 3.22695
# Velocity P-wave (km/s) = 3.56167 6.72079 5.37840
#
# Compressibility (1/GPa) = 0.07905177
#
# Stress axis : x y z
#
# Youngs Moduli (GPa) = 94.54072 12.54383 228.13726
#
# Poissons Ratio (x) = -0.03011 0.18169
# Poissons Ratio (y) = -0.22697 2.14885
# Poissons Ratio (z) = 0.07529 0.11815
#
# Static dielectric constant tensor:
#      x y z
#    x 1.912390 0.000000 0.000000 
#    y 0.000000 1.879460 0.000000 
#    z 0.000000 0.000000 2.001260 
# 
# From -- ./inp_files/22802.got.cif
#   From: 2010.05.17/outbox.cif.g08.bks.cpg/sg58_12_cif.got.tgz:22802.got - 2010.06.03 14:20:14.
