data_PCOD9441367
_publ_section_title
;
Structure prediction by ZEFSAII (Michael W. Deem and Ramdas Pophale) SiO2 
 PCOD9441367
Probable space group: P N N M
;
_chemical_formula_sum "Si O2"
_cell_formula_units_Z 40
_cell_length_a 11.951589
_cell_length_b 7.751491
_cell_length_c 19.445824
_cell_angle_alpha 90.000000
_cell_angle_beta 90.000000
_cell_angle_gamma 90.000000
_cell_volume 1801.512367
_symmetry_space_group_name_H-M "P N N M"
_symmetry_group_IT_number 58
_symmetry_cell_setting 'orthorhombic'
loop_
_space_group_symop_operation_xyz
x,y,z
-x,-y,z
1/2+x,1/2-y,1/2-z
1/2-x,1/2+y,1/2-z
-x,-y,-z
x,y,-z
1/2-x,1/2+y,1/2+z
1/2+x,1/2-y,1/2+z
loop_
_atom_site_type_symbol
_atom_site_label
_atom_site_fract_x
_atom_site_fract_y
_atom_site_fract_z
Si Si1 0.782430 0.975148 0.810113
Si Si2 0.659121 0.339337 0.162105
Si Si3 0.054763 0.689927 0.703663
Si Si4 0.521960 0.262844 0.356811
Si Si5 0.848238 0.457501 0.077693
O O1 0.819216 0.951510 0.730714
O O2 0.681616 0.836748 0.818876
O O3 0.890720 0.921880 0.855340
O O4 0.724557 0.158035 0.824102
O O5 0.527903 0.302272 0.157118
O O6 0.721633 0.419226 0.097697
O O7 0.000000 0.500000 0.703766
O O8 0.036152 0.753440 0.781986
O O9 0.425029 0.213272 0.410824
O O10 0.604256 0.098236 0.368885
O O11 0.861023 0.518942 0.000000
#
# Coordination Sequence:
#
# PCOD9441367 Si02
#       5
#     8   8   8   8   8
#     4  10  19  32  56  80 111 134 173 239 276 329
#     4  10  19  33  52  82 107 141 178 223 280 326
#     4   9  15  30  53  76 108 131 168 225 273 331
#     4  10  18  34  53  79 105 143 183 215 280 324
#     4  11  21  37  56  75 112 153 188 218 260 335
#
# _framework density 22.203567
#
# number of rings (size 3 to 8) (size 9 to 14) (size 15 to 20)
#    0.000    2.000    4.000    3.600    0.000    0.800 
#    0.000    6.000    0.000    9.000    0.000    0.000 
#    0.000    0.000    0.000    0.000    0.000    0.000 
#
# Total GULP energy -223374.968995 kJ/mol
# GULP energy per Si atom -5584.374225 kJ/mol
# Density = 2.215303 g / cm^3
# Si number density = 22.203567 Si / 1000 Ang^3
#
#
#
# Elastic Constant Matrix: (Units=GPa)
#
#
# Indices 1 2 3 4 5 6 
#
# 1 119.3291 -5.5450 26.9151 0.0000 0.0000 0.0000
# 2 -5.5450 85.3636 6.9950 0.0000 0.0000 0.0000
# 3 26.9151 6.9950 39.0020 0.0000 0.0000 0.0000
# 4 0.0000 0.0000 0.0000 10.7152 0.0000 0.0000
# 5 0.0000 0.0000 0.0000 0.0000 19.1832 0.0000
# 6 0.0000 0.0000 0.0000 0.0000 0.0000 38.4914
#
#
#
# Elastic Compliance Matrix: (Units=1/GPa)
#
#
# Indices 1 2 3 4 5 6 
#
# 1 0.010053 0.001240 -0.007160 0.000000 0.000000 0.000000
# 2 0.001240 0.012042 -0.003015 0.000000 0.000000 0.000000
# 3 -0.007160 -0.003015 0.031121 0.000000 0.000000 0.000000
# 4 0.000000 0.000000 0.000000 0.093326 0.000000 0.000000
# 5 0.000000 0.000000 0.000000 0.000000 0.052129 0.000000
# 6 0.000000 0.000000 0.000000 0.000000 0.000000 0.025980
#
#
# Mechanical properties :
#
#
# Convention : Reuss Voigt Hill
#
# Bulk Modulus (GPa) = 28.29191 33.38054 30.83622
# Shear Modulus (GPa) = 19.66157 28.03325 23.84741
#
# Velocity S-wave (km/s) = 2.97899 3.55710 3.28080
# Velocity P-wave (km/s) = 4.96006 5.65129 5.31692
#
# Compressibility (1/GPa) = 0.03534579
#
# Stress axis : x y z
#
# Youngs Moduli (GPa) = 99.47609 83.04132 32.13229
#
# Poissons Ratio (x) = -0.10294 0.23006
# Poissons Ratio (y) = -0.12332 0.09689
# Poissons Ratio (z) = 0.71221 0.25039
#
# Static dielectric constant tensor:
#      x y z
#    x 1.874820 0.000000 0.000000 
#    y 0.000000 1.966180 0.000000 
#    z 0.000000 0.000000 1.720530 
# 
# From -- ./inp_files/25103.got.cif
#   From: 2010.05.17/outbox.cif.g08.bks.cpg/sg58_13_cif.got.tgz:25103.got - 2010.06.03 14:20:14.
