data_PCOD9441219
_publ_section_title
;
Structure prediction by ZEFSAII (Michael W. Deem and Ramdas Pophale) SiO2 
 PCOD9441219
Probable space group: P N N M
;
_chemical_formula_sum "Si O2"
_cell_formula_units_Z 52
_cell_length_a 13.916791
_cell_length_b 18.397081
_cell_length_c 7.365860
_cell_angle_alpha 90.000000
_cell_angle_beta 90.000000
_cell_angle_gamma 90.000000
_cell_volume 1885.868844
_symmetry_space_group_name_H-M "P N N M"
_symmetry_group_IT_number 58
_symmetry_cell_setting 'orthorhombic'
loop_
_space_group_symop_operation_xyz
x,y,z
-x,-y,z
1/2+x,1/2-y,1/2-z
1/2-x,1/2+y,1/2-z
-x,-y,-z
x,y,-z
1/2-x,1/2+y,1/2+z
1/2+x,1/2-y,1/2+z
loop_
_atom_site_type_symbol
_atom_site_label
_atom_site_fract_x
_atom_site_fract_y
_atom_site_fract_z
Si Si1 0.745249 0.710984 0.295532
Si Si2 0.430283 0.212675 0.715522
Si Si3 0.908071 0.609968 0.716889
Si Si4 0.617147 0.574151 0.781074
Si Si5 0.711461 0.969001 0.293991
Si Si6 0.260535 0.641327 0.500000
Si Si7 0.066947 0.151105 0.709612
O O1 0.771265 0.735155 0.500000
O O2 0.674247 0.767808 0.196580
O O3 0.837961 0.673819 0.209024
O O4 0.675223 0.640941 0.304635
O O5 0.417210 0.223084 0.500000
O O6 0.485966 0.137325 0.739894
O O7 0.501560 0.275876 0.786247
O O8 0.897339 0.608896 0.500000
O O9 0.867335 0.533388 0.782465
O O10 0.684354 0.505279 0.744024
O O11 0.506436 0.586515 0.729648
O O12 0.619744 0.582570 0.000000
O O13 0.712871 0.943155 0.500000
O O14 0.700229 0.905866 0.154472
O O15 0.343572 0.661680 0.659810
O O16 0.092761 0.136333 0.500000
#
# Coordination Sequence:
#
# PCOD9441219 Si02
#       7
#     8   8   8   8   8   4   8
#     4   8  16  28  46  67  97 133 166 204 256 301
#     4  10  18  32  51  74 100 134 171 212 258 308
#     4  10  18  32  51  74 100 134 171 212 258 308
#     4   8  16  28  43  62  91 125 170 207 241 285
#     4  10  20  33  46  67  94 131 169 210 250 295
#     4  12  22  33  46  66 100 131 180 204 252 295
#     4  10  20  33  46  67  94 131 169 210 250 295
#
# _framework density 27.573495999999999
#
# number of rings (size 3 to 8) (size 9 to 14) (size 15 to 20)
#    0.000    2.462    1.538    1.385    2.154    2.462 
#    0.000    2.308    0.000    0.000    0.000    0.000 
#    0.000    2.462    0.000    8.923    0.000    0.154 
#
# Total GULP energy -290243.385431 kJ/mol
# GULP energy per Si atom -5581.603566 kJ/mol
# Density = 2.751074 g / cm^3
# Si number density = 27.573496 Si / 1000 Ang^3
#
#
#
# Elastic Constant Matrix: (Units=GPa)
#
#
# Indices 1 2 3 4 5 6 
#
# 1 171.7082 19.0964 -1.6791 0.0000 0.0000 0.0000
# 2 19.0964 108.7411 -9.2854 0.0000 0.0000 0.0000
# 3 -1.6791 -9.2854 96.1425 0.0000 0.0000 0.0000
# 4 0.0000 0.0000 0.0000 -2.7599 0.0000 0.0000
# 5 0.0000 0.0000 0.0000 0.0000 -3.4759 0.0000
# 6 0.0000 0.0000 0.0000 0.0000 0.0000 52.9946
#
#
#
# Elastic Compliance Matrix: (Units=1/GPa)
#
#
# Indices 1 2 3 4 5 6 
#
# 1 0.005940 -0.001043 0.000003 0.000000 0.000000 0.000000
# 2 -0.001043 0.009456 0.000895 0.000000 0.000000 0.000000
# 3 0.000003 0.000895 0.010488 0.000000 0.000000 0.000000
# 4 0.000000 0.000000 0.000000 -0.362337 0.000000 0.000000
# 5 0.000000 0.000000 0.000000 0.000000 -0.287694 0.000000
# 6 0.000000 0.000000 0.000000 0.000000 0.000000 0.018870
#
#
# Mechanical properties :
#
#
# Convention : Reuss Voigt Hill
#
# Bulk Modulus (GPa) = 39.07223 43.65063 41.36143
# Shear Modulus (GPa) = -8.38284 33.91576 12.76646
#
# Velocity S-wave (km/s) = -1.74550 3.51096 2.15407
# Velocity P-wave (km/s) = 3.18412 5.68338 4.60648
#
# Compressibility (1/GPa) = 0.02559362
#
# Stress axis : x y z
#
# Youngs Moduli (GPa) = 168.35456 105.75613 95.34963
#
# Poissons Ratio (x) = 0.11029 -0.00029
# Poissons Ratio (y) = 0.17557 -0.08534
# Poissons Ratio (z) = -0.00051 -0.09465
#
# Static dielectric constant tensor:
#      x y z
#    x 2.201620 0.000000 0.000000 
#    y 0.000000 2.214220 0.000000 
#    z 0.000000 0.000000 2.445790 
# 
# From -- ./inp_files/6603.got.cif
#   From: 2010.05.17/outbox.cif.g08.bks.cpg/sg58_4_cif.got.tgz:6603.got - 2010.06.03 14:20:14.
