data_PCOD9441947
_publ_section_title
;
Structure prediction by ZEFSAII (Michael W. Deem and Ramdas Pophale) SiO2 
 PCOD9441947
Probable space group: P N N M
;
_chemical_formula_sum "Si O2"
_cell_formula_units_Z 58
_cell_length_a 14.985624
_cell_length_b 26.778514
_cell_length_c 7.418747
_cell_angle_alpha 90.000000
_cell_angle_beta 90.000000
_cell_angle_gamma 90.000000
_cell_volume 2977.089326
_symmetry_space_group_name_H-M "P N N M"
_symmetry_group_IT_number 58
_symmetry_cell_setting 'orthorhombic'
loop_
_space_group_symop_operation_xyz
x,y,z
-x,-y,z
1/2+x,1/2-y,1/2-z
1/2-x,1/2+y,1/2-z
-x,-y,-z
x,y,-z
1/2-x,1/2+y,1/2+z
1/2+x,1/2-y,1/2+z
loop_
_atom_site_type_symbol
_atom_site_label
_atom_site_fract_x
_atom_site_fract_y
_atom_site_fract_z
Si Si1 0.496715 0.736146 0.784843
Si Si2 0.000000 0.500000 0.000000
Si Si3 0.987841 0.648981 0.279845
Si Si4 0.686998 0.700582 0.785496
Si Si5 0.699603 0.294509 0.715630
Si Si6 0.699541 0.104516 0.785547
Si Si7 0.682414 0.886658 0.781874
Si Si8 0.164495 0.503462 0.281653
O O1 0.487986 0.793344 0.719963
O O2 0.587298 0.710766 0.715671
O O3 0.405399 0.707162 0.750148
O O4 0.505199 0.740089 0.000000
O O5 0.922808 0.498894 0.159331
O O6 0.987185 0.648176 0.500000
O O7 0.080292 0.623433 0.221675
O O8 0.898142 0.621698 0.215252
O O9 0.754085 0.743534 0.715205
O O10 0.727606 0.646074 0.758081
O O11 0.683234 0.707443 0.000000
O O12 0.819410 0.382871 0.500000
O O13 0.752648 0.342910 0.783997
O O14 0.717823 0.047242 0.737020
O O15 0.691269 0.105557 0.000000
O O16 0.709251 0.943224 0.739781
O O17 0.790009 0.794449 0.000000
O O18 0.145021 0.503164 0.500000
#
# Coordination Sequence:
#
# PCOD9441947 Si02
#       8
#     8   2   8   8   8   8   8   8
#     4  10  19  33  50  75 108 143 177 219 280 337
#     4  12  22  36  60  86 124 150 198 240 284 340
#     4   9  15  26  49  75 104 141 175 212 267 335
#     4  10  20  33  53  78 108 143 183 227 282 339
#     4  10  19  33  54  80 105 141 185 233 279 336
#     4  10  20  34  55  78 108 148 188 225 275 337
#     4   9  17  34  56  75 108 150 187 226 281 339
#     4  10  22  38  56  83 117 159 195 235 288 346
#
# _framework density 19.482116000000001
#
# number of rings (size 3 to 8) (size 9 to 14) (size 15 to 20)
#    0.000    2.207    2.759    1.034    0.966    2.759 
#    1.241    0.000    0.000    0.828    0.000    5.793 
#    0.000    0.000    0.000    0.000    0.000    0.000 
#
# Total GULP energy -323110.975820 kJ/mol
# GULP energy per Si atom -5570.878893 kJ/mol
# Density = 1.943777 g / cm^3
# Si number density = 19.482116 Si / 1000 Ang^3
#
#
#
# Elastic Constant Matrix: (Units=GPa)
#
#
# Indices 1 2 3 4 5 6 
#
# 1 111.0804 73.7106 -5.9039 0.0000 0.0000 0.0000
# 2 73.7106 170.6464 7.7121 0.0000 0.0000 0.0000
# 3 -5.9039 7.7121 67.6054 0.0000 0.0000 0.0000
# 4 0.0000 0.0000 0.0000 -144.2591 0.0000 0.0000
# 5 0.0000 0.0000 0.0000 0.0000 22.0865 0.0000
# 6 0.0000 0.0000 0.0000 0.0000 0.0000 72.4843
#
#
#
# Elastic Compliance Matrix: (Units=1/GPa)
#
#
# Indices 1 2 3 4 5 6 
#
# 1 0.012825 -0.005619 0.001761 0.000000 0.000000 0.000000
# 2 -0.005619 0.008353 -0.001444 0.000000 0.000000 0.000000
# 3 0.001761 -0.001444 0.015110 0.000000 0.000000 0.000000
# 4 0.000000 0.000000 0.000000 -0.006932 0.000000 0.000000
# 5 0.000000 0.000000 0.000000 0.000000 0.045276 0.000000
# 6 0.000000 0.000000 0.000000 0.000000 0.000000 0.013796
#
#
# Mechanical properties :
#
#
# Convention : Reuss Voigt Hill
#
# Bulk Modulus (GPa) = 38.93477 55.59664 47.26571
# Shear Modulus (GPa) = 46.47133 8.31659 27.39396
#
# Velocity S-wave (km/s) = 4.88929 2.06836 3.75388
# Velocity P-wave (km/s) = 7.20429 5.85691 6.56525
#
# Compressibility (1/GPa) = 0.02568398
#
# Stress axis : x y z
#
# Youngs Moduli (GPa) = 77.97316 119.72379 66.18058
#
# Poissons Ratio (x) = 0.67276 -0.11654
# Poissons Ratio (y) = 0.43815 0.09553
# Poissons Ratio (z) = -0.13731 0.17283
#
# Static dielectric constant tensor:
#      x y z
#    x 1.656450 0.000000 0.000000 
#    y 0.000000 1.716970 0.000000 
#    z 0.000000 0.000000 1.754570 
# 
# From -- ./inp_files/6696.got.cif
#   From: 2010.05.17/outbox.cif.g08.bks.cpg/sg58_4_cif.got.tgz:6696.got - 2010.06.03 14:20:14.
