data_PCOD9441204
_publ_section_title
;
Structure prediction by ZEFSAII (Michael W. Deem and Ramdas Pophale) SiO2 
 PCOD9441204
Probable space group: P N N M
;
_chemical_formula_sum "Si O2"
_cell_formula_units_Z 64
_cell_length_a 13.007487
_cell_length_b 28.921024
_cell_length_c 7.626640
_cell_angle_alpha 90.000000
_cell_angle_beta 90.000000
_cell_angle_gamma 90.000000
_cell_volume 2869.064510
_symmetry_space_group_name_H-M "P N N M"
_symmetry_group_IT_number 58
_symmetry_cell_setting 'orthorhombic'
loop_
_space_group_symop_operation_xyz
x,y,z
-x,-y,z
1/2+x,1/2-y,1/2-z
1/2-x,1/2+y,1/2-z
-x,-y,-z
x,y,-z
1/2-x,1/2+y,1/2+z
1/2+x,1/2-y,1/2+z
loop_
_atom_site_type_symbol
_atom_site_label
_atom_site_fract_x
_atom_site_fract_y
_atom_site_fract_z
Si Si1 0.282759 0.667750 0.708084
Si Si2 0.482212 0.052489 0.285154
Si Si3 0.061041 0.696208 0.299228
Si Si4 0.852761 0.124623 0.287040
Si Si5 0.005978 0.205659 0.204946
Si Si6 0.375147 0.866844 0.705553
Si Si7 0.250946 0.065814 0.711782
Si Si8 0.111657 0.981274 0.286087
O O1 0.278780 0.677181 0.500000
O O2 0.169920 0.680225 0.781361
O O3 0.379734 0.696273 0.778085
O O4 0.302557 0.613305 0.733330
O O5 0.483199 0.053526 0.500000
O O6 0.569074 0.087519 0.221264
O O7 0.368975 0.067899 0.228766
O O8 0.500000 0.000000 0.231868
O O9 0.060746 0.680298 0.500000
O O10 0.050553 0.751234 0.291954
O O11 0.958659 0.673681 0.219671
O O12 0.858583 0.125927 0.500000
O O13 0.939840 0.159222 0.222016
O O14 0.739438 0.141050 0.226025
O O15 0.868559 0.071371 0.231152
O O16 0.014829 0.217499 0.000000
O O17 0.359548 0.876138 0.500000
O O18 0.250704 0.064756 0.500000
O O19 0.195470 0.019046 0.771957
O O20 0.114192 0.980805 0.500000
O O21 0.000000 0.000000 0.233261
#
# Coordination Sequence:
#
# PCOD9441204 Si02
#       8
#     8   8   8   8   8   8   8   8
#     4  10  23  42  61  84 119 153 188 244 304 353
#     4   9  16  28  50  83 117 150 191 236 283 335
#     4  11  24  42  63  87 114 151 195 244 306 362
#     4  10  21  38  60  89 126 162 196 241 299 351
#     4  11  25  43  63  87 116 152 198 248 300 357
#     4  10  20  36  58  86 121 156 191 240 296 348
#     4  10  18  31  57  87 115 153 201 243 282 344
#     4   9  17  30  52  85 121 156 199 247 288 334
#
# _framework density 22.306920999999999
#
# number of rings (size 3 to 8) (size 9 to 14) (size 15 to 20)
#    0.000    2.000    1.250    2.250    1.750    6.000 
#    0.000    0.625    0.000    5.250    0.000    0.000 
#    0.000    0.000    0.000    0.000    0.000    0.000 
#
# Total GULP energy -357616.441147 kJ/mol
# GULP energy per Si atom -5587.756893 kJ/mol
# Density = 2.225615 g / cm^3
# Si number density = 22.306921 Si / 1000 Ang^3
#
#
#
# Elastic Constant Matrix: (Units=GPa)
#
#
# Indices 1 2 3 4 5 6 
#
# 1 122.7690 34.0456 2.5566 0.0000 0.0000 0.0000
# 2 34.0456 107.5593 -10.7015 0.0000 0.0000 0.0000
# 3 2.5566 -10.7015 45.2207 0.0000 0.0000 0.0000
# 4 0.0000 0.0000 0.0000 -113.7033 0.0000 0.0000
# 5 0.0000 0.0000 0.0000 0.0000 7.1257 0.0000
# 6 0.0000 0.0000 0.0000 0.0000 0.0000 37.0568
#
#
#
# Elastic Compliance Matrix: (Units=1/GPa)
#
#
# Indices 1 2 3 4 5 6 
#
# 1 0.008993 -0.002967 -0.001211 0.000000 0.000000 0.000000
# 2 -0.002967 0.010500 0.002653 0.000000 0.000000 0.000000
# 3 -0.001211 0.002653 0.022810 0.000000 0.000000 0.000000
# 4 0.000000 0.000000 0.000000 -0.008795 0.000000 0.000000
# 5 0.000000 0.000000 0.000000 0.000000 0.140338 0.000000
# 6 0.000000 0.000000 0.000000 0.000000 0.000000 0.026986
#
#
# Mechanical properties :
#
#
# Convention : Reuss Voigt Hill
#
# Bulk Modulus (GPa) = 25.47548 36.37228 30.92388
# Shear Modulus (GPa) = 23.04500 2.73907 12.89204
#
# Velocity S-wave (km/s) = 3.21765 1.10931 2.40664
# Velocity P-wave (km/s) = 5.02490 4.24046 4.64926
#
# Compressibility (1/GPa) = 0.03925343
#
# Stress axis : x y z
#
# Youngs Moduli (GPa) = 111.19250 95.23541 43.84056
#
# Poissons Ratio (x) = 0.28258 0.05307
# Poissons Ratio (y) = 0.32992 -0.11629
# Poissons Ratio (z) = 0.13461 -0.25262
#
# Static dielectric constant tensor:
#      x y z
#    x 1.829770 0.000000 0.000000 
#    y 0.000000 1.779930 0.000000 
#    z 0.000000 0.000000 1.855380 
# 
# From -- ./inp_files/4654.got.cif
#   From: 2010.05.17/outbox.cif.g08.bks.cpg/sg58_3_cif.got.tgz:4654.got - 2010.06.03 14:20:14.
