data_PCOD9441302
_publ_section_title
;
Structure prediction by ZEFSAII (Michael W. Deem and Ramdas Pophale) SiO2 
 PCOD9441302
Probable space group: P N N M
;
_chemical_formula_sum "Si O2"
_cell_formula_units_Z 40
_cell_length_a 11.465405
_cell_length_b 12.299269
_cell_length_c 13.363537
_cell_angle_alpha 90.000000
_cell_angle_beta 90.000000
_cell_angle_gamma 90.000000
_cell_volume 1884.473874
_symmetry_space_group_name_H-M "P N N M"
_symmetry_group_IT_number 58
_symmetry_cell_setting 'orthorhombic'
loop_
_space_group_symop_operation_xyz
x,y,z
-x,-y,z
1/2+x,1/2-y,1/2-z
1/2-x,1/2+y,1/2-z
-x,-y,-z
x,y,-z
1/2-x,1/2+y,1/2+z
1/2+x,1/2-y,1/2+z
loop_
_atom_site_type_symbol
_atom_site_label
_atom_site_fract_x
_atom_site_fract_y
_atom_site_fract_z
Si Si1 0.887245 0.119809 0.885180
Si Si2 0.204045 0.425937 0.209253
Si Si3 0.576700 0.295655 0.740469
Si Si4 0.065551 0.887492 0.610450
Si Si5 0.208768 0.636949 0.117372
O O1 0.787731 0.071448 0.809530
O O2 0.857983 0.249071 0.885234
O O3 0.021198 0.123704 0.843127
O O4 0.878766 0.081030 0.000000
O O5 0.121222 0.321894 0.209859
O O6 0.299057 0.407461 0.122253
O O7 0.146071 0.538647 0.175842
O O8 0.468113 0.291046 0.816192
O O9 0.678101 0.343812 0.811875
O O10 0.029050 0.859646 0.500000
O O11 0.000000 0.000000 0.637800
O O12 0.235463 0.612443 0.000000
#
# Coordination Sequence:
#
# PCOD9441302 Si02
#       5
#     8   8   8   8   8
#     4   9  21  37  53  78 113 148 179 219 278 334
#     4  10  20  33  55  85 112 139 182 230 273 317
#     4  10  20  34  53  84 115 140 176 228 278 315
#     4  10  18  32  58  85 105 135 185 232 266 307
#     4  10  19  36  60  81 104 142 188 229 270 318
#
# _framework density 21.226082999999999
#
# number of rings (size 3 to 8) (size 9 to 14) (size 15 to 20)
#    0.000    2.200    2.000    1.200    0.000    3.200 
#    0.000    4.000    0.000    7.200    0.000   26.600 
#    0.000    0.000    0.000    0.000    0.000    0.000 
#
# Total GULP energy -222725.861625 kJ/mol
# GULP energy per Si atom -5568.146541 kJ/mol
# Density = 2.117777 g / cm^3
# Si number density = 21.226083 Si / 1000 Ang^3
#
#
#
# Elastic Constant Matrix: (Units=GPa)
#
#
# Indices 1 2 3 4 5 6 
#
# 1 42.7680 3.3406 12.0578 0.0000 0.0000 0.0000
# 2 3.3406 71.7201 31.5379 0.0000 0.0000 0.0000
# 3 12.0578 31.5379 135.7723 0.0000 0.0000 0.0000
# 4 0.0000 0.0000 0.0000 36.4283 0.0000 0.0000
# 5 0.0000 0.0000 0.0000 0.0000 8.8909 0.0000
# 6 0.0000 0.0000 0.0000 0.0000 0.0000 39.1599
#
#
#
# Elastic Compliance Matrix: (Units=1/GPa)
#
#
# Indices 1 2 3 4 5 6 
#
# 1 0.023985 -0.000201 -0.002083 0.000000 0.000000 0.000000
# 2 -0.000201 0.015531 -0.003590 0.000000 0.000000 0.000000
# 3 -0.002083 -0.003590 0.008384 0.000000 0.000000 0.000000
# 4 0.000000 0.000000 0.000000 0.027451 0.000000 0.000000
# 5 0.000000 0.000000 0.000000 0.000000 0.112475 0.000000
# 6 0.000000 0.000000 0.000000 0.000000 0.000000 0.025536
#
#
# Mechanical properties :
#
#
# Convention : Reuss Voigt Hill
#
# Bulk Modulus (GPa) = 27.66112 38.23697 32.94905
# Shear Modulus (GPa) = 21.08270 30.45077 25.76674
#
# Velocity S-wave (km/s) = 3.15500 3.79171 3.48791
# Velocity P-wave (km/s) = 5.13147 6.10104 5.63714
#
# Compressibility (1/GPa) = 0.03615182
#
# Stress axis : x y z
#
# Youngs Moduli (GPa) = 41.69268 64.38730 119.27279
#
# Poissons Ratio (x) = 0.01294 0.24849
# Poissons Ratio (y) = 0.00838 0.42816
# Poissons Ratio (z) = 0.08686 0.23114
#
# Static dielectric constant tensor:
#      x y z
#    x 1.837950 0.000000 0.000000 
#    y 0.000000 1.991860 0.000000 
#    z 0.000000 0.000000 1.796880 
# 
# From -- ./inp_files/21952.got.cif
#   From: 2010.05.17/outbox.cif.g08.bks.cpg/sg58_11_cif.got.tgz:21952.got - 2010.06.03 14:20:14.
