data_PCOD9441404
_publ_section_title
;
Structure prediction by ZEFSAII (Michael W. Deem and Ramdas Pophale) SiO2 
 PCOD9441404
Probable space group: P N N M
;
_chemical_formula_sum "Si O2"
_cell_formula_units_Z 48
_cell_length_a 12.711465
_cell_length_b 22.369004
_cell_length_c 7.685655
_cell_angle_alpha 90.000000
_cell_angle_beta 90.000000
_cell_angle_gamma 90.000000
_cell_volume 2185.360750
_symmetry_space_group_name_H-M "P N N M"
_symmetry_group_IT_number 58
_symmetry_cell_setting 'orthorhombic'
loop_
_space_group_symop_operation_xyz
x,y,z
-x,-y,z
1/2+x,1/2-y,1/2-z
1/2-x,1/2+y,1/2-z
-x,-y,-z
x,y,-z
1/2-x,1/2+y,1/2+z
1/2+x,1/2-y,1/2+z
loop_
_atom_site_type_symbol
_atom_site_label
_atom_site_fract_x
_atom_site_fract_y
_atom_site_fract_z
Si Si1 0.136428 0.828041 0.289001
Si Si2 0.586951 0.800943 0.203743
Si Si3 0.248271 0.102198 0.213086
Si Si4 0.379508 0.985593 0.209817
Si Si5 0.135055 0.351448 0.800966
Si Si6 0.020023 0.067098 0.793106
O O1 0.138114 0.830711 0.500000
O O2 0.082146 0.766646 0.227828
O O3 0.257103 0.825335 0.226590
O O4 0.075787 0.887474 0.232815
O O5 0.679925 0.842829 0.277072
O O6 0.974979 0.666483 0.283386
O O7 0.611540 0.794606 0.000000
O O8 0.127983 0.097343 0.273409
O O9 0.306289 0.040562 0.261557
O O10 0.249326 0.104831 0.000000
O O11 0.350642 0.922599 0.291277
O O12 0.500000 0.000000 0.254198
O O13 0.373009 0.979188 0.000000
O O14 0.126012 0.331536 0.000000
O O15 0.035502 0.060084 0.000000
O O16 0.000000 0.000000 0.723144
#
# Coordination Sequence:
#
# PCOD9441404 Si02
#       6
#     8   8   8   8   8   8
#     4  10  24  41  59  84 118 157 193 237 295 350
#     4  10  21  40  60  81 113 157 200 235 286 353
#     4   9  18  34  59  86 114 151 195 242 286 337
#     4  10  18  34  60  86 113 152 195 233 283 343
#     4  11  23  38  58  87 120 150 188 241 295 340
#     4  10  21  38  63  91 117 151 200 247 288 345
#
# _framework density 21.964338000000001
#
# number of rings (size 3 to 8) (size 9 to 14) (size 15 to 20)
#    0.000    2.000    1.667    1.500    2.333    4.000 
#    0.000    1.667    0.000    0.000    0.000    0.000 
#    0.000    0.000    0.000    0.000    0.000    0.000 
#
# Total GULP energy -268092.668481 kJ/mol
# GULP energy per Si atom -5585.263927 kJ/mol
# Density = 2.191435 g / cm^3
# Si number density = 21.964338 Si / 1000 Ang^3
#
#
#
# Elastic Constant Matrix: (Units=GPa)
#
#
# Indices 1 2 3 4 5 6 
#
# 1 112.9537 39.0687 -0.6560 0.0000 0.0000 0.0000
# 2 39.0687 130.9804 -1.8647 0.0000 0.0000 0.0000
# 3 -0.6560 -1.8647 27.1556 0.0000 0.0000 0.0000
# 4 0.0000 0.0000 0.0000 14.1104 0.0000 0.0000
# 5 0.0000 0.0000 0.0000 0.0000 17.4030 0.0000
# 6 0.0000 0.0000 0.0000 0.0000 0.0000 14.7432
#
#
#
# Elastic Compliance Matrix: (Units=1/GPa)
#
#
# Indices 1 2 3 4 5 6 
#
# 1 0.009872 -0.002944 0.000036 0.000000 0.000000 0.000000
# 2 -0.002944 0.008520 0.000514 0.000000 0.000000 0.000000
# 3 0.000036 0.000514 0.036861 0.000000 0.000000 0.000000
# 4 0.000000 0.000000 0.000000 0.070870 0.000000 0.000000
# 5 0.000000 0.000000 0.000000 0.000000 0.057462 0.000000
# 6 0.000000 0.000000 0.000000 0.000000 0.000000 0.067828
#
#
# Mechanical properties :
#
#
# Convention : Reuss Voigt Hill
#
# Bulk Modulus (GPa) = 19.81558 38.24286 29.02922
# Shear Modulus (GPa) = 18.31360 24.88742 21.60051
#
# Velocity S-wave (km/s) = 2.89067 3.36978 3.13938
# Velocity P-wave (km/s) = 4.49250 5.70874 5.13675
#
# Compressibility (1/GPa) = 0.05046534
#
# Stress axis : x y z
#
# Youngs Moduli (GPa) = 101.29998 117.36841 27.12896
#
# Poissons Ratio (x) = 0.34553 -0.00099
# Poissons Ratio (y) = 0.29823 -0.01394
# Poissons Ratio (z) = -0.00368 -0.06032
#
# Static dielectric constant tensor:
#      x y z
#    x 1.787940 0.000000 0.000000 
#    y 0.000000 1.783660 0.000000 
#    z 0.000000 0.000000 1.828920 
# 
# From -- ./inp_files/5905.got.cif
#   From: 2010.05.17/outbox.cif.g08.bks.cpg/sg58_3_cif.got.tgz:5905.got - 2010.06.03 14:20:14.
