data_PCOD9441814
_publ_section_title
;
Structure prediction by ZEFSAII (Michael W. Deem and Ramdas Pophale) SiO2 
 PCOD9441814
Probable space group: P N N M
;
_chemical_formula_sum "Si O2"
_cell_formula_units_Z 40
_cell_length_a 9.207081
_cell_length_b 9.624055
_cell_length_c 18.383925
_cell_angle_alpha 90.000000
_cell_angle_beta 90.000000
_cell_angle_gamma 90.000000
_cell_volume 1628.989555
_symmetry_space_group_name_H-M "P N N M"
_symmetry_group_IT_number 58
_symmetry_cell_setting 'orthorhombic'
loop_
_space_group_symop_operation_xyz
x,y,z
-x,-y,z
1/2+x,1/2-y,1/2-z
1/2-x,1/2+y,1/2-z
-x,-y,-z
x,y,-z
1/2-x,1/2+y,1/2+z
1/2+x,1/2-y,1/2+z
loop_
_atom_site_type_symbol
_atom_site_label
_atom_site_fract_x
_atom_site_fract_y
_atom_site_fract_z
Si Si1 0.766000 0.424488 0.781465
Si Si2 0.512469 0.749576 0.184098
Si Si3 0.229661 0.436875 0.636691
Si Si4 0.745244 0.244210 0.584812
Si Si5 0.912450 0.317871 0.084537
O O1 0.611312 0.347122 0.782726
O O2 0.748485 0.549191 0.724331
O O3 0.826038 0.422590 0.863256
O O4 0.895120 0.335066 0.742722
O O5 0.424379 0.858386 0.132999
O O6 0.631004 0.674351 0.134028
O O7 0.243464 0.590329 0.603848
O O8 0.343011 0.333144 0.600261
O O9 0.772347 0.223360 0.500000
O O10 0.582009 0.197930 0.601512
O O11 0.895597 0.354812 0.000000
#
# Coordination Sequence:
#
# PCOD9441814 Si02
#       5
#     8   8   8   8   8
#     4  10  19  35  54  78 114 151 189 232 283 339
#     4  10  21  33  52  79 111 150 193 238 280 339
#     4  10  20  34  55  83 114 149 188 235 285 338
#     4  10  19  32  51  80 118 152 184 231 287 337
#     4  10  21  36  57  85 117 151 189 234 284 339
#
# _framework density 24.555098999999998
#
# number of rings (size 3 to 8) (size 9 to 14) (size 15 to 20)
#    0.000    2.000    0.000    6.000    0.000    8.000 
#    0.000    2.000    0.000    2.400    0.000   21.000 
#    0.000   89.600    0.000    0.400    0.000    0.000 
#
# Total GULP energy -223937.715582 kJ/mol
# GULP energy per Si atom -5598.442890 kJ/mol
# Density = 2.449921 g / cm^3
# Si number density = 24.555099 Si / 1000 Ang^3
#
#
#
# Elastic Constant Matrix: (Units=GPa)
#
#
# Indices 1 2 3 4 5 6 
#
# 1 152.3055 30.2398 61.9004 0.0000 0.0000 0.0000
# 2 30.2398 62.5954 12.3812 0.0000 0.0000 0.0000
# 3 61.9004 12.3812 110.2593 0.0000 0.0000 0.0000
# 4 0.0000 0.0000 0.0000 26.1593 0.0000 0.0000
# 5 0.0000 0.0000 0.0000 0.0000 39.9929 0.0000
# 6 0.0000 0.0000 0.0000 0.0000 0.0000 29.0365
#
#
#
# Elastic Compliance Matrix: (Units=1/GPa)
#
#
# Indices 1 2 3 4 5 6 
#
# 1 0.009200 -0.003501 -0.004772 0.000000 0.000000 0.000000
# 2 -0.003501 0.017671 -0.000019 0.000000 0.000000 0.000000
# 3 -0.004772 -0.000019 0.011751 0.000000 0.000000 0.000000
# 4 0.000000 0.000000 0.000000 0.038227 0.000000 0.000000
# 5 0.000000 0.000000 0.000000 0.000000 0.025004 0.000000
# 6 0.000000 0.000000 0.000000 0.000000 0.000000 0.034439
#
#
# Mechanical properties :
#
#
# Convention : Reuss Voigt Hill
#
# Bulk Modulus (GPa) = 45.37575 59.35589 52.36582
# Shear Modulus (GPa) = 31.20670 33.74700 32.47685
#
# Velocity S-wave (km/s) = 3.56881 3.71123 3.64072
# Velocity P-wave (km/s) = 5.95829 6.52605 6.24862
#
# Compressibility (1/GPa) = 0.02203821
#
# Stress axis : x y z
#
# Youngs Moduli (GPa) = 108.69258 56.59131 85.10139
#
# Poissons Ratio (x) = 0.19811 0.40610
# Poissons Ratio (y) = 0.38051 0.00161
# Poissons Ratio (z) = 0.51868 0.00107
#
# Static dielectric constant tensor:
#      x y z
#    x 1.919610 0.000000 0.000000 
#    y 0.000000 2.005540 0.000000 
#    z 0.000000 0.000000 1.963300 
# 
# From -- ./inp_files/25132.got.cif
#   From: 2010.05.17/outbox.cif.g08.bks.cpg/sg58_13_cif.got.tgz:25132.got - 2010.06.03 14:20:14.
