data_PCOD9441809
_publ_section_title
;
Structure prediction by ZEFSAII (Michael W. Deem and Ramdas Pophale) SiO2 
 PCOD9441809
Probable space group: P N N M
;
_chemical_formula_sum "Si O2"
_cell_formula_units_Z 64
_cell_length_a 15.689227
_cell_length_b 24.847908
_cell_length_c 8.117450
_cell_angle_alpha 90.000000
_cell_angle_beta 90.000000
_cell_angle_gamma 90.000000
_cell_volume 3164.542986
_symmetry_space_group_name_H-M "P N N M"
_symmetry_group_IT_number 58
_symmetry_cell_setting 'orthorhombic'
loop_
_space_group_symop_operation_xyz
x,y,z
-x,-y,z
1/2+x,1/2-y,1/2-z
1/2-x,1/2+y,1/2-z
-x,-y,-z
x,y,-z
1/2-x,1/2+y,1/2+z
1/2+x,1/2-y,1/2+z
loop_
_atom_site_type_symbol
_atom_site_label
_atom_site_fract_x
_atom_site_fract_y
_atom_site_fract_z
Si Si1 0.206929 0.543611 0.300408
Si Si2 0.982697 0.724154 0.801522
Si Si3 0.646005 0.073195 0.800783
Si Si4 0.539795 0.893231 0.801139
Si Si5 0.799338 0.691194 0.195490
Si Si6 0.928358 0.070861 0.808850
Si Si7 0.385273 0.311842 0.302985
Si Si8 0.892620 0.953085 0.688967
O O1 0.208461 0.543904 0.500000
O O2 0.190192 0.481893 0.247358
O O3 0.126639 0.579065 0.244252
O O4 0.297855 0.563563 0.237893
O O5 0.885002 0.720527 0.740607
O O6 0.026516 0.667409 0.759069
O O7 0.041021 0.772671 0.738078
O O8 0.978774 0.728147 0.000000
O O9 0.546015 0.074511 0.753479
O O10 0.686943 0.127937 0.734438
O O11 0.650780 0.075531 0.000000
O O12 0.541605 0.892711 0.000000
O O13 0.709406 0.709104 0.268206
O O14 0.795535 0.698191 0.000000
O O15 0.894013 0.127039 0.740640
O O16 0.031117 0.071247 0.797021
O O17 0.898683 0.017601 0.715234
O O18 0.901942 0.064413 0.000000
O O19 0.396269 0.315536 0.500000
O O20 0.910567 0.940190 0.500000
#
# Coordination Sequence:
#
# PCOD9441809 Si02
#       8
#     8   8   8   8   8   8   8   8
#     4  10  19  32  51  77 108 144 181 215 258 318
#     4   9  20  39  56  76 110 144 175 220 276 322
#     4   9  17  31  53  78 106 140 181 222 261 310
#     4   9  18  33  53  77 105 139 180 223 263 308
#     4  10  20  34  55  82 110 139 175 223 274 321
#     4  10  20  37  59  78 101 138 180 221 266 318
#     4  10  21  38  60  81 104 140 183 224 266 318
#     4  11  22  35  52  78 113 142 170 217 271 321
#
# _framework density 20.22409
#
# number of rings (size 3 to 8) (size 9 to 14) (size 15 to 20)
#    0.000    2.250    0.000    3.750    0.000    7.500 
#    2.250    0.000    0.000    3.750    0.000    0.000 
#    0.000    0.000    0.000    0.000    0.000    0.000 
#
# Total GULP energy -357339.298234 kJ/mol
# GULP energy per Si atom -5583.426535 kJ/mol
# Density = 2.017806 g / cm^3
# Si number density = 20.224090 Si / 1000 Ang^3
#
#
#
# Elastic Constant Matrix: (Units=GPa)
#
#
# Indices 1 2 3 4 5 6 
#
# 1 124.8590 32.7216 -7.4932 0.0000 0.0000 0.0000
# 2 32.7216 27.0889 -2.8173 0.0000 0.0000 0.0000
# 3 -7.4932 -2.8173 14.2275 0.0000 0.0000 0.0000
# 4 0.0000 0.0000 0.0000 11.5542 0.0000 0.0000
# 5 0.0000 0.0000 0.0000 0.0000 20.3864 0.0000
# 6 0.0000 0.0000 0.0000 0.0000 0.0000 16.1243
#
#
#
# Elastic Compliance Matrix: (Units=1/GPa)
#
#
# Indices 1 2 3 4 5 6 
#
# 1 0.011886 -0.013995 0.003489 0.000000 0.000000 0.000000
# 2 -0.013995 0.054169 0.003356 0.000000 0.000000 0.000000
# 3 0.003489 0.003356 0.072788 0.000000 0.000000 0.000000
# 4 0.000000 0.000000 0.000000 0.086549 0.000000 0.000000
# 5 0.000000 0.000000 0.000000 0.000000 0.049052 0.000000
# 6 0.000000 0.000000 0.000000 0.000000 0.000000 0.062018
#
#
# Mechanical properties :
#
#
# Convention : Reuss Voigt Hill
#
# Bulk Modulus (GPa) = 8.02929 23.44417 15.73673
# Shear Modulus (GPa) = 12.74610 19.19728 15.97169
#
# Velocity S-wave (km/s) = 2.51319 3.08430 2.81327
# Velocity P-wave (km/s) = 3.52140 4.92963 4.28378
#
# Compressibility (1/GPa) = 0.12454395
#
# Stress axis : x y z
#
# Youngs Moduli (GPa) = 84.13285 18.46069 13.73845
#
# Poissons Ratio (x) = 0.25835 -0.04793
# Poissons Ratio (y) = 1.17741 -0.04611
# Poissons Ratio (z) = -0.29352 -0.06196
#
# Static dielectric constant tensor:
#      x y z
#    x 1.734510 0.000000 0.000000 
#    y 0.000000 1.697500 0.000000 
#    z 0.000000 0.000000 1.712770 
# 
# From -- ./inp_files/6747.got.cif
#   From: 2010.05.17/outbox.cif.g08.bks.cpg/sg58_4_cif.got.tgz:6747.got - 2010.06.03 14:20:14.
