data_PCOD9441564
_publ_section_title
;
Structure prediction by ZEFSAII (Michael W. Deem and Ramdas Pophale) SiO2 
 PCOD9441564
Probable space group: P N N M
;
_chemical_formula_sum "Si O2"
_cell_formula_units_Z 64
_cell_length_a 17.693010
_cell_length_b 23.197404
_cell_length_c 8.850096
_cell_angle_alpha 90.000000
_cell_angle_beta 90.000000
_cell_angle_gamma 90.000000
_cell_volume 3632.361725
_symmetry_space_group_name_H-M "P N N M"
_symmetry_group_IT_number 58
_symmetry_cell_setting 'orthorhombic'
loop_
_space_group_symop_operation_xyz
x,y,z
-x,-y,z
1/2+x,1/2-y,1/2-z
1/2-x,1/2+y,1/2-z
-x,-y,-z
x,y,-z
1/2-x,1/2+y,1/2+z
1/2+x,1/2-y,1/2+z
loop_
_atom_site_type_symbol
_atom_site_label
_atom_site_fract_x
_atom_site_fract_y
_atom_site_fract_z
Si Si1 0.589245 0.218697 0.182968
Si Si2 0.791671 0.392856 0.179928
Si Si3 0.564805 0.840671 0.174041
Si Si4 0.072749 0.036058 0.818140
Si Si5 0.375734 0.650928 0.181207
Si Si6 0.319160 0.884305 0.673012
Si Si7 0.760946 0.009865 0.818829
Si Si8 0.984709 0.566554 0.164862
O O1 0.503647 0.200486 0.230138
O O2 0.604872 0.284267 0.228487
O O3 0.652013 0.174821 0.249171
O O4 0.591644 0.213968 0.000000
O O5 0.857541 0.350545 0.237563
O O6 0.710963 0.364505 0.218718
O O7 0.789763 0.457038 0.252901
O O8 0.796823 0.399834 0.000000
O O9 0.524830 0.902399 0.197330
O O10 0.580424 0.827329 0.000000
O O11 0.074493 0.100618 0.753969
O O12 0.152461 0.005962 0.775766
O O13 0.071153 0.038901 0.000000
O O14 0.000000 0.000000 0.766710
O O15 0.383607 0.648010 0.000000
O O16 0.295185 0.873484 0.500000
O O17 0.396601 0.920863 0.669976
O O18 0.261810 0.927194 0.757085
O O19 0.754262 0.009358 0.000000
O O20 0.000000 0.500000 0.168518
O O21 0.012619 0.589380 0.000000
#
# Coordination Sequence:
#
# PCOD9441564 Si02
#       8
#     8   8   8   8   8   8   8   8
#     4   9  19  36  53  71 101 139 176 212 253 303
#     4  10  19  32  51  74 100 129 167 213 258 307
#     4  10  19  30  47  70  97 129 165 206 249 297
#     4   9  19  36  57  81 106 131 164 211 265 314
#     4   9  19  36  57  77  99 134 174 212 257 306
#     4  10  19  30  47  73 103 134 168 204 244 293
#     4  10  19  32  52  76 104 136 168 207 256 307
#     4   9  17  28  42  62  92 128 161 197 239 281
#
# _framework density 17.619391
#
# number of rings (size 3 to 8) (size 9 to 14) (size 15 to 20)
#    0.000    2.500    0.000    2.250    0.000    4.000 
#    0.000    1.250    0.000    4.500    0.000    0.000 
#    0.000    0.000    0.000    0.000    0.000    0.000 
#
# Total GULP energy -356502.639632 kJ/mol
# GULP energy per Si atom -5570.353744 kJ/mol
# Density = 1.757929 g / cm^3
# Si number density = 17.619391 Si / 1000 Ang^3
#
#
#
# Elastic Constant Matrix: (Units=GPa)
#
#
# Indices 1 2 3 4 5 6 
#
# 1 75.9983 63.5288 26.5210 0.0000 0.0000 0.0000
# 2 63.5288 144.6176 37.0447 0.0000 0.0000 0.0000
# 3 26.5210 37.0447 38.6326 0.0000 0.0000 0.0000
# 4 0.0000 0.0000 0.0000 29.8850 0.0000 0.0000
# 5 0.0000 0.0000 0.0000 0.0000 40.1738 0.0000
# 6 0.0000 0.0000 0.0000 0.0000 0.0000 20.6144
#
#
#
# Elastic Compliance Matrix: (Units=1/GPa)
#
#
# Indices 1 2 3 4 5 6 
#
# 1 0.022478 -0.007850 -0.007904 0.000000 0.000000 0.000000
# 2 -0.007850 0.011908 -0.006029 0.000000 0.000000 0.000000
# 3 -0.007904 -0.006029 0.037092 0.000000 0.000000 0.000000
# 4 0.000000 0.000000 0.000000 0.033462 0.000000 0.000000
# 5 0.000000 0.000000 0.000000 0.000000 0.024892 0.000000
# 6 0.000000 0.000000 0.000000 0.000000 0.000000 0.048510
#
#
# Mechanical properties :
#
#
# Convention : Reuss Voigt Hill
#
# Bulk Modulus (GPa) = 35.82688 57.04862 46.43775
# Shear Modulus (GPa) = 21.62521 26.94490 24.28506
#
# Velocity S-wave (km/s) = 3.50716 3.91484 3.71659
# Velocity P-wave (km/s) = 6.06450 7.27208 6.69557
#
# Compressibility (1/GPa) = 0.02791201
#
# Stress axis : x y z
#
# Youngs Moduli (GPa) = 44.48747 83.98034 26.95969
#
# Poissons Ratio (x) = 0.65923 0.21309
# Poissons Ratio (y) = 0.34922 0.16255
# Poissons Ratio (z) = 0.35163 0.50634
#
# Static dielectric constant tensor:
#      x y z
#    x 1.712860 0.000000 0.000000 
#    y 0.000000 1.572300 0.000000 
#    z 0.000000 0.000000 1.628870 
# 
# From -- ./inp_files/8509.got.cif
#   From: 2010.05.17/outbox.cif.g08.bks.cpg/sg58_5_cif.got.tgz:8509.got - 2010.06.03 14:20:14.
