data_PCOD9441426
_publ_section_title
;
Structure prediction by ZEFSAII (Michael W. Deem and Ramdas Pophale) SiO2 
 PCOD9441426
Probable space group: P N N M
;
_chemical_formula_sum "Si O2"
_cell_formula_units_Z 64
_cell_length_a 25.325037
_cell_length_b 15.198759
_cell_length_c 7.742712
_cell_angle_alpha 90.000000
_cell_angle_beta 90.000000
_cell_angle_gamma 90.000000
_cell_volume 2980.240571
_symmetry_space_group_name_H-M "P N N M"
_symmetry_group_IT_number 58
_symmetry_cell_setting 'orthorhombic'
loop_
_space_group_symop_operation_xyz
x,y,z
-x,-y,z
1/2+x,1/2-y,1/2-z
1/2-x,1/2+y,1/2-z
-x,-y,-z
x,y,-z
1/2-x,1/2+y,1/2+z
1/2+x,1/2-y,1/2+z
loop_
_atom_site_type_symbol
_atom_site_label
_atom_site_fract_x
_atom_site_fract_y
_atom_site_fract_z
Si Si1 0.747130 0.628230 0.801807
Si Si2 0.524348 0.590510 0.296468
Si Si3 0.550047 0.251671 0.197938
Si Si4 0.764307 0.326812 0.711023
Si Si5 0.165622 0.513509 0.703996
Si Si6 0.364516 0.442074 0.293330
Si Si7 0.354833 0.640812 0.294526
Si Si8 0.552154 0.053631 0.212106
O O1 0.736231 0.725808 0.727745
O O2 0.792186 0.566164 0.722298
O O3 0.690517 0.581483 0.792441
O O4 0.763757 0.640581 0.000000
O O5 0.500000 0.500000 0.222123
O O6 0.532425 0.573423 0.500000
O O7 0.485502 0.672400 0.280173
O O8 0.583607 0.609318 0.230862
O O9 0.610228 0.285109 0.207104
O O10 0.546887 0.154278 0.272705
O O11 0.532775 0.247064 0.000000
O O12 0.768450 0.325569 0.500000
O O13 0.807658 0.396786 0.774796
O O14 0.706117 0.361341 0.755815
O O15 0.158603 0.528165 0.500000
O O16 0.107905 0.487292 0.772591
O O17 0.355763 0.431164 0.500000
O O18 0.377682 0.544314 0.261790
O O19 0.357399 0.656856 0.500000
O O20 0.500000 0.000000 0.261436
O O21 0.554117 0.055426 0.000000
#
# Coordination Sequence:
#
# PCOD9441426 Si02
#       8
#     8   8   8   8   8   8   8   8
#     4  11  22  35  54  87 122 144 177 235 292 330
#     4  10  20  37  57  78 107 150 192 223 268 338
#     4  11  22  34  55  89 117 142 185 240 294 329
#     4   9  19  34  56  82 108 149 193 224 271 336
#     4  10  19  38  63  81 108 153 199 230 269 340
#     4  10  20  36  58  79 106 149 194 225 266 337
#     4  10  18  35  58  78 107 150 195 226 265 338
#     4   9  20  38  60  85 112 148 194 240 280 330
#
# _framework density 21.474777
#
# number of rings (size 3 to 8) (size 9 to 14) (size 15 to 20)
#    0.000    2.000    2.500    1.500    0.000    2.250 
#    0.000    5.000    0.000    3.375    0.000    0.000 
#    0.000    0.000    0.000    0.000    0.000    0.000 
#
# Total GULP energy -357207.932998 kJ/mol
# GULP energy per Si atom -5581.373953 kJ/mol
# Density = 2.142590 g / cm^3
# Si number density = 21.474777 Si / 1000 Ang^3
#
#
#
# Elastic Constant Matrix: (Units=GPa)
#
#
# Indices 1 2 3 4 5 6 
#
# 1 149.9648 58.2436 -3.7112 0.0000 0.0000 0.0000
# 2 58.2436 120.4235 -1.6454 0.0000 0.0000 0.0000
# 3 -3.7112 -1.6454 22.2150 0.0000 0.0000 0.0000
# 4 0.0000 0.0000 0.0000 1.9755 0.0000 0.0000
# 5 0.0000 0.0000 0.0000 0.0000 1.3311 0.0000
# 6 0.0000 0.0000 0.0000 0.0000 0.0000 26.0966
#
#
#
# Elastic Compliance Matrix: (Units=1/GPa)
#
#
# Indices 1 2 3 4 5 6 
#
# 1 0.008236 -0.003969 0.001082 0.000000 0.000000 0.000000
# 2 -0.003969 0.010225 0.000094 0.000000 0.000000 0.000000
# 3 0.001082 0.000094 0.045202 0.000000 0.000000 0.000000
# 4 0.000000 0.000000 0.000000 0.506197 0.000000 0.000000
# 5 0.000000 0.000000 0.000000 0.000000 0.751286 0.000000
# 6 0.000000 0.000000 0.000000 0.000000 0.000000 0.038319
#
#
# Mechanical properties :
#
#
# Convention : Reuss Voigt Hill
#
# Bulk Modulus (GPa) = 17.21806 44.26416 30.74111
# Shear Modulus (GPa) = 3.61165 21.86171 12.73668
#
# Velocity S-wave (km/s) = 1.29825 3.19410 2.43801
# Velocity P-wave (km/s) = 3.20663 5.85320 4.71924
#
# Compressibility (1/GPa) = 0.05807857
#
# Stress axis : x y z
#
# Youngs Moduli (GPa) = 121.41196 97.80086 22.12275
#
# Poissons Ratio (x) = 0.38815 -0.02394
# Poissons Ratio (y) = 0.48186 -0.00209
# Poissons Ratio (z) = -0.13137 -0.00922
#
# Static dielectric constant tensor:
#      x y z
#    x 1.768660 0.000000 0.000000 
#    y 0.000000 1.792070 0.000000 
#    z 0.000000 0.000000 1.802330 
# 
# From -- ./inp_files/6879.got.cif
#   From: 2010.05.17/outbox.cif.g08.bks.cpg/sg58_4_cif.got.tgz:6879.got - 2010.06.03 14:20:14.
