data_PCOD9441495
_publ_section_title
;
Structure prediction by ZEFSAII (Michael W. Deem and Ramdas Pophale) SiO2 
 PCOD9441495
Probable space group: P N N M
;
_chemical_formula_sum "Si O2"
_cell_formula_units_Z 64
_cell_length_a 20.279340
_cell_length_b 20.360655
_cell_length_c 7.428448
_cell_angle_alpha 90.000000
_cell_angle_beta 90.000000
_cell_angle_gamma 90.000000
_cell_volume 3067.210973
_symmetry_space_group_name_H-M "P N N M"
_symmetry_group_IT_number 58
_symmetry_cell_setting 'orthorhombic'
loop_
_space_group_symop_operation_xyz
x,y,z
-x,-y,z
1/2+x,1/2-y,1/2-z
1/2-x,1/2+y,1/2-z
-x,-y,-z
x,y,-z
1/2-x,1/2+y,1/2+z
1/2+x,1/2-y,1/2+z
loop_
_atom_site_type_symbol
_atom_site_label
_atom_site_fract_x
_atom_site_fract_y
_atom_site_fract_z
Si Si1 0.984371 0.252595 0.799232
Si Si2 0.737155 0.172054 0.215203
Si Si3 0.248823 0.476853 0.279745
Si Si4 0.162390 0.715141 0.783016
Si Si5 0.776194 0.882465 0.213934
Si Si6 0.004245 0.394348 0.281931
Si Si7 0.124266 0.229408 0.783296
Si Si8 0.397137 0.009954 0.217995
O O1 0.911730 0.266863 0.717333
O O2 0.013638 0.325755 0.808640
O O3 0.049229 0.219138 0.714084
O O4 0.973405 0.224677 0.000000
O O5 0.755384 0.098782 0.281069
O O6 0.788935 0.226609 0.280563
O O7 0.664043 0.202310 0.247494
O O8 0.743246 0.169213 0.000000
O O9 0.252257 0.475075 0.500000
O O10 0.287516 0.542716 0.221020
O O11 0.175552 0.497057 0.222358
O O12 0.202361 0.648286 0.737167
O O13 0.158466 0.715448 0.000000
O O14 0.827153 0.828135 0.285396
O O15 0.785623 0.885069 0.000000
O O16 0.005716 0.386567 0.500000
O O17 0.057763 0.448319 0.232735
O O18 0.934217 0.424615 0.224726
O O19 0.119788 0.224857 0.000000
O O20 0.396847 0.012008 0.000000
#
# Coordination Sequence:
#
# PCOD9441495 Si02
#       8
#     8   8   8   8   8   8   8   8
#     4  10  19  29  41  59  86 116 141 168 208 254
#     4   9  17  30  48  67  86 110 144 183 216 250
#     4   9  15  24  42  65  84 105 138 179 218 250
#     4   9  18  31  45  63  89 118 144 173 213 258
#     4   9  17  30  48  67  86 110 144 183 216 250
#     4   9  16  26  40  58  81 109 140 170 200 241
#     4   9  18  31  45  63  89 118 144 173 213 258
#     4   8  14  23  36  58  85 106 128 167 212 245
#
# _framework density 20.865863000000001
#
# number of rings (size 3 to 8) (size 9 to 14) (size 15 to 20)
#    0.000    3.000    0.000    2.250    0.000    3.000 
#    0.000    1.875    0.000    8.250    0.000    5.250 
#    0.000    0.000    0.000   13.625    0.000   14.250 
#
# Total GULP energy -356357.277103 kJ/mol
# GULP energy per Si atom -5568.082455 kJ/mol
# Density = 2.081837 g / cm^3
# Si number density = 20.865863 Si / 1000 Ang^3
#
#
#
# Elastic Constant Matrix: (Units=GPa)
#
#
# Indices 1 2 3 4 5 6 
#
# 1 80.1026 8.9956 -3.6588 0.0000 0.0000 0.0000
# 2 8.9956 103.4868 0.0711 0.0000 0.0000 0.0000
# 3 -3.6588 0.0711 68.0688 0.0000 0.0000 0.0000
# 4 0.0000 0.0000 0.0000 3.3885 0.0000 0.0000
# 5 0.0000 0.0000 0.0000 0.0000 8.1315 0.0000
# 6 0.0000 0.0000 0.0000 0.0000 0.0000 18.2741
#
#
#
# Elastic Compliance Matrix: (Units=1/GPa)
#
#
# Indices 1 2 3 4 5 6 
#
# 1 0.012638 -0.001099 0.000680 0.000000 0.000000 0.000000
# 2 -0.001099 0.009759 -0.000069 0.000000 0.000000 0.000000
# 3 0.000680 -0.000069 0.014728 0.000000 0.000000 0.000000
# 4 0.000000 0.000000 0.000000 0.295115 0.000000 0.000000
# 5 0.000000 0.000000 0.000000 0.000000 0.122979 0.000000
# 6 0.000000 0.000000 0.000000 0.000000 0.000000 0.054722
#
#
# Mechanical properties :
#
#
# Convention : Reuss Voigt Hill
#
# Bulk Modulus (GPa) = 27.66319 29.16377 28.41348
# Shear Modulus (GPa) = 9.56084 22.37551 15.96818
#
# Velocity S-wave (km/s) = 2.14289 3.27823 2.76937
# Velocity P-wave (km/s) = 4.40557 5.32317 4.88596
#
# Compressibility (1/GPa) = 0.03614912
#
# Stress axis : x y z
#
# Youngs Moduli (GPa) = 79.12336 102.47321 67.89942
#
# Poissons Ratio (x) = 0.11263 -0.04621
# Poissons Ratio (y) = 0.08696 0.00470
# Poissons Ratio (z) = -0.05384 0.00710
#
# Static dielectric constant tensor:
#      x y z
#    x 1.809890 0.000000 0.000000 
#    y 0.000000 1.776490 0.000000 
#    z 0.000000 0.000000 1.819040 
# 
# From -- ./inp_files/9454.got.cif
#   From: 2010.05.17/outbox.cif.g08.bks.cpg/sg58_5_cif.got.tgz:9454.got - 2010.06.03 14:20:14.
