data_PCOD9441766
_publ_section_title
;
Structure prediction by ZEFSAII (Michael W. Deem and Ramdas Pophale) SiO2 
 PCOD9441766
Probable space group: P N N M
;
_chemical_formula_sum "Si O2"
_cell_formula_units_Z 32
_cell_length_a 12.628790
_cell_length_b 5.110802
_cell_length_c 26.933804
_cell_angle_alpha 90.000000
_cell_angle_beta 90.000000
_cell_angle_gamma 90.000000
_cell_volume 1738.395115
_symmetry_space_group_name_H-M "P N N M"
_symmetry_group_IT_number 58
_symmetry_cell_setting 'orthorhombic'
loop_
_space_group_symop_operation_xyz
x,y,z
-x,-y,z
1/2+x,1/2-y,1/2-z
1/2-x,1/2+y,1/2-z
-x,-y,-z
x,y,-z
1/2-x,1/2+y,1/2+z
1/2+x,1/2-y,1/2+z
loop_
_atom_site_type_symbol
_atom_site_label
_atom_site_fract_x
_atom_site_fract_y
_atom_site_fract_z
Si Si1 0.273091 0.598595 0.359141
Si Si2 0.395792 0.837382 0.274272
Si Si3 0.572053 0.241585 0.442564
Si Si4 0.195003 0.086536 0.314608
O O1 0.325457 0.694168 0.409909
O O2 0.229679 0.307822 0.353759
O O3 0.367285 0.637109 0.318397
O O4 0.184867 0.808580 0.341431
O O5 0.295690 0.036052 0.277716
O O6 0.394488 0.694918 0.221445
O O7 0.500000 0.000000 0.283435
O O8 0.500000 0.500000 0.441275
O O9 0.599264 0.183137 0.500000
O O10 0.500000 0.000000 0.423451
#
# Coordination Sequence:
#
# PCOD9441766 Si02
#       4
#     8   8   8   8
#     4  10  19  32  47  66  98 127 162 194 239 284
#     4  10  20  33  50  68  98 136 158 204 244 282
#     4  10  20  32  47  71  97 126 168 203 237 296
#     4  10  20  34  44  73  96 123 172 202 223 304
#
# _framework density 18.407782999999998
#
# number of rings (size 3 to 8) (size 9 to 14) (size 15 to 20)
#    1.500    0.500    2.500    2.250    3.500    0.000 
#    0.000    0.000    0.000    0.000    0.000    0.000 
#    0.000    6.000    0.000    0.000    0.000    0.000 
#
# Total GULP energy -178297.456014 kJ/mol
# GULP energy per Si atom -5571.795500 kJ/mol
# Density = 1.836589 g / cm^3
# Si number density = 18.407783 Si / 1000 Ang^3
#
#
#
# Elastic Constant Matrix: (Units=GPa)
#
#
# Indices 1 2 3 4 5 6 
#
# 1 3.4458 -0.1753 -3.8290 0.0000 0.0000 0.0000
# 2 -0.1753 87.1648 2.0656 0.0000 0.0000 0.0000
# 3 -3.8290 2.0656 59.2036 0.0000 0.0000 0.0000
# 4 0.0000 0.0000 0.0000 3.0959 0.0000 0.0000
# 5 0.0000 0.0000 0.0000 0.0000 3.1504 0.0000
# 6 0.0000 0.0000 0.0000 0.0000 0.0000 15.7877
#
#
#
# Elastic Compliance Matrix: (Units=1/GPa)
#
#
# Indices 1 2 3 4 5 6 
#
# 1 0.312679 0.000150 0.020217 0.000000 0.000000 0.000000
# 2 0.000150 0.011482 -0.000391 0.000000 0.000000 0.000000
# 3 0.020217 -0.000391 0.018212 0.000000 0.000000 0.000000
# 4 0.000000 0.000000 0.000000 0.323008 0.000000 0.000000
# 5 0.000000 0.000000 0.000000 0.000000 0.317418 0.000000
# 6 0.000000 0.000000 0.000000 0.000000 0.000000 0.063341
#
#
# Mechanical properties :
#
#
# Convention : Reuss Voigt Hill
#
# Bulk Modulus (GPa) = 2.61558 16.21523 9.41540
# Shear Modulus (GPa) = 4.41061 14.52365 9.46713
#
# Velocity S-wave (km/s) = 1.54960 2.81195 2.27028
# Velocity P-wave (km/s) = 2.15074 4.40123 3.46385
#
# Compressibility (1/GPa) = 0.38232438
#
# Stress axis : x y z
#
# Youngs Moduli (GPa) = 3.19817 87.09220 54.90871
#
# Poissons Ratio (x) = -0.01303 -1.11010
# Poissons Ratio (y) = -0.00048 0.02147
# Poissons Ratio (z) = -0.06466 0.03405
#
# Static dielectric constant tensor:
#      x y z
#    x 1.650240 0.000000 0.000000 
#    y 0.000000 1.686740 0.000000 
#    z 0.000000 0.000000 1.661230 
# 
# From -- ./inp_files/32634.got.cif
#   From: 2010.05.17/outbox.cif.g08.bks.cpg/sg58_17_cif.got.tgz:32634.got - 2010.06.03 14:20:14.
