data_PCOD9441412
_publ_section_title
;
Structure prediction by ZEFSAII (Michael W. Deem and Ramdas Pophale) SiO2 
 PCOD9441412
Probable space group: P N N M
;
_chemical_formula_sum "Si O2"
_cell_formula_units_Z 56
_cell_length_a 12.512896
_cell_length_b 16.036185
_cell_length_c 12.992609
_cell_angle_alpha 90.000000
_cell_angle_beta 90.000000
_cell_angle_gamma 90.000000
_cell_volume 2607.085425
_symmetry_space_group_name_H-M "P N N M"
_symmetry_group_IT_number 58
_symmetry_cell_setting 'orthorhombic'
loop_
_space_group_symop_operation_xyz
x,y,z
-x,-y,z
1/2+x,1/2-y,1/2-z
1/2-x,1/2+y,1/2-z
-x,-y,-z
x,y,-z
1/2-x,1/2+y,1/2+z
1/2+x,1/2-y,1/2+z
loop_
_atom_site_type_symbol
_atom_site_label
_atom_site_fract_x
_atom_site_fract_y
_atom_site_fract_z
Si Si1 0.760731 0.530105 0.383283
Si Si2 0.033619 0.163327 0.328780
Si Si3 0.727641 0.451872 0.170623
Si Si4 0.883900 0.668468 0.721651
Si Si5 0.288727 0.354734 0.114032
Si Si6 0.458938 0.095892 0.384739
Si Si7 0.530416 0.597657 0.613946
O O1 0.770784 0.498656 0.500000
O O2 0.738563 0.462158 0.294790
O O3 0.858463 0.586749 0.345634
O O4 0.658709 0.592545 0.381156
O O5 0.117168 0.091696 0.359678
O O6 0.087315 0.252217 0.345917
O O7 0.915414 0.157932 0.374353
O O8 0.016517 0.150164 0.206170
O O9 0.730776 0.546059 0.128215
O O10 0.831944 0.404734 0.131087
O O11 0.782059 0.685639 0.795964
O O12 0.980893 0.647383 0.798046
O O13 0.254648 0.328887 0.000000
O O14 0.485086 0.124803 0.500000
O O15 0.500000 0.000000 0.376139
O O16 0.500000 0.500000 0.627186
O O17 0.496078 0.623842 0.500000
#
# Coordination Sequence:
#
# PCOD9441412 Si02
#       7
#     8   8   8   8   8   8   8
#     4  10  20  38  62  88 121 164 207 250 306 368
#     4  12  24  39  63  95 132 161 203 262 329 380
#     4  11  22  39  68  97 124 161 213 270 314 376
#     4  11  25  41  63  88 132 170 210 262 317 377
#     4  11  23  43  66  93 127 168 213 265 323 379
#     4  11  22  41  67  92 121 166 219 261 307 378
#     4  10  18  34  61  90 116 151 198 249 305 371
#
# _framework density 21.479927
#
# number of rings (size 3 to 8) (size 9 to 14) (size 15 to 20)
#    0.000    1.143    7.143    1.286    2.000    3.429 
#    0.000    2.857    0.000    0.000    0.000    0.000 
#    0.000    0.000    0.000    0.000    0.000    0.000 
#
# Total GULP energy -312987.292582 kJ/mol
# GULP energy per Si atom -5589.058796 kJ/mol
# Density = 2.143104 g / cm^3
# Si number density = 21.479927 Si / 1000 Ang^3
#
#
#
# Elastic Constant Matrix: (Units=GPa)
#
#
# Indices 1 2 3 4 5 6 
#
# 1 101.3822 3.0511 -2.5094 0.0000 0.0000 0.0000
# 2 3.0511 24.2201 -9.6517 0.0000 0.0000 0.0000
# 3 -2.5094 -9.6517 72.0629 0.0000 0.0000 0.0000
# 4 0.0000 0.0000 0.0000 21.1032 0.0000 0.0000
# 5 0.0000 0.0000 0.0000 0.0000 8.1965 0.0000
# 6 0.0000 0.0000 0.0000 0.0000 0.0000 19.8079
#
#
#
# Elastic Compliance Matrix: (Units=1/GPa)
#
#
# Indices 1 2 3 4 5 6 
#
# 1 0.009904 -0.001173 0.000188 0.000000 0.000000 0.000000
# 2 -0.001173 0.043755 0.005819 0.000000 0.000000 0.000000
# 3 0.000188 0.005819 0.014663 0.000000 0.000000 0.000000
# 4 0.000000 0.000000 0.000000 0.047386 0.000000 0.000000
# 5 0.000000 0.000000 0.000000 0.000000 0.122003 0.000000
# 6 0.000000 0.000000 0.000000 0.000000 0.000000 0.050485
#
#
# Mechanical properties :
#
#
# Convention : Reuss Voigt Hill
#
# Bulk Modulus (GPa) = 12.82214 19.93835 16.38024
# Shear Modulus (GPa) = 16.41912 23.60654 20.01283
#
# Velocity S-wave (km/s) = 2.76777 3.31872 3.05569
# Velocity P-wave (km/s) = 4.02447 4.89772 4.48241
#
# Compressibility (1/GPa) = 0.07799012
#
# Stress axis : x y z
#
# Youngs Moduli (GPa) = 100.97334 22.85461 68.20014
#
# Poissons Ratio (x) = 0.02680 -0.01281
# Poissons Ratio (y) = 0.11842 -0.39689
# Poissons Ratio (z) = -0.01896 -0.13300
#
# Static dielectric constant tensor:
#      x y z
#    x 1.797400 0.000000 0.000000 
#    y 0.000000 1.755570 0.000000 
#    z 0.000000 0.000000 1.801870 
# 
# From -- ./inp_files/21287.got.cif
#   From: 2010.05.17/outbox.cif.g08.bks.cpg/sg58_11_cif.got.tgz:21287.got - 2010.06.03 14:20:14.
