data_PCOD9441790
_publ_section_title
;
Structure prediction by ZEFSAII (Michael W. Deem and Ramdas Pophale) SiO2 
 PCOD9441790
Probable space group: P N N M
;
_chemical_formula_sum "Si O2"
_cell_formula_units_Z 64
_cell_length_a 22.351642
_cell_length_b 19.587483
_cell_length_c 7.981691
_cell_angle_alpha 90.000000
_cell_angle_beta 90.000000
_cell_angle_gamma 90.000000
_cell_volume 3494.483354
_symmetry_space_group_name_H-M "P N N M"
_symmetry_group_IT_number 58
_symmetry_cell_setting 'orthorhombic'
loop_
_space_group_symop_operation_xyz
x,y,z
-x,-y,z
1/2+x,1/2-y,1/2-z
1/2-x,1/2+y,1/2-z
-x,-y,-z
x,y,-z
1/2-x,1/2+y,1/2+z
1/2+x,1/2-y,1/2+z
loop_
_atom_site_type_symbol
_atom_site_label
_atom_site_fract_x
_atom_site_fract_y
_atom_site_fract_z
Si Si1 0.268224 0.628227 0.805648
Si Si2 0.353961 0.076096 0.702853
Si Si3 0.108017 0.174475 0.196584
Si Si4 0.192786 0.426543 0.205594
Si Si5 0.011919 0.576830 0.301196
Si Si6 0.906877 0.676519 0.200082
Si Si7 0.437914 0.529467 0.699582
Si Si8 0.683318 0.527818 0.193551
O O1 0.200432 0.624874 0.740048
O O2 0.320090 0.668845 0.712951
O O3 0.289331 0.548947 0.801527
O O4 0.268036 0.649736 0.000000
O O5 0.352740 0.076688 0.500000
O O6 0.419610 0.094941 0.762555
O O7 0.338331 0.998265 0.755695
O O8 0.087926 0.246912 0.269760
O O9 0.080192 0.104424 0.269422
O O10 0.092751 0.174202 0.000000
O O11 0.151034 0.364970 0.263762
O O12 0.261929 0.427034 0.262989
O O13 0.194314 0.426959 0.000000
O O14 0.002884 0.575309 0.500000
O O15 0.000000 0.500000 0.234267
O O16 0.964807 0.630256 0.229219
O O17 0.898502 0.682701 0.000000
O O18 0.500000 0.500000 0.768369
O O19 0.445022 0.537254 0.500000
O O20 0.381498 0.479233 0.725187
O O21 0.673955 0.546419 0.000000
#
# Coordination Sequence:
#
# PCOD9441790 Si02
#       8
#     8   8   8   8   8   8   8   8
#     4   8  15  28  48  71  92 116 148 193 241 282
#     4   9  16  29  50  71  91 123 165 198 233 283
#     4   9  18  31  49  73  94 123 165 201 242 296
#     4   8  14  26  46  69  90 115 152 198 236 268
#     4  11  22  32  44  71 105 132 163 206 250 287
#     4  10  19  32  51  69  91 131 172 202 237 292
#     4   9  17  30  48  70  97 125 154 195 243 287
#     4   8  14  26  45  70  92 110 144 191 232 277
#
# _framework density 18.314582999999999
#
# number of rings (size 3 to 8) (size 9 to 14) (size 15 to 20)
#    0.000    3.000    1.250    1.875    0.000    1.750 
#    0.000    2.500    2.750    0.000    0.000    0.000 
#    0.000    0.000    0.000    0.000    0.000    0.000 
#
# Total GULP energy -356341.092903 kJ/mol
# GULP energy per Si atom -5567.829577 kJ/mol
# Density = 1.827290 g / cm^3
# Si number density = 18.314583 Si / 1000 Ang^3
#
#
#
# Elastic Constant Matrix: (Units=GPa)
#
#
# Indices 1 2 3 4 5 6 
#
# 1 148.5331 65.7365 -4.1463 0.0000 0.0000 0.0000
# 2 65.7365 82.9317 6.7846 0.0000 0.0000 0.0000
# 3 -4.1463 6.7846 7.8547 0.0000 0.0000 0.0000
# 4 0.0000 0.0000 0.0000 7.9646 0.0000 0.0000
# 5 0.0000 0.0000 0.0000 0.0000 160.7403 0.0000
# 6 0.0000 0.0000 0.0000 0.0000 0.0000 18.0850
#
#
#
# Elastic Compliance Matrix: (Units=1/GPa)
#
#
# Indices 1 2 3 4 5 6 
#
# 1 0.011905 -0.010707 0.015533 0.000000 0.000000 0.000000
# 2 -0.010707 0.022605 -0.025177 0.000000 0.000000 0.000000
# 3 0.015533 -0.025177 0.157259 0.000000 0.000000 0.000000
# 4 0.000000 0.000000 0.000000 0.125555 0.000000 0.000000
# 5 0.000000 0.000000 0.000000 0.000000 0.006221 0.000000
# 6 0.000000 0.000000 0.000000 0.000000 0.000000 0.055294
#
#
# Mechanical properties :
#
#
# Convention : Reuss Voigt Hill
#
# Bulk Modulus (GPa) = 6.61966 41.78545 24.20255
# Shear Modulus (GPa) = 10.64060 48.75432 29.69746
#
# Velocity S-wave (km/s) = 2.41299 5.16510 4.03118
# Velocity P-wave (km/s) = 3.37426 7.64434 5.90854
#
# Compressibility (1/GPa) = 0.15106523
#
# Stress axis : x y z
#
# Youngs Moduli (GPa) = 84.00003 44.23812 6.35893
#
# Poissons Ratio (x) = 0.47366 -0.09877
# Poissons Ratio (y) = 0.89940 0.16010
# Poissons Ratio (z) = -1.30474 1.11380
#
# Static dielectric constant tensor:
#      x y z
#    x 1.647000 0.000000 0.000000 
#    y 0.000000 1.640950 0.000000 
#    z 0.000000 0.000000 1.655610 
# 
# From -- ./inp_files/8384.got.cif
#   From: 2010.05.17/outbox.cif.g08.bks.cpg/sg58_5_cif.got.tgz:8384.got - 2010.06.03 14:20:14.
