data_PCOD9441582
_publ_section_title
;
Structure prediction by ZEFSAII (Michael W. Deem and Ramdas Pophale) SiO2 
 PCOD9441582
Probable space group: P N N M
;
_chemical_formula_sum "Si O2"
_cell_formula_units_Z 52
_cell_length_a 10.912331
_cell_length_b 18.504667
_cell_length_c 13.980180
_cell_angle_alpha 90.000000
_cell_angle_beta 90.000000
_cell_angle_gamma 90.000000
_cell_volume 2823.004485
_symmetry_space_group_name_H-M "P N N M"
_symmetry_group_IT_number 58
_symmetry_cell_setting 'orthorhombic'
loop_
_space_group_symop_operation_xyz
x,y,z
-x,-y,z
1/2+x,1/2-y,1/2-z
1/2-x,1/2+y,1/2-z
-x,-y,-z
x,y,-z
1/2-x,1/2+y,1/2+z
1/2+x,1/2-y,1/2+z
loop_
_atom_site_type_symbol
_atom_site_label
_atom_site_fract_x
_atom_site_fract_y
_atom_site_fract_z
Si Si1 0.078370 0.760095 0.387310
Si Si2 0.832077 0.845188 0.614609
Si Si3 0.697824 0.640373 0.752211
Si Si4 0.407091 0.252522 0.385441
Si Si5 0.022822 0.351975 0.741998
Si Si6 0.500000 0.000000 0.661766
Si Si7 0.778010 0.009156 0.389753
O O1 0.091120 0.761071 0.500000
O O2 0.188983 0.797650 0.333090
O O3 0.958939 0.807756 0.357098
O O4 0.052406 0.681734 0.344858
O O5 0.834506 0.848290 0.500000
O O6 0.717297 0.793551 0.636831
O O7 0.814318 0.928372 0.643113
O O8 0.612266 0.670297 0.666715
O O9 0.836058 0.637807 0.714675
O O10 0.674139 0.567261 0.812545
O O11 0.423378 0.256528 0.500000
O O12 0.507763 0.204674 0.330055
O O13 0.975697 0.428908 0.776498
O O14 0.628723 0.013889 0.608174
O O15 0.821348 0.022162 0.500000
#
# Coordination Sequence:
#
# PCOD9441582 Si02
#       7
#     8   8   8   8   8   4   8
#     4  10  20  35  53  74 105 139 173 213 256 307
#     4   9  17  31  52  73  96 133 169 203 252 307
#     4  10  21  33  50  80 106 133 170 216 261 302
#     4  10  19  34  53  74 100 137 176 206 246 306
#     4  10  20  33  52  77 104 135 172 212 258 307
#     4  10  19  30  47  76 112 136 163 212 265 306
#     4  10  19  31  50  78 107 132 163 212 267 312
#
# _framework density 18.420090999999999
#
# number of rings (size 3 to 8) (size 9 to 14) (size 15 to 20)
#    0.000    2.154    3.077    0.692    0.000    3.692 
#    0.000    2.692    0.000    0.923    0.000    8.615 
#    0.000    0.000    0.000    0.000    0.000    0.000 
#
# Total GULP energy -289698.073490 kJ/mol
# GULP energy per Si atom -5571.116798 kJ/mol
# Density = 1.837817 g / cm^3
# Si number density = 18.420091 Si / 1000 Ang^3
#
#
#
# Elastic Constant Matrix: (Units=GPa)
#
#
# Indices 1 2 3 4 5 6 
#
# 1 17.1935 -1.5393 -7.4721 0.0000 0.0000 0.0000
# 2 -1.5393 92.3515 24.3273 0.0000 0.0000 0.0000
# 3 -7.4721 24.3273 78.3449 0.0000 0.0000 0.0000
# 4 0.0000 0.0000 0.0000 25.3965 0.0000 0.0000
# 5 0.0000 0.0000 0.0000 0.0000 10.3844 0.0000
# 6 0.0000 0.0000 0.0000 0.0000 0.0000 17.1298
#
#
#
# Elastic Compliance Matrix: (Units=1/GPa)
#
#
# Indices 1 2 3 4 5 6 
#
# 1 0.060703 -0.000559 0.005963 0.000000 0.000000 0.000000
# 2 -0.000559 0.011798 -0.003717 0.000000 0.000000 0.000000
# 3 0.005963 -0.003717 0.014487 0.000000 0.000000 0.000000
# 4 0.000000 0.000000 0.000000 0.039376 0.000000 0.000000
# 5 0.000000 0.000000 0.000000 0.000000 0.096298 0.000000
# 6 0.000000 0.000000 0.000000 0.000000 0.000000 0.058378
#
#
# Mechanical properties :
#
#
# Convention : Reuss Voigt Hill
#
# Bulk Modulus (GPa) = 11.06653 24.28016 17.67335
# Shear Modulus (GPa) = 16.24508 22.08708 19.16608
#
# Velocity S-wave (km/s) = 2.97294 3.46652 3.22918
# Velocity P-wave (km/s) = 4.21964 5.40669 4.84962
#
# Compressibility (1/GPa) = 0.09036258
#
# Stress axis : x y z
#
# Youngs Moduli (GPa) = 16.47365 84.76046 69.02779
#
# Poissons Ratio (x) = 0.04738 -0.41162
# Poissons Ratio (y) = 0.00921 0.25656
# Poissons Ratio (z) = -0.09823 0.31503
#
# Static dielectric constant tensor:
#      x y z
#    x 1.688040 0.000000 0.000000 
#    y 0.000000 1.658600 0.000000 
#    z 0.000000 0.000000 1.616350 
# 
# From -- ./inp_files/21403.got.cif
#   From: 2010.05.17/outbox.cif.g08.bks.cpg/sg58_11_cif.got.tgz:21403.got - 2010.06.03 14:20:14.
