data_PCOD9441800
_publ_section_title
;
Structure prediction by ZEFSAII (Michael W. Deem and Ramdas Pophale) SiO2 
 PCOD9441800
Probable space group: P N N M
;
_chemical_formula_sum "Si O2"
_cell_formula_units_Z 64
_cell_length_a 31.309922
_cell_length_b 14.686379
_cell_length_c 8.814943
_cell_angle_alpha 90.000000
_cell_angle_beta 90.000000
_cell_angle_gamma 90.000000
_cell_volume 4053.369783
_symmetry_space_group_name_H-M "P N N M"
_symmetry_group_IT_number 58
_symmetry_cell_setting 'orthorhombic'
loop_
_space_group_symop_operation_xyz
x,y,z
-x,-y,z
1/2+x,1/2-y,1/2-z
1/2-x,1/2+y,1/2-z
-x,-y,-z
x,y,-z
1/2-x,1/2+y,1/2+z
1/2+x,1/2-y,1/2+z
loop_
_atom_site_type_symbol
_atom_site_label
_atom_site_fract_x
_atom_site_fract_y
_atom_site_fract_z
Si Si1 0.229891 0.497750 0.181880
Si Si2 0.676823 0.513265 0.325241
Si Si3 0.792594 0.690125 0.681463
Si Si4 0.547821 0.608903 0.683082
Si Si5 0.369640 0.319145 0.178850
Si Si6 0.205366 0.702282 0.182206
Si Si7 0.635282 0.313644 0.323528
Si Si8 0.950648 0.897339 0.815451
O O1 0.275755 0.493682 0.261949
O O2 0.205804 0.408424 0.240599
O O3 0.209963 0.595786 0.220995
O O4 0.234817 0.493827 0.000000
O O5 0.676875 0.545967 0.500000
O O6 0.651176 0.584358 0.224737
O O7 0.655689 0.414431 0.321963
O O8 0.791127 0.680568 0.500000
O O9 0.748596 0.742769 0.728816
O O10 0.833429 0.749020 0.730576
O O11 0.550758 0.611323 0.500000
O O12 0.583065 0.675413 0.751246
O O13 0.498841 0.629165 0.727093
O O14 0.556261 0.503181 0.729538
O O15 0.336796 0.246016 0.246973
O O16 0.371954 0.308639 0.000000
O O17 0.202940 0.709718 0.000000
O O18 0.633999 0.283333 0.500000
O O19 0.587165 0.330750 0.264559
O O20 0.948767 0.897882 0.000000
#
# Coordination Sequence:
#
# PCOD9441800 Si02
#       8
#     8   8   8   8   8   8   8   8
#     4  11  22  37  53  72  99 131 172 217 250 289
#     4  11  20  31  50  72 101 137 171 208 248 293
#     4  11  22  35  51  74 103 135 169 205 251 303
#     4   9  16  31  52  72 100 134 170 208 251 298
#     4  12  23  32  48  74 104 137 174 208 250 301
#     4  10  22  37  52  71  99 134 173 210 249 296
#     4  10  19  32  51  75 101 135 176 209 244 293
#     4   8  15  29  51  75  98 133 173 207 246 301
#
# _framework density 15.789332
#
# number of rings (size 3 to 8) (size 9 to 14) (size 15 to 20)
#    0.000    1.750    3.750    3.000    0.000    2.000 
#    0.000    1.875    0.000    0.000    0.000    0.875 
#    0.000    7.000    0.000    0.000    0.000    0.000 
#
# Total GULP energy -357057.865960 kJ/mol
# GULP energy per Si atom -5579.029156 kJ/mol
# Density = 1.575339 g / cm^3
# Si number density = 15.789332 Si / 1000 Ang^3
#
#
#
# Elastic Constant Matrix: (Units=GPa)
#
#
# Indices 1 2 3 4 5 6 
#
# 1 125.0024 40.6734 21.2320 0.0000 0.0000 0.0000
# 2 40.6734 75.2811 16.0396 0.0000 0.0000 0.0000
# 3 21.2320 16.0396 24.2525 0.0000 0.0000 0.0000
# 4 0.0000 0.0000 0.0000 15.6353 0.0000 0.0000
# 5 0.0000 0.0000 0.0000 0.0000 21.3410 0.0000
# 6 0.0000 0.0000 0.0000 0.0000 0.0000 20.4905
#
#
#
# Elastic Compliance Matrix: (Units=1/GPa)
#
#
# Indices 1 2 3 4 5 6 
#
# 1 0.010477 -0.004314 -0.006319 0.000000 0.000000 0.000000
# 2 -0.004314 0.017239 -0.007624 0.000000 0.000000 0.000000
# 3 -0.006319 -0.007624 0.051807 0.000000 0.000000 0.000000
# 4 0.000000 0.000000 0.000000 0.063958 0.000000 0.000000
# 5 0.000000 0.000000 0.000000 0.000000 0.046858 0.000000
# 6 0.000000 0.000000 0.000000 0.000000 0.000000 0.048803
#
#
# Mechanical properties :
#
#
# Convention : Reuss Voigt Hill
#
# Bulk Modulus (GPa) = 23.25126 42.26955 32.76040
# Shear Modulus (GPa) = 17.24183 21.26610 19.25397
#
# Velocity S-wave (km/s) = 3.30812 3.67395 3.49582
# Velocity P-wave (km/s) = 5.41751 6.69524 6.08998
#
# Compressibility (1/GPa) = 0.04300842
#
# Stress axis : x y z
#
# Youngs Moduli (GPa) = 95.44831 58.00841 19.30238
#
# Poissons Ratio (x) = 0.25026 0.12197
# Poissons Ratio (y) = 0.41178 0.14716
# Poissons Ratio (z) = 0.60312 0.44227
#
# Static dielectric constant tensor:
#      x y z
#    x 1.550520 0.000000 0.000000 
#    y 0.000000 1.520310 0.000000 
#    z 0.000000 0.000000 1.530780 
# 
# From -- ./inp_files/7164.got.cif
#   From: 2010.05.17/outbox.cif.g08.bks.cpg/sg58_4_cif.got.tgz:7164.got - 2010.06.03 14:20:14.
