data_PCOD9441549
_publ_section_title
;
Structure prediction by ZEFSAII (Michael W. Deem and Ramdas Pophale) SiO2 
 PCOD9441549
Probable space group: P N N M
;
_chemical_formula_sum "Si O2"
_cell_formula_units_Z 40
_cell_length_a 13.153604
_cell_length_b 14.524227
_cell_length_c 8.533096
_cell_angle_alpha 90.000000
_cell_angle_beta 90.000000
_cell_angle_gamma 90.000000
_cell_volume 1630.213264
_symmetry_space_group_name_H-M "P N N M"
_symmetry_group_IT_number 58
_symmetry_cell_setting 'orthorhombic'
loop_
_space_group_symop_operation_xyz
x,y,z
-x,-y,z
1/2+x,1/2-y,1/2-z
1/2-x,1/2+y,1/2-z
-x,-y,-z
x,y,-z
1/2-x,1/2+y,1/2+z
1/2+x,1/2-y,1/2+z
loop_
_atom_site_type_symbol
_atom_site_label
_atom_site_fract_x
_atom_site_fract_y
_atom_site_fract_z
Si Si1 0.576761 0.894815 0.315724
Si Si2 0.698725 0.739927 0.181866
Si Si3 0.798537 0.560711 0.812340
Si Si4 0.032759 0.229401 0.321810
Si Si5 0.391453 0.548112 0.683732
O O1 0.557976 0.900670 0.500000
O O2 0.675453 0.829995 0.282669
O O3 0.610002 0.994884 0.255333
O O4 0.488416 0.832370 0.241402
O O5 0.774795 0.663635 0.247367
O O6 0.585470 0.694347 0.179043
O O7 0.720942 0.763749 0.000000
O O8 0.697009 0.501964 0.778407
O O9 0.810306 0.570254 0.000000
O O10 0.068360 0.230247 0.500000
O O11 0.095485 0.156572 0.221636
O O12 0.500000 0.500000 0.716321
O O13 0.369100 0.536256 0.500000
#
# Coordination Sequence:
#
# PCOD9441549 Si02
#       5
#     8   8   8   8   8
#     4   9  17  29  44  64  89 116 152 189 217 256
#     4   8  16  29  44  61  87 121 149 177 216 263
#     4  10  19  30  46  67  92 124 153 179 221 273
#     4   9  17  29  44  58  86 122 147 175 216 265
#     4  11  20  27  41  67  94 118 147 185 224 264
#
# _framework density 24.536667000000001
#
# number of rings (size 3 to 8) (size 9 to 14) (size 15 to 20)
#    1.200    1.400    2.000    1.200    0.000    3.200 
#    0.000    0.000    0.000    0.000    0.000    1.400 
#    0.000   11.200    0.000    0.000    0.000    0.000 
#
# Total GULP energy -223359.749016 kJ/mol
# GULP energy per Si atom -5583.993725 kJ/mol
# Density = 2.448082 g / cm^3
# Si number density = 24.536667 Si / 1000 Ang^3
#
#
#
# Elastic Constant Matrix: (Units=GPa)
#
#
# Indices 1 2 3 4 5 6 
#
# 1 102.4931 34.1959 11.0125 0.0000 0.0000 0.0000
# 2 34.1959 181.2084 13.7852 0.0000 0.0000 0.0000
# 3 11.0125 13.7852 28.7067 0.0000 0.0000 0.0000
# 4 0.0000 0.0000 0.0000 -37.3182 0.0000 0.0000
# 5 0.0000 0.0000 0.0000 0.0000 275.3980 0.0000
# 6 0.0000 0.0000 0.0000 0.0000 0.0000 42.4517
#
#
#
# Elastic Compliance Matrix: (Units=1/GPa)
#
#
# Indices 1 2 3 4 5 6 
#
# 1 0.010697 -0.001771 -0.003253 0.000000 0.000000 0.000000
# 2 -0.001771 0.006021 -0.002212 0.000000 0.000000 0.000000
# 3 -0.003253 -0.002212 0.037145 0.000000 0.000000 0.000000
# 4 0.000000 0.000000 0.000000 -0.026797 0.000000 0.000000
# 5 0.000000 0.000000 0.000000 0.000000 0.003631 0.000000
# 6 0.000000 0.000000 0.000000 0.000000 0.000000 0.023556
#
#
# Mechanical properties :
#
#
# Convention : Reuss Voigt Hill
#
# Bulk Modulus (GPa) = 25.38652 47.82173 36.60413
# Shear Modulus (GPa) = 61.08219 73.00061 67.04140
#
# Velocity S-wave (km/s) = 4.99483 5.46042 5.23281
# Velocity P-wave (km/s) = 6.60554 7.69982 7.17358
#
# Compressibility (1/GPa) = 0.03939098
#
# Stress axis : x y z
#
# Youngs Moduli (GPa) = 93.48203 166.08492 26.92140
#
# Poissons Ratio (x) = 0.29417 0.08758
# Poissons Ratio (y) = 0.16558 0.05955
# Poissons Ratio (z) = 0.30411 0.36736
#
# Static dielectric constant tensor:
#      x y z
#    x 2.101720 0.000000 0.000000 
#    y 0.000000 1.998890 0.000000 
#    z 0.000000 0.000000 1.822920 
# 
# From -- ./inp_files/5375.got.cif
#   From: 2010.05.17/outbox.cif.g08.bks.cpg/sg58_3_cif.got.tgz:5375.got - 2010.06.03 14:20:14.
