data_PCOD9441274
_publ_section_title
;
Structure prediction by ZEFSAII (Michael W. Deem and Ramdas Pophale) SiO2 
 PCOD9441274
Probable space group: P N N M
;
_chemical_formula_sum "Si O2"
_cell_formula_units_Z 48
_cell_length_a 14.050890
_cell_length_b 19.039909
_cell_length_c 7.729327
_cell_angle_alpha 90.000000
_cell_angle_beta 90.000000
_cell_angle_gamma 90.000000
_cell_volume 2067.808820
_symmetry_space_group_name_H-M "P N N M"
_symmetry_group_IT_number 58
_symmetry_cell_setting 'orthorhombic'
loop_
_space_group_symop_operation_xyz
x,y,z
-x,-y,z
1/2+x,1/2-y,1/2-z
1/2-x,1/2+y,1/2-z
-x,-y,-z
x,y,-z
1/2-x,1/2+y,1/2+z
1/2+x,1/2-y,1/2+z
loop_
_atom_site_type_symbol
_atom_site_label
_atom_site_fract_x
_atom_site_fract_y
_atom_site_fract_z
Si Si1 0.610633 0.990656 0.788354
Si Si2 0.605885 0.503912 0.199197
Si Si3 0.925612 0.778150 0.292285
Si Si4 0.332322 0.857129 0.201123
Si Si5 0.740028 0.386426 0.307510
Si Si6 0.870704 0.169570 0.302257
O O1 0.663543 0.919321 0.724539
O O2 0.500000 0.000000 0.743080
O O3 0.660648 0.063629 0.727560
O O4 0.616366 0.986279 0.000000
O O5 0.500000 0.500000 0.269802
O O6 0.677321 0.457633 0.307143
O O7 0.626400 0.585454 0.192619
O O8 0.605965 0.475953 0.000000
O O9 0.934849 0.774857 0.500000
O O10 0.903171 0.700653 0.222242
O O11 0.835476 0.829582 0.262009
O O12 0.028258 0.805359 0.228071
O O13 0.229414 0.819528 0.209771
O O14 0.357377 0.865670 0.000000
O O15 0.764424 0.362028 0.500000
O O16 0.861812 0.195537 0.500000
#
# Coordination Sequence:
#
# PCOD9441274 Si02
#       6
#     8   8   8   8   8   8
#     4   9  19  36  57  82 110 145 189 234 283 336
#     4  10  18  32  55  81 111 145 177 216 275 345
#     4  10  22  39  57  81 116 157 190 224 286 354
#     4  10  21  38  59  82 112 149 188 236 284 330
#     4  11  21  33  56  87 113 140 186 245 281 321
#     4  10  20  35  57  82 110 148 186 224 277 344
#
# _framework density 23.212978
#
# number of rings (size 3 to 8) (size 9 to 14) (size 15 to 20)
#    0.000    2.000    3.333    0.500    0.000    3.000 
#    0.000    3.333    0.000    4.500    0.000    0.000 
#    0.000    0.000    0.000    0.000    0.000    0.000 
#
# Total GULP energy -267514.060729 kJ/mol
# GULP energy per Si atom -5573.209599 kJ/mol
# Density = 2.316014 g / cm^3
# Si number density = 23.212978 Si / 1000 Ang^3
#
#
#
# Elastic Constant Matrix: (Units=GPa)
#
#
# Indices 1 2 3 4 5 6 
#
# 1 112.1479 19.2635 -7.2703 0.0000 0.0000 0.0000
# 2 19.2635 68.6381 1.6513 0.0000 0.0000 0.0000
# 3 -7.2703 1.6513 34.5460 0.0000 0.0000 0.0000
# 4 0.0000 0.0000 0.0000 0.7869 0.0000 0.0000
# 5 0.0000 0.0000 0.0000 0.0000 -40.2010 0.0000
# 6 0.0000 0.0000 0.0000 0.0000 0.0000 34.9742
#
#
#
# Elastic Compliance Matrix: (Units=1/GPa)
#
#
# Indices 1 2 3 4 5 6 
#
# 1 0.009523 -0.002724 0.002134 0.000000 0.000000 0.000000
# 2 -0.002724 0.015365 -0.001308 0.000000 0.000000 0.000000
# 3 0.002134 -0.001308 0.029459 0.000000 0.000000 0.000000
# 4 0.000000 0.000000 0.000000 1.270826 0.000000 0.000000
# 5 0.000000 0.000000 0.000000 0.000000 -0.024875 0.000000
# 6 0.000000 0.000000 0.000000 0.000000 0.000000 0.028592
#
#
# Mechanical properties :
#
#
# Convention : Reuss Voigt Hill
#
# Bulk Modulus (GPa) = 19.78163 26.95790 23.36976
# Shear Modulus (GPa) = 3.70498 12.55785 8.13142
#
# Velocity S-wave (km/s) = 1.26473 2.32843 1.87365
# Velocity P-wave (km/s) = 3.26696 4.34365 3.84320
#
# Compressibility (1/GPa) = 0.05055194
#
# Stress axis : x y z
#
# Youngs Moduli (GPa) = 105.00823 65.08242 33.94598
#
# Poissons Ratio (x) = 0.17729 -0.07245
# Poissons Ratio (y) = 0.28604 0.04439
# Poissons Ratio (z) = -0.22412 0.08511
#
# Static dielectric constant tensor:
#      x y z
#    x 1.935510 0.000000 0.000000 
#    y 0.000000 1.887530 0.000000 
#    z 0.000000 0.000000 1.902640 
# 
# From -- ./inp_files/5803.got.cif
#   From: 2010.05.17/outbox.cif.g08.bks.cpg/sg58_3_cif.got.tgz:5803.got - 2010.06.03 14:20:14.
