data_PCOD9441353
_publ_section_title
;
Structure prediction by ZEFSAII (Michael W. Deem and Ramdas Pophale) SiO2 
 PCOD9441353
Probable space group: P N N M
;
_chemical_formula_sum "Si O2"
_cell_formula_units_Z 64
_cell_length_a 30.058654
_cell_length_b 12.136311
_cell_length_c 8.745703
_cell_angle_alpha 90.000000
_cell_angle_beta 90.000000
_cell_angle_gamma 90.000000
_cell_volume 3190.442715
_symmetry_space_group_name_H-M "P N N M"
_symmetry_group_IT_number 58
_symmetry_cell_setting 'orthorhombic'
loop_
_space_group_symop_operation_xyz
x,y,z
-x,-y,z
1/2+x,1/2-y,1/2-z
1/2-x,1/2+y,1/2-z
-x,-y,-z
x,y,-z
1/2-x,1/2+y,1/2+z
1/2+x,1/2-y,1/2+z
loop_
_atom_site_type_symbol
_atom_site_label
_atom_site_fract_x
_atom_site_fract_y
_atom_site_fract_z
Si Si1 0.613547 0.366743 0.818728
Si Si2 0.665383 0.758436 0.816422
Si Si3 0.659219 0.152477 0.677599
Si Si4 0.279692 0.025393 0.183757
Si Si5 0.568011 0.791714 0.685659
Si Si6 0.526824 0.270291 0.685084
Si Si7 0.434746 0.960635 0.321494
Si Si8 0.317436 0.472035 0.682447
O O1 0.642655 0.261375 0.763468
O O2 0.563934 0.350870 0.752068
O O3 0.639449 0.472046 0.755383
O O4 0.611528 0.368987 0.000000
O O5 0.614536 0.759730 0.759304
O O6 0.687529 0.651299 0.743613
O O7 0.691131 0.869479 0.767718
O O8 0.666737 0.752380 0.000000
O O9 0.666567 0.180583 0.500000
O O10 0.700318 0.086156 0.745823
O O11 0.617320 0.068722 0.686799
O O12 0.227810 0.036866 0.223416
O O13 0.282985 0.017032 0.000000
O O14 0.572797 0.793244 0.500000
O O15 0.525141 0.716878 0.722253
O O16 0.557716 0.917326 0.739115
O O17 0.531384 0.271999 0.500000
O O18 0.540708 0.147138 0.741190
O O19 0.447694 0.965361 0.500000
O O20 0.322140 0.472042 0.500000
#
# Coordination Sequence:
#
# PCOD9441353 Si02
#       8
#     8   8   8   8   8   8   8   8
#     4  11  23  40  61  88 125 162 203 254 312 363
#     4  11  24  42  62  91 129 161 198 253 316 367
#     4  10  19  34  60  89 121 160 201 244 294 357
#     4  10  23  41  62  91 124 156 195 250 309 367
#     4  10  18  33  58  88 122 164 209 251 301 364
#     4   9  18  33  57  88 122 162 209 255 301 361
#     4   8  14  27  50  83 119 155 195 241 288 341
#     4  11  25  45  66  88 117 160 212 255 302 364
#
# _framework density 20.059911
#
# number of rings (size 3 to 8) (size 9 to 14) (size 15 to 20)
#    0.000    2.000    1.250    3.375    1.750    3.500 
#    0.000    0.625    0.000    6.000    0.000    0.000 
#    0.000    0.000    0.000    0.000    0.000    0.000 
#
# Total GULP energy -357294.540325 kJ/mol
# GULP energy per Si atom -5582.727193 kJ/mol
# Density = 2.001425 g / cm^3
# Si number density = 20.059911 Si / 1000 Ang^3
#
#
#
# Elastic Constant Matrix: (Units=GPa)
#
#
# Indices 1 2 3 4 5 6 
#
# 1 102.9450 12.2129 30.9305 0.0000 0.0000 0.0000
# 2 12.2129 32.1208 10.8284 0.0000 0.0000 0.0000
# 3 30.9305 10.8284 47.4901 0.0000 0.0000 0.0000
# 4 0.0000 0.0000 0.0000 27.0377 0.0000 0.0000
# 5 0.0000 0.0000 0.0000 0.0000 25.1981 0.0000
# 6 0.0000 0.0000 0.0000 0.0000 0.0000 11.2143
#
#
#
# Elastic Compliance Matrix: (Units=1/GPa)
#
#
# Indices 1 2 3 4 5 6 
#
# 1 0.012210 -0.002125 -0.007468 0.000000 0.000000 0.000000
# 2 -0.002125 0.034095 -0.006390 0.000000 0.000000 0.000000
# 3 -0.007468 -0.006390 0.027378 0.000000 0.000000 0.000000
# 4 0.000000 0.000000 0.000000 0.036985 0.000000 0.000000
# 5 0.000000 0.000000 0.000000 0.000000 0.039685 0.000000
# 6 0.000000 0.000000 0.000000 0.000000 0.000000 0.089172
#
#
# Mechanical properties :
#
#
# Convention : Reuss Voigt Hill
#
# Bulk Modulus (GPa) = 23.97123 32.27773 28.12448
# Shear Modulus (GPa) = 17.51951 21.26229 19.39090
#
# Velocity S-wave (km/s) = 2.95847 3.25920 3.11247
# Velocity P-wave (km/s) = 4.86270 5.50353 5.19301
#
# Compressibility (1/GPa) = 0.04171668
#
# Stress axis : x y z
#
# Youngs Moduli (GPa) = 81.90179 29.33017 36.52583
#
# Poissons Ratio (x) = 0.06232 0.27277
# Poissons Ratio (y) = 0.17403 0.23341
# Poissons Ratio (z) = 0.61162 0.18742
#
# Static dielectric constant tensor:
#      x y z
#    x 1.730490 0.000000 0.000000 
#    y 0.000000 1.709620 0.000000 
#    z 0.000000 0.000000 1.678580 
# 
# From -- ./inp_files/11001.got.cif
#   From: 2010.05.17/outbox.cif.g08.bks.cpg/sg58_6_cif.got.tgz:11001.got - 2010.06.03 14:20:14.
