data_PCOD9441000
_publ_section_title
;
Structure prediction by ZEFSAII (Michael W. Deem and Ramdas Pophale) SiO2 
 PCOD9441000
Probable space group: P N N M
;
_chemical_formula_sum "Si O2"
_cell_formula_units_Z 42
_cell_length_a 11.670912
_cell_length_b 14.616534
_cell_length_c 9.855006
_cell_angle_alpha 90.000000
_cell_angle_beta 90.000000
_cell_angle_gamma 90.000000
_cell_volume 1681.148543
_symmetry_space_group_name_H-M "P N N M"
_symmetry_group_IT_number 58
_symmetry_cell_setting 'orthorhombic'
loop_
_space_group_symop_operation_xyz
x,y,z
-x,-y,z
1/2+x,1/2-y,1/2-z
1/2-x,1/2+y,1/2-z
-x,-y,-z
x,y,-z
1/2-x,1/2+y,1/2+z
1/2+x,1/2-y,1/2+z
loop_
_atom_site_type_symbol
_atom_site_label
_atom_site_fract_x
_atom_site_fract_y
_atom_site_fract_z
Si Si1 0.500000 0.500000 0.500000
Si Si2 0.865170 0.177102 0.149669
Si Si3 0.406428 0.101391 0.655145
Si Si4 0.102168 0.383753 0.351905
Si Si5 0.951322 0.822445 0.647113
Si Si6 0.792015 0.910588 0.851084
O O1 0.397818 0.522564 0.616167
O O2 0.877514 0.288076 0.148297
O O3 0.736312 0.141637 0.156813
O O4 0.933904 0.145489 0.280538
O O5 0.918815 0.145958 0.000000
O O6 0.393934 0.069907 0.500000
O O7 0.533438 0.087930 0.717081
O O8 0.316699 0.058382 0.763633
O O9 0.090650 0.432175 0.500000
O O10 0.041232 0.285415 0.369929
O O11 0.926582 0.864289 0.500000
O O12 0.851849 0.836473 0.756235
O O13 0.754044 0.876742 0.000000
#
# Coordination Sequence:
#
# PCOD9441000 Si02
#       6
#     2   8   8   8   8   8
#     4   8  24  36  54  72  90 128 198 212 256 300
#     4   9  17  29  43  70 106 139 168 188 229 318
#     4  10  18  29  47  71 101 134 166 203 253 293
#     4   9  17  29  43  70 106 139 168 188 229 318
#     4  10  18  29  47  71 101 134 166 203 253 293
#     4  10  19  35  51  69  93 130 168 219 248 295
#
# _framework density 24.982918999999999
#
# number of rings (size 3 to 8) (size 9 to 14) (size 15 to 20)
#    0.571    1.905    1.905    1.714    0.000    2.286 
#    0.000    1.905    0.000    0.000    0.000    2.667 
#    0.000    3.048    0.000    0.000    0.000    0.000 
#
# Total GULP energy -233949.813527 kJ/mol
# GULP energy per Si atom -5570.233655 kJ/mol
# Density = 2.492606 g / cm^3
# Si number density = 24.982919 Si / 1000 Ang^3
#
#
#
# Elastic Constant Matrix: (Units=GPa)
#
#
# Indices 1 2 3 4 5 6 
#
# 1 132.1008 -12.2448 99.1753 0.0000 0.0000 0.0000
# 2 -12.2448 43.8914 22.7726 0.0000 0.0000 0.0000
# 3 99.1753 22.7726 249.2022 0.0000 0.0000 0.0000
# 4 0.0000 0.0000 0.0000 29.4891 0.0000 0.0000
# 5 0.0000 0.0000 0.0000 0.0000 37.3189 0.0000
# 6 0.0000 0.0000 0.0000 0.0000 0.0000 37.3082
#
#
#
# Elastic Compliance Matrix: (Units=1/GPa)
#
#
# Indices 1 2 3 4 5 6 
#
# 1 0.012229 0.006232 -0.005436 0.000000 0.000000 0.000000
# 2 0.006232 0.027094 -0.004956 0.000000 0.000000 0.000000
# 3 -0.005436 -0.004956 0.006629 0.000000 0.000000 0.000000
# 4 0.000000 0.000000 0.000000 0.033911 0.000000 0.000000
# 5 0.000000 0.000000 0.000000 0.000000 0.026796 0.000000
# 6 0.000000 0.000000 0.000000 0.000000 0.000000 0.026804
#
#
# Mechanical properties :
#
#
# Convention : Reuss Voigt Hill
#
# Bulk Modulus (GPa) = 26.57359 71.62231 49.09795
# Shear Modulus (GPa) = 32.39882 41.85599 37.12740
#
# Velocity S-wave (km/s) = 3.60507 4.09759 3.85919
# Velocity P-wave (km/s) = 5.29042 7.14966 6.28913
#
# Compressibility (1/GPa) = 0.03763135
#
# Stress axis : x y z
#
# Youngs Moduli (GPa) = 81.77301 36.90910 150.84794
#
# Poissons Ratio (x) = -0.23002 0.82005
# Poissons Ratio (y) = -0.50962 0.74762
# Poissons Ratio (z) = 0.44454 0.18293
#
# Static dielectric constant tensor:
#      x y z
#    x 1.940470 0.000000 0.000000 
#    y 0.000000 2.123800 0.000000 
#    z 0.000000 0.000000 2.074610 
# 
# From -- ./inp_files/4104.got.cif
#   From: 2010.05.17/outbox.cif.g08.bks.cpg/sg58_3_cif.got.tgz:4104.got - 2010.06.03 14:20:14.
