data_PCOD9441221
_publ_section_title
;
Structure prediction by ZEFSAII (Michael W. Deem and Ramdas Pophale) SiO2 
 PCOD9441221
Probable space group: P N N M
;
_chemical_formula_sum "Si O2"
_cell_formula_units_Z 56
_cell_length_a 14.259648
_cell_length_b 17.571215
_cell_length_c 13.423823
_cell_angle_alpha 90.000000
_cell_angle_beta 90.000000
_cell_angle_gamma 90.000000
_cell_volume 3363.464242
_symmetry_space_group_name_H-M "P N N M"
_symmetry_group_IT_number 58
_symmetry_cell_setting 'orthorhombic'
loop_
_space_group_symop_operation_xyz
x,y,z
-x,-y,z
1/2+x,1/2-y,1/2-z
1/2-x,1/2+y,1/2-z
-x,-y,-z
x,y,-z
1/2-x,1/2+y,1/2+z
1/2+x,1/2-y,1/2+z
loop_
_atom_site_type_symbol
_atom_site_label
_atom_site_fract_x
_atom_site_fract_y
_atom_site_fract_z
Si Si1 0.258543 0.802374 0.116051
Si Si2 0.038184 0.414708 0.118709
Si Si3 0.694872 0.446211 0.120228
Si Si4 0.249151 0.393975 0.806276
Si Si5 0.142629 0.664836 0.191527
Si Si6 0.071030 0.192363 0.379729
Si Si7 0.364179 0.253300 0.883355
O O1 0.245154 0.872161 0.190233
O O2 0.176378 0.740618 0.133710
O O3 0.352810 0.756473 0.148430
O O4 0.265382 0.821888 0.000000
O O5 0.141751 0.406188 0.162216
O O6 0.000000 0.500000 0.135849
O O7 0.963108 0.358085 0.167477
O O8 0.041014 0.402205 0.000000
O O9 0.694850 0.529983 0.165411
O O10 0.789164 0.402255 0.153958
O O11 0.610443 0.389921 0.151863
O O12 0.695760 0.452259 0.000000
O O13 0.291246 0.321352 0.864278
O O14 0.156708 0.684616 0.307806
O O15 0.072579 0.190490 0.500000
O O16 0.966251 0.214189 0.351272
O O17 0.366494 0.232912 0.000000
#
# Coordination Sequence:
#
# PCOD9441221 Si02
#       7
#     8   8   8   8   8   8   8
#     4   9  18  34  53  73  98 133 173 204 238 298
#     4  11  20  31  50  75 104 130 160 208 253 293
#     4  10  18  32  51  74  99 126 165 208 249 297
#     4  11  21  31  50  78 104 129 164 208 256 296
#     4  10  19  32  53  74  98 135 170 201 245 299
#     4   8  16  31  52  70  93 128 162 201 247 292
#     4  10  20  34  50  74 104 132 163 207 252 296
#
# _framework density 16.649501000000001
#
# number of rings (size 3 to 8) (size 9 to 14) (size 15 to 20)
#    0.000    2.143    1.429    4.286    0.000    0.571 
#    0.000    2.857    0.000    0.857    0.000   10.000 
#    0.000    0.000    0.000    0.000    0.000    0.000 
#
# Total GULP energy -312289.039978 kJ/mol
# GULP energy per Si atom -5576.590000 kJ/mol
# Density = 1.661161 g / cm^3
# Si number density = 16.649501 Si / 1000 Ang^3
#
#
#
# Elastic Constant Matrix: (Units=GPa)
#
#
# Indices 1 2 3 4 5 6 
#
# 1 46.6408 8.5945 13.3961 0.0000 0.0000 0.0000
# 2 8.5945 70.3258 46.2580 0.0000 0.0000 0.0000
# 3 13.3961 46.2580 97.9784 0.0000 0.0000 0.0000
# 4 0.0000 0.0000 0.0000 26.8340 0.0000 0.0000
# 5 0.0000 0.0000 0.0000 0.0000 14.9417 0.0000
# 6 0.0000 0.0000 0.0000 0.0000 0.0000 10.2768
#
#
#
# Elastic Compliance Matrix: (Units=1/GPa)
#
#
# Indices 1 2 3 4 5 6 
#
# 1 0.022370 -0.001047 -0.002564 0.000000 0.000000 0.000000
# 2 -0.001047 0.020673 -0.009617 0.000000 0.000000 0.000000
# 3 -0.002564 -0.009617 0.015097 0.000000 0.000000 0.000000
# 4 0.000000 0.000000 0.000000 0.037266 0.000000 0.000000
# 5 0.000000 0.000000 0.000000 0.000000 0.066927 0.000000
# 6 0.000000 0.000000 0.000000 0.000000 0.000000 0.097306
#
#
# Mechanical properties :
#
#
# Convention : Reuss Voigt Hill
#
# Bulk Modulus (GPa) = 31.56209 39.04914 35.30562
# Shear Modulus (GPa) = 16.85438 20.19024 18.52231
#
# Velocity S-wave (km/s) = 3.18513 3.48611 3.33901
# Velocity P-wave (km/s) = 5.70304 6.30147 6.00971
#
# Compressibility (1/GPa) = 0.03168358
#
# Stress axis : x y z
#
# Youngs Moduli (GPa) = 44.70293 48.37126 66.23641
#
# Poissons Ratio (x) = 0.05066 0.16984
# Poissons Ratio (y) = 0.04682 0.63701
# Poissons Ratio (z) = 0.11462 0.46520
#
# Static dielectric constant tensor:
#      x y z
#    x 1.585140 0.000000 0.000000 
#    y 0.000000 1.554900 0.000000 
#    z 0.000000 0.000000 1.556350 
# 
# From -- ./inp_files/22192.got.cif
#   From: 2010.05.17/outbox.cif.g08.bks.cpg/sg58_12_cif.got.tgz:22192.got - 2010.06.03 14:20:14.
