data_PCOD9441200
_publ_section_title
;
Structure prediction by ZEFSAII (Michael W. Deem and Ramdas Pophale) SiO2 
 PCOD9441200
Probable space group: P N N M
;
_chemical_formula_sum "Si O2"
_cell_formula_units_Z 64
_cell_length_a 9.223537
_cell_length_b 16.181541
_cell_length_c 18.009070
_cell_angle_alpha 90.000000
_cell_angle_beta 90.000000
_cell_angle_gamma 90.000000
_cell_volume 2687.872465
_symmetry_space_group_name_H-M "P N N M"
_symmetry_group_IT_number 58
_symmetry_cell_setting 'orthorhombic'
loop_
_space_group_symop_operation_xyz
x,y,z
-x,-y,z
1/2+x,1/2-y,1/2-z
1/2-x,1/2+y,1/2-z
-x,-y,-z
x,y,-z
1/2-x,1/2+y,1/2+z
1/2+x,1/2-y,1/2+z
loop_
_atom_site_type_symbol
_atom_site_label
_atom_site_fract_x
_atom_site_fract_y
_atom_site_fract_z
Si Si1 0.693422 0.412154 0.914747
Si Si2 0.721829 0.160494 0.081993
Si Si3 0.998049 0.681840 0.916530
Si Si4 0.221454 0.995999 0.832211
Si Si5 0.406424 0.147202 0.128562
Si Si6 0.604739 0.337282 0.642620
Si Si7 0.155353 0.450981 0.177030
Si Si8 0.907544 0.778296 0.691380
O O1 0.846754 0.362772 0.913787
O O2 0.740530 0.499081 0.879459
O O3 0.587169 0.359025 0.861802
O O4 0.643672 0.417311 0.000000
O O5 0.788161 0.073227 0.105116
O O6 0.547003 0.141505 0.078951
O O7 0.714391 0.221758 0.152437
O O8 0.759441 0.191912 0.000000
O O9 0.008146 0.779204 0.898055
O O10 0.893028 0.636290 0.857683
O O11 0.942341 0.669577 0.000000
O O12 0.255667 0.951430 0.754149
O O13 0.360737 0.058282 0.839733
O O14 0.096889 0.065133 0.842608
O O15 0.253184 0.175495 0.096333
O O16 0.454287 0.217369 0.187671
O O17 0.623400 0.304482 0.725977
O O18 0.000000 0.500000 0.184512
#
# Coordination Sequence:
#
# PCOD9441200 Si02
#       8
#     8   8   8   8   8   8   8   8
#     4  10  19  34  55  82 109 140 177 220 271 316
#     4  10  20  33  53  81 114 140 172 221 270 322
#     4  10  22  35  53  81 110 142 175 215 273 323
#     4  10  19  33  51  85 104 139 178 218 273 311
#     4   8  21  32  51  84 103 139 176 213 272 308
#     4  10  21  34  54  78 110 142 175 223 263 319
#     4  10  18  31  56  77 108 133 175 229 268 313
#     4  10  20  34  53  80 109 138 182 217 266 315
#
# _framework density 23.810655000000001
#
# number of rings (size 3 to 8) (size 9 to 14) (size 15 to 20)
#    1.500    0.750    1.250    2.625    5.250    3.500 
#    0.000    0.000    0.000    1.500    0.000    4.375 
#    0.000    0.000    0.000    0.000    0.000    0.000 
#
# Total GULP energy -356582.787814 kJ/mol
# GULP energy per Si atom -5571.606060 kJ/mol
# Density = 2.375646 g / cm^3
# Si number density = 23.810655 Si / 1000 Ang^3
#
#
#
# Elastic Constant Matrix: (Units=GPa)
#
#
# Indices 1 2 3 4 5 6 
#
# 1 36.7473 -2.5354 -1.3410 0.0000 0.0000 0.0000
# 2 -2.5354 88.8607 8.7295 0.0000 0.0000 0.0000
# 3 -1.3410 8.7295 88.1207 0.0000 0.0000 0.0000
# 4 0.0000 0.0000 0.0000 13.8200 0.0000 0.0000
# 5 0.0000 0.0000 0.0000 0.0000 13.3746 0.0000
# 6 0.0000 0.0000 0.0000 0.0000 0.0000 37.3478
#
#
#
# Elastic Compliance Matrix: (Units=1/GPa)
#
#
# Indices 1 2 3 4 5 6 
#
# 1 0.027277 0.000745 0.000341 0.000000 0.000000 0.000000
# 2 0.000745 0.011384 -0.001116 0.000000 0.000000 0.000000
# 3 0.000341 -0.001116 0.011464 0.000000 0.000000 0.000000
# 4 0.000000 0.000000 0.000000 0.072359 0.000000 0.000000
# 5 0.000000 0.000000 0.000000 0.000000 0.074769 0.000000
# 6 0.000000 0.000000 0.000000 0.000000 0.000000 0.026775
#
#
# Mechanical properties :
#
#
# Convention : Reuss Voigt Hill
#
# Bulk Modulus (GPa) = 19.97431 24.82610 22.40020
# Shear Modulus (GPa) = 20.76614 26.83354 23.79984
#
# Velocity S-wave (km/s) = 2.95640 3.36066 3.16499
# Velocity P-wave (km/s) = 4.47892 5.05052 4.77329
#
# Compressibility (1/GPa) = 0.05006431
#
# Stress axis : x y z
#
# Youngs Moduli (GPa) = 36.66126 87.83880 87.23067
#
# Poissons Ratio (x) = -0.06542 -0.02977
# Poissons Ratio (y) = -0.02730 0.09739
# Poissons Ratio (z) = -0.01251 0.09807
#
# Static dielectric constant tensor:
#      x y z
#    x 2.058070 0.000000 0.000000 
#    y 0.000000 1.925890 0.000000 
#    z 0.000000 0.000000 1.830420 
# 
# From -- ./inp_files/26395.got.cif
#   From: 2010.05.17/outbox.cif.g08.bks.cpg/sg58_14_cif.got.tgz:26395.got - 2010.06.03 14:20:14.
