data_PCOD9441772
_publ_section_title
;
Structure prediction by ZEFSAII (Michael W. Deem and Ramdas Pophale) SiO2 
 PCOD9441772
Probable space group: P N N M
;
_chemical_formula_sum "Si O2"
_cell_formula_units_Z 64
_cell_length_a 29.724374
_cell_length_b 13.020372
_cell_length_c 7.524404
_cell_angle_alpha 90.000000
_cell_angle_beta 90.000000
_cell_angle_gamma 90.000000
_cell_volume 2912.112947
_symmetry_space_group_name_H-M "P N N M"
_symmetry_group_IT_number 58
_symmetry_cell_setting 'orthorhombic'
loop_
_space_group_symop_operation_xyz
x,y,z
-x,-y,z
1/2+x,1/2-y,1/2-z
1/2-x,1/2+y,1/2-z
-x,-y,-z
x,y,-z
1/2-x,1/2+y,1/2+z
1/2+x,1/2-y,1/2+z
loop_
_atom_site_type_symbol
_atom_site_label
_atom_site_fract_x
_atom_site_fract_y
_atom_site_fract_z
Si Si1 0.854669 0.492039 0.785054
Si Si2 0.689386 0.382644 0.287379
Si Si3 0.745001 0.028367 0.289578
Si Si4 0.371520 0.232260 0.789096
Si Si5 0.440757 0.403863 0.782912
Si Si6 0.229188 0.751967 0.283371
Si Si7 0.043928 0.129803 0.714084
Si Si8 0.618650 0.217839 0.291109
O O1 0.802764 0.484268 0.717425
O O2 0.881376 0.388897 0.734065
O O3 0.874240 0.602343 0.722603
O O4 0.854713 0.492731 0.000000
O O5 0.686164 0.380399 0.500000
O O6 0.701910 0.498179 0.239541
O O7 0.738178 0.339688 0.228108
O O8 0.651547 0.307266 0.215013
O O9 0.739232 0.027542 0.500000
O O10 0.745035 0.146126 0.227643
O O11 0.406469 0.316749 0.719441
O O12 0.321234 0.246571 0.715361
O O13 0.369244 0.250568 0.000000
O O14 0.491936 0.376841 0.730339
O O15 0.432402 0.522469 0.726962
O O16 0.440068 0.404573 0.000000
O O17 0.228262 0.750123 0.500000
O O18 0.044576 0.129911 0.500000
O O19 0.069839 0.231071 0.774388
O O20 0.629976 0.210578 0.500000
#
# Coordination Sequence:
#
# PCOD9441772 Si02
#       8
#     8   8   8   8   8   8   8   8
#     4  10  20  35  51  71 106 144 175 212 255 299
#     4  10  19  33  49  70 101 136 171 209 250 296
#     4  10  19  32  49  70  99 137 175 211 253 300
#     4  10  19  33  55  78 101 134 175 211 253 311
#     4   8  17  35  58  83 107 130 161 215 272 308
#     4   9  17  30  49  71  98 134 170 203 249 304
#     4   9  18  36  60  82 104 130 168 215 262 312
#     4  10  21  36  53  75 107 143 174 209 260 310
#
# _framework density 21.977167999999999
#
# number of rings (size 3 to 8) (size 9 to 14) (size 15 to 20)
#    0.000    2.500    2.500    0.750    1.750    1.000 
#    0.000    4.375    0.000    3.750    0.000    0.000 
#    0.000    0.000    0.000    0.000    0.000    0.000 
#
# Total GULP energy -356538.069949 kJ/mol
# GULP energy per Si atom -5570.907343 kJ/mol
# Density = 2.192715 g / cm^3
# Si number density = 21.977168 Si / 1000 Ang^3
#
#
#
# Elastic Constant Matrix: (Units=GPa)
#
#
# Indices 1 2 3 4 5 6 
#
# 1 44.2249 14.1771 -4.0389 0.0000 0.0000 0.0000
# 2 14.1771 50.3352 -5.1192 0.0000 0.0000 0.0000
# 3 -4.0389 -5.1192 53.1316 0.0000 0.0000 0.0000
# 4 0.0000 0.0000 0.0000 -15.8195 0.0000 0.0000
# 5 0.0000 0.0000 0.0000 0.0000 14.2088 0.0000
# 6 0.0000 0.0000 0.0000 0.0000 0.0000 44.7931
#
#
#
# Elastic Compliance Matrix: (Units=1/GPa)
#
#
# Indices 1 2 3 4 5 6 
#
# 1 0.024935 -0.006898 0.001231 0.000000 0.000000 0.000000
# 2 -0.006898 0.021972 0.001593 0.000000 0.000000 0.000000
# 3 0.001231 0.001593 0.019068 0.000000 0.000000 0.000000
# 4 0.000000 0.000000 0.000000 -0.063213 0.000000 0.000000
# 5 0.000000 0.000000 0.000000 0.000000 0.070379 0.000000
# 6 0.000000 0.000000 0.000000 0.000000 0.000000 0.022325
#
#
# Mechanical properties :
#
#
# Convention : Reuss Voigt Hill
#
# Bulk Modulus (GPa) = 17.29319 17.52553 17.40936
# Shear Modulus (GPa) = 40.68671 18.14799 29.41735
#
# Velocity S-wave (km/s) = 4.30736 2.87673 3.66258
# Velocity P-wave (km/s) = 5.71171 4.36186 5.08180
#
# Compressibility (1/GPa) = 0.05782622
#
# Stress axis : x y z
#
# Youngs Moduli (GPa) = 40.10362 45.51322 52.44334
#
# Poissons Ratio (x) = 0.31395 -0.06455
# Poissons Ratio (y) = 0.27663 -0.08352
# Poissons Ratio (z) = -0.04936 -0.07248
#
# Static dielectric constant tensor:
#      x y z
#    x 1.649310 0.000000 0.000000 
#    y 0.000000 1.857790 0.000000 
#    z 0.000000 0.000000 1.884090 
# 
# From -- ./inp_files/10983.got.cif
#   From: 2010.05.17/outbox.cif.g08.bks.cpg/sg58_6_cif.got.tgz:10983.got - 2010.06.03 14:20:14.
