data_PCOD9441091
_publ_section_title
;
Structure prediction by ZEFSAII (Michael W. Deem and Ramdas Pophale) SiO2 
 PCOD9441091
Probable space group: P N N M
;
_chemical_formula_sum "Si O2"
_cell_formula_units_Z 64
_cell_length_a 20.335624
_cell_length_b 20.333746
_cell_length_c 7.369523
_cell_angle_alpha 90.000000
_cell_angle_beta 90.000000
_cell_angle_gamma 90.000000
_cell_volume 3047.293436
_symmetry_space_group_name_H-M "P N N M"
_symmetry_group_IT_number 58
_symmetry_cell_setting 'orthorhombic'
loop_
_space_group_symop_operation_xyz
x,y,z
-x,-y,z
1/2+x,1/2-y,1/2-z
1/2-x,1/2+y,1/2-z
-x,-y,-z
x,y,-z
1/2-x,1/2+y,1/2+z
1/2+x,1/2-y,1/2+z
loop_
_atom_site_type_symbol
_atom_site_label
_atom_site_fract_x
_atom_site_fract_y
_atom_site_fract_z
Si Si1 0.569632 0.667263 0.780826
Si Si2 0.244258 0.722408 0.279729
Si Si3 0.716018 0.632555 0.218829
Si Si4 0.961233 0.938554 0.211086
Si Si5 0.563802 0.959319 0.221901
Si Si6 0.902783 0.313742 0.279687
Si Si7 0.792492 0.499332 0.711834
Si Si8 0.680859 0.400219 0.277283
O O1 0.639316 0.634681 0.722085
O O2 0.508357 0.624310 0.720617
O O3 0.567339 0.743573 0.721628
O O4 0.570495 0.667429 0.000000
O O5 0.244056 0.724063 0.500000
O O6 0.245975 0.797728 0.219724
O O7 0.174042 0.690960 0.227414
O O8 0.301587 0.673824 0.222104
O O9 0.759323 0.570728 0.275059
O O10 0.714948 0.632046 0.000000
O O11 0.889640 0.924243 0.288238
O O12 0.949585 0.955005 0.000000
O O13 0.000000 0.000000 0.293341
O O14 0.565622 0.882514 0.278676
O O15 0.633314 0.991372 0.282091
O O16 0.500000 0.000000 0.282322
O O17 0.562134 0.959990 0.000000
O O18 0.904470 0.314057 0.500000
O O19 0.798403 0.482302 0.500000
O O20 0.739274 0.447856 0.785869
O O21 0.680249 0.401189 0.500000
#
# Coordination Sequence:
#
# PCOD9441091 Si02
#       8
#     8   8   8   8   8   8   8   8
#     4   9  18  32  50  71  95 129 165 196 236 284
#     4   8  13  26  47  66  84 117 165 197 216 266
#     4   9  18  31  49  71  95 124 159 197 234 279
#     4  10  20  32  46  69  99 127 159 201 243 282
#     4   9  16  27  46  73 100 124 153 194 242 288
#     4   8  13  26  47  68  90 120 161 197 224 273
#     4  10  18  30  51  76  98 122 156 198 243 283
#     4   9  16  28  48  69  91 125 165 198 228 274
#
# _framework density 21.002244000000001
#
# number of rings (size 3 to 8) (size 9 to 14) (size 15 to 20)
#    0.000    3.000    1.250    2.250    0.000    1.750 
#    2.250    0.625    0.000    1.875    0.000    0.000 
#    0.000    0.000    0.000    0.000    0.000    0.000 
#
# Total GULP energy -357091.999675 kJ/mol
# GULP energy per Si atom -5579.562495 kJ/mol
# Density = 2.095444 g / cm^3
# Si number density = 21.002244 Si / 1000 Ang^3
#
#
#
# Elastic Constant Matrix: (Units=GPa)
#
#
# Indices 1 2 3 4 5 6 
#
# 1 151.5002 77.0977 -0.5295 0.0000 0.0000 0.0000
# 2 77.0977 118.7208 -13.2192 0.0000 0.0000 0.0000
# 3 -0.5295 -13.2192 71.4030 0.0000 0.0000 0.0000
# 4 0.0000 0.0000 0.0000 10.1167 0.0000 0.0000
# 5 0.0000 0.0000 0.0000 0.0000 3.8283 0.0000
# 6 0.0000 0.0000 0.0000 0.0000 0.0000 25.4754
#
#
#
# Elastic Compliance Matrix: (Units=1/GPa)
#
#
# Indices 1 2 3 4 5 6 
#
# 1 0.009950 -0.006589 -0.001146 0.000000 0.000000 0.000000
# 2 -0.006589 0.012964 0.002351 0.000000 0.000000 0.000000
# 3 -0.001146 0.002351 0.014432 0.000000 0.000000 0.000000
# 4 0.000000 0.000000 0.000000 0.098847 0.000000 0.000000
# 5 0.000000 0.000000 0.000000 0.000000 0.261213 0.000000
# 6 0.000000 0.000000 0.000000 0.000000 0.000000 0.039254
#
#
# Mechanical properties :
#
#
# Convention : Reuss Voigt Hill
#
# Bulk Modulus (GPa) = 37.62561 52.03579 44.83070
# Shear Modulus (GPa) = 10.95805 26.43573 18.69689
#
# Velocity S-wave (km/s) = 2.28668 3.55168 2.98691
# Velocity P-wave (km/s) = 4.99257 6.45363 5.76954
#
# Compressibility (1/GPa) = 0.02657764
#
# Stress axis : x y z
#
# Youngs Moduli (GPa) = 100.50486 77.13749 69.29136
#
# Poissons Ratio (x) = 0.50826 0.07941
# Poissons Ratio (y) = 0.66223 -0.16292
# Poissons Ratio (z) = 0.11519 -0.18137
#
# Static dielectric constant tensor:
#      x y z
#    x 1.720170 0.000000 0.000000 
#    y 0.000000 1.734180 0.000000 
#    z 0.000000 0.000000 1.820500 
# 
# From -- ./inp_files/17209.got.cif
#   From: 2010.05.17/outbox.cif.g08.bks.cpg/sg58_9_cif.got.tgz:17209.got - 2010.06.03 14:20:14.
