data_PCOD9441015
_publ_section_title
;
Structure prediction by ZEFSAII (Michael W. Deem and Ramdas Pophale) SiO2 
 PCOD9441015
Probable space group: P N N M
;
_chemical_formula_sum "Si O2"
_cell_formula_units_Z 56
_cell_length_a 14.420475
_cell_length_b 19.890302
_cell_length_c 7.301103
_cell_angle_alpha 90.000000
_cell_angle_beta 90.000000
_cell_angle_gamma 90.000000
_cell_volume 2094.157871
_symmetry_space_group_name_H-M "P N N M"
_symmetry_group_IT_number 58
_symmetry_cell_setting 'orthorhombic'
loop_
_space_group_symop_operation_xyz
x,y,z
-x,-y,z
1/2+x,1/2-y,1/2-z
1/2-x,1/2+y,1/2-z
-x,-y,-z
x,y,-z
1/2-x,1/2+y,1/2+z
1/2+x,1/2-y,1/2+z
loop_
_atom_site_type_symbol
_atom_site_label
_atom_site_fract_x
_atom_site_fract_y
_atom_site_fract_z
Si Si1 0.784924 0.149891 0.779251
Si Si2 0.101616 0.567083 0.709706
Si Si3 0.214288 0.702096 0.777500
Si Si4 0.434193 0.856003 0.777747
Si Si5 0.572096 0.288619 0.784712
Si Si6 0.547853 0.432592 0.280833
Si Si7 0.722789 0.504146 0.275701
O O1 0.818752 0.223065 0.717068
O O2 0.674626 0.143947 0.736556
O O3 0.817872 0.076310 0.718360
O O4 0.794700 0.151213 0.000000
O O5 0.087979 0.545236 0.500000
O O6 0.156070 0.638891 0.708617
O O7 0.001984 0.585772 0.790848
O O8 0.174635 0.514249 0.789447
O O9 0.322456 0.700143 0.716064
O O10 0.211907 0.699354 0.000000
O O11 0.467249 0.781819 0.713988
O O12 0.440483 0.860425 0.000000
O O13 0.516639 0.357471 0.761789
O O14 0.582698 0.278000 0.000000
O O15 0.500000 0.500000 0.211262
O O16 0.543437 0.435809 0.500000
O O17 0.653821 0.444769 0.220741
O O18 0.725080 0.505138 0.500000
#
# Coordination Sequence:
#
# PCOD9441015 Si02
#       7
#     8   8   8   8   8   8   8
#     4   8  15  29  47  68  97 126 158 198 238 282
#     4  10  18  29  49  74  98 122 155 199 245 287
#     4   9  17  30  50  70  91 127 165 196 233 285
#     4   8  16  29  46  71  96 121 156 201 241 276
#     4   9  17  32  50  67  92 125 161 197 235 280
#     4  10  20  32  47  71 101 128 157 197 242 285
#     4   9  17  29  46  70  98 128 157 193 242 287
#
# _framework density 26.741057999999999
#
# number of rings (size 3 to 8) (size 9 to 14) (size 15 to 20)
#    0.000    3.000    1.429    1.714    0.000    2.000 
#    0.000    5.000    0.000    2.571    0.000    1.000 
#    0.000    0.000    0.000    0.000    0.000    0.000 
#
# Total GULP energy -312877.299481 kJ/mol
# GULP energy per Si atom -5587.094634 kJ/mol
# Density = 2.668019 g / cm^3
# Si number density = 26.741058 Si / 1000 Ang^3
#
#
#
# Elastic Constant Matrix: (Units=GPa)
#
#
# Indices 1 2 3 4 5 6 
#
# 1 53.4942 9.6518 -4.6020 0.0000 0.0000 0.0000
# 2 9.6518 151.5033 -9.2864 0.0000 0.0000 0.0000
# 3 -4.6020 -9.2864 113.6190 0.0000 0.0000 0.0000
# 4 0.0000 0.0000 0.0000 7.0567 0.0000 0.0000
# 5 0.0000 0.0000 0.0000 0.0000 -4.5801 0.0000
# 6 0.0000 0.0000 0.0000 0.0000 0.0000 54.9430
#
#
#
# Elastic Compliance Matrix: (Units=1/GPa)
#
#
# Indices 1 2 3 4 5 6 
#
# 1 0.018962 -0.001167 0.000673 0.000000 0.000000 0.000000
# 2 -0.001167 0.006706 0.000501 0.000000 0.000000 0.000000
# 3 0.000673 0.000501 0.008870 0.000000 0.000000 0.000000
# 4 0.000000 0.000000 0.000000 0.141708 0.000000 0.000000
# 5 0.000000 0.000000 0.000000 0.000000 -0.218336 0.000000
# 6 0.000000 0.000000 0.000000 0.000000 0.000000 0.018201
#
#
# Mechanical properties :
#
#
# Convention : Reuss Voigt Hill
#
# Bulk Modulus (GPa) = 28.94317 34.46037 31.70177
# Shear Modulus (GPa) = -403.67671 33.00747 -185.33462
#
# Velocity S-wave (km/s) = -12.29981 3.51712 -8.33412
# Velocity P-wave (km/s) = 13.81546 5.42293 8.98495
#
# Compressibility (1/GPa) = 0.03455046
#
# Stress axis : x y z
#
# Youngs Moduli (GPa) = 52.73705 149.13029 112.74568
#
# Poissons Ratio (x) = 0.17400 -0.07584
# Poissons Ratio (y) = 0.06153 -0.05646
# Poissons Ratio (z) = -0.03547 -0.07468
#
# Static dielectric constant tensor:
#      x y z
#    x 2.139810 0.000000 0.000000 
#    y 0.000000 2.082150 0.000000 
#    z 0.000000 0.000000 2.043610 
# 
# From -- ./inp_files/8194.got.cif
#   From: 2010.05.17/outbox.cif.g08.bks.cpg/sg58_5_cif.got.tgz:8194.got - 2010.06.03 14:20:14.
