data_PCOD9441325
_publ_section_title
;
Structure prediction by ZEFSAII (Michael W. Deem and Ramdas Pophale) SiO2 
 PCOD9441325
Probable space group: P N N M
;
_chemical_formula_sum "Si O2"
_cell_formula_units_Z 56
_cell_length_a 13.886593
_cell_length_b 14.072088
_cell_length_c 12.787531
_cell_angle_alpha 90.000000
_cell_angle_beta 90.000000
_cell_angle_gamma 90.000000
_cell_volume 2498.854382
_symmetry_space_group_name_H-M "P N N M"
_symmetry_group_IT_number 58
_symmetry_cell_setting 'orthorhombic'
loop_
_space_group_symop_operation_xyz
x,y,z
-x,-y,z
1/2+x,1/2-y,1/2-z
1/2-x,1/2+y,1/2-z
-x,-y,-z
x,y,-z
1/2-x,1/2+y,1/2+z
1/2+x,1/2-y,1/2+z
loop_
_atom_site_type_symbol
_atom_site_label
_atom_site_fract_x
_atom_site_fract_y
_atom_site_fract_z
Si Si1 0.041520 0.294738 0.720360
Si Si2 0.050843 0.142597 0.114071
Si Si3 0.341121 0.178699 0.880674
Si Si4 0.866623 0.545964 0.612771
Si Si5 0.165237 0.860001 0.845600
Si Si6 0.390580 0.507379 0.806525
Si Si7 0.722046 0.319057 0.177017
O O1 0.075051 0.402553 0.704586
O O2 0.123094 0.237072 0.657154
O O3 0.048641 0.247498 0.834039
O O4 0.937586 0.278652 0.670758
O O5 0.937603 0.119711 0.105963
O O6 0.090522 0.069444 0.200336
O O7 0.096554 0.136017 0.000000
O O8 0.252728 0.188462 0.800148
O O9 0.363087 0.066269 0.881180
O O10 0.325393 0.210416 0.000000
O O11 0.910119 0.574319 0.500000
O O12 0.757022 0.581742 0.615837
O O13 0.194399 0.749951 0.866138
O O14 0.149743 0.904853 0.728197
O O15 0.500000 0.500000 0.853427
O O16 0.306061 0.573711 0.856068
#
# Coordination Sequence:
#
# PCOD9441325 Si02
#       7
#     8   8   8   8   8   8   8
#     4  10  21  36  53  84 126 157 196 245 303 365
#     4  10  20  33  54  82 119 157 194 241 305 365
#     4  11  21  37  62  90 121 158 202 256 313 367
#     4  10  20  33  57  88 118 150 190 247 312 365
#     4  10  18  33  54  83 118 153 189 241 306 359
#     4   9  19  33  53  85 119 156 190 252 310 365
#     4  10  20  35  55  86 120 159 203 241 303 372
#
# _framework density 22.410269
#
# number of rings (size 3 to 8) (size 9 to 14) (size 15 to 20)
#    0.000    2.000    2.857    1.286    0.000    6.571 
#    0.000    0.000    0.000    1.714    0.000   20.000 
#    0.000    0.000    0.000    0.000    0.000    0.000 
#
# Total GULP energy -311808.436250 kJ/mol
# GULP energy per Si atom -5568.007790 kJ/mol
# Density = 2.235926 g / cm^3
# Si number density = 22.410269 Si / 1000 Ang^3
#
#
#
# Elastic Constant Matrix: (Units=GPa)
#
#
# Indices 1 2 3 4 5 6 
#
# 1 113.5523 12.0484 3.4227 0.0000 0.0000 0.0000
# 2 12.0484 85.3872 11.0255 0.0000 0.0000 0.0000
# 3 3.4227 11.0255 39.8735 0.0000 0.0000 0.0000
# 4 0.0000 0.0000 0.0000 184.5046 0.0000 0.0000
# 5 0.0000 0.0000 0.0000 0.0000 12.0487 0.0000
# 6 0.0000 0.0000 0.0000 0.0000 0.0000 43.3344
#
#
#
# Elastic Compliance Matrix: (Units=1/GPa)
#
#
# Indices 1 2 3 4 5 6 
#
# 1 0.008948 -0.001206 -0.000434 0.000000 0.000000 0.000000
# 2 -0.001206 0.012308 -0.003300 0.000000 0.000000 0.000000
# 3 -0.000434 -0.003300 0.026029 0.000000 0.000000 0.000000
# 4 0.000000 0.000000 0.000000 0.005420 0.000000 0.000000
# 5 0.000000 0.000000 0.000000 0.000000 0.082996 0.000000
# 6 0.000000 0.000000 0.000000 0.000000 0.000000 0.023076
#
#
# Mechanical properties :
#
#
# Convention : Reuss Voigt Hill
#
# Bulk Modulus (GPa) = 26.73569 32.42290 29.57930
# Shear Modulus (GPa) = 27.60512 62.13198 44.86855
#
# Velocity S-wave (km/s) = 3.51352 5.27114 4.47938
# Velocity P-wave (km/s) = 5.33064 7.17955 6.32304
#
# Compressibility (1/GPa) = 0.03740319
#
# Stress axis : x y z
#
# Youngs Moduli (GPa) = 111.76160 81.25024 38.41866
#
# Poissons Ratio (x) = 0.09802 0.01669
# Poissons Ratio (y) = 0.13483 0.12677
# Poissons Ratio (z) = 0.04856 0.26810
#
# Static dielectric constant tensor:
#      x y z
#    x 1.871980 0.000000 0.000000 
#    y 0.000000 1.937890 0.000000 
#    z 0.000000 0.000000 1.934810 
# 
# From -- ./inp_files/22322.got.cif
#   From: 2010.05.17/outbox.cif.g08.bks.cpg/sg58_12_cif.got.tgz:22322.got - 2010.06.03 14:20:14.
