data_PCOD9441954
_publ_section_title
;
Structure prediction by ZEFSAII (Michael W. Deem and Ramdas Pophale) SiO2 
 PCOD9441954
Probable space group: P N N M
;
_chemical_formula_sum "Si O2"
_cell_formula_units_Z 64
_cell_length_a 16.814587
_cell_length_b 19.911282
_cell_length_c 7.450809
_cell_angle_alpha 90.000000
_cell_angle_beta 90.000000
_cell_angle_gamma 90.000000
_cell_volume 2494.530730
_symmetry_space_group_name_H-M "P N N M"
_symmetry_group_IT_number 58
_symmetry_cell_setting 'orthorhombic'
loop_
_space_group_symop_operation_xyz
x,y,z
-x,-y,z
1/2+x,1/2-y,1/2-z
1/2-x,1/2+y,1/2-z
-x,-y,-z
x,y,-z
1/2-x,1/2+y,1/2+z
1/2+x,1/2-y,1/2+z
loop_
_atom_site_type_symbol
_atom_site_label
_atom_site_fract_x
_atom_site_fract_y
_atom_site_fract_z
Si Si1 0.626113 0.518288 0.717109
Si Si2 0.549942 0.121759 0.207052
Si Si3 0.474008 0.362103 0.209040
Si Si4 0.373864 0.129499 0.781455
Si Si5 0.389739 0.733838 0.297847
Si Si6 0.203658 0.112990 0.780874
Si Si7 0.320773 0.278601 0.216606
Si Si8 0.280377 0.900635 0.210664
O O1 0.626251 0.517457 0.500000
O O2 0.549061 0.560423 0.770336
O O3 0.640402 0.442393 0.779514
O O4 0.705721 0.557676 0.783084
O O5 0.461835 0.110797 0.284993
O O6 0.569248 0.201967 0.208031
O O7 0.630840 0.090163 0.286136
O O8 0.546131 0.099383 0.000000
O O9 0.544628 0.325275 0.307570
O O10 0.393740 0.325796 0.272805
O O11 0.486033 0.347101 0.000000
O O12 0.293170 0.090502 0.731602
O O13 0.349759 0.205124 0.726836
O O14 0.379027 0.128475 0.000000
O O15 0.369377 0.755252 0.500000
O O16 0.317996 0.688423 0.219592
O O17 0.202460 0.116267 0.000000
O O18 0.244095 0.321740 0.275997
O O19 0.316507 0.276266 0.000000
O O20 0.284721 0.917412 0.000000
#
# Coordination Sequence:
#
# PCOD9441954 Si02
#       8
#     8   8   8   8   8   8   8   8
#     4   9  18  35  53  73 102 136 177 216 249 293
#     4  10  19  33  51  76 107 134 162 208 264 311
#     4  10  19  33  53  77 103 136 167 205 257 307
#     4   9  16  30  50  71  98 133 168 203 251 309
#     4  11  21  33  52  78 105 132 169 213 256 307
#     4   9  19  33  51  73 100 137 176 213 250 299
#     4   9  16  29  50  71  95 129 166 199 246 308
#     4   9  18  30  49  74 100 129 163 210 257 293
#
# _framework density 25.656129
#
# number of rings (size 3 to 8) (size 9 to 14) (size 15 to 20)
#    0.000    2.500    1.250    1.500    0.000    2.500 
#    0.000    4.375    0.000    6.000    0.000    0.000 
#    0.000    5.000    0.000    0.000    0.000    0.000 
#
# Total GULP energy -357328.678942 kJ/mol
# GULP energy per Si atom -5583.260608 kJ/mol
# Density = 2.559773 g / cm^3
# Si number density = 25.656129 Si / 1000 Ang^3
#
#
#
# Elastic Constant Matrix: (Units=GPa)
#
#
# Indices 1 2 3 4 5 6 
#
# 1 112.6745 -34.3225 -2.3739 0.0000 0.0000 0.0000
# 2 -34.3225 31.4303 -13.2099 0.0000 0.0000 0.0000
# 3 -2.3739 -13.2099 81.2653 0.0000 0.0000 0.0000
# 4 0.0000 0.0000 0.0000 1.6064 0.0000 0.0000
# 5 0.0000 0.0000 0.0000 0.0000 5.3746 0.0000
# 6 0.0000 0.0000 0.0000 0.0000 0.0000 36.0173
#
#
#
# Elastic Compliance Matrix: (Units=1/GPa)
#
#
# Indices 1 2 3 4 5 6 
#
# 1 0.013993 0.016585 0.003105 0.000000 0.000000 0.000000
# 2 0.016585 0.053807 0.009231 0.000000 0.000000 0.000000
# 3 0.003105 0.009231 0.013897 0.000000 0.000000 0.000000
# 4 0.000000 0.000000 0.000000 0.622504 0.000000 0.000000
# 5 0.000000 0.000000 0.000000 0.000000 0.186061 0.000000
# 6 0.000000 0.000000 0.000000 0.000000 0.000000 0.027764
#
#
# Mechanical properties :
#
#
# Convention : Reuss Voigt Hill
#
# Bulk Modulus (GPa) = 7.16650 13.95084 10.55867
# Shear Modulus (GPa) = 5.51452 26.95143 16.23298
#
# Velocity S-wave (km/s) = 1.46767 3.24464 2.51811
# Velocity P-wave (km/s) = 2.38148 4.41433 3.54667
#
# Compressibility (1/GPa) = 0.13953812
#
# Stress axis : x y z
#
# Youngs Moduli (GPa) = 71.46631 18.58483 71.96000
#
# Poissons Ratio (x) = -0.30823 -0.22341
# Poissons Ratio (y) = -1.18527 -0.66427
# Poissons Ratio (z) = -0.22188 -0.17156
#
# Static dielectric constant tensor:
#      x y z
#    x 2.104910 0.000000 0.000000 
#    y 0.000000 2.024170 0.000000 
#    z 0.000000 0.000000 2.008530 
# 
# From -- ./inp_files/6922.got.cif
#   From: 2010.05.17/outbox.cif.g08.bks.cpg/sg58_4_cif.got.tgz:6922.got - 2010.06.03 14:20:14.
