data_PCOD9441142
_publ_section_title
;
Structure prediction by ZEFSAII (Michael W. Deem and Ramdas Pophale) SiO2 
 PCOD9441142
Probable space group: P N N M
;
_chemical_formula_sum "Si O2"
_cell_formula_units_Z 64
_cell_length_a 20.954611
_cell_length_b 19.658751
_cell_length_c 9.010013
_cell_angle_alpha 90.000000
_cell_angle_beta 90.000000
_cell_angle_gamma 90.000000
_cell_volume 3711.598090
_symmetry_space_group_name_H-M "P N N M"
_symmetry_group_IT_number 58
_symmetry_cell_setting 'orthorhombic'
loop_
_space_group_symop_operation_xyz
x,y,z
-x,-y,z
1/2+x,1/2-y,1/2-z
1/2-x,1/2+y,1/2-z
-x,-y,-z
x,y,-z
1/2-x,1/2+y,1/2+z
1/2+x,1/2-y,1/2+z
loop_
_atom_site_type_symbol
_atom_site_label
_atom_site_fract_x
_atom_site_fract_y
_atom_site_fract_z
Si Si1 0.781054 0.818062 0.328479
Si Si2 0.701354 0.482419 0.828703
Si Si3 0.457143 0.932178 0.826263
Si Si4 0.849147 0.335065 0.677476
Si Si5 0.168920 0.506249 0.677943
Si Si6 0.936698 0.961783 0.680977
Si Si7 0.923383 0.803688 0.679573
Si Si8 0.480582 0.197303 0.323391
O O1 0.769033 0.798992 0.500000
O O2 0.791953 0.899991 0.326603
O O3 0.718601 0.805160 0.231056
O O4 0.849363 0.787828 0.280584
O O5 0.761572 0.510326 0.740586
O O6 0.630125 0.495300 0.769311
O O7 0.705397 0.504158 0.000000
O O8 0.488360 0.873729 0.729497
O O9 0.500000 0.000000 0.821541
O O10 0.386809 0.955002 0.775723
O O11 0.455026 0.910151 0.000000
O O12 0.854986 0.331208 0.500000
O O13 0.848453 0.415699 0.720451
O O14 0.909733 0.300809 0.754229
O O15 0.170607 0.505535 0.500000
O O16 0.934942 0.964042 0.500000
O O17 0.936810 0.882245 0.720559
O O18 0.000000 0.000000 0.731551
O O19 0.927755 0.798191 0.500000
O O20 0.973884 0.755225 0.756678
O O21 0.477424 0.201321 0.500000
#
# Coordination Sequence:
#
# PCOD9441142 Si02
#       8
#     8   8   8   8   8   8   8   8
#     4   8  15  29  49  74  99 125 163 209 254 301
#     4   8  14  25  45  74 103 127 155 200 249 294
#     4  10  19  35  53  71  99 135 176 213 255 313
#     4  10  18  31  51  75 100 131 170 210 257 307
#     4   9  17  29  48  71  97 129 166 207 247 302
#     4   8  14  28  54  83 104 127 166 209 251 302
#     4   9  18  34  55  76 103 138 171 207 261 317
#     4  12  24  34  49  75 106 137 176 220 259 302
#
# _framework density 17.243247
#
# number of rings (size 3 to 8) (size 9 to 14) (size 15 to 20)
#    0.000    2.750    1.250    3.000    0.000    1.750 
#    0.000    1.875    2.750    1.500    0.000    0.000 
#    0.000    0.000    0.000    0.000    0.000    0.000 
#
# Total GULP energy -356630.869820 kJ/mol
# GULP energy per Si atom -5572.357341 kJ/mol
# Density = 1.720400 g / cm^3
# Si number density = 17.243247 Si / 1000 Ang^3
#
#
#
# Elastic Constant Matrix: (Units=GPa)
#
#
# Indices 1 2 3 4 5 6 
#
# 1 184.8504 45.7358 56.0390 0.0000 0.0000 0.0000
# 2 45.7358 33.9273 22.8468 0.0000 0.0000 0.0000
# 3 56.0390 22.8468 46.7306 0.0000 0.0000 0.0000
# 4 0.0000 0.0000 0.0000 14.8771 0.0000 0.0000
# 5 0.0000 0.0000 0.0000 0.0000 27.3097 0.0000
# 6 0.0000 0.0000 0.0000 0.0000 0.0000 27.3311
#
#
#
# Elastic Compliance Matrix: (Units=1/GPa)
#
#
# Indices 1 2 3 4 5 6 
#
# 1 0.009721 -0.007833 -0.007828 0.000000 0.000000 0.000000
# 2 -0.007833 0.050254 -0.015176 0.000000 0.000000 0.000000
# 3 -0.007828 -0.015176 0.038206 0.000000 0.000000 0.000000
# 4 0.000000 0.000000 0.000000 0.067217 0.000000 0.000000
# 5 0.000000 0.000000 0.000000 0.000000 0.036617 0.000000
# 6 0.000000 0.000000 0.000000 0.000000 0.000000 0.036588
#
#
# Mechanical properties :
#
#
# Convention : Reuss Voigt Hill
#
# Bulk Modulus (GPa) = 27.39192 57.19462 42.29327
# Shear Modulus (GPa) = 16.00281 23.29604 19.64942
#
# Velocity S-wave (km/s) = 3.04972 3.67962 3.37937
# Velocity P-wave (km/s) = 5.32176 7.16199 6.30932
#
# Compressibility (1/GPa) = 0.03650712
#
# Stress axis : x y z
#
# Youngs Moduli (GPa) = 102.87177 19.89897 26.17417
#
# Poissons Ratio (x) = 0.15587 0.20488
# Poissons Ratio (y) = 0.80581 0.39722
# Poissons Ratio (z) = 0.80523 0.30199
#
# Static dielectric constant tensor:
#      x y z
#    x 1.609810 0.000000 0.000000 
#    y 0.000000 1.570660 0.000000 
#    z 0.000000 0.000000 1.576030 
# 
# From -- ./inp_files/9401.got.cif
#   From: 2010.05.17/outbox.cif.g08.bks.cpg/sg58_5_cif.got.tgz:9401.got - 2010.06.03 14:20:14.
