data_PCOD9441625
_publ_section_title
;
Structure prediction by ZEFSAII (Michael W. Deem and Ramdas Pophale) SiO2 
 PCOD9441625
Probable space group: P N N M
;
_chemical_formula_sum "Si O2"
_cell_formula_units_Z 64
_cell_length_a 7.047667
_cell_length_b 14.814538
_cell_length_c 32.291246
_cell_angle_alpha 90.000000
_cell_angle_beta 90.000000
_cell_angle_gamma 90.000000
_cell_volume 3371.462171
_symmetry_space_group_name_H-M "P N N M"
_symmetry_group_IT_number 58
_symmetry_cell_setting 'orthorhombic'
loop_
_space_group_symop_operation_xyz
x,y,z
-x,-y,z
1/2+x,1/2-y,1/2-z
1/2-x,1/2+y,1/2-z
-x,-y,-z
x,y,-z
1/2-x,1/2+y,1/2+z
1/2+x,1/2-y,1/2+z
loop_
_atom_site_type_symbol
_atom_site_label
_atom_site_fract_x
_atom_site_fract_y
_atom_site_fract_z
Si Si1 0.348681 0.418514 0.758623
Si Si2 0.971394 0.608155 0.546687
Si Si3 0.334551 0.278527 0.175740
Si Si4 0.415369 0.116597 0.766473
Si Si5 0.389778 0.248308 0.301932
Si Si6 0.277906 0.019218 0.843371
Si Si7 0.316753 0.333847 0.617914
Si Si8 0.772337 0.810920 0.902578
O O1 0.376735 0.374505 0.804155
O O2 0.388568 0.337798 0.726128
O O3 0.332698 0.428891 0.644047
O O4 0.116556 0.424057 0.750035
O O5 0.902944 0.624258 0.500000
O O6 0.834710 0.642791 0.582973
O O7 0.000000 0.500000 0.551002
O O8 0.165896 0.661604 0.555870
O O9 0.447490 0.201291 0.201788
O O10 0.335840 0.261436 0.126500
O O11 0.111261 0.263592 0.186752
O O12 0.324998 0.164336 0.726347
O O13 0.280550 0.056635 0.796465
O O14 0.281932 0.263025 0.345157
O O15 0.233729 0.099136 0.874230
O O16 0.500000 0.000000 0.849170
O O17 0.500000 0.500000 0.755957
O O18 0.503803 0.297712 0.594788
#
# Coordination Sequence:
#
# PCOD9441625 Si02
#       8
#     8   8   8   8   8   8   8   8
#     4  10  19  31  46  73 100 133 174 224 265 302
#     4  11  23  37  51  76 105 131 170 221 274 321
#     4   8  18  33  49  66  96 132 181 215 259 312
#     4   9  19  32  47  65 100 134 171 228 256 301
#     4   9  19  33  47  70  94 134 181 216 261 305
#     4  11  18  29  49  72  95 132 180 212 251 300
#     4  11  20  33  54  74  95 136 179 219 255 319
#     4  10  19  34  54  72  96 135 174 212 264 311
#
# _framework density 18.982862999999998
#
# number of rings (size 3 to 8) (size 9 to 14) (size 15 to 20)
#    0.000    2.125    2.500    1.125    1.750    6.500 
#    0.000    1.250    0.000    0.000    0.000    0.000 
#    0.000    0.500    0.000   10.500    0.000    0.750 
#
# Total GULP energy -356559.339238 kJ/mol
# GULP energy per Si atom -5571.239676 kJ/mol
# Density = 1.893966 g / cm^3
# Si number density = 18.982863 Si / 1000 Ang^3
#
#
#
# Elastic Constant Matrix: (Units=GPa)
#
#
# Indices 1 2 3 4 5 6 
#
# 1 74.7129 20.5945 30.3106 0.0000 0.0000 0.0000
# 2 20.5945 41.0107 29.9378 0.0000 0.0000 0.0000
# 3 30.3106 29.9378 109.6466 0.0000 0.0000 0.0000
# 4 0.0000 0.0000 0.0000 23.3014 0.0000 0.0000
# 5 0.0000 0.0000 0.0000 0.0000 15.6713 0.0000
# 6 0.0000 0.0000 0.0000 0.0000 0.0000 19.6261
#
#
#
# Elastic Compliance Matrix: (Units=1/GPa)
#
#
# Indices 1 2 3 4 5 6 
#
# 1 0.016204 -0.006079 -0.002820 0.000000 0.000000 0.000000
# 2 -0.006079 0.032734 -0.007257 0.000000 0.000000 0.000000
# 3 -0.002820 -0.007257 0.011881 0.000000 0.000000 0.000000
# 4 0.000000 0.000000 0.000000 0.042916 0.000000 0.000000
# 5 0.000000 0.000000 0.000000 0.000000 0.063811 0.000000
# 6 0.000000 0.000000 0.000000 0.000000 0.000000 0.050953
#
#
# Mechanical properties :
#
#
# Convention : Reuss Voigt Hill
#
# Bulk Modulus (GPa) = 35.07800 43.00625 39.04212
# Shear Modulus (GPa) = 19.20761 21.35492 20.28127
#
# Velocity S-wave (km/s) = 3.18439 3.35768 3.27218
# Velocity P-wave (km/s) = 5.66033 6.14300 5.90660
#
# Compressibility (1/GPa) = 0.02850790
#
# Stress axis : x y z
#
# Youngs Moduli (GPa) = 61.71261 30.54889 84.16654
#
# Poissons Ratio (x) = 0.18570 0.23732
# Poissons Ratio (y) = 0.37515 0.61082
# Poissons Ratio (z) = 0.17401 0.22170
#
# Static dielectric constant tensor:
#      x y z
#    x 1.809320 0.000000 0.000000 
#    y 0.000000 1.746460 0.000000 
#    z 0.000000 0.000000 1.670210 
# 
# From -- ./inp_files/33422.got.cif
#   From: 2010.05.17/outbox.cif.g08.bks.cpg/sg58_17_cif.got.tgz:33422.got - 2010.06.03 14:20:14.
