data_PCOD9441248
_publ_section_title
;
Structure prediction by ZEFSAII (Michael W. Deem and Ramdas Pophale) SiO2 
 PCOD9441248
Probable space group: P N N M
;
_chemical_formula_sum "Si O2"
_cell_formula_units_Z 48
_cell_length_a 14.507374
_cell_length_b 21.084944
_cell_length_c 7.495555
_cell_angle_alpha 90.000000
_cell_angle_beta 90.000000
_cell_angle_gamma 90.000000
_cell_volume 2292.794094
_symmetry_space_group_name_H-M "P N N M"
_symmetry_group_IT_number 58
_symmetry_cell_setting 'orthorhombic'
loop_
_space_group_symop_operation_xyz
x,y,z
-x,-y,z
1/2+x,1/2-y,1/2-z
1/2-x,1/2+y,1/2-z
-x,-y,-z
x,y,-z
1/2-x,1/2+y,1/2+z
1/2+x,1/2-y,1/2+z
loop_
_atom_site_type_symbol
_atom_site_label
_atom_site_fract_x
_atom_site_fract_y
_atom_site_fract_z
Si Si1 0.751435 0.611793 0.713976
Si Si2 0.952367 0.565433 0.718524
Si Si3 0.741310 0.257637 0.213493
Si Si4 0.067196 0.686527 0.712336
Si Si5 0.044940 0.192299 0.281253
Si Si6 0.048971 0.936365 0.713656
O O1 0.758081 0.615341 0.500000
O O2 0.846821 0.579037 0.775693
O O3 0.745129 0.685114 0.780700
O O4 0.657791 0.573740 0.753577
O O5 0.951281 0.564496 0.500000
O O6 0.000000 0.500000 0.775724
O O7 0.016144 0.624038 0.778997
O O8 0.825601 0.303883 0.254127
O O9 0.647018 0.289131 0.277192
O O10 0.734360 0.252185 0.000000
O O11 0.052987 0.685657 0.500000
O O12 0.019795 0.750489 0.780007
O O13 0.044075 0.191033 0.500000
O O14 0.004651 0.125741 0.218945
O O15 0.038495 0.937052 0.500000
O O16 0.000000 0.000000 0.782446
#
# Coordination Sequence:
#
# PCOD9441248 Si02
#       6
#     8   8   8   8   8   8
#     4  10  19  33  54  77 101 134 172 214 263 304
#     4   9  18  33  54  79 106 136 171 210 257 314
#     4  10  19  32  52  77 103 134 173 216 258 300
#     4  10  18  32  54  77 100 133 174 211 251 303
#     4   9  17  32  52  72  99 135 172 205 246 306
#     4  10  21  36  54  76 104 140 175 208 253 310
#
# _framework density 20.935155000000002
#
# number of rings (size 3 to 8) (size 9 to 14) (size 15 to 20)
#    0.000    2.333    3.333    0.000    0.000    1.667 
#    0.000    2.500    0.000    1.000    0.000    0.000 
#    0.000    0.000    0.000    0.000    0.000    0.000 
#
# Total GULP energy -267953.795536 kJ/mol
# GULP energy per Si atom -5582.370740 kJ/mol
# Density = 2.088751 g / cm^3
# Si number density = 20.935155 Si / 1000 Ang^3
#
#
#
# Elastic Constant Matrix: (Units=GPa)
#
#
# Indices 1 2 3 4 5 6 
#
# 1 144.2137 68.7784 -3.9482 0.0000 0.0000 0.0000
# 2 68.7784 149.6081 14.3945 0.0000 0.0000 0.0000
# 3 -3.9482 14.3945 55.3276 0.0000 0.0000 0.0000
# 4 0.0000 0.0000 0.0000 -3.9334 0.0000 0.0000
# 5 0.0000 0.0000 0.0000 0.0000 11.3338 0.0000
# 6 0.0000 0.0000 0.0000 0.0000 0.0000 34.7188
#
#
#
# Elastic Compliance Matrix: (Units=1/GPa)
#
#
# Indices 1 2 3 4 5 6 
#
# 1 0.009048 -0.004330 0.001772 0.000000 0.000000 0.000000
# 2 -0.004330 0.008928 -0.002632 0.000000 0.000000 0.000000
# 3 0.001772 -0.002632 0.018885 0.000000 0.000000 0.000000
# 4 0.000000 0.000000 0.000000 -0.254233 0.000000 0.000000
# 5 0.000000 0.000000 0.000000 0.000000 0.088231 0.000000
# 6 0.000000 0.000000 0.000000 0.000000 0.000000 0.028803
#
#
# Mechanical properties :
#
#
# Convention : Reuss Voigt Hill
#
# Bulk Modulus (GPa) = 37.76170 56.39987 47.08078
# Shear Modulus (GPa) = -61.62810 26.41883 -17.60464
#
# Velocity S-wave (km/s) = -5.43153 3.55623 -2.90300
# Velocity P-wave (km/s) = 4.61072 6.62277 3.36172
#
# Compressibility (1/GPa) = 0.02648186
#
# Stress axis : x y z
#
# Youngs Moduli (GPa) = 110.52520 112.00808 52.95121
#
# Poissons Ratio (x) = 0.48499 -0.09384
# Poissons Ratio (y) = 0.47857 0.13935
# Poissons Ratio (z) = -0.19587 0.29478
#
# Static dielectric constant tensor:
#      x y z
#    x 1.772930 0.000000 0.000000 
#    y 0.000000 1.727580 0.000000 
#    z 0.000000 0.000000 1.798780 
# 
# From -- ./inp_files/5874.got.cif
#   From: 2010.05.17/outbox.cif.g08.bks.cpg/sg58_3_cif.got.tgz:5874.got - 2010.06.03 14:20:14.
