data_PCOD9441372
_publ_section_title
;
Structure prediction by ZEFSAII (Michael W. Deem and Ramdas Pophale) SiO2 
 PCOD9441372
Probable space group: P N N M
;
_chemical_formula_sum "Si O2"
_cell_formula_units_Z 52
_cell_length_a 18.679083
_cell_length_b 5.168141
_cell_length_c 27.497490
_cell_angle_alpha 90.000000
_cell_angle_beta 90.000000
_cell_angle_gamma 90.000000
_cell_volume 2654.501398
_symmetry_space_group_name_H-M "P N N M"
_symmetry_group_IT_number 58
_symmetry_cell_setting 'orthorhombic'
loop_
_space_group_symop_operation_xyz
x,y,z
-x,-y,z
1/2+x,1/2-y,1/2-z
1/2-x,1/2+y,1/2-z
-x,-y,-z
x,y,-z
1/2-x,1/2+y,1/2+z
1/2+x,1/2-y,1/2+z
loop_
_atom_site_type_symbol
_atom_site_label
_atom_site_fract_x
_atom_site_fract_y
_atom_site_fract_z
Si Si1 0.665843 0.554704 0.558230
Si Si2 0.580152 0.053918 0.440752
Si Si3 0.631983 0.217873 0.250199
Si Si4 0.235415 0.620547 0.194692
Si Si5 0.571586 0.900130 0.836518
Si Si6 0.000000 0.000000 0.261288
Si Si7 0.226128 0.626067 0.632835
O O1 0.672301 0.559743 0.500000
O O2 0.607732 0.336986 0.572231
O O3 0.738548 0.457807 0.582545
O O4 0.635754 0.831825 0.574884
O O5 0.578420 0.042737 0.500000
O O6 0.500000 0.000000 0.423381
O O7 0.701196 0.388729 0.235555
O O8 0.561667 0.359796 0.270474
O O9 0.662196 0.972237 0.279686
O O10 0.601502 0.123043 0.198626
O O11 0.248342 0.396483 0.155178
O O12 0.245349 0.897237 0.168913
O O13 0.545321 0.684280 0.797979
O O14 0.640342 0.843034 0.868711
O O15 0.500000 0.000000 0.862494
#
# Coordination Sequence:
#
# PCOD9441372 Si02
#       7
#     8   8   8   8   8   4   8
#     4  10  20  35  58  85 112 146 190 238 288 338
#     4   9  17  32  57  83 104 134 180 232 281 334
#     4  10  20  34  55  81 108 145 187 232 275 332
#     4  11  22  34  58  81 113 146 189 224 281 338
#     4   9  19  33  53  80 108 142 190 231 270 321
#     4  10  18  34  56  80 105 144 191 234 270 322
#     4  11  22  37  55  84 112 149 185 239 282 333
#
# _framework density 19.589365999999998
#
# number of rings (size 3 to 8) (size 9 to 14) (size 15 to 20)
#    0.000    2.000    1.538    3.231    2.154    1.846 
#    0.000    0.000    6.769    1.385    0.000    0.538 
#    0.000    0.000    0.000    0.000    0.000    0.000 
#
# Total GULP energy -289809.775204 kJ/mol
# GULP energy per Si atom -5573.264908 kJ/mol
# Density = 1.954478 g / cm^3
# Si number density = 19.589366 Si / 1000 Ang^3
#
#
#
# Elastic Constant Matrix: (Units=GPa)
#
#
# Indices 1 2 3 4 5 6 
#
# 1 110.0804 11.3412 18.5529 0.0000 0.0000 0.0000
# 2 11.3412 80.8911 10.0062 0.0000 0.0000 0.0000
# 3 18.5529 10.0062 19.3345 0.0000 0.0000 0.0000
# 4 0.0000 0.0000 0.0000 16.0754 0.0000 0.0000
# 5 0.0000 0.0000 0.0000 0.0000 21.1953 0.0000
# 6 0.0000 0.0000 0.0000 0.0000 0.0000 35.3914
#
#
#
# Elastic Compliance Matrix: (Units=1/GPa)
#
#
# Indices 1 2 3 4 5 6 
#
# 1 0.010842 -0.000249 -0.010274 0.000000 0.000000 0.000000
# 2 -0.000249 0.013214 -0.006599 0.000000 0.000000 0.000000
# 3 -0.010274 -0.006599 0.064995 0.000000 0.000000 0.000000
# 4 0.000000 0.000000 0.000000 0.062207 0.000000 0.000000
# 5 0.000000 0.000000 0.000000 0.000000 0.047180 0.000000
# 6 0.000000 0.000000 0.000000 0.000000 0.000000 0.028255
#
#
# Mechanical properties :
#
#
# Convention : Reuss Voigt Hill
#
# Bulk Modulus (GPa) = 18.24656 32.23407 25.24032
# Shear Modulus (GPa) = 17.90785 25.89281 21.90033
#
# Velocity S-wave (km/s) = 3.02679 3.63957 3.34723
# Velocity P-wave (km/s) = 4.64220 5.84402 5.27743
#
# Compressibility (1/GPa) = 0.05480485
#
# Stress axis : x y z
#
# Youngs Moduli (GPa) = 92.23752 75.67986 15.38569
#
# Poissons Ratio (x) = 0.01885 0.15808
# Poissons Ratio (y) = 0.02298 0.10154
# Poissons Ratio (z) = 0.94768 0.49944
#
# Static dielectric constant tensor:
#      x y z
#    x 1.769730 0.000000 0.000000 
#    y 0.000000 1.768530 0.000000 
#    z 0.000000 0.000000 1.688300 
# 
# From -- ./inp_files/35116.got.cif
#   From: 2010.05.17/outbox.cif.g08.bks.cpg/sg58_18_cif.got.tgz:35116.got - 2010.06.03 14:20:14.
