data_PCOD9441064
_publ_section_title
;
Structure prediction by ZEFSAII (Michael W. Deem and Ramdas Pophale) SiO2 
 PCOD9441064
Probable space group: P N N M
;
_chemical_formula_sum "Si O2"
_cell_formula_units_Z 32
_cell_length_a 12.575027
_cell_length_b 12.867654
_cell_length_c 7.598668
_cell_angle_alpha 90.000000
_cell_angle_beta 90.000000
_cell_angle_gamma 90.000000
_cell_volume 1229.548801
_symmetry_space_group_name_H-M "P N N M"
_symmetry_group_IT_number 58
_symmetry_cell_setting 'orthorhombic'
loop_
_space_group_symop_operation_xyz
x,y,z
-x,-y,z
1/2+x,1/2-y,1/2-z
1/2-x,1/2+y,1/2-z
-x,-y,-z
x,y,-z
1/2-x,1/2+y,1/2+z
1/2+x,1/2-y,1/2+z
loop_
_atom_site_type_symbol
_atom_site_label
_atom_site_fract_x
_atom_site_fract_y
_atom_site_fract_z
Si Si1 0.027216 0.365844 0.700745
Si Si2 0.722470 0.021816 0.788958
Si Si3 0.136102 0.163999 0.203799
Si Si4 0.911091 0.176003 0.288966
O O1 0.999011 0.390561 0.500000
O O2 0.102298 0.456762 0.777705
O O3 0.116076 0.272273 0.698976
O O4 0.930063 0.296013 0.775427
O O5 0.805654 0.114415 0.754197
O O6 0.780885 0.918119 0.723723
O O7 0.714131 0.012577 0.000000
O O8 0.015908 0.119265 0.214216
O O9 0.162450 0.187161 0.000000
O O10 0.919016 0.179176 0.500000
#
# Coordination Sequence:
#
# PCOD9441064 Si02
#       4
#     8   8   8   8
#     4   8  18  32  43  64  95 121 145 184 226 263
#     4  10  18  30  49  67  91 123 149 181 227 266
#     4   9  17  29  46  69  92 116 150 185 221 267
#     4   9  18  30  45  68  95 117 147 186 224 265
#
# _framework density 26.025808999999999
#
# number of rings (size 3 to 8) (size 9 to 14) (size 15 to 20)
#    1.500    1.500    0.000    1.500    0.000    6.000 
#    0.000    0.000    0.000    1.500    0.000   10.500 
#    0.000    0.000    0.000    0.000    0.000    0.000 
#
# Total GULP energy -178240.043284 kJ/mol
# GULP energy per Si atom -5570.001353 kJ/mol
# Density = 2.596657 g / cm^3
# Si number density = 26.025809 Si / 1000 Ang^3
#
#
#
# Elastic Constant Matrix: (Units=GPa)
#
#
# Indices 1 2 3 4 5 6 
#
# 1 160.9393 45.6019 5.3372 0.0000 0.0000 0.0000
# 2 45.6019 54.3671 14.1667 0.0000 0.0000 0.0000
# 3 5.3372 14.1667 77.6089 0.0000 0.0000 0.0000
# 4 0.0000 0.0000 0.0000 20.7275 0.0000 0.0000
# 5 0.0000 0.0000 0.0000 0.0000 6.5595 0.0000
# 6 0.0000 0.0000 0.0000 0.0000 0.0000 10.9571
#
#
#
# Elastic Compliance Matrix: (Units=1/GPa)
#
#
# Indices 1 2 3 4 5 6 
#
# 1 0.008189 -0.007058 0.000725 0.000000 0.000000 0.000000
# 2 -0.007058 0.025395 -0.004150 0.000000 0.000000 0.000000
# 3 0.000725 -0.004150 0.013593 0.000000 0.000000 0.000000
# 4 0.000000 0.000000 0.000000 0.048245 0.000000 0.000000
# 5 0.000000 0.000000 0.000000 0.000000 0.152450 0.000000
# 6 0.000000 0.000000 0.000000 0.000000 0.000000 0.091265
#
#
# Mechanical properties :
#
#
# Convention : Reuss Voigt Hill
#
# Bulk Modulus (GPa) = 38.15176 47.01411 42.58294
# Shear Modulus (GPa) = 13.55598 22.83611 18.19605
#
# Velocity S-wave (km/s) = 2.28473 2.96538 2.64702
# Velocity P-wave (km/s) = 4.65306 5.46152 5.07342
#
# Compressibility (1/GPa) = 0.02621111
#
# Stress axis : x y z
#
# Youngs Moduli (GPa) = 122.10989 39.37779 73.56819
#
# Poissons Ratio (x) = 0.27793 -0.05335
# Poissons Ratio (y) = 0.86185 0.30532
# Poissons Ratio (z) = -0.08855 0.16343
#
# Static dielectric constant tensor:
#      x y z
#    x 2.073530 0.000000 0.000000 
#    y 0.000000 2.186740 0.000000 
#    z 0.000000 0.000000 2.034000 
# 
# From -- ./inp_files/3587.got.cif
#   From: 2010.05.17/outbox.cif.g08.bks.cpg/sg58_2_cif.got.tgz:3587.got - 2010.06.03 14:20:14.
