data_PCOD9441120
_publ_section_title
;
Structure prediction by ZEFSAII (Michael W. Deem and Ramdas Pophale) SiO2 
 PCOD9441120
Probable space group: P N N M
;
_chemical_formula_sum "Si O2"
_cell_formula_units_Z 32
_cell_length_a 8.593162
_cell_length_b 5.459385
_cell_length_c 30.205820
_cell_angle_alpha 90.000000
_cell_angle_beta 90.000000
_cell_angle_gamma 90.000000
_cell_volume 1417.057104
_symmetry_space_group_name_H-M "P N N M"
_symmetry_group_IT_number 58
_symmetry_cell_setting 'orthorhombic'
loop_
_space_group_symop_operation_xyz
x,y,z
-x,-y,z
1/2+x,1/2-y,1/2-z
1/2-x,1/2+y,1/2-z
-x,-y,-z
x,y,-z
1/2-x,1/2+y,1/2+z
1/2+x,1/2-y,1/2+z
loop_
_atom_site_type_symbol
_atom_site_label
_atom_site_fract_x
_atom_site_fract_y
_atom_site_fract_z
Si Si1 0.901822 0.752758 0.723760
Si Si2 0.806488 0.747471 0.912362
Si Si3 0.822641 0.930133 0.181045
Si Si4 0.661210 0.749737 0.447845
O O1 0.823794 0.792083 0.771882
O O2 0.772889 0.680578 0.687830
O O3 0.000000 0.500000 0.725791
O O4 0.000000 0.000000 0.715207
O O5 0.769860 0.773417 0.860617
O O6 0.750790 0.494042 0.932947
O O7 0.993940 0.748135 0.922541
O O8 0.753750 0.998846 0.935293
O O9 0.000000 0.000000 0.172530
O O10 0.627923 0.756464 0.500000
#
# Coordination Sequence:
#
# PCOD9441120 Si02
#       4
#     8   8   8   8
#     4  11  26  42  60  87 127 167 207 276 320 369
#     4  10  19  29  51  79 109 156 190 239 289 391
#     4  11  22  40  63  87 117 161 220 252 311 373
#     4  10  18  31  47  80 126 152 174 246 330 372
#
# _framework density 22.58201
#
# number of rings (size 3 to 8) (size 9 to 14) (size 15 to 20)
#    0.000    1.500    2.500    6.750    3.500    4.000 
#    0.000    0.000    0.000    0.000    0.000    0.000 
#    0.000   34.000    0.000    0.000    0.000    0.000 
#
# Total GULP energy -178738.198184 kJ/mol
# GULP energy per Si atom -5585.568693 kJ/mol
# Density = 2.253061 g / cm^3
# Si number density = 22.582010 Si / 1000 Ang^3
#
#
#
# Elastic Constant Matrix: (Units=GPa)
#
#
# Indices 1 2 3 4 5 6 
#
# 1 45.3583 42.1172 26.3799 0.0000 0.0000 0.0000
# 2 42.1172 234.2676 60.5534 0.0000 0.0000 0.0000
# 3 26.3799 60.5534 132.9723 0.0000 0.0000 0.0000
# 4 0.0000 0.0000 0.0000 39.4405 0.0000 0.0000
# 5 0.0000 0.0000 0.0000 0.0000 0.8445 0.0000
# 6 0.0000 0.0000 0.0000 0.0000 0.0000 13.2077
#
#
#
# Elastic Compliance Matrix: (Units=1/GPa)
#
#
# Indices 1 2 3 4 5 6 
#
# 1 0.027980 -0.004075 -0.003695 0.000000 0.000000 0.000000
# 2 -0.004075 0.005432 -0.001665 0.000000 0.000000 0.000000
# 3 -0.003695 -0.001665 0.009012 0.000000 0.000000 0.000000
# 4 0.000000 0.000000 0.000000 0.025355 0.000000 0.000000
# 5 0.000000 0.000000 0.000000 0.000000 1.184072 0.000000
# 6 0.000000 0.000000 0.000000 0.000000 0.000000 0.075714
#
#
# Mechanical properties :
#
#
# Convention : Reuss Voigt Hill
#
# Bulk Modulus (GPa) = 42.45832 74.52213 58.49023
# Shear Modulus (GPa) = 3.69199 29.60172 16.64685
#
# Velocity S-wave (km/s) = 1.28003 3.62450 2.71804
# Velocity P-wave (km/s) = 4.58555 7.11255 5.98396
#
# Compressibility (1/GPa) = 0.02355251
#
# Stress axis : x y z
#
# Youngs Moduli (GPa) = 35.74024 184.10649 110.96767
#
# Poissons Ratio (x) = 0.75026 0.41003
# Poissons Ratio (y) = 0.14565 0.18476
# Poissons Ratio (z) = 0.13206 0.30654
#
# Static dielectric constant tensor:
#      x y z
#    x 1.860750 0.000000 0.000000 
#    y 0.000000 1.980740 0.000000 
#    z 0.000000 0.000000 1.794890 
# 
# From -- ./inp_files/33935.got.cif
#   From: 2010.05.17/outbox.cif.g08.bks.cpg/sg58_17_cif.got.tgz:33935.got - 2010.06.03 14:20:14.
