data_PCOD9441783
_publ_section_title
;
Structure prediction by ZEFSAII (Michael W. Deem and Ramdas Pophale) SiO2 
 PCOD9441783
Probable space group: P N N M
;
_chemical_formula_sum "Si O2"
_cell_formula_units_Z 56
_cell_length_a 24.015041
_cell_length_b 13.908152
_cell_length_c 7.478242
_cell_angle_alpha 90.000000
_cell_angle_beta 90.000000
_cell_angle_gamma 90.000000
_cell_volume 2497.769027
_symmetry_space_group_name_H-M "P N N M"
_symmetry_group_IT_number 58
_symmetry_cell_setting 'orthorhombic'
loop_
_space_group_symop_operation_xyz
x,y,z
-x,-y,z
1/2+x,1/2-y,1/2-z
1/2-x,1/2+y,1/2-z
-x,-y,-z
x,y,-z
1/2-x,1/2+y,1/2+z
1/2+x,1/2-y,1/2+z
loop_
_atom_site_type_symbol
_atom_site_label
_atom_site_fract_x
_atom_site_fract_y
_atom_site_fract_z
Si Si1 0.124010 0.714917 0.219704
Si Si2 0.940377 0.472493 0.790833
Si Si3 0.240723 0.430931 0.716506
Si Si4 0.632006 0.578984 0.712840
Si Si5 0.133777 0.132852 0.714555
Si Si6 0.629798 0.160944 0.215590
Si Si7 0.740067 0.856412 0.705442
O O1 0.088817 0.623425 0.283623
O O2 0.104016 0.821521 0.274088
O O3 0.188379 0.702793 0.279994
O O4 0.125303 0.710102 0.000000
O O5 0.902680 0.567531 0.779449
O O6 0.000000 0.500000 0.710498
O O7 0.949482 0.450577 0.000000
O O8 0.241792 0.435475 0.500000
O O9 0.303953 0.419722 0.780688
O O10 0.194987 0.351949 0.766182
O O11 0.219829 0.533187 0.788411
O O12 0.635195 0.586887 0.500000
O O13 0.608949 0.472013 0.746066
O O14 0.136240 0.136207 0.500000
O O15 0.108113 0.234343 0.775375
O O16 0.197898 0.136421 0.784054
O O17 0.627218 0.158129 0.000000
O O18 0.747029 0.823612 0.500000
#
# Coordination Sequence:
#
# PCOD9441783 Si02
#       7
#     8   8   8   8   8   8   8
#     4   9  16  29  49  69  93 126 159 195 242 288
#     4  10  21  36  54  76  97 120 161 213 254 289
#     4   9  16  26  42  68  98 127 159 194 228 276
#     4   9  17  29  46  69  98 131 163 191 228 284
#     4   9  18  30  45  70 101 131 162 195 232 282
#     4  10  19  32  50  70  98 131 161 198 245 294
#     4   9  15  26  45  67  95 132 164 190 232 289
#
# _framework density 22.420009
#
# number of rings (size 3 to 8) (size 9 to 14) (size 15 to 20)
#    0.000    2.714    1.429    0.857    0.000    4.286 
#    0.000    1.429    0.000    7.714    0.000    6.000 
#    0.000    0.000    0.000    0.000    0.000    0.000 
#
# Total GULP energy -312135.092538 kJ/mol
# GULP energy per Si atom -5573.840938 kJ/mol
# Density = 2.236898 g / cm^3
# Si number density = 22.420009 Si / 1000 Ang^3
#
#
#
# Elastic Constant Matrix: (Units=GPa)
#
#
# Indices 1 2 3 4 5 6 
#
# 1 23.0008 6.0545 -4.2239 0.0000 0.0000 0.0000
# 2 6.0545 160.3912 -14.4837 0.0000 0.0000 0.0000
# 3 -4.2239 -14.4837 58.2488 0.0000 0.0000 0.0000
# 4 0.0000 0.0000 0.0000 -10.0113 0.0000 0.0000
# 5 0.0000 0.0000 0.0000 0.0000 2.1868 0.0000
# 6 0.0000 0.0000 0.0000 0.0000 0.0000 8.6466
#
#
#
# Elastic Compliance Matrix: (Units=1/GPa)
#
#
# Indices 1 2 3 4 5 6 
#
# 1 0.044376 -0.001416 0.002866 0.000000 0.000000 0.000000
# 2 -0.001416 0.006423 0.001494 0.000000 0.000000 0.000000
# 3 0.002866 0.001494 0.017747 0.000000 0.000000 0.000000
# 4 0.000000 0.000000 0.000000 -0.099888 0.000000 0.000000
# 5 0.000000 0.000000 0.000000 0.000000 0.457289 0.000000
# 6 0.000000 0.000000 0.000000 0.000000 0.000000 0.115653
#
#
# Mechanical properties :
#
#
# Convention : Reuss Voigt Hill
#
# Bulk Modulus (GPa) = 13.43476 24.03718 18.73597
# Shear Modulus (GPa) = 8.92023 17.11734 13.01878
#
# Velocity S-wave (km/s) = 1.99683 2.76612 2.41234
# Velocity P-wave (km/s) = 3.36478 4.57673 4.01673
#
# Compressibility (1/GPa) = 0.07443380
#
# Stress axis : x y z
#
# Youngs Moduli (GPa) = 22.53475 155.68630 56.34711
#
# Poissons Ratio (x) = 0.22050 -0.16147
# Poissons Ratio (y) = 0.03192 -0.08421
# Poissons Ratio (z) = -0.06458 -0.23266
#
# Static dielectric constant tensor:
#      x y z
#    x 1.800750 0.000000 0.000000 
#    y 0.000000 1.914040 0.000000 
#    z 0.000000 0.000000 1.875950 
# 
# From -- ./inp_files/17482.got.cif
#   From: 2010.05.17/outbox.cif.g08.bks.cpg/sg58_9_cif.got.tgz:17482.got - 2010.06.03 14:20:14.
