data_PCOD9441220
_publ_section_title
;
Structure prediction by ZEFSAII (Michael W. Deem and Ramdas Pophale) SiO2 
 PCOD9441220
Probable space group: P N N M
;
_chemical_formula_sum "Si O2"
_cell_formula_units_Z 28
_cell_length_a 10.125265
_cell_length_b 15.744337
_cell_length_c 7.776645
_cell_angle_alpha 90.000000
_cell_angle_beta 90.000000
_cell_angle_gamma 90.000000
_cell_volume 1239.718407
_symmetry_space_group_name_H-M "P N N M"
_symmetry_group_IT_number 58
_symmetry_cell_setting 'orthorhombic'
loop_
_space_group_symop_operation_xyz
x,y,z
-x,-y,z
1/2+x,1/2-y,1/2-z
1/2-x,1/2+y,1/2-z
-x,-y,-z
x,y,-z
1/2-x,1/2+y,1/2+z
1/2+x,1/2-y,1/2+z
loop_
_atom_site_type_symbol
_atom_site_label
_atom_site_fract_x
_atom_site_fract_y
_atom_site_fract_z
Si Si1 0.703679 0.792810 0.000000
Si Si2 0.862134 0.548030 0.199190
Si Si3 0.407373 0.829986 0.000000
Si Si4 0.638193 0.416190 0.303763
Si Si5 0.511639 0.649299 0.000000
O O1 0.786896 0.825972 0.161815
O O2 0.566526 0.845729 0.000000
O O3 0.651233 0.697250 0.000000
O O4 0.849520 0.625284 0.331943
O O5 0.743259 0.482042 0.228268
O O6 0.000000 0.500000 0.238967
O O7 0.869713 0.573392 0.000000
O O8 0.407666 0.728264 0.000000
O O9 0.603807 0.440155 0.500000
O O10 0.519248 0.402165 0.172247
#
# Coordination Sequence:
#
# PCOD9441220 Si02
#       5
#     4   8   4   8   4
#     4   8  19  34  47  71 112 127 162 206 246 290
#     4  11  17  26  50  76 100 131 154 196 266 315
#     4  10  18  33  44  70 113 124 154 206 245 303
#     4  10  18  32  51  74 103 134 162 202 255 302
#     4  10  20  34  47  75 107 133 170 199 246 312
#
# _framework density 22.585771999999999
#
# number of rings (size 3 to 8) (size 9 to 14) (size 15 to 20)
#    1.714    0.286    5.714    0.429    0.000    1.143 
#    2.571    0.000    0.000    0.000    0.000    6.000 
#    0.000    0.000    0.000    0.000    0.000    0.000 
#
# Total GULP energy -156220.814368 kJ/mol
# GULP energy per Si atom -5579.314799 kJ/mol
# Density = 2.253437 g / cm^3
# Si number density = 22.585772 Si / 1000 Ang^3
#
#
#
# Elastic Constant Matrix: (Units=GPa)
#
#
# Indices 1 2 3 4 5 6 
#
# 1 78.6143 30.8181 12.3176 0.0000 0.0000 0.0000
# 2 30.8181 66.7458 11.5341 0.0000 0.0000 0.0000
# 3 12.3176 11.5341 129.7526 0.0000 0.0000 0.0000
# 4 0.0000 0.0000 0.0000 14.6284 0.0000 0.0000
# 5 0.0000 0.0000 0.0000 0.0000 -43.1228 0.0000
# 6 0.0000 0.0000 0.0000 0.0000 0.0000 50.6619
#
#
#
# Elastic Compliance Matrix: (Units=1/GPa)
#
#
# Indices 1 2 3 4 5 6 
#
# 1 0.015624 -0.007066 -0.000855 0.000000 0.000000 0.000000
# 2 -0.007066 0.018412 -0.000966 0.000000 0.000000 0.000000
# 3 -0.000855 -0.000966 0.007874 0.000000 0.000000 0.000000
# 4 0.000000 0.000000 0.000000 0.068360 0.000000 0.000000
# 5 0.000000 0.000000 0.000000 0.000000 -0.023190 0.000000
# 6 0.000000 0.000000 0.000000 0.000000 0.000000 0.019739
#
#
# Mechanical properties :
#
#
# Convention : Reuss Voigt Hill
#
# Bulk Modulus (GPa) = 41.43261 42.71692 42.07476
# Shear Modulus (GPa) = 37.69617 19.12970 28.41293
#
# Velocity S-wave (km/s) = 4.08980 2.91345 3.55068
# Velocity P-wave (km/s) = 6.37858 5.50199 5.95643
#
# Compressibility (1/GPa) = 0.02413558
#
# Stress axis : x y z
#
# Youngs Moduli (GPa) = 64.00222 54.31289 127.00010
#
# Poissons Ratio (x) = 0.38380 0.10860
# Poissons Ratio (y) = 0.45227 0.12267
# Poissons Ratio (z) = 0.05473 0.05246
#
# Static dielectric constant tensor:
#      x y z
#    x 1.819170 0.000000 0.000000 
#    y 0.000000 1.849750 0.000000 
#    z 0.000000 0.000000 1.794240 
# 
# From -- ./inp_files/5177.got.cif
#   From: 2010.05.17/outbox.cif.g08.bks.cpg/sg58_3_cif.got.tgz:5177.got - 2010.06.03 14:20:14.
