data_PCOD9441713
_publ_section_title
;
Structure prediction by ZEFSAII (Michael W. Deem and Ramdas Pophale) SiO2 
 PCOD9441713
Probable space group: P N N M
;
_chemical_formula_sum "Si O2"
_cell_formula_units_Z 64
_cell_length_a 15.780385
_cell_length_b 24.180311
_cell_length_c 8.491206
_cell_angle_alpha 90.000000
_cell_angle_beta 90.000000
_cell_angle_gamma 90.000000
_cell_volume 3240.028677
_symmetry_space_group_name_H-M "P N N M"
_symmetry_group_IT_number 58
_symmetry_cell_setting 'orthorhombic'
loop_
_space_group_symop_operation_xyz
x,y,z
-x,-y,z
1/2+x,1/2-y,1/2-z
1/2-x,1/2+y,1/2-z
-x,-y,-z
x,y,-z
1/2-x,1/2+y,1/2+z
1/2+x,1/2-y,1/2+z
loop_
_atom_site_type_symbol
_atom_site_label
_atom_site_fract_x
_atom_site_fract_y
_atom_site_fract_z
Si Si1 0.108151 0.047656 0.816730
Si Si2 0.432058 0.428739 0.815971
Si Si3 0.625151 0.687735 0.691067
Si Si4 0.711309 0.955478 0.312912
Si Si5 0.534693 0.900598 0.309361
Si Si6 0.487808 0.776022 0.689026
Si Si7 0.687141 0.193749 0.188945
Si Si8 0.857536 0.568000 0.687778
O O1 0.032714 0.075473 0.718098
O O2 0.099225 0.982115 0.780451
O O3 0.202605 0.064174 0.768429
O O4 0.092700 0.058037 0.000000
O O5 0.387907 0.373034 0.759931
O O6 0.417475 0.439211 0.000000
O O7 0.622754 0.683819 0.500000
O O8 0.550313 0.728130 0.745341
O O9 0.718052 0.710205 0.735303
O O10 0.720900 0.949587 0.500000
O O11 0.693661 0.019417 0.270912
O O12 0.626428 0.923144 0.262542
O O13 0.528258 0.904572 0.500000
O O14 0.521416 0.836670 0.261872
O O15 0.456314 0.934035 0.236061
O O16 0.489662 0.775161 0.500000
O O17 0.390844 0.771957 0.742800
O O18 0.673523 0.129312 0.235345
O O19 0.681065 0.195899 0.000000
O O20 0.848273 0.562447 0.500000
#
# Coordination Sequence:
#
# PCOD9441713 Si02
#       8
#     8   8   8   8   8   8   8   8
#     4  11  22  38  58  81 115 150 181 222 278 332
#     4  11  22  38  60  85 112 143 183 228 275 328
#     4  10  20  37  60  84 112 148 190 232 282 338
#     4  11  21  33  51  79 113 148 189 228 275 338
#     4   9  19  35  52  73 108 150 187 230 285 334
#     4   9  19  37  58  79 109 147 188 234 281 332
#     4   9  19  35  55  80 109 142 183 233 285 335
#     4  10  19  31  51  78 108 143 189 236 282 336
#
# _framework density 19.752912999999999
#
# number of rings (size 3 to 8) (size 9 to 14) (size 15 to 20)
#    0.000    2.000    0.000    4.875    0.000    5.000 
#    2.250    0.000    0.000    0.000    0.000    0.000 
#    0.000    0.000    0.000    0.000    0.000    0.000 
#
# Total GULP energy -357548.438679 kJ/mol
# GULP energy per Si atom -5586.694354 kJ/mol
# Density = 1.970795 g / cm^3
# Si number density = 19.752913 Si / 1000 Ang^3
#
#
#
# Elastic Constant Matrix: (Units=GPa)
#
#
# Indices 1 2 3 4 5 6 
#
# 1 120.8459 17.2076 1.6727 0.0000 0.0000 0.0000
# 2 17.2076 20.3698 1.9195 0.0000 0.0000 0.0000
# 3 1.6727 1.9195 18.5278 0.0000 0.0000 0.0000
# 4 0.0000 0.0000 0.0000 26.1594 0.0000 0.0000
# 5 0.0000 0.0000 0.0000 0.0000 30.5711 0.0000
# 6 0.0000 0.0000 0.0000 0.0000 0.0000 22.1494
#
#
#
# Elastic Compliance Matrix: (Units=1/GPa)
#
#
# Indices 1 2 3 4 5 6 
#
# 1 0.009406 -0.007944 -0.000026 0.000000 0.000000 0.000000
# 2 -0.007944 0.056285 -0.005114 0.000000 0.000000 0.000000
# 3 -0.000026 -0.005114 0.054505 0.000000 0.000000 0.000000
# 4 0.000000 0.000000 0.000000 0.038227 0.000000 0.000000
# 5 0.000000 0.000000 0.000000 0.000000 0.032711 0.000000
# 6 0.000000 0.000000 0.000000 0.000000 0.000000 0.045148
#
#
# Mechanical properties :
#
#
# Convention : Reuss Voigt Hill
#
# Bulk Modulus (GPa) = 10.63507 22.37145 16.50326
# Shear Modulus (GPa) = 17.01878 25.03890 21.02884
#
# Velocity S-wave (km/s) = 2.93846 3.56421 3.26635
# Velocity P-wave (km/s) = 4.11199 5.31868 4.75378
#
# Compressibility (1/GPa) = 0.09402849
#
# Stress axis : x y z
#
# Youngs Moduli (GPa) = 106.30949 17.76678 18.34689
#
# Poissons Ratio (x) = 0.14114 0.00048
# Poissons Ratio (y) = 0.84450 0.09383
# Poissons Ratio (z) = 0.00279 0.09086
#
# Static dielectric constant tensor:
#      x y z
#    x 1.712270 0.000000 0.000000 
#    y 0.000000 1.680200 0.000000 
#    z 0.000000 0.000000 1.672740 
# 
# From -- ./inp_files/6728.got.cif
#   From: 2010.05.17/outbox.cif.g08.bks.cpg/sg58_4_cif.got.tgz:6728.got - 2010.06.03 14:20:14.
