data_PCOD9441443
_publ_section_title
;
Structure prediction by ZEFSAII (Michael W. Deem and Ramdas Pophale) SiO2 
 PCOD9441443
Probable space group: P N N M
;
_chemical_formula_sum "Si O2"
_cell_formula_units_Z 40
_cell_length_a 7.188594
_cell_length_b 18.591939
_cell_length_c 13.245251
_cell_angle_alpha 90.000000
_cell_angle_beta 90.000000
_cell_angle_gamma 90.000000
_cell_volume 1770.226487
_symmetry_space_group_name_H-M "P N N M"
_symmetry_group_IT_number 58
_symmetry_cell_setting 'orthorhombic'
loop_
_space_group_symop_operation_xyz
x,y,z
-x,-y,z
1/2+x,1/2-y,1/2-z
1/2-x,1/2+y,1/2-z
-x,-y,-z
x,y,-z
1/2-x,1/2+y,1/2+z
1/2+x,1/2-y,1/2+z
loop_
_atom_site_type_symbol
_atom_site_label
_atom_site_fract_x
_atom_site_fract_y
_atom_site_fract_z
Si Si1 0.149025 0.078533 0.110068
Si Si2 0.695067 0.758843 0.108983
Si Si3 0.771592 0.627962 0.386156
Si Si4 0.921870 0.428895 0.773598
Si Si5 0.901914 0.276136 0.169044
O O1 0.240866 0.157945 0.106916
O O2 0.258736 0.042876 0.200390
O O3 0.930371 0.090537 0.125206
O O4 0.181494 0.045589 0.000000
O O5 0.586094 0.749507 0.213503
O O6 0.893473 0.720664 0.121850
O O7 0.611131 0.740407 0.000000
O O8 0.843541 0.613697 0.500000
O O9 0.720214 0.713209 0.380152
O O10 0.915973 0.603556 0.300377
O O11 0.840281 0.359369 0.831365
O O12 0.000000 0.500000 0.828141
#
# Coordination Sequence:
#
# PCOD9441443 Si02
#       5
#     8   8   8   8   8
#     4   8  17  32  50  76 111 145 182 224 279 351
#     4   9  17  31  53  79 108 142 188 244 284 332
#     4  10  20  36  60  84 112 155 199 242 294 357
#     4  11  22  34  54  85 121 151 186 242 306 362
#     4  10  18  36  54  79 112 150 198 237 281 358
#
# _framework density 22.595980000000001
#
# number of rings (size 3 to 8) (size 9 to 14) (size 15 to 20)
#    0.000    2.400    2.000    2.400    0.000    3.200 
#    0.000    2.000    0.000    2.400    0.000    0.000 
#    0.000    7.200    0.000    0.000    0.000    0.000 
#
# Total GULP energy -223152.097821 kJ/mol
# GULP energy per Si atom -5578.802446 kJ/mol
# Density = 2.254455 g / cm^3
# Si number density = 22.595980 Si / 1000 Ang^3
#
#
#
# Elastic Constant Matrix: (Units=GPa)
#
#
# Indices 1 2 3 4 5 6 
#
# 1 73.7605 4.3822 3.4905 0.0000 0.0000 0.0000
# 2 4.3822 119.0843 5.5224 0.0000 0.0000 0.0000
# 3 3.4905 5.5224 68.4722 0.0000 0.0000 0.0000
# 4 0.0000 0.0000 0.0000 13.1689 0.0000 0.0000
# 5 0.0000 0.0000 0.0000 0.0000 27.7713 0.0000
# 6 0.0000 0.0000 0.0000 0.0000 0.0000 33.1317
#
#
#
# Elastic Compliance Matrix: (Units=1/GPa)
#
#
# Indices 1 2 3 4 5 6 
#
# 1 0.013616 -0.000471 -0.000656 0.000000 0.000000 0.000000
# 2 -0.000471 0.008445 -0.000657 0.000000 0.000000 0.000000
# 3 -0.000656 -0.000657 0.014691 0.000000 0.000000 0.000000
# 4 0.000000 0.000000 0.000000 0.075936 0.000000 0.000000
# 5 0.000000 0.000000 0.000000 0.000000 0.036008 0.000000
# 6 0.000000 0.000000 0.000000 0.000000 0.000000 0.030183
#
#
# Mechanical properties :
#
#
# Convention : Reuss Voigt Hill
#
# Bulk Modulus (GPa) = 30.13440 32.01191 31.07315
# Shear Modulus (GPa) = 25.83854 31.34251 28.59053
#
# Velocity S-wave (km/s) = 3.38524 3.72840 3.56095
# Velocity P-wave (km/s) = 5.35209 5.72123 5.53974
#
# Compressibility (1/GPa) = 0.03318467
#
# Stress axis : x y z
#
# Youngs Moduli (GPa) = 73.44082 118.41041 68.06924
#
# Poissons Ratio (x) = 0.05573 0.04466
# Poissons Ratio (y) = 0.03456 0.04473
# Poissons Ratio (z) = 0.04819 0.07781
#
# Static dielectric constant tensor:
#      x y z
#    x 1.887570 0.000000 0.000000 
#    y 0.000000 1.938340 0.000000 
#    z 0.000000 0.000000 1.858260 
# 
# From -- ./inp_files/12909.got.cif
#   From: 2010.05.17/outbox.cif.g08.bks.cpg/sg58_7_cif.got.tgz:12909.got - 2010.06.03 14:20:14.
