data_PCOD9441672
_publ_section_title
;
Structure prediction by ZEFSAII (Michael W. Deem and Ramdas Pophale) SiO2 
 PCOD9441672
Probable space group: P N N M
;
_chemical_formula_sum "Si O2"
_cell_formula_units_Z 56
_cell_length_a 14.969237
_cell_length_b 22.810809
_cell_length_c 8.010001
_cell_angle_alpha 90.000000
_cell_angle_beta 90.000000
_cell_angle_gamma 90.000000
_cell_volume 2735.098194
_symmetry_space_group_name_H-M "P N N M"
_symmetry_group_IT_number 58
_symmetry_cell_setting 'orthorhombic'
loop_
_space_group_symop_operation_xyz
x,y,z
-x,-y,z
1/2+x,1/2-y,1/2-z
1/2-x,1/2+y,1/2-z
-x,-y,-z
x,y,-z
1/2-x,1/2+y,1/2+z
1/2+x,1/2-y,1/2+z
loop_
_atom_site_type_symbol
_atom_site_label
_atom_site_fract_x
_atom_site_fract_y
_atom_site_fract_z
Si Si1 0.707312 0.881672 0.196955
Si Si2 0.782688 0.608537 0.295065
Si Si3 0.894644 0.718643 0.696531
Si Si4 0.907314 0.143899 0.201092
Si Si5 0.102792 0.503479 0.295646
Si Si6 0.104211 0.147794 0.301044
Si Si7 0.911722 0.278234 0.803580
O O1 0.651008 0.937021 0.260512
O O2 0.812275 0.887480 0.230618
O O3 0.669752 0.821808 0.274545
O O4 0.692444 0.877322 0.000000
O O5 0.784514 0.609134 0.500000
O O6 0.829204 0.668864 0.236258
O O7 0.679310 0.608047 0.242672
O O8 0.840484 0.552943 0.241636
O O9 0.874950 0.723412 0.500000
O O10 0.888926 0.784784 0.766032
O O11 0.997598 0.699325 0.717768
O O12 0.894532 0.211859 0.255855
O O13 0.005449 0.125257 0.258529
O O14 0.907403 0.143336 0.000000
O O15 0.103070 0.503672 0.500000
O O16 0.000000 0.500000 0.242025
O O17 0.112467 0.149527 0.500000
O O18 0.930037 0.275261 0.000000
#
# Coordination Sequence:
#
# PCOD9441672 Si02
#       7
#     8   8   8   8   8   8   8
#     4  11  21  33  52  76 102 136 175 211 252 303
#     4   9  16  30  53  76  99 129 168 216 259 294
#     4   9  17  31  53  79 104 133 168 206 254 307
#     4   9  18  33  53  77 103 132 169 211 256 307
#     4   9  18  32  52  78 102 126 166 217 257 293
#     4  10  20  34  52  76 106 136 167 208 258 308
#     4  10  19  31  49  76 108 137 166 206 256 307
#
# _framework density 20.474584
#
# number of rings (size 3 to 8) (size 9 to 14) (size 15 to 20)
#    0.000    2.429    0.000    3.000    0.000    5.714 
#    0.000    1.429    0.000   13.714    0.000    0.000 
#    0.000    0.000    0.000    0.000    0.000    0.000 
#
# Total GULP energy -312595.791173 kJ/mol
# GULP energy per Si atom -5582.067700 kJ/mol
# Density = 2.042798 g / cm^3
# Si number density = 20.474584 Si / 1000 Ang^3
#
#
#
# Elastic Constant Matrix: (Units=GPa)
#
#
# Indices 1 2 3 4 5 6 
#
# 1 154.4787 59.7359 -1.9629 0.0000 0.0000 0.0000
# 2 59.7359 46.7332 6.8714 0.0000 0.0000 0.0000
# 3 -1.9629 6.8714 14.3868 0.0000 0.0000 0.0000
# 4 0.0000 0.0000 0.0000 7.8899 0.0000 0.0000
# 5 0.0000 0.0000 0.0000 0.0000 23.1684 0.0000
# 6 0.0000 0.0000 0.0000 0.0000 0.0000 35.5508
#
#
#
# Elastic Compliance Matrix: (Units=1/GPa)
#
#
# Indices 1 2 3 4 5 6 
#
# 1 0.014391 -0.020095 0.011561 0.000000 0.000000 0.000000
# 2 -0.020095 0.051073 -0.027135 0.000000 0.000000 0.000000
# 3 0.011561 -0.027135 0.084046 0.000000 0.000000 0.000000
# 4 0.000000 0.000000 0.000000 0.126744 0.000000 0.000000
# 5 0.000000 0.000000 0.000000 0.000000 0.043162 0.000000
# 6 0.000000 0.000000 0.000000 0.000000 0.000000 0.028129
#
#
# Mechanical properties :
#
#
# Convention : Reuss Voigt Hill
#
# Bulk Modulus (GPa) = 12.79228 38.32084 25.55656
# Shear Modulus (GPa) = 11.23748 23.38546 17.31147
#
# Velocity S-wave (km/s) = 2.34530 3.38327 2.91092
# Velocity P-wave (km/s) = 3.68719 5.83257 4.87926
#
# Compressibility (1/GPa) = 0.07817213
#
# Stress axis : x y z
#
# Youngs Moduli (GPa) = 69.48929 19.57970 11.89830
#
# Poissons Ratio (x) = 0.39344 -0.13756
# Poissons Ratio (y) = 1.39635 0.32286
# Poissons Ratio (z) = -0.80336 0.53130
#
# Static dielectric constant tensor:
#      x y z
#    x 1.725030 0.000000 0.000000 
#    y 0.000000 1.719810 0.000000 
#    z 0.000000 0.000000 1.737470 
# 
# From -- ./inp_files/6249.got.cif
#   From: 2010.05.17/outbox.cif.g08.bks.cpg/sg58_4_cif.got.tgz:6249.got - 2010.06.03 14:20:14.
