data_PCOD9441592
_publ_section_title
;
Structure prediction by ZEFSAII (Michael W. Deem and Ramdas Pophale) SiO2 
 PCOD9441592
Probable space group: P N N M
;
_chemical_formula_sum "Si O2"
_cell_formula_units_Z 64
_cell_length_a 14.774278
_cell_length_b 25.416622
_cell_length_c 7.533829
_cell_angle_alpha 90.000000
_cell_angle_beta 90.000000
_cell_angle_gamma 90.000000
_cell_volume 2829.044998
_symmetry_space_group_name_H-M "P N N M"
_symmetry_group_IT_number 58
_symmetry_cell_setting 'orthorhombic'
loop_
_space_group_symop_operation_xyz
x,y,z
-x,-y,z
1/2+x,1/2-y,1/2-z
1/2-x,1/2+y,1/2-z
-x,-y,-z
x,y,-z
1/2-x,1/2+y,1/2+z
1/2+x,1/2-y,1/2+z
loop_
_atom_site_type_symbol
_atom_site_label
_atom_site_fract_x
_atom_site_fract_y
_atom_site_fract_z
Si Si1 0.209442 0.274489 0.704335
Si Si2 0.774049 0.049259 0.783128
Si Si3 0.873525 0.947045 0.797177
Si Si4 0.046573 0.893011 0.213081
Si Si5 0.614516 0.119479 0.782129
Si Si6 0.931942 0.336927 0.285650
Si Si7 0.222204 0.158319 0.293145
Si Si8 0.083334 0.779315 0.709207
O O1 0.178426 0.270807 0.500000
O O2 0.161521 0.325984 0.778478
O O3 0.196620 0.216017 0.781532
O O4 0.317548 0.284083 0.704558
O O5 0.853339 0.089901 0.730333
O O6 0.677458 0.071347 0.723071
O O7 0.809872 0.992561 0.720900
O O8 0.769570 0.048456 0.000000
O O9 0.822108 0.891572 0.797970
O O10 0.970905 0.932980 0.715963
O O11 0.891637 0.964167 0.000000
O O12 0.028365 0.832356 0.257942
O O13 0.044664 0.896391 0.000000
O O14 0.510224 0.123419 0.726950
O O15 0.615935 0.119371 0.000000
O O16 0.927543 0.339432 0.500000
O O17 0.830995 0.345986 0.218052
O O18 0.957981 0.276658 0.235508
O O19 0.196010 0.156318 0.500000
O O20 0.099582 0.775753 0.500000
#
# Coordination Sequence:
#
# PCOD9441592 Si02
#       8
#     8   8   8   8   8   8   8   8
#     4   9  17  32  54  76 103 139 178 215 260 316
#     4   9  17  33  57  81 104 134 182 229 266 310
#     4  10  21  35  55  80 105 139 182 228 269 313
#     4  10  19  33  53  78 109 142 176 216 265 320
#     4   9  16  30  56  82 101 132 178 226 266 304
#     4   9  19  34  54  78 108 140 175 221 267 314
#     4  10  21  36  55  77 108 145 178 218 269 321
#     4  10  19  30  48  77 112 141 170 210 262 317
#
# _framework density 22.622477
#
# number of rings (size 3 to 8) (size 9 to 14) (size 15 to 20)
#    0.000    2.500    1.250    1.125    1.750    3.000 
#    0.000    1.875    0.000    5.250    0.000    0.000 
#    0.000    0.000    0.000    0.000    0.000    0.000 
#
# Total GULP energy -357268.802577 kJ/mol
# GULP energy per Si atom -5582.325040 kJ/mol
# Density = 2.257099 g / cm^3
# Si number density = 22.622477 Si / 1000 Ang^3
#
#
#
# Elastic Constant Matrix: (Units=GPa)
#
#
# Indices 1 2 3 4 5 6 
#
# 1 20.3598 -8.8604 -6.7628 0.0000 0.0000 0.0000
# 2 -8.8604 53.0867 -3.6420 0.0000 0.0000 0.0000
# 3 -6.7628 -3.6420 58.2595 0.0000 0.0000 0.0000
# 4 0.0000 0.0000 0.0000 13.8477 0.0000 0.0000
# 5 0.0000 0.0000 0.0000 0.0000 6.9020 0.0000
# 6 0.0000 0.0000 0.0000 0.0000 0.0000 33.9124
#
#
#
# Elastic Compliance Matrix: (Units=1/GPa)
#
#
# Indices 1 2 3 4 5 6 
#
# 1 0.055727 0.009787 0.007081 0.000000 0.000000 0.000000
# 2 0.009787 0.020637 0.002426 0.000000 0.000000 0.000000
# 3 0.007081 0.002426 0.018138 0.000000 0.000000 0.000000
# 4 0.000000 0.000000 0.000000 0.072214 0.000000 0.000000
# 5 0.000000 0.000000 0.000000 0.000000 0.144886 0.000000
# 6 0.000000 0.000000 0.000000 0.000000 0.000000 0.029488
#
#
# Mechanical properties :
#
#
# Convention : Reuss Voigt Hill
#
# Bulk Modulus (GPa) = 7.51370 10.35284 8.93327
# Shear Modulus (GPa) = 14.41478 20.99716 17.70597
#
# Velocity S-wave (km/s) = 2.52700 3.04987 2.80066
# Velocity P-wave (km/s) = 3.44134 4.12172 3.79680
#
# Compressibility (1/GPa) = 0.13309030
#
# Stress axis : x y z
#
# Youngs Moduli (GPa) = 17.94447 48.45653 55.13230
#
# Poissons Ratio (x) = -0.47424 -0.39037
# Poissons Ratio (y) = -0.17562 -0.13376
# Poissons Ratio (z) = -0.12706 -0.11756
#
# Static dielectric constant tensor:
#      x y z
#    x 1.835890 0.000000 0.000000 
#    y 0.000000 1.840840 0.000000 
#    z 0.000000 0.000000 1.865220 
# 
# From -- ./inp_files/6982.got.cif
#   From: 2010.05.17/outbox.cif.g08.bks.cpg/sg58_4_cif.got.tgz:6982.got - 2010.06.03 14:20:14.
