data_PCOD9441092
_publ_section_title
;
Structure prediction by ZEFSAII (Michael W. Deem and Ramdas Pophale) SiO2 
 PCOD9441092
Probable space group: P N N M
;
_chemical_formula_sum "Si O2"
_cell_formula_units_Z 64
_cell_length_a 15.135451
_cell_length_b 28.381673
_cell_length_c 8.717790
_cell_angle_alpha 90.000000
_cell_angle_beta 90.000000
_cell_angle_gamma 90.000000
_cell_volume 3744.896003
_symmetry_space_group_name_H-M "P N N M"
_symmetry_group_IT_number 58
_symmetry_cell_setting 'orthorhombic'
loop_
_space_group_symop_operation_xyz
x,y,z
-x,-y,z
1/2+x,1/2-y,1/2-z
1/2-x,1/2+y,1/2-z
-x,-y,-z
x,y,-z
1/2-x,1/2+y,1/2+z
1/2+x,1/2-y,1/2+z
loop_
_atom_site_type_symbol
_atom_site_label
_atom_site_fract_x
_atom_site_fract_y
_atom_site_fract_z
Si Si1 0.399056 0.944499 0.814328
Si Si2 0.223023 0.637744 0.685372
Si Si3 0.093484 0.176467 0.815027
Si Si4 0.717048 0.138671 0.318149
Si Si5 0.598239 0.782530 0.316463
Si Si6 0.393852 0.327941 0.683793
Si Si7 0.906001 0.719429 0.682871
Si Si8 0.898999 0.447211 0.686299
O O1 0.331657 0.907782 0.743212
O O2 0.500803 0.933756 0.768704
O O3 0.381721 0.998763 0.768310
O O4 0.394410 0.941507 0.000000
O O5 0.217057 0.639385 0.500000
O O6 0.326039 0.642290 0.726396
O O7 0.171536 0.682614 0.751777
O O8 0.172500 0.590789 0.738832
O O9 0.110232 0.227638 0.742138
O O10 0.994845 0.160374 0.771619
O O11 0.092730 0.182625 0.000000
O O12 0.710971 0.140769 0.500000
O O13 0.818260 0.142520 0.265108
O O14 0.665476 0.183274 0.247188
O O15 0.592076 0.786523 0.500000
O O16 0.618037 0.727759 0.280221
O O17 0.503334 0.794381 0.243235
O O18 0.385104 0.333230 0.500000
O O19 0.904575 0.718342 0.500000
O O20 0.898577 0.447182 0.500000
#
# Coordination Sequence:
#
# PCOD9441092 Si02
#       8
#     8   8   8   8   8   8   8   8
#     4   9  17  33  54  75 101 131 161 195 241 298
#     4  10  18  30  51  77 102 131 166 202 246 298
#     4   9  19  34  51  72 100 131 167 211 248 284
#     4  12  23  33  49  74 100 128 167 210 250 295
#     4  10  20  33  49  74 106 135 166 204 243 288
#     4   9  19  35  50  67  96 134 171 207 247 288
#     4  11  21  33  50  71  99 135 169 201 244 296
#     4   8  16  31  53  78 101 127 160 196 238 297
#
# _framework density 17.089926999999999
#
# number of rings (size 3 to 8) (size 9 to 14) (size 15 to 20)
#    0.000    2.250    0.000    5.625    0.000    6.000 
#    0.000    1.875    0.000    0.750    0.000    5.250 
#    0.000    0.000    0.000    0.000    0.000    0.000 
#
# Total GULP energy -357220.684447 kJ/mol
# GULP energy per Si atom -5581.573194 kJ/mol
# Density = 1.705103 g / cm^3
# Si number density = 17.089927 Si / 1000 Ang^3
#
#
#
# Elastic Constant Matrix: (Units=GPa)
#
#
# Indices 1 2 3 4 5 6 
#
# 1 157.8046 92.0265 44.8681 0.0000 0.0000 0.0000
# 2 92.0265 80.4889 31.6556 0.0000 0.0000 0.0000
# 3 44.8681 31.6556 35.7257 0.0000 0.0000 0.0000
# 4 0.0000 0.0000 0.0000 19.4601 0.0000 0.0000
# 5 0.0000 0.0000 0.0000 0.0000 12.7045 0.0000
# 6 0.0000 0.0000 0.0000 0.0000 0.0000 28.7912
#
#
#
# Elastic Compliance Matrix: (Units=1/GPa)
#
#
# Indices 1 2 3 4 5 6 
#
# 1 0.020262 -0.020196 -0.007552 0.000000 0.000000 0.000000
# 2 -0.020196 0.039201 -0.009370 0.000000 0.000000 0.000000
# 3 -0.007552 -0.009370 0.045777 0.000000 0.000000 0.000000
# 4 0.000000 0.000000 0.000000 0.051387 0.000000 0.000000
# 5 0.000000 0.000000 0.000000 0.000000 0.078712 0.000000
# 6 0.000000 0.000000 0.000000 0.000000 0.000000 0.034733
#
#
# Mechanical properties :
#
#
# Convention : Reuss Voigt Hill
#
# Bulk Modulus (GPa) = 32.25347 67.90219 50.07783
# Shear Modulus (GPa) = 14.09868 19.22242 16.66055
#
# Velocity S-wave (km/s) = 2.87535 3.35741 3.12569
# Velocity P-wave (km/s) = 5.47149 7.40596 6.51097
#
# Compressibility (1/GPa) = 0.03100441
#
# Stress axis : x y z
#
# Youngs Moduli (GPa) = 49.35343 25.50983 21.84480
#
# Poissons Ratio (x) = 0.51521 0.16496
# Poissons Ratio (y) = 0.99676 0.20468
# Poissons Ratio (z) = 0.37270 0.23902
#
# Static dielectric constant tensor:
#      x y z
#    x 1.589880 0.000000 0.000000 
#    y 0.000000 1.559560 0.000000 
#    z 0.000000 0.000000 1.568940 
# 
# From -- ./inp_files/7147.got.cif
#   From: 2010.05.17/outbox.cif.g08.bks.cpg/sg58_4_cif.got.tgz:7147.got - 2010.06.03 14:20:14.
