data_PCOD9441043
_publ_section_title
;
Structure prediction by ZEFSAII (Michael W. Deem and Ramdas Pophale) SiO2 
 PCOD9441043
Probable space group: P N N M
;
_chemical_formula_sum "Si O2"
_cell_formula_units_Z 48
_cell_length_a 5.323010
_cell_length_b 21.739466
_cell_length_c 22.577847
_cell_angle_alpha 90.000000
_cell_angle_beta 90.000000
_cell_angle_gamma 90.000000
_cell_volume 2612.694793
_symmetry_space_group_name_H-M "P N N M"
_symmetry_group_IT_number 58
_symmetry_cell_setting 'orthorhombic'
loop_
_space_group_symop_operation_xyz
x,y,z
-x,-y,z
1/2+x,1/2-y,1/2-z
1/2-x,1/2+y,1/2-z
-x,-y,-z
x,y,-z
1/2-x,1/2+y,1/2+z
1/2+x,1/2-y,1/2+z
loop_
_atom_site_type_symbol
_atom_site_label
_atom_site_fract_x
_atom_site_fract_y
_atom_site_fract_z
Si Si1 0.730579 0.127014 0.320280
Si Si2 0.249156 0.066074 0.121955
Si Si3 0.229984 0.107532 0.756689
Si Si4 0.249491 0.958853 0.567772
Si Si5 0.693381 0.758490 0.785043
Si Si6 0.251228 0.927724 0.929606
O O1 0.471107 0.109596 0.286477
O O2 0.744393 0.092897 0.382414
O O3 0.749972 0.201071 0.327397
O O4 0.970845 0.107750 0.279806
O O5 0.244070 0.056388 0.192445
O O6 0.500676 0.098811 0.100280
O O7 0.999690 0.098776 0.098904
O O8 0.250332 0.999834 0.089212
O O9 0.245803 0.170433 0.795824
O O10 0.244392 0.935454 0.500000
O O11 0.500000 0.000000 0.574256
O O12 0.000000 0.000000 0.576309
O O13 0.399527 0.755066 0.767174
O O14 0.254632 0.922958 0.000000
#
# Coordination Sequence:
#
# PCOD9441043 Si02
#       6
#     8   8   8   8   8   8
#     4  10  19  35  52  76 101 137 162 203 259 308
#     4  10  18  30  45  69  94 123 166 207 236 276
#     4  10  19  32  50  79 107 130 162 204 262 305
#     4  10  21  38  55  75 101 138 181 216 257 313
#     4   8  16  30  51  71  98 129 163 191 239 314
#     4  10  19  33  48  62  90 139 176 191 233 286
#
# _framework density 18.371835000000001
#
# number of rings (size 3 to 8) (size 9 to 14) (size 15 to 20)
#    0.000    2.333    0.000    4.500    0.000    0.000 
#   18.000    0.000    0.000    3.000    0.000    2.333 
#    0.000    0.000    0.000    0.000    0.000    0.000 
#
# Total GULP energy -267257.760167 kJ/mol
# GULP energy per Si atom -5567.870003 kJ/mol
# Density = 1.833002 g / cm^3
# Si number density = 18.371835 Si / 1000 Ang^3
#
#
#
# Elastic Constant Matrix: (Units=GPa)
#
#
# Indices 1 2 3 4 5 6 
#
# 1 163.6853 15.5498 41.2595 0.0000 0.0000 0.0000
# 2 15.5498 37.4304 53.6980 0.0000 0.0000 0.0000
# 3 41.2595 53.6980 117.3340 0.0000 0.0000 0.0000
# 4 0.0000 0.0000 0.0000 20.9110 0.0000 0.0000
# 5 0.0000 0.0000 0.0000 0.0000 -179.8467 0.0000
# 6 0.0000 0.0000 0.0000 0.0000 0.0000 8.7357
#
#
#
# Elastic Compliance Matrix: (Units=1/GPa)
#
#
# Indices 1 2 3 4 5 6 
#
# 1 0.006743 0.001748 -0.003171 0.000000 0.000000 0.000000
# 2 0.001748 0.078241 -0.036422 0.000000 0.000000 0.000000
# 3 -0.003171 -0.036422 0.026306 0.000000 0.000000 0.000000
# 4 0.000000 0.000000 0.000000 0.047822 0.000000 0.000000
# 5 0.000000 0.000000 0.000000 0.000000 -0.005560 0.000000
# 6 0.000000 0.000000 0.000000 0.000000 0.000000 0.114473
#
#
# Mechanical properties :
#
#
# Convention : Reuss Voigt Hill
#
# Bulk Modulus (GPa) = 28.08956 59.94049 44.01503
# Shear Modulus (GPa) = 14.06151 -16.17719 -1.05784
#
# Velocity S-wave (km/s) = 2.76956 -2.97061 -0.75964
# Velocity P-wave (km/s) = 5.05469 4.57505 4.82084
#
# Compressibility (1/GPa) = 0.03560042
#
# Stress axis : x y z
#
# Youngs Moduli (GPa) = 148.31274 12.78096 38.01383
#
# Poissons Ratio (x) = -0.02234 0.12054
# Poissons Ratio (y) = -0.25924 1.38454
# Poissons Ratio (z) = 0.47028 0.46551
#
# Static dielectric constant tensor:
#      x y z
#    x 1.608320 0.000000 0.000000 
#    y 0.000000 1.674860 0.000000 
#    z 0.000000 0.000000 1.608550 
# 
# From -- ./inp_files/24330.got.cif
#   From: 2010.05.17/outbox.cif.g08.bks.cpg/sg58_13_cif.got.tgz:24330.got - 2010.06.03 14:20:14.
