data_PCOD9441667
_publ_section_title
;
Structure prediction by ZEFSAII (Michael W. Deem and Ramdas Pophale) SiO2 
 PCOD9441667
Probable space group: P N N M
;
_chemical_formula_sum "Si O2"
_cell_formula_units_Z 40
_cell_length_a 16.046303
_cell_length_b 16.265459
_cell_length_c 8.939950
_cell_angle_alpha 90.000000
_cell_angle_beta 90.000000
_cell_angle_gamma 90.000000
_cell_volume 2333.331273
_symmetry_space_group_name_H-M "P N N M"
_symmetry_group_IT_number 58
_symmetry_cell_setting 'orthorhombic'
loop_
_space_group_symop_operation_xyz
x,y,z
-x,-y,z
1/2+x,1/2-y,1/2-z
1/2-x,1/2+y,1/2-z
-x,-y,-z
x,y,-z
1/2-x,1/2+y,1/2+z
1/2+x,1/2-y,1/2+z
loop_
_atom_site_type_symbol
_atom_site_label
_atom_site_fract_x
_atom_site_fract_y
_atom_site_fract_z
Si Si1 0.551538 0.188668 0.680515
Si Si2 0.308234 0.944056 0.678839
Si Si3 0.072923 0.569194 0.671617
Si Si4 0.869319 0.039582 0.180800
Si Si5 0.958857 0.874746 0.818565
O O1 0.544546 0.186917 0.500000
O O2 0.630432 0.131504 0.721149
O O3 0.469159 0.146960 0.749091
O O4 0.560922 0.282671 0.731309
O O5 0.305245 0.948044 0.500000
O O6 0.216916 0.934571 0.746363
O O7 0.350925 0.026767 0.742749
O O8 0.095038 0.586782 0.500000
O O9 0.000000 0.500000 0.672446
O O10 0.947795 0.096862 0.222935
O O11 0.895817 0.946981 0.227656
O O12 0.861825 0.041121 0.000000
O O13 0.956889 0.874761 0.000000
#
# Coordination Sequence:
#
# PCOD9441667 Si02
#       5
#     8   8   8   8   8
#     4   9  17  32  52  73 101 132 164 203 251 302
#     4  10  19  31  49  74 104 134 163 203 254 299
#     4   9  17  30  49  72  98 129 164 201 243 292
#     4   9  17  33  55  73  95 132 174 207 242 295
#     4   8  16  33  55  73  94 133 173 204 246 298
#
# _framework density 17.142872000000001
#
# number of rings (size 3 to 8) (size 9 to 14) (size 15 to 20)
#    0.000    3.000    0.000    2.400    0.000    3.200 
#    3.600    4.000    0.000    0.000    0.000    0.000 
#    0.000    0.000    0.000    0.000    0.000    0.000 
#
# Total GULP energy -222850.912096 kJ/mol
# GULP energy per Si atom -5571.272802 kJ/mol
# Density = 1.710385 g / cm^3
# Si number density = 17.142872 Si / 1000 Ang^3
#
#
#
# Elastic Constant Matrix: (Units=GPa)
#
#
# Indices 1 2 3 4 5 6 
#
# 1 99.0439 50.4524 34.2126 0.0000 0.0000 0.0000
# 2 50.4524 122.3029 27.3851 0.0000 0.0000 0.0000
# 3 34.2126 27.3851 33.0315 0.0000 0.0000 0.0000
# 4 0.0000 0.0000 0.0000 13.4567 0.0000 0.0000
# 5 0.0000 0.0000 0.0000 0.0000 30.7067 0.0000
# 6 0.0000 0.0000 0.0000 0.0000 0.0000 10.2509
#
#
#
# Elastic Compliance Matrix: (Units=1/GPa)
#
#
# Indices 1 2 3 4 5 6 
#
# 1 0.017033 -0.003777 -0.014510 0.000000 0.000000 0.000000
# 2 -0.003777 0.010878 -0.005106 0.000000 0.000000 0.000000
# 3 -0.014510 -0.005106 0.049537 0.000000 0.000000 0.000000
# 4 0.000000 0.000000 0.000000 0.074313 0.000000 0.000000
# 5 0.000000 0.000000 0.000000 0.000000 0.032566 0.000000
# 6 0.000000 0.000000 0.000000 0.000000 0.000000 0.097552
#
#
# Mechanical properties :
#
#
# Convention : Reuss Voigt Hill
#
# Bulk Modulus (GPa) = 32.61580 53.16428 42.89004
# Shear Modulus (GPa) = 14.75420 20.37139 17.56279
#
# Velocity S-wave (km/s) = 2.93689 3.45096 3.20425
# Velocity P-wave (km/s) = 5.52879 6.85263 6.22600
#
# Compressibility (1/GPa) = 0.03065998
#
# Stress axis : x y z
#
# Youngs Moduli (GPa) = 58.70944 91.92882 20.18709
#
# Poissons Ratio (x) = 0.34725 0.29292
# Poissons Ratio (y) = 0.22177 0.10308
# Poissons Ratio (z) = 0.85190 0.46939
#
# Static dielectric constant tensor:
#      x y z
#    x 1.560910 0.000000 0.000000 
#    y 0.000000 1.589540 0.000000 
#    z 0.000000 0.000000 1.575170 
# 
# From -- ./inp_files/5369.got.cif
#   From: 2010.05.17/outbox.cif.g08.bks.cpg/sg58_3_cif.got.tgz:5369.got - 2010.06.03 14:20:14.
