data_PCOD9441158
_publ_section_title
;
Structure prediction by ZEFSAII (Michael W. Deem and Ramdas Pophale) SiO2 
 PCOD9441158
Probable space group: P N N M
;
_chemical_formula_sum "Si O2"
_cell_formula_units_Z 64
_cell_length_a 18.564109
_cell_length_b 22.015836
_cell_length_c 9.116775
_cell_angle_alpha 90.000000
_cell_angle_beta 90.000000
_cell_angle_gamma 90.000000
_cell_volume 3726.065867
_symmetry_space_group_name_H-M "P N N M"
_symmetry_group_IT_number 58
_symmetry_cell_setting 'orthorhombic'
loop_
_space_group_symop_operation_xyz
x,y,z
-x,-y,z
1/2+x,1/2-y,1/2-z
1/2-x,1/2+y,1/2-z
-x,-y,-z
x,y,-z
1/2-x,1/2+y,1/2+z
1/2+x,1/2-y,1/2+z
loop_
_atom_site_type_symbol
_atom_site_label
_atom_site_fract_x
_atom_site_fract_y
_atom_site_fract_z
Si Si1 0.320081 0.415897 0.676417
Si Si2 0.416310 0.518681 0.826846
Si Si3 0.537591 0.815143 0.167842
Si Si4 0.515355 0.068615 0.324965
Si Si5 0.421174 0.647758 0.325257
Si Si6 0.583140 0.697951 0.673619
Si Si7 0.323426 0.883287 0.674589
Si Si8 0.372586 0.765337 0.830417
O O1 0.319232 0.420515 0.500000
O O2 0.368378 0.468689 0.745630
O O3 0.356786 0.351105 0.715934
O O4 0.240802 0.417426 0.744135
O O5 0.500000 0.500000 0.811945
O O6 0.406718 0.583909 0.751582
O O7 0.399292 0.521125 0.000000
O O8 0.532848 0.879491 0.249610
O O9 0.583565 0.762087 0.243810
O O10 0.455343 0.789526 0.170301
O O11 0.559368 0.823271 0.000000
O O12 0.503333 0.071665 0.500000
O O13 0.598994 0.085540 0.298610
O O14 0.500000 0.000000 0.275161
O O15 0.409648 0.644854 0.500000
O O16 0.505181 0.666215 0.301160
O O17 0.374809 0.701125 0.251292
O O18 0.588513 0.709549 0.500000
O O19 0.311797 0.881017 0.500000
O O20 0.328447 0.815874 0.742678
O O21 0.349659 0.760620 0.000000
#
# Coordination Sequence:
#
# PCOD9441158 Si02
#       8
#     8   8   8   8   8   8   8   8
#     4  11  22  36  54  76 106 146 185 224 273 329
#     4  11  22  34  51  78 111 146 186 229 272 321
#     4   9  17  28  48  78 106 129 161 211 261 305
#     4   9  18  34  57  81 106 139 177 218 268 328
#     4  10  18  31  52  77 105 137 177 222 265 311
#     4   9  18  31  49  73 102 137 174 212 260 315
#     4  10  20  35  55  80 107 137 178 225 274 328
#     4   9  17  31  51  76 103 132 168 211 262 315
#
# _framework density 17.176293999999999
#
# number of rings (size 3 to 8) (size 9 to 14) (size 15 to 20)
#    0.000    2.250    1.250    2.250    0.000    5.750 
#    0.000    0.000    2.750    0.000    0.000    0.000 
#    0.000    0.000    0.000    0.000    0.000    0.000 
#
# Total GULP energy -357033.144743 kJ/mol
# GULP energy per Si atom -5578.642887 kJ/mol
# Density = 1.713720 g / cm^3
# Si number density = 17.176294 Si / 1000 Ang^3
#
#
#
# Elastic Constant Matrix: (Units=GPa)
#
#
# Indices 1 2 3 4 5 6 
#
# 1 32.7044 33.3541 39.2501 0.0000 0.0000 0.0000
# 2 33.3541 159.7687 78.2501 0.0000 0.0000 0.0000
# 3 39.2501 78.2501 97.8759 0.0000 0.0000 0.0000
# 4 0.0000 0.0000 0.0000 30.5288 0.0000 0.0000
# 5 0.0000 0.0000 0.0000 0.0000 18.1341 0.0000
# 6 0.0000 0.0000 0.0000 0.0000 0.0000 20.4841
#
#
#
# Elastic Compliance Matrix: (Units=1/GPa)
#
#
# Indices 1 2 3 4 5 6 
#
# 1 0.059087 -0.001200 -0.022736 0.000000 0.000000 0.000000
# 2 -0.001200 0.010311 -0.007763 0.000000 0.000000 0.000000
# 3 -0.022736 -0.007763 0.025541 0.000000 0.000000 0.000000
# 4 0.000000 0.000000 0.000000 0.032756 0.000000 0.000000
# 5 0.000000 0.000000 0.000000 0.000000 0.055145 0.000000
# 6 0.000000 0.000000 0.000000 0.000000 0.000000 0.048818
#
#
# Mechanical properties :
#
#
# Convention : Reuss Voigt Hill
#
# Bulk Modulus (GPa) = 31.70331 65.78418 48.74374
# Shear Modulus (GPa) = 16.36293 23.12905 19.74599
#
# Velocity S-wave (km/s) = 3.08985 3.67354 3.39426
# Velocity P-wave (km/s) = 5.58813 7.50838 6.61827
#
# Compressibility (1/GPa) = 0.03154245
#
# Stress axis : x y z
#
# Youngs Moduli (GPa) = 16.92419 96.97931 39.15346
#
# Poissons Ratio (x) = 0.11638 0.89018
# Poissons Ratio (y) = 0.02031 0.30393
# Poissons Ratio (z) = 0.38478 0.75281
#
# Static dielectric constant tensor:
#      x y z
#    x 1.577300 0.000000 0.000000 
#    y 0.000000 1.568290 0.000000 
#    z 0.000000 0.000000 1.570940 
# 
# From -- ./inp_files/8387.got.cif
#   From: 2010.05.17/outbox.cif.g08.bks.cpg/sg58_5_cif.got.tgz:8387.got - 2010.06.03 14:20:14.
