data_PCOD9441294
_publ_section_title
;
Structure prediction by ZEFSAII (Michael W. Deem and Ramdas Pophale) SiO2 
 PCOD9441294
Probable space group: P N N M
;
_chemical_formula_sum "Si O2"
_cell_formula_units_Z 64
_cell_length_a 29.090059
_cell_length_b 13.108336
_cell_length_c 8.116979
_cell_angle_alpha 90.000000
_cell_angle_beta 90.000000
_cell_angle_gamma 90.000000
_cell_volume 3095.184839
_symmetry_space_group_name_H-M "P N N M"
_symmetry_group_IT_number 58
_symmetry_cell_setting 'orthorhombic'
loop_
_space_group_symop_operation_xyz
x,y,z
-x,-y,z
1/2+x,1/2-y,1/2-z
1/2-x,1/2+y,1/2-z
-x,-y,-z
x,y,-z
1/2-x,1/2+y,1/2+z
1/2+x,1/2-y,1/2+z
loop_
_atom_site_type_symbol
_atom_site_label
_atom_site_fract_x
_atom_site_fract_y
_atom_site_fract_z
Si Si1 0.695883 0.950032 0.806994
Si Si2 0.429673 0.909180 0.696329
Si Si3 0.062116 0.844935 0.298351
Si Si4 0.616237 0.454245 0.798100
Si Si5 0.172282 0.340502 0.807903
Si Si6 0.903942 0.375804 0.302199
Si Si7 0.538027 0.300742 0.802290
Si Si8 0.288942 0.632248 0.808683
O O1 0.648495 0.898220 0.746566
O O2 0.741116 0.883615 0.782588
O O3 0.701495 0.056973 0.714123
O O4 0.689647 0.972286 0.000000
O O5 0.430482 0.911249 0.500000
O O6 0.378733 0.871753 0.751663
O O7 0.462279 0.818402 0.755719
O O8 0.434278 0.025442 0.755257
O O9 0.062818 0.845533 0.500000
O O10 0.079325 0.733962 0.241568
O O11 0.008977 0.854477 0.247497
O O12 0.093656 0.939192 0.246039
O O13 0.582863 0.361920 0.741843
O O14 0.668502 0.435989 0.744281
O O15 0.616844 0.451766 0.000000
O O16 0.193047 0.247197 0.709367
O O17 0.169582 0.312363 0.000000
O O18 0.903761 0.370514 0.500000
O O19 0.539263 0.305630 0.000000
O O20 0.281264 0.608096 0.000000
#
# Coordination Sequence:
#
# PCOD9441294 Si02
#       8
#     8   8   8   8   8   8   8   8
#     4  10  21  36  55  80 110 145 186 231 284 340
#     4  10  20  34  55  79 108 144 183 229 278 329
#     4   9  18  33  55  82 110 143 184 229 278 330
#     4   9  18  32  53  83 114 143 180 229 278 327
#     4  10  20  36  56  77 105 143 185 232 279 326
#     4   9  19  36  56  78 108 146 187 232 279 331
#     4  10  18  32  57  84 109 141 185 231 275 330
#     4  11  21  34  56  85 114 144 183 229 279 340
#
# _framework density 20.677278000000001
#
# number of rings (size 3 to 8) (size 9 to 14) (size 15 to 20)
#    0.000    2.250    1.250    1.875    0.000    4.500 
#    0.000    5.625    0.000    5.250    0.000    0.000 
#    0.000    0.000    0.000    0.000    0.000    0.000 
#
# Total GULP energy -357271.368574 kJ/mol
# GULP energy per Si atom -5582.365134 kJ/mol
# Density = 2.063022 g / cm^3
# Si number density = 20.677278 Si / 1000 Ang^3
#
#
#
# Elastic Constant Matrix: (Units=GPa)
#
#
# Indices 1 2 3 4 5 6 
#
# 1 34.2634 2.2967 6.3003 0.0000 0.0000 0.0000
# 2 2.2967 84.5069 -1.8425 0.0000 0.0000 0.0000
# 3 6.3003 -1.8425 14.2982 0.0000 0.0000 0.0000
# 4 0.0000 0.0000 0.0000 8.9869 0.0000 0.0000
# 5 0.0000 0.0000 0.0000 0.0000 12.4942 0.0000
# 6 0.0000 0.0000 0.0000 0.0000 0.0000 24.2643
#
#
#
# Elastic Compliance Matrix: (Units=1/GPa)
#
#
# Indices 1 2 3 4 5 6 
#
# 1 0.031875 -0.001176 -0.014197 0.000000 0.000000 0.000000
# 2 -0.001176 0.011910 0.002053 0.000000 0.000000 0.000000
# 3 -0.014197 0.002053 0.076459 0.000000 0.000000 0.000000
# 4 0.000000 0.000000 0.000000 0.111272 0.000000 0.000000
# 5 0.000000 0.000000 0.000000 0.000000 0.080037 0.000000
# 6 0.000000 0.000000 0.000000 0.000000 0.000000 0.041213
#
#
# Mechanical properties :
#
#
# Convention : Reuss Voigt Hill
#
# Bulk Modulus (GPa) = 10.68325 16.28638 13.48482
# Shear Modulus (GPa) = 12.17710 17.57002 14.87356
#
# Velocity S-wave (km/s) = 2.42938 2.91817 2.68492
# Velocity P-wave (km/s) = 3.61207 4.38724 4.01839
#
# Compressibility (1/GPa) = 0.09360446
#
# Stress axis : x y z
#
# Youngs Moduli (GPa) = 31.37261 83.96258 13.07896
#
# Poissons Ratio (x) = 0.09872 0.18568
# Poissons Ratio (y) = 0.03689 -0.02685
# Poissons Ratio (z) = 0.44539 -0.17236
#
# Static dielectric constant tensor:
#      x y z
#    x 1.750120 0.000000 0.000000 
#    y 0.000000 1.733260 0.000000 
#    z 0.000000 0.000000 1.727460 
# 
# From -- ./inp_files/4739.got.cif
#   From: 2010.05.17/outbox.cif.g08.bks.cpg/sg58_3_cif.got.tgz:4739.got - 2010.06.03 14:20:14.
