data_PCOD9441905
_publ_section_title
;
Structure prediction by ZEFSAII (Michael W. Deem and Ramdas Pophale) SiO2 
 PCOD9441905
Probable space group: P N N M
;
_chemical_formula_sum "Si O2"
_cell_formula_units_Z 64
_cell_length_a 19.665228
_cell_length_b 20.815690
_cell_length_c 9.093439
_cell_angle_alpha 90.000000
_cell_angle_beta 90.000000
_cell_angle_gamma 90.000000
_cell_volume 3722.356423
_symmetry_space_group_name_H-M "P N N M"
_symmetry_group_IT_number 58
_symmetry_cell_setting 'orthorhombic'
loop_
_space_group_symop_operation_xyz
x,y,z
-x,-y,z
1/2+x,1/2-y,1/2-z
1/2-x,1/2+y,1/2-z
-x,-y,-z
x,y,-z
1/2-x,1/2+y,1/2+z
1/2+x,1/2-y,1/2+z
loop_
_atom_site_type_symbol
_atom_site_label
_atom_site_fract_x
_atom_site_fract_y
_atom_site_fract_z
Si Si1 0.533839 0.568468 0.176395
Si Si2 0.817796 0.110252 0.674912
Si Si3 0.823058 0.761783 0.675511
Si Si4 0.544768 0.314626 0.674700
Si Si5 0.952053 0.310869 0.825179
Si Si6 0.540596 0.064536 0.676801
Si Si7 0.819178 0.262601 0.325447
Si Si8 0.824113 0.609529 0.324855
O O1 0.500000 0.500000 0.208100
O O2 0.613650 0.572754 0.216567
O O3 0.493415 0.624400 0.258378
O O4 0.530040 0.579668 0.000000
O O5 0.806348 0.102929 0.500000
O O6 0.830862 0.186246 0.703031
O O7 0.749405 0.091323 0.759502
O O8 0.822288 0.769171 0.500000
O O9 0.883651 0.801709 0.747182
O O10 0.750633 0.779989 0.744372
O O11 0.833766 0.685745 0.709103
O O12 0.553864 0.321490 0.500000
O O13 0.498506 0.251643 0.701070
O O14 0.882619 0.301556 0.737364
O O15 0.994527 0.373905 0.783432
O O16 0.937556 0.314134 0.000000
O O17 0.550361 0.065622 0.500000
O O18 0.613495 0.071660 0.753140
O O19 0.500000 0.000000 0.715399
O O20 0.812482 0.270907 0.500000
O O21 0.824137 0.602105 0.500000
#
# Coordination Sequence:
#
# PCOD9441905 Si02
#       8
#     8   8   8   8   8   8   8   8
#     4  10  21  38  58  82 113 150 190 228 275 334
#     4   9  18  33  54  79 107 141 182 224 268 327
#     4  10  20  34  54  81 113 145 182 228 280 333
#     4  11  21  34  56  83 112 143 182 231 278 325
#     4  10  20  34  54  81 110 141 179 224 274 325
#     4  10  21  38  58  80 110 149 188 225 269 329
#     4  10  19  32  54  82 111 142 180 228 279 327
#     4  10  20  33  54  82 110 141 179 228 278 326
#
# _framework density 17.19341
#
# number of rings (size 3 to 8) (size 9 to 14) (size 15 to 20)
#    0.000    2.000    2.500    1.500    0.000    3.500 
#    0.000    1.250    0.000    3.000    0.000    0.000 
#    0.000    0.000    0.000    0.000    0.000    0.000 
#
# Total GULP energy -357293.891766 kJ/mol
# GULP energy per Si atom -5582.717059 kJ/mol
# Density = 1.715428 g / cm^3
# Si number density = 17.193410 Si / 1000 Ang^3
#
#
#
# Elastic Constant Matrix: (Units=GPa)
#
#
# Indices 1 2 3 4 5 6 
#
# 1 182.8656 73.1163 75.5348 0.0000 0.0000 0.0000
# 2 73.1163 93.6447 51.6019 0.0000 0.0000 0.0000
# 3 75.5348 51.6019 49.4687 0.0000 0.0000 0.0000
# 4 0.0000 0.0000 0.0000 19.9513 0.0000 0.0000
# 5 0.0000 0.0000 0.0000 0.0000 35.6333 0.0000
# 6 0.0000 0.0000 0.0000 0.0000 0.0000 26.7835
#
#
#
# Elastic Compliance Matrix: (Units=1/GPa)
#
#
# Indices 1 2 3 4 5 6 
#
# 1 0.014988 0.002136 -0.025114 0.000000 0.000000 0.000000
# 2 0.002136 0.025419 -0.029777 0.000000 0.000000 0.000000
# 3 -0.025114 -0.029777 0.089623 0.000000 0.000000 0.000000
# 4 0.000000 0.000000 0.000000 0.050122 0.000000 0.000000
# 5 0.000000 0.000000 0.000000 0.000000 0.028064 0.000000
# 6 0.000000 0.000000 0.000000 0.000000 0.000000 0.037336
#
#
# Mechanical properties :
#
#
# Convention : Reuss Voigt Hill
#
# Bulk Modulus (GPa) = 40.78228 80.72054 60.75141
# Shear Modulus (GPa) = 13.91848 24.85535 19.38692
#
# Velocity S-wave (km/s) = 2.84830 3.80627 3.36159
# Velocity P-wave (km/s) = 5.88118 8.14662 7.10478
#
# Compressibility (1/GPa) = 0.02452045
#
# Stress axis : x y z
#
# Youngs Moduli (GPa) = 66.72098 39.34053 11.15787
#
# Poissons Ratio (x) = -0.08405 0.28022
# Poissons Ratio (y) = -0.14254 0.33225
# Poissons Ratio (z) = 1.67561 1.17146
#
# Static dielectric constant tensor:
#      x y z
#    x 1.562290 0.000000 0.000000 
#    y 0.000000 1.564610 0.000000 
#    z 0.000000 0.000000 1.567070 
# 
# From -- ./inp_files/8245.got.cif
#   From: 2010.05.17/outbox.cif.g08.bks.cpg/sg58_5_cif.got.tgz:8245.got - 2010.06.03 14:20:14.
