data_PCOD9441852
_publ_section_title
;
Structure prediction by ZEFSAII (Michael W. Deem and Ramdas Pophale) SiO2 
 PCOD9441852
Probable space group: P N N M
;
_chemical_formula_sum "Si O2"
_cell_formula_units_Z 32
_cell_length_a 21.949365
_cell_length_b 5.016700
_cell_length_c 14.250245
_cell_angle_alpha 90.000000
_cell_angle_beta 90.000000
_cell_angle_gamma 90.000000
_cell_volume 1569.142634
_symmetry_space_group_name_H-M "P N N M"
_symmetry_group_IT_number 58
_symmetry_cell_setting 'orthorhombic'
loop_
_space_group_symop_operation_xyz
x,y,z
-x,-y,z
1/2+x,1/2-y,1/2-z
1/2-x,1/2+y,1/2-z
-x,-y,-z
x,y,-z
1/2-x,1/2+y,1/2+z
1/2+x,1/2-y,1/2+z
loop_
_atom_site_type_symbol
_atom_site_label
_atom_site_fract_x
_atom_site_fract_y
_atom_site_fract_z
Si Si1 0.248414 0.455318 0.391497
Si Si2 0.877307 0.408963 0.703863
Si Si3 0.930221 0.906479 0.391331
Si Si4 0.669109 0.049073 0.391864
O O1 0.229774 0.500533 0.500000
O O2 0.191146 0.513912 0.326992
O O3 0.303398 0.659871 0.371971
O O4 0.274871 0.159414 0.383436
O O5 0.920891 0.610889 0.647951
O O6 0.879687 0.461640 0.814714
O O7 0.891582 0.111345 0.671243
O O8 0.910002 0.918010 0.500000
O O9 0.000000 0.000000 0.387289
O O10 0.648057 0.038581 0.500000
#
# Coordination Sequence:
#
# PCOD9441852 Si02
#       4
#     8   8   8   8
#     4  10  19  32  52  82 116 147 179 216 263 322
#     4  12  21  36  60  81 109 149 184 217 271 327
#     4  11  24  40  58  82 108 136 179 234 283 324
#     4  10  21  35  53  82 118 148 179 218 259 316
#
# _framework density 20.393301000000001
#
# number of rings (size 3 to 8) (size 9 to 14) (size 15 to 20)
#    0.000    1.250    0.000    7.500    0.000    4.000 
#    0.000    0.000    0.000    4.500    0.000    0.000 
#    0.000    0.000    0.000    0.000    0.000    0.000 
#
# Total GULP energy -179023.670896 kJ/mol
# GULP energy per Si atom -5594.489715 kJ/mol
# Density = 2.034689 g / cm^3
# Si number density = 20.393301 Si / 1000 Ang^3
#
#
#
# Elastic Constant Matrix: (Units=GPa)
#
#
# Indices 1 2 3 4 5 6 
#
# 1 19.8876 -7.3150 27.6946 0.0000 0.0000 0.0000
# 2 -7.3150 53.3396 -5.6004 0.0000 0.0000 0.0000
# 3 27.6946 -5.6004 107.2290 0.0000 0.0000 0.0000
# 4 0.0000 0.0000 0.0000 24.7846 0.0000 0.0000
# 5 0.0000 0.0000 0.0000 0.0000 12.6719 0.0000
# 6 0.0000 0.0000 0.0000 0.0000 0.0000 21.5164
#
#
#
# Elastic Compliance Matrix: (Units=1/GPa)
#
#
# Indices 1 2 3 4 5 6 
#
# 1 0.082743 0.009154 -0.020892 0.000000 0.000000 0.000000
# 2 0.009154 0.019864 -0.001327 0.000000 0.000000 0.000000
# 3 -0.020892 -0.001327 0.014653 0.000000 0.000000 0.000000
# 4 0.000000 0.000000 0.000000 0.040348 0.000000 0.000000
# 5 0.000000 0.000000 0.000000 0.000000 0.078915 0.000000
# 6 0.000000 0.000000 0.000000 0.000000 0.000000 0.046476
#
#
# Mechanical properties :
#
#
# Convention : Reuss Voigt Hill
#
# Bulk Modulus (GPa) = 10.97345 23.33494 17.15419
# Shear Modulus (GPa) = 14.72731 22.83973 18.78352
#
# Velocity S-wave (km/s) = 2.69023 3.35021 3.03819
# Velocity P-wave (km/s) = 3.87845 5.14126 4.55384
#
# Compressibility (1/GPa) = 0.09112908
#
# Stress axis : x y z
#
# Youngs Moduli (GPa) = 12.08556 50.34268 68.24750
#
# Poissons Ratio (x) = -0.46083 1.42586
# Poissons Ratio (y) = -0.11063 0.09055
# Poissons Ratio (z) = 0.25250 0.06679
#
# Static dielectric constant tensor:
#      x y z
#    x 1.692450 0.000000 0.000000 
#    y 0.000000 1.694850 0.000000 
#    z 0.000000 0.000000 1.761740 
# 
# From -- ./inp_files/11725.got.cif
#   From: 2010.05.17/outbox.cif.g08.bks.cpg/sg58_6_cif.got.tgz:11725.got - 2010.06.03 14:20:14.
