data_PCOD9441290
_publ_section_title
;
Structure prediction by ZEFSAII (Michael W. Deem and Ramdas Pophale) SiO2 
 PCOD9441290
Probable space group: P N N M
;
_chemical_formula_sum "Si O2"
_cell_formula_units_Z 28
_cell_length_a 22.163558
_cell_length_b 5.220284
_cell_length_c 9.950308
_cell_angle_alpha 90.000000
_cell_angle_beta 90.000000
_cell_angle_gamma 90.000000
_cell_volume 1151.251304
_symmetry_space_group_name_H-M "P N N M"
_symmetry_group_IT_number 58
_symmetry_cell_setting 'orthorhombic'
loop_
_space_group_symop_operation_xyz
x,y,z
-x,-y,z
1/2+x,1/2-y,1/2-z
1/2-x,1/2+y,1/2-z
-x,-y,-z
x,y,-z
1/2-x,1/2+y,1/2+z
1/2+x,1/2-y,1/2+z
loop_
_atom_site_type_symbol
_atom_site_label
_atom_site_fract_x
_atom_site_fract_y
_atom_site_fract_z
Si Si1 0.041530 0.743992 0.000000
Si Si2 0.259713 0.630372 0.000000
Si Si3 0.132920 0.131332 0.300421
Si Si4 0.321884 0.637254 0.500000
Si Si5 0.434201 0.134640 0.203022
O O1 0.074539 0.694189 0.860981
O O2 0.000000 0.500000 0.000000
O O3 0.000000 0.000000 0.000000
O O4 0.303037 0.592408 0.871287
O O5 0.211594 0.406340 0.000000
O O6 0.225598 0.902180 0.000000
O O7 0.140616 0.128916 0.138696
O O8 0.111100 0.413839 0.340105
O O9 0.084935 0.915184 0.349165
O O10 0.500000 0.000000 0.182364
#
# Coordination Sequence:
#
# PCOD9441290 Si02
#       5
#     4   4   8   4   8
#     4  10  18  32  56  88 124 162 203 256 303 346
#     4  12  26  45  65  94 129 166 217 274 320 378
#     4  12  24  42  67  96 127 171 214 260 325 387
#     4  12  24  45  69  94 123 164 216 278 329 374
#     4  11  22  39  62  96 134 170 209 258 314 387
#
# _framework density 24.321363999999999
#
# number of rings (size 3 to 8) (size 9 to 14) (size 15 to 20)
#    0.000    0.571    0.000   11.143    0.000    0.000 
#    0.000    4.286    0.000    0.000    0.000    0.000 
#    0.000    0.000    0.000    0.000    0.000    0.000 
#
# Total GULP energy -156476.692072 kJ/mol
# GULP energy per Si atom -5588.453288 kJ/mol
# Density = 2.426601 g / cm^3
# Si number density = 24.321364 Si / 1000 Ang^3
#
#
#
# Elastic Constant Matrix: (Units=GPa)
#
#
# Indices 1 2 3 4 5 6 
#
# 1 57.8038 20.5155 9.3039 0.0000 0.0000 0.0000
# 2 20.5155 159.5593 15.2829 0.0000 0.0000 0.0000
# 3 9.3039 15.2829 139.3679 0.0000 0.0000 0.0000
# 4 0.0000 0.0000 0.0000 -98.8741 0.0000 0.0000
# 5 0.0000 0.0000 0.0000 0.0000 43.0867 0.0000
# 6 0.0000 0.0000 0.0000 0.0000 0.0000 71.1795
#
#
#
# Elastic Compliance Matrix: (Units=1/GPa)
#
#
# Indices 1 2 3 4 5 6 
#
# 1 0.018256 -0.002254 -0.000972 0.000000 0.000000 0.000000
# 2 -0.002254 0.006612 -0.000575 0.000000 0.000000 0.000000
# 3 -0.000972 -0.000575 0.007303 0.000000 0.000000 0.000000
# 4 0.000000 0.000000 0.000000 -0.010114 0.000000 0.000000
# 5 0.000000 0.000000 0.000000 0.000000 0.023209 0.000000
# 6 0.000000 0.000000 0.000000 0.000000 0.000000 0.014049
#
#
# Mechanical properties :
#
#
# Convention : Reuss Voigt Hill
#
# Bulk Modulus (GPa) = 40.69875 49.65951 45.17913
# Shear Modulus (GPa) = 66.57185 23.85367 45.21276
#
# Velocity S-wave (km/s) = 5.23748 3.13512 4.31626
# Velocity P-wave (km/s) = 7.30376 5.79377 6.59214
#
# Compressibility (1/GPa) = 0.02457078
#
# Stress axis : x y z
#
# Youngs Moduli (GPa) = 54.77549 151.23697 136.92780
#
# Poissons Ratio (x) = 0.34093 0.13303
# Poissons Ratio (y) = 0.12348 0.07868
# Poissons Ratio (z) = 0.05322 0.08690
#
# Static dielectric constant tensor:
#      x y z
#    x 1.866050 0.000000 0.000000 
#    y 0.000000 1.872320 0.000000 
#    z 0.000000 0.000000 2.081610 
# 
# From -- ./inp_files/16738.got.cif
#   From: 2010.05.17/outbox.cif.g08.bks.cpg/sg58_9_cif.got.tgz:16738.got - 2010.06.03 14:20:14.
