data_PCOD9441242
_publ_section_title
;
Structure prediction by ZEFSAII (Michael W. Deem and Ramdas Pophale) SiO2 
 PCOD9441242
Probable space group: P N N M
;
_chemical_formula_sum "Si O2"
_cell_formula_units_Z 64
_cell_length_a 20.898490
_cell_length_b 8.885621
_cell_length_c 18.216302
_cell_angle_alpha 90.000000
_cell_angle_beta 90.000000
_cell_angle_gamma 90.000000
_cell_volume 3382.695539
_symmetry_space_group_name_H-M "P N N M"
_symmetry_group_IT_number 58
_symmetry_cell_setting 'orthorhombic'
loop_
_space_group_symop_operation_xyz
x,y,z
-x,-y,z
1/2+x,1/2-y,1/2-z
1/2-x,1/2+y,1/2-z
-x,-y,-z
x,y,-z
1/2-x,1/2+y,1/2+z
1/2+x,1/2-y,1/2+z
loop_
_atom_site_type_symbol
_atom_site_label
_atom_site_fract_x
_atom_site_fract_y
_atom_site_fract_z
Si Si1 0.045244 0.286095 0.234503
Si Si2 0.247445 0.409679 0.831263
Si Si3 0.088391 0.623476 0.279069
Si Si4 0.486354 0.177908 0.419695
Si Si5 0.296542 0.473959 0.582991
Si Si6 0.829046 0.869410 0.228703
Si Si7 0.841840 0.330526 0.864169
Si Si8 0.171141 0.671176 0.583344
O O1 0.071312 0.456170 0.249138
O O2 0.100723 0.172632 0.257161
O O3 0.976775 0.281649 0.274071
O O4 0.027554 0.263574 0.148705
O O5 0.210481 0.284933 0.783023
O O6 0.288921 0.520187 0.780325
O O7 0.193486 0.510175 0.871601
O O8 0.293041 0.320030 0.886814
O O9 0.141202 0.686338 0.222264
O O10 0.116708 0.625697 0.359636
O O11 0.500938 0.242610 0.500000
O O12 0.410780 0.187934 0.402542
O O13 0.500000 0.000000 0.421392
O O14 0.321136 0.496387 0.500000
O O15 0.334645 0.557760 0.647631
O O16 0.297690 0.299713 0.604169
O O17 0.225784 0.543212 0.585764
O O18 0.149304 0.689699 0.500000
#
# Coordination Sequence:
#
# PCOD9441242 Si02
#       8
#     8   8   8   8   8   8   8   8
#     4  10  20  36  58  86 112 148 205 243 278 341
#     4  11  22  34  61  87 118 149 194 238 294 357
#     4  10  19  37  60  84 111 150 197 246 282 343
#     4  10  18  32  53  83 121 159 192 232 279 336
#     4  10  22  36  54  87 125 157 190 235 294 352
#     4  11  21  37  59  89 115 152 193 243 292 345
#     4  11  19  35  59  89 118 156 197 237 283 345
#     4  10  23  41  59  83 117 152 189 246 308 356
#
# _framework density 18.919822
#
# number of rings (size 3 to 8) (size 9 to 14) (size 15 to 20)
#    0.000    1.625    3.750    3.375    1.750    1.500 
#    0.000    9.375    0.000    5.250    0.000    0.000 
#    0.000    0.000    0.000    0.000    0.000    0.000 
#
# Total GULP energy -357277.901700 kJ/mol
# GULP energy per Si atom -5582.467214 kJ/mol
# Density = 1.887676 g / cm^3
# Si number density = 18.919822 Si / 1000 Ang^3
#
#
#
# Elastic Constant Matrix: (Units=GPa)
#
#
# Indices 1 2 3 4 5 6 
#
# 1 55.6217 29.8134 47.0788 0.0000 0.0000 0.0000
# 2 29.8134 74.1921 22.9240 0.0000 0.0000 0.0000
# 3 47.0788 22.9240 104.2346 0.0000 0.0000 0.0000
# 4 0.0000 0.0000 0.0000 6.8486 0.0000 0.0000
# 5 0.0000 0.0000 0.0000 0.0000 22.8470 0.0000
# 6 0.0000 0.0000 0.0000 0.0000 0.0000 14.4852
#
#
#
# Elastic Compliance Matrix: (Units=1/GPa)
#
#
# Indices 1 2 3 4 5 6 
#
# 1 0.034624 -0.009743 -0.013495 0.000000 0.000000 0.000000
# 2 -0.009743 0.017203 0.000617 0.000000 0.000000 0.000000
# 3 -0.013495 0.000617 0.015553 0.000000 0.000000 0.000000
# 4 0.000000 0.000000 0.000000 0.146016 0.000000 0.000000
# 5 0.000000 0.000000 0.000000 0.000000 0.043769 0.000000
# 6 0.000000 0.000000 0.000000 0.000000 0.000000 0.069036
#
#
# Mechanical properties :
#
#
# Convention : Reuss Voigt Hill
#
# Bulk Modulus (GPa) = 45.17288 48.18677 46.67982
# Shear Modulus (GPa) = 13.19876 17.78498 15.49187
#
# Velocity S-wave (km/s) = 2.64411 3.06930 2.86460
# Velocity P-wave (km/s) = 5.76624 6.17131 5.97221
#
# Compressibility (1/GPa) = 0.02213718
#
# Stress axis : x y z
#
# Youngs Moduli (GPa) = 28.88198 58.12920 64.29492
#
# Poissons Ratio (x) = 0.56637 0.86768
# Poissons Ratio (y) = 0.28141 -0.03969
# Poissons Ratio (z) = 0.38977 -0.03588
#
# Static dielectric constant tensor:
#      x y z
#    x 1.666530 0.000000 0.000000 
#    y 0.000000 1.669020 0.000000 
#    z 0.000000 0.000000 1.666580 
# 
# From -- ./inp_files/27548.got.cif
#   From: 2010.05.17/outbox.cif.g08.bks.cpg/sg58_14_cif.got.tgz:27548.got - 2010.06.03 14:20:14.
