data_PCOD9441399
_publ_section_title
;
Structure prediction by ZEFSAII (Michael W. Deem and Ramdas Pophale) SiO2 
 PCOD9441399
Probable space group: P N N M
;
_chemical_formula_sum "Si O2"
_cell_formula_units_Z 48
_cell_length_a 14.860576
_cell_length_b 5.611903
_cell_length_c 34.414527
_cell_angle_alpha 90.000000
_cell_angle_beta 90.000000
_cell_angle_gamma 90.000000
_cell_volume 2870.037715
_symmetry_space_group_name_H-M "P N N M"
_symmetry_group_IT_number 58
_symmetry_cell_setting 'orthorhombic'
loop_
_space_group_symop_operation_xyz
x,y,z
-x,-y,z
1/2+x,1/2-y,1/2-z
1/2-x,1/2+y,1/2-z
-x,-y,-z
x,y,-z
1/2-x,1/2+y,1/2+z
1/2+x,1/2-y,1/2+z
loop_
_atom_site_type_symbol
_atom_site_label
_atom_site_fract_x
_atom_site_fract_y
_atom_site_fract_z
Si Si1 0.500000 0.500000 0.798971
Si Si2 0.804272 0.933442 0.691692
Si Si3 0.095385 0.140763 0.916116
Si Si4 0.000000 0.500000 0.749573
Si Si5 0.059173 0.245675 0.000000
Si Si6 0.355924 0.363496 0.342876
Si Si7 0.835732 0.758938 0.779472
Si Si8 0.000000 0.500000 0.866263
O O1 0.406688 0.538512 0.821678
O O2 0.511896 0.748715 0.774291
O O3 0.736066 0.773394 0.667267
O O4 0.810853 0.837498 0.736093
O O5 0.753174 0.180702 0.697726
O O6 0.074744 0.381516 0.893309
O O7 0.152665 0.987839 0.885336
O O8 0.116278 0.216335 0.960254
O O9 0.000000 0.000000 0.918249
O O10 0.908837 0.551212 0.773320
O O11 0.000000 0.500000 0.000000
O O12 0.000000 0.000000 0.000000
O O13 0.374920 0.541165 0.307262
O O14 0.444587 0.200575 0.344645
#
# Coordination Sequence:
#
# PCOD9441399 Si02
#       8
#     4   8   8   4   4   8   8   4
#     4  10  24  42  60  72  98 135 192 239 284 348
#     4  11  22  39  53  73 102 143 190 244 292 341
#     4   9  19  34  53  81 112 151 186 228 275 338
#     4  10  24  39  56  77 100 135 184 235 283 340
#     4  10  18  34  60  80 116 157 191 217 268 352
#     4  11  23  36  54  78 115 145 193 245 282 339
#     4  11  22  38  55  75 104 144 190 238 292 339
#     4  10  20  38  50  81 114 146 192 226 289 321
#
# _framework density 16.724518
#
# number of rings (size 3 to 8) (size 9 to 14) (size 15 to 20)
#    0.000    1.667    2.500    2.000    4.667    5.333 
#   10.500    0.000    0.000    0.000    0.000    0.000 
#    0.000    0.667    0.000    6.083    0.000    2.667 
#
# Total GULP energy -267351.185734 kJ/mol
# GULP energy per Si atom -5569.816369 kJ/mol
# Density = 1.668645 g / cm^3
# Si number density = 16.724518 Si / 1000 Ang^3
#
#
#
# Elastic Constant Matrix: (Units=GPa)
#
#
# Indices 1 2 3 4 5 6 
#
# 1 95.1852 24.2117 33.0380 0.0000 0.0000 0.0000
# 2 24.2117 77.1983 34.7540 0.0000 0.0000 0.0000
# 3 33.0380 34.7540 113.8253 0.0000 0.0000 0.0000
# 4 0.0000 0.0000 0.0000 -114.8775 0.0000 0.0000
# 5 0.0000 0.0000 0.0000 0.0000 28.5340 0.0000
# 6 0.0000 0.0000 0.0000 0.0000 0.0000 26.8847
#
#
#
# Elastic Compliance Matrix: (Units=1/GPa)
#
#
# Indices 1 2 3 4 5 6 
#
# 1 0.012107 -0.002568 -0.002730 0.000000 0.000000 0.000000
# 2 -0.002568 0.015563 -0.004006 0.000000 0.000000 0.000000
# 3 -0.002730 -0.004006 0.010801 0.000000 0.000000 0.000000
# 4 0.000000 0.000000 0.000000 -0.008705 0.000000 0.000000
# 5 0.000000 0.000000 0.000000 0.000000 0.035046 0.000000
# 6 0.000000 0.000000 0.000000 0.000000 0.000000 0.037196
#
#
# Mechanical properties :
#
#
# Convention : Reuss Voigt Hill
#
# Bulk Modulus (GPa) = 50.34797 52.24624 51.29711
# Shear Modulus (GPa) = 39.29702 1.05524 20.17613
#
# Velocity S-wave (km/s) = 4.85259 0.79519 3.47707
# Velocity P-wave (km/s) = 7.84643 5.67012 6.84532
#
# Compressibility (1/GPa) = 0.01986177
#
# Stress axis : x y z
#
# Youngs Moduli (GPa) = 82.59983 64.25631 92.58415
#
# Poissons Ratio (x) = 0.16501 0.25274
# Poissons Ratio (y) = 0.21212 0.37092
# Poissons Ratio (z) = 0.22549 0.25743
#
# Static dielectric constant tensor:
#      x y z
#    x 1.522790 0.000000 0.000000 
#    y 0.000000 1.704950 0.000000 
#    z 0.000000 0.000000 1.600820 
# 
# From -- ./inp_files/35013.got.cif
#   From: 2010.05.17/outbox.cif.g08.bks.cpg/sg58_18_cif.got.tgz:35013.got - 2010.06.03 14:20:14.
