data_PCOD9441696
_publ_section_title
;
Structure prediction by ZEFSAII (Michael W. Deem and Ramdas Pophale) SiO2 
 PCOD9441696
Probable space group: P N N M
;
_chemical_formula_sum "Si O2"
_cell_formula_units_Z 64
_cell_length_a 21.453568
_cell_length_b 11.921140
_cell_length_c 14.158125
_cell_angle_alpha 90.000000
_cell_angle_beta 90.000000
_cell_angle_gamma 90.000000
_cell_volume 3620.954452
_symmetry_space_group_name_H-M "P N N M"
_symmetry_group_IT_number 58
_symmetry_cell_setting 'orthorhombic'
loop_
_space_group_symop_operation_xyz
x,y,z
-x,-y,z
1/2+x,1/2-y,1/2-z
1/2-x,1/2+y,1/2-z
-x,-y,-z
x,y,-z
1/2-x,1/2+y,1/2+z
1/2+x,1/2-y,1/2+z
loop_
_atom_site_type_symbol
_atom_site_label
_atom_site_fract_x
_atom_site_fract_y
_atom_site_fract_z
Si Si1 0.786285 0.747980 0.701185
Si Si2 0.844204 0.536071 0.391046
Si Si3 0.978172 0.659079 0.606665
Si Si4 0.402950 0.156953 0.780122
Si Si5 0.327030 0.113123 0.611355
Si Si6 0.379366 0.379948 0.891560
Si Si7 0.401368 0.628549 0.889699
Si Si8 0.268064 0.869073 0.393017
O O1 0.797050 0.626512 0.652293
O O2 0.726711 0.810239 0.658100
O O3 0.846374 0.822454 0.674638
O O4 0.780995 0.721235 0.811922
O O5 0.829706 0.513363 0.500000
O O6 0.912185 0.596204 0.386898
O O7 0.852680 0.422505 0.332990
O O8 0.002792 0.639953 0.500000
O O9 0.960501 0.790028 0.618498
O O10 0.028838 0.624186 0.682658
O O11 0.389077 0.140057 0.670501
O O12 0.393735 0.282219 0.818564
O O13 0.331422 0.135547 0.500000
O O14 0.307479 0.982673 0.622748
O O15 0.412231 0.498150 0.871670
O O16 0.304979 0.401396 0.887998
O O17 0.394156 0.345164 0.000000
O O18 0.380310 0.638331 0.000000
O O19 0.280050 0.828809 0.500000
#
# Coordination Sequence:
#
# PCOD9441696 Si02
#       8
#     8   8   8   8   8   8   8   8
#     4  11  18  34  57  78 101 139 176 210 258 318
#     4  10  20  33  53  81 107 136 174 219 268 319
#     4   9  19  34  52  77 106 137 173 220 274 319
#     4  12  21  32  51  76 110 140 172 214 267 310
#     4  11  22  36  53  75 108 145 177 210 258 319
#     4  10  19  31  50  77 108 138 169 210 261 313
#     4   9  18  33  55  78 104 140 178 213 261 326
#     4  10  20  34  51  76 111 140 169 215 261 307
#
# _framework density 17.674897999999999
#
# number of rings (size 3 to 8) (size 9 to 14) (size 15 to 20)
#    0.000    1.750    3.750    3.375    0.000    1.500 
#    0.000    1.875    0.000    5.250    0.000    0.875 
#    0.000    0.000    0.000    0.000    0.000    0.000 
#
# Total GULP energy -357280.002892 kJ/mol
# GULP energy per Si atom -5582.500045 kJ/mol
# Density = 1.763467 g / cm^3
# Si number density = 17.674898 Si / 1000 Ang^3
#
#
#
# Elastic Constant Matrix: (Units=GPa)
#
#
# Indices 1 2 3 4 5 6 
#
# 1 44.9182 1.3440 28.5791 0.0000 0.0000 0.0000
# 2 1.3440 77.8252 37.7040 0.0000 0.0000 0.0000
# 3 28.5791 37.7040 127.9557 0.0000 0.0000 0.0000
# 4 0.0000 0.0000 0.0000 28.5536 0.0000 0.0000
# 5 0.0000 0.0000 0.0000 0.0000 23.0755 0.0000
# 6 0.0000 0.0000 0.0000 0.0000 0.0000 19.7816
#
#
#
# Elastic Compliance Matrix: (Units=1/GPa)
#
#
# Indices 1 2 3 4 5 6 
#
# 1 0.026466 0.002808 -0.006739 0.000000 0.000000 0.000000
# 2 0.002808 0.015287 -0.005132 0.000000 0.000000 0.000000
# 3 -0.006739 -0.005132 0.010832 0.000000 0.000000 0.000000
# 4 0.000000 0.000000 0.000000 0.035022 0.000000 0.000000
# 5 0.000000 0.000000 0.000000 0.000000 0.043336 0.000000
# 6 0.000000 0.000000 0.000000 0.000000 0.000000 0.050552
#
#
# Mechanical properties :
#
#
# Convention : Reuss Voigt Hill
#
# Bulk Modulus (GPa) = 29.01894 42.88370 35.95132
# Shear Modulus (GPa) = 23.68465 26.48693 25.08579
#
# Velocity S-wave (km/s) = 3.66459 3.87533 3.77143
# Velocity P-wave (km/s) = 5.86170 6.65878 6.27291
#
# Compressibility (1/GPa) = 0.03446025
#
# Stress axis : x y z
#
# Youngs Moduli (GPa) = 37.78425 65.41535 92.31597
#
# Poissons Ratio (x) = -0.18366 0.62207
# Poissons Ratio (y) = -0.10608 0.47373
# Poissons Ratio (z) = 0.25461 0.33568
#
# Static dielectric constant tensor:
#      x y z
#    x 1.616780 0.000000 0.000000 
#    y 0.000000 1.637560 0.000000 
#    z 0.000000 0.000000 1.598750 
# 
# From -- ./inp_files/17533.got.cif
#   From: 2010.05.17/outbox.cif.g08.bks.cpg/sg58_9_cif.got.tgz:17533.got - 2010.06.03 14:20:14.
