data_PCOD9441902
_publ_section_title
;
Structure prediction by ZEFSAII (Michael W. Deem and Ramdas Pophale) SiO2 
 PCOD9441902
Probable space group: P N N M
;
_chemical_formula_sum "Si O2"
_cell_formula_units_Z 64
_cell_length_a 27.967240
_cell_length_b 12.802534
_cell_length_c 9.727188
_cell_angle_alpha 90.000000
_cell_angle_beta 90.000000
_cell_angle_gamma 90.000000
_cell_volume 3482.834653
_symmetry_space_group_name_H-M "P N N M"
_symmetry_group_IT_number 58
_symmetry_cell_setting 'orthorhombic'
loop_
_space_group_symop_operation_xyz
x,y,z
-x,-y,z
1/2+x,1/2-y,1/2-z
1/2-x,1/2+y,1/2-z
-x,-y,-z
x,y,-z
1/2-x,1/2+y,1/2+z
1/2+x,1/2-y,1/2+z
loop_
_atom_site_type_symbol
_atom_site_label
_atom_site_fract_x
_atom_site_fract_y
_atom_site_fract_z
Si Si1 0.633365 0.127152 0.155096
Si Si2 0.447905 0.045243 0.163786
Si Si3 0.156903 0.057536 0.840037
Si Si4 0.407667 0.234192 0.339636
Si Si5 0.505937 0.623781 0.346315
Si Si6 0.712245 0.223366 0.337696
Si Si7 0.921837 0.846967 0.344930
Si Si8 0.805148 0.173643 0.163824
O O1 0.674863 0.143694 0.266057
O O2 0.605498 0.236995 0.151204
O O3 0.594057 0.039562 0.186498
O O4 0.652723 0.107990 0.000000
O O5 0.432454 0.146965 0.247273
O O6 0.500000 0.000000 0.204050
O O7 0.450121 0.066887 0.000000
O O8 0.190820 0.159169 0.822839
O O9 0.111471 0.076035 0.743102
O O10 0.183459 0.948865 0.811339
O O11 0.141285 0.054836 0.000000
O O12 0.408562 0.201968 0.500000
O O13 0.440112 0.337938 0.328655
O O14 0.353373 0.262122 0.303457
O O15 0.500000 0.500000 0.338652
O O16 0.490577 0.657641 0.500000
O O17 0.471555 0.670178 0.231809
O O18 0.717341 0.202701 0.500000
O O19 0.761490 0.211774 0.255886
O O20 0.928779 0.884927 0.500000
O O21 0.795250 0.185440 0.000000
#
# Coordination Sequence:
#
# PCOD9441902 Si02
#       8
#     8   8   8   8   8   8   8   8
#     4   9  19  36  56  78 107 145 183 219 271 333
#     4  10  21  38  59  82 114 155 191 227 278 339
#     4   9  19  37  58  78 106 145 181 215 267 334
#     4  10  22  37  55  82 111 143 185 229 272 324
#     4  10  20  35  54  75 105 144 178 209 258 325
#     4  10  21  36  57  85 110 138 186 240 280 322
#     4  10  19  32  54  82 107 132 172 224 266 305
#     4  10  21  39  59  78 109 149 183 221 277 338
#
# _framework density 18.375837000000001
#
# number of rings (size 3 to 8) (size 9 to 14) (size 15 to 20)
#    0.000    2.250    0.000    2.250    0.000    7.500 
#    0.000    5.000    0.000    0.000    0.000    0.000 
#    0.000    0.000    0.000    0.000    0.000    0.000 
#
# Total GULP energy -357170.624681 kJ/mol
# GULP energy per Si atom -5580.791011 kJ/mol
# Density = 1.833401 g / cm^3
# Si number density = 18.375837 Si / 1000 Ang^3
#
#
#
# Elastic Constant Matrix: (Units=GPa)
#
#
# Indices 1 2 3 4 5 6 
#
# 1 128.8523 32.7841 79.5291 0.0000 0.0000 0.0000
# 2 32.7841 72.7859 40.8425 0.0000 0.0000 0.0000
# 3 79.5291 40.8425 92.8159 0.0000 0.0000 0.0000
# 4 0.0000 0.0000 0.0000 17.4772 0.0000 0.0000
# 5 0.0000 0.0000 0.0000 0.0000 31.7055 0.0000
# 6 0.0000 0.0000 0.0000 0.0000 0.0000 19.9987
#
#
#
# Elastic Compliance Matrix: (Units=1/GPa)
#
#
# Indices 1 2 3 4 5 6 
#
# 1 0.016497 0.000666 -0.014428 0.000000 0.000000 0.000000
# 2 0.000666 0.018270 -0.008610 0.000000 0.000000 0.000000
# 3 -0.014428 -0.008610 0.026925 0.000000 0.000000 0.000000
# 4 0.000000 0.000000 0.000000 0.057217 0.000000 0.000000
# 5 0.000000 0.000000 0.000000 0.000000 0.031540 0.000000
# 6 0.000000 0.000000 0.000000 0.000000 0.000000 0.050003
#
#
# Mechanical properties :
#
#
# Convention : Reuss Voigt Hill
#
# Bulk Modulus (GPa) = 59.00529 66.75173 62.87851
# Shear Modulus (GPa) = 19.93245 23.25617 21.59431
#
# Velocity S-wave (km/s) = 3.29707 3.56136 3.43176
# Velocity P-wave (km/s) = 6.83185 7.30176 7.07071
#
# Compressibility (1/GPa) = 0.01694763
#
# Stress axis : x y z
#
# Youngs Moduli (GPa) = 60.61877 54.73307 37.13977
#
# Poissons Ratio (x) = -0.03643 0.53585
# Poissons Ratio (y) = -0.04035 0.31978
# Poissons Ratio (z) = 0.87460 0.47125
#
# Static dielectric constant tensor:
#      x y z
#    x 1.619990 0.000000 0.000000 
#    y 0.000000 1.627770 0.000000 
#    z 0.000000 0.000000 1.630520 
# 
# From -- ./inp_files/11021.got.cif
#   From: 2010.05.17/outbox.cif.g08.bks.cpg/sg58_6_cif.got.tgz:11021.got - 2010.06.03 14:20:14.
