data_PCOD9441748
_publ_section_title
;
Structure prediction by ZEFSAII (Michael W. Deem and Ramdas Pophale) SiO2 
 PCOD9441748
Probable space group: P N N M
;
_chemical_formula_sum "Si O2"
_cell_formula_units_Z 56
_cell_length_a 15.036402
_cell_length_b 21.896635
_cell_length_c 7.324196
_cell_angle_alpha 90.000000
_cell_angle_beta 90.000000
_cell_angle_gamma 90.000000
_cell_volume 2411.466677
_symmetry_space_group_name_H-M "P N N M"
_symmetry_group_IT_number 58
_symmetry_cell_setting 'orthorhombic'
loop_
_space_group_symop_operation_xyz
x,y,z
-x,-y,z
1/2+x,1/2-y,1/2-z
1/2-x,1/2+y,1/2-z
-x,-y,-z
x,y,-z
1/2-x,1/2+y,1/2+z
1/2+x,1/2-y,1/2+z
loop_
_atom_site_type_symbol
_atom_site_label
_atom_site_fract_x
_atom_site_fract_y
_atom_site_fract_z
Si Si1 0.220568 0.016994 0.777640
Si Si2 0.414403 0.415675 0.710519
Si Si3 0.085442 0.537664 0.723396
Si Si4 0.078873 0.676078 0.710908
Si Si5 0.611505 0.232930 0.720664
Si Si6 0.603477 0.373432 0.277427
Si Si7 0.190053 0.792084 0.721523
O O1 0.150538 0.966825 0.710876
O O2 0.321630 0.007423 0.720513
O O3 0.185737 0.084075 0.725992
O O4 0.220562 0.014437 0.000000
O O5 0.429071 0.433742 0.500000
O O6 0.512411 0.404984 0.787575
O O7 0.364155 0.351022 0.716128
O O8 0.082819 0.538437 0.500000
O O9 0.084943 0.607941 0.786697
O O10 0.000000 0.500000 0.784157
O O11 0.107177 0.670527 0.500000
O O12 0.140807 0.730286 0.786317
O O13 0.976716 0.698196 0.717477
O O14 0.609562 0.232351 0.500000
O O15 0.607726 0.303497 0.781490
O O16 0.706835 0.206246 0.777683
O O17 0.601118 0.371802 0.500000
O O18 0.187328 0.792293 0.500000
#
# Coordination Sequence:
#
# PCOD9441748 Si02
#       7
#     8   8   8   8   8   8   8
#     4   9  17  29  49  76 105 134 170 217 264 306
#     4  10  19  31  53  81 103 129 173 224 262 300
#     4   9  18  31  48  74 106 136 168 212 262 308
#     4  10  20  35  55  78 106 138 174 216 261 309
#     4  10  20  34  54  77 105 141 175 210 258 316
#     4   9  16  30  50  75 103 131 168 213 261 305
#     4  10  21  35  51  75 109 145 174 206 261 322
#
# _framework density 23.222382
#
# number of rings (size 3 to 8) (size 9 to 14) (size 15 to 20)
#    0.000    2.429    1.429    1.286    2.000    5.714 
#    0.000    0.000    0.000    3.857    0.000    0.000 
#    0.000    0.000    0.000    0.000    0.000    0.000 
#
# Total GULP energy -313082.171397 kJ/mol
# GULP energy per Si atom -5590.753061 kJ/mol
# Density = 2.316953 g / cm^3
# Si number density = 23.222382 Si / 1000 Ang^3
#
#
#
# Elastic Constant Matrix: (Units=GPa)
#
#
# Indices 1 2 3 4 5 6 
#
# 1 98.5402 -7.6917 -10.7167 0.0000 0.0000 0.0000
# 2 -7.6917 58.7950 -6.5106 0.0000 0.0000 0.0000
# 3 -10.7167 -6.5106 91.5778 0.0000 0.0000 0.0000
# 4 0.0000 0.0000 0.0000 7.7099 0.0000 0.0000
# 5 0.0000 0.0000 0.0000 0.0000 4.3069 0.0000
# 6 0.0000 0.0000 0.0000 0.0000 0.0000 33.7463
#
#
#
# Elastic Compliance Matrix: (Units=1/GPa)
#
#
# Indices 1 2 3 4 5 6 
#
# 1 0.010410 0.001509 0.001325 0.000000 0.000000 0.000000
# 2 0.001509 0.017362 0.001411 0.000000 0.000000 0.000000
# 3 0.001325 0.001411 0.011175 0.000000 0.000000 0.000000
# 4 0.000000 0.000000 0.000000 0.129703 0.000000 0.000000
# 5 0.000000 0.000000 0.000000 0.000000 0.232184 0.000000
# 6 0.000000 0.000000 0.000000 0.000000 0.000000 0.029633
#
#
# Mechanical properties :
#
#
# Convention : Reuss Voigt Hill
#
# Bulk Modulus (GPa) = 21.08064 22.11946 21.60005
# Shear Modulus (GPa) = 11.42100 27.40808 19.41454
#
# Velocity S-wave (km/s) = 2.22009 3.43920 2.89455
# Velocity P-wave (km/s) = 3.95843 5.03155 4.52690
#
# Compressibility (1/GPa) = 0.04743690
#
# Stress axis : x y z
#
# Youngs Moduli (GPa) = 96.06098 57.59755 89.48478
#
# Poissons Ratio (x) = -0.08689 -0.11861
# Poissons Ratio (y) = -0.14492 -0.12625
# Poissons Ratio (z) = -0.12733 -0.08126
#
# Static dielectric constant tensor:
#      x y z
#    x 1.817780 0.000000 0.000000 
#    y 0.000000 1.816630 0.000000 
#    z 0.000000 0.000000 1.970550 
# 
# From -- ./inp_files/6282.got.cif
#   From: 2010.05.17/outbox.cif.g08.bks.cpg/sg58_4_cif.got.tgz:6282.got - 2010.06.03 14:20:14.
