data_PCOD9441545
_publ_section_title
;
Structure prediction by ZEFSAII (Michael W. Deem and Ramdas Pophale) SiO2 
 PCOD9441545
Probable space group: P N N M
;
_chemical_formula_sum "Si O2"
_cell_formula_units_Z 56
_cell_length_a 8.951077
_cell_length_b 18.477558
_cell_length_c 18.907429
_cell_angle_alpha 90.000000
_cell_angle_beta 90.000000
_cell_angle_gamma 90.000000
_cell_volume 3127.176152
_symmetry_space_group_name_H-M "P N N M"
_symmetry_group_IT_number 58
_symmetry_cell_setting 'orthorhombic'
loop_
_space_group_symop_operation_xyz
x,y,z
-x,-y,z
1/2+x,1/2-y,1/2-z
1/2-x,1/2+y,1/2-z
-x,-y,-z
x,y,-z
1/2-x,1/2+y,1/2+z
1/2+x,1/2-y,1/2+z
loop_
_atom_site_type_symbol
_atom_site_label
_atom_site_fract_x
_atom_site_fract_y
_atom_site_fract_z
Si Si1 0.368018 0.841648 0.713793
Si Si2 0.707313 0.690716 0.080426
Si Si3 0.907339 0.728865 0.415662
Si Si4 0.130999 0.769996 0.820533
Si Si5 0.604302 0.339034 0.581270
Si Si6 0.822387 0.993555 0.079371
Si Si7 0.912863 0.573408 0.344981
O O1 0.293468 0.856866 0.638063
O O2 0.235681 0.800837 0.757963
O O3 0.514034 0.790768 0.705080
O O4 0.416192 0.908464 0.762306
O O5 0.539117 0.714068 0.099798
O O6 0.796821 0.767003 0.081168
O O7 0.710245 0.662785 0.000000
O O8 0.892693 0.722682 0.500000
O O9 0.753523 0.753381 0.378967
O O10 0.947315 0.649125 0.384456
O O11 0.024716 0.826780 0.861696
O O12 0.547347 0.349175 0.500000
O O13 0.702687 0.409529 0.597972
O O14 0.752354 0.050364 0.131750
O O15 0.764036 0.007288 0.000000
O O16 0.000000 0.000000 0.078405
O O17 0.000000 0.500000 0.364080
#
# Coordination Sequence:
#
# PCOD9441545 Si02
#       7
#     8   8   8   8   8   8   8
#     4  10  20  34  49  70  98 131 171 211 254 298
#     4   9  18  33  53  73  92 118 158 209 261 301
#     4  10  19  32  52  79 104 128 163 206 253 306
#     4  10  19  31  50  72 101 134 168 211 257 295
#     4   9  17  30  48  71 100 132 164 199 241 293
#     4  10  19  30  45  68 100 137 170 195 226 279
#     4  11  22  33  47  70 106 144 172 196 233 292
#
# _framework density 17.907529
#
# number of rings (size 3 to 8) (size 9 to 14) (size 15 to 20)
#    0.000    2.143    0.000    5.143    0.000    5.143 
#    0.000    1.429    0.000    0.429    0.000    0.000 
#    0.000    7.429    0.000    0.000    0.000    0.000 
#
# Total GULP energy -312056.218330 kJ/mol
# GULP energy per Si atom -5572.432470 kJ/mol
# Density = 1.786677 g / cm^3
# Si number density = 17.907529 Si / 1000 Ang^3
#
#
#
# Elastic Constant Matrix: (Units=GPa)
#
#
# Indices 1 2 3 4 5 6 
#
# 1 74.2028 8.4338 20.3225 0.0000 0.0000 0.0000
# 2 8.4338 26.2107 10.5050 0.0000 0.0000 0.0000
# 3 20.3225 10.5050 60.5243 0.0000 0.0000 0.0000
# 4 0.0000 0.0000 0.0000 27.2871 0.0000 0.0000
# 5 0.0000 0.0000 0.0000 0.0000 27.9339 0.0000
# 6 0.0000 0.0000 0.0000 0.0000 0.0000 22.9559
#
#
#
# Elastic Compliance Matrix: (Units=1/GPa)
#
#
# Indices 1 2 3 4 5 6 
#
# 1 0.015062 -0.003030 -0.004531 0.000000 0.000000 0.000000
# 2 -0.003030 0.041615 -0.006205 0.000000 0.000000 0.000000
# 3 -0.004531 -0.006205 0.019121 0.000000 0.000000 0.000000
# 4 0.000000 0.000000 0.000000 0.036647 0.000000 0.000000
# 5 0.000000 0.000000 0.000000 0.000000 0.035799 0.000000
# 6 0.000000 0.000000 0.000000 0.000000 0.000000 0.043562
#
#
# Mechanical properties :
#
#
# Convention : Reuss Voigt Hill
#
# Bulk Modulus (GPa) = 20.71979 26.60673 23.66326
# Shear Modulus (GPa) = 21.23794 23.74714 22.49254
#
# Velocity S-wave (km/s) = 3.44754 3.64551 3.54791
# Velocity P-wave (km/s) = 5.23860 5.71050 5.47963
#
# Compressibility (1/GPa) = 0.04826304
#
# Stress axis : x y z
#
# Youngs Moduli (GPa) = 66.39189 24.03004 52.29875
#
# Poissons Ratio (x) = 0.07282 0.23699
# Poissons Ratio (y) = 0.20119 0.32454
# Poissons Ratio (z) = 0.30085 0.14912
#
# Static dielectric constant tensor:
#      x y z
#    x 1.672080 0.000000 0.000000 
#    y 0.000000 1.609610 0.000000 
#    z 0.000000 0.000000 1.644330 
# 
# From -- ./inp_files/25624.got.cif
#   From: 2010.05.17/outbox.cif.g08.bks.cpg/sg58_13_cif.got.tgz:25624.got - 2010.06.03 14:20:14.
