data_PCOD9441038
_publ_section_title
;
Structure prediction by ZEFSAII (Michael W. Deem and Ramdas Pophale) SiO2 
 PCOD9441038
Probable space group: P N N M
;
_chemical_formula_sum "Si O2"
_cell_formula_units_Z 40
_cell_length_a 8.269750
_cell_length_b 9.141191
_cell_length_c 24.208209
_cell_angle_alpha 90.000000
_cell_angle_beta 90.000000
_cell_angle_gamma 90.000000
_cell_volume 1830.028378
_symmetry_space_group_name_H-M "P N N M"
_symmetry_group_IT_number 58
_symmetry_cell_setting 'orthorhombic'
loop_
_space_group_symop_operation_xyz
x,y,z
-x,-y,z
1/2+x,1/2-y,1/2-z
1/2-x,1/2+y,1/2-z
-x,-y,-z
x,y,-z
1/2-x,1/2+y,1/2+z
1/2+x,1/2-y,1/2+z
loop_
_atom_site_type_symbol
_atom_site_label
_atom_site_fract_x
_atom_site_fract_y
_atom_site_fract_z
Si Si1 0.825791 0.705574 0.563416
Si Si2 0.998516 0.672662 0.116877
Si Si3 0.588123 0.658410 0.275128
Si Si4 0.155700 0.088028 0.935836
Si Si5 0.950615 0.668015 0.677180
O O1 0.872169 0.740153 0.500000
O O2 0.651703 0.777123 0.578812
O O3 0.797173 0.529435 0.566978
O O4 0.935668 0.738447 0.616186
O O5 0.013281 0.736630 0.178116
O O6 0.000000 0.500000 0.117239
O O7 0.842210 0.755939 0.092512
O O8 0.500000 0.500000 0.275626
O O9 0.774465 0.656887 0.293666
O O10 0.562984 0.735147 0.216364
O O11 0.122642 0.113688 0.000000
O O12 0.000000 0.000000 0.911538
O O13 0.000000 0.500000 0.673107
#
# Coordination Sequence:
#
# PCOD9441038 Si02
#       5
#     8   8   8   8   8
#     4   9  19  36  57  85 122 163 204 251 309 371
#     4  10  18  29  52  87 125 166 211 258 305 359
#     4  11  23  40  62  91 128 166 209 263 320 377
#     4   8  14  27  48  76 115 162 207 247 291 348
#     4  11  23  41  65  93 123 162 211 260 314 375
#
# _framework density 21.857583999999999
#
# number of rings (size 3 to 8) (size 9 to 14) (size 15 to 20)
#    0.000    2.200    0.000    6.600    0.000    3.600 
#    0.000    0.000    0.000    0.600    0.000    1.400 
#    0.000    0.800    0.000    0.000    0.000    0.000 
#
# Total GULP energy -223267.253958 kJ/mol
# GULP energy per Si atom -5581.681349 kJ/mol
# Density = 2.180783 g / cm^3
# Si number density = 21.857584 Si / 1000 Ang^3
#
#
#
# Elastic Constant Matrix: (Units=GPa)
#
#
# Indices 1 2 3 4 5 6 
#
# 1 53.5004 8.6862 38.8663 0.0000 0.0000 0.0000
# 2 8.6862 128.5321 44.0126 0.0000 0.0000 0.0000
# 3 38.8663 44.0126 190.0491 0.0000 0.0000 0.0000
# 4 0.0000 0.0000 0.0000 9.1519 0.0000 0.0000
# 5 0.0000 0.0000 0.0000 0.0000 27.3577 0.0000
# 6 0.0000 0.0000 0.0000 0.0000 0.0000 20.0696
#
#
#
# Elastic Compliance Matrix: (Units=1/GPa)
#
#
# Indices 1 2 3 4 5 6 
#
# 1 0.021953 0.000058 -0.004503 0.000000 0.000000 0.000000
# 2 0.000058 0.008450 -0.001969 0.000000 0.000000 0.000000
# 3 -0.004503 -0.001969 0.006639 0.000000 0.000000 0.000000
# 4 0.000000 0.000000 0.000000 0.109267 0.000000 0.000000
# 5 0.000000 0.000000 0.000000 0.000000 0.036553 0.000000
# 6 0.000000 0.000000 0.000000 0.000000 0.000000 0.049827
#
#
# Mechanical properties :
#
#
# Convention : Reuss Voigt Hill
#
# Bulk Modulus (GPa) = 41.29657 61.69020 51.49339
# Shear Modulus (GPa) = 19.71707 30.01695 24.86701
#
# Velocity S-wave (km/s) = 3.00671 3.70982 3.37662
# Velocity P-wave (km/s) = 5.56670 6.82901 6.22991
#
# Compressibility (1/GPa) = 0.02421509
#
# Stress axis : x y z
#
# Youngs Moduli (GPa) = 45.55116 118.33723 150.63209
#
# Poissons Ratio (x) = -0.00691 0.67831
# Poissons Ratio (y) = -0.00266 0.29658
# Poissons Ratio (z) = 0.20512 0.23300
#
# Static dielectric constant tensor:
#      x y z
#    x 1.987730 0.000000 0.000000 
#    y 0.000000 1.778960 0.000000 
#    z 0.000000 0.000000 1.814310 
# 
# From -- ./inp_files/31249.got.cif
#   From: 2010.05.17/outbox.cif.g08.bks.cpg/sg58_16_cif.got.tgz:31249.got - 2010.06.03 14:20:14.
