data_PCOD9441087
_publ_section_title
;
Structure prediction by ZEFSAII (Michael W. Deem and Ramdas Pophale) SiO2 
 PCOD9441087
Probable space group: P N N M
;
_chemical_formula_sum "Si O2"
_cell_formula_units_Z 56
_cell_length_a 12.828062
_cell_length_b 9.441729
_cell_length_c 29.286263
_cell_angle_alpha 90.000000
_cell_angle_beta 90.000000
_cell_angle_gamma 90.000000
_cell_volume 3547.125378
_symmetry_space_group_name_H-M "P N N M"
_symmetry_group_IT_number 58
_symmetry_cell_setting 'orthorhombic'
loop_
_space_group_symop_operation_xyz
x,y,z
-x,-y,z
1/2+x,1/2-y,1/2-z
1/2-x,1/2+y,1/2-z
-x,-y,-z
x,y,-z
1/2-x,1/2+y,1/2+z
1/2+x,1/2-y,1/2+z
loop_
_atom_site_type_symbol
_atom_site_label
_atom_site_fract_x
_atom_site_fract_y
_atom_site_fract_z
Si Si1 0.154440 0.803028 0.877315
Si Si2 0.821335 0.955221 0.197492
Si Si3 0.598801 0.898749 0.239414
Si Si4 0.696936 0.974956 0.662357
Si Si5 0.098000 0.924300 0.709767
Si Si6 0.624643 0.467781 0.447801
Si Si7 0.089745 0.259845 0.873984
O O1 0.222206 0.665499 0.866474
O O2 0.034387 0.751770 0.878569
O O3 0.163382 0.911496 0.835396
O O4 0.175231 0.897845 0.922005
O O5 0.699789 0.937971 0.209137
O O6 0.872224 0.823243 0.171391
O O7 0.878060 0.984253 0.244940
O O8 0.576962 0.735545 0.226495
O O9 0.500000 0.000000 0.231149
O O10 0.635048 0.922668 0.292079
O O11 0.798659 0.059421 0.679358
O O12 0.628022 0.081427 0.632498
O O13 0.000000 0.000000 0.686644
O O14 0.500000 0.500000 0.447528
O O15 0.657852 0.450358 0.500000
O O16 0.637646 0.328751 0.416341
#
# Coordination Sequence:
#
# PCOD9441087 Si02
#       7
#     8   8   8   8   8   8   8
#     4  10  18  30  51  72  95 133 159 198 238 289
#     4  10  20  33  46  66  94 132 171 202 233 282
#     4  11  23  33  47  67  97 133 172 212 239 270
#     4  11  22  33  46  71 101 128 172 205 238 284
#     4  11  23  34  48  65  97 134 171 208 246 273
#     4   8  16  31  51  73  98 127 158 191 239 298
#     4  10  18  32  49  70  99 130 164 194 239 287
#
# _framework density 15.787432000000001
#
# number of rings (size 3 to 8) (size 9 to 14) (size 15 to 20)
#    0.000    1.857    2.857    3.429    4.000    0.000 
#    0.000    0.714    0.000    3.429    0.000    0.000 
#    0.000   21.714    0.000    0.000    0.000    0.000 
#
# Total GULP energy -312283.226181 kJ/mol
# GULP energy per Si atom -5576.486182 kJ/mol
# Density = 1.575150 g / cm^3
# Si number density = 15.787432 Si / 1000 Ang^3
#
#
#
# Elastic Constant Matrix: (Units=GPa)
#
#
# Indices 1 2 3 4 5 6 
#
# 1 52.2216 13.5034 1.7589 0.0000 0.0000 0.0000
# 2 13.5034 86.7639 12.5269 0.0000 0.0000 0.0000
# 3 1.7589 12.5269 62.9523 0.0000 0.0000 0.0000
# 4 0.0000 0.0000 0.0000 9.5679 0.0000 0.0000
# 5 0.0000 0.0000 0.0000 0.0000 11.1202 0.0000
# 6 0.0000 0.0000 0.0000 0.0000 0.0000 25.4973
#
#
#
# Elastic Compliance Matrix: (Units=1/GPa)
#
#
# Indices 1 2 3 4 5 6 
#
# 1 0.019952 -0.003114 0.000062 0.000000 0.000000 0.000000
# 2 -0.003114 0.012353 -0.002371 0.000000 0.000000 0.000000
# 3 0.000062 -0.002371 0.016355 0.000000 0.000000 0.000000
# 4 0.000000 0.000000 0.000000 0.104516 0.000000 0.000000
# 5 0.000000 0.000000 0.000000 0.000000 0.089927 0.000000
# 6 0.000000 0.000000 0.000000 0.000000 0.000000 0.039220
#
#
# Mechanical properties :
#
#
# Convention : Reuss Voigt Hill
#
# Bulk Modulus (GPa) = 26.44528 28.61289 27.52909
# Shear Modulus (GPa) = 16.35196 20.84698 18.59947
#
# Velocity S-wave (km/s) = 3.22181 3.63778 3.43610
# Velocity P-wave (km/s) = 5.53419 5.98396 5.76347
#
# Compressibility (1/GPa) = 0.03781394
#
# Stress axis : x y z
#
# Youngs Moduli (GPa) = 50.11939 80.95502 61.14301
#
# Poissons Ratio (x) = 0.25211 -0.00380
# Poissons Ratio (y) = 0.15608 0.14497
# Poissons Ratio (z) = -0.00312 0.19195
#
# Static dielectric constant tensor:
#      x y z
#    x 1.551630 0.000000 0.000000 
#    y 0.000000 1.550190 0.000000 
#    z 0.000000 0.000000 1.514440 
# 
# From -- ./inp_files/35071.got.cif
#   From: 2010.05.17/outbox.cif.g08.bks.cpg/sg58_18_cif.got.tgz:35071.got - 2010.06.03 14:20:14.
