data_PCOD9441778
_publ_section_title
;
Structure prediction by ZEFSAII (Michael W. Deem and Ramdas Pophale) SiO2 
 PCOD9441778
Probable space group: P N N M
;
_chemical_formula_sum "Si O2"
_cell_formula_units_Z 40
_cell_length_a 9.229804
_cell_length_b 8.599867
_cell_length_c 28.577769
_cell_angle_alpha 90.000000
_cell_angle_beta 90.000000
_cell_angle_gamma 90.000000
_cell_volume 2268.362896
_symmetry_space_group_name_H-M "P N N M"
_symmetry_group_IT_number 58
_symmetry_cell_setting 'orthorhombic'
loop_
_space_group_symop_operation_xyz
x,y,z
-x,-y,z
1/2+x,1/2-y,1/2-z
1/2-x,1/2+y,1/2-z
-x,-y,-z
x,y,-z
1/2-x,1/2+y,1/2+z
1/2+x,1/2-y,1/2+z
loop_
_atom_site_type_symbol
_atom_site_label
_atom_site_fract_x
_atom_site_fract_y
_atom_site_fract_z
Si Si1 0.339198 0.922980 0.947115
Si Si2 0.535950 0.328398 0.882829
Si Si3 0.732752 0.897829 0.859707
Si Si4 0.530044 0.319664 0.287738
Si Si5 0.799131 0.710083 0.699729
O O1 0.372570 0.759620 0.922533
O O2 0.500000 0.000000 0.948367
O O3 0.244870 0.021536 0.910201
O O4 0.284226 0.915488 0.000000
O O5 0.500000 0.500000 0.898423
O O6 0.394741 0.226440 0.868324
O O7 0.631020 0.330907 0.836078
O O8 0.873755 0.827906 0.834813
O O9 0.685096 0.039698 0.824837
O O10 0.500000 0.500000 0.273124
O O11 0.629987 0.745385 0.294639
O O12 0.618986 0.227910 0.248582
#
# Coordination Sequence:
#
# PCOD9441778 Si02
#       5
#     8   8   8   8   8
#     4   8  15  30  54  79 101 131 169 210 255 300
#     4  10  19  32  49  73 105 134 168 210 251 298
#     4   9  19  35  52  73 105 135 167 209 251 301
#     4  10  20  33  51  73  99 131 171 210 249 298
#     4  10  19  32  50  70  98 133 169 206 251 300
#
# _framework density 17.633862000000001
#
# number of rings (size 3 to 8) (size 9 to 14) (size 15 to 20)
#    0.000    2.600    0.000    3.600    0.000    3.600 
#    0.000    5.000    0.000   15.000    0.000    0.000 
#    0.000   32.000    0.000    0.000    0.000    0.000 
#
# Total GULP energy -222933.040379 kJ/mol
# GULP energy per Si atom -5573.326009 kJ/mol
# Density = 1.759373 g / cm^3
# Si number density = 17.633862 Si / 1000 Ang^3
#
#
#
# Elastic Constant Matrix: (Units=GPa)
#
#
# Indices 1 2 3 4 5 6 
#
# 1 83.1517 20.4427 59.5832 0.0000 0.0000 0.0000
# 2 20.4427 35.5754 45.9125 0.0000 0.0000 0.0000
# 3 59.5832 45.9125 151.9670 0.0000 0.0000 0.0000
# 4 0.0000 0.0000 0.0000 6.0242 0.0000 0.0000
# 5 0.0000 0.0000 0.0000 0.0000 21.4740 0.0000
# 6 0.0000 0.0000 0.0000 0.0000 0.0000 16.6789
#
#
#
# Elastic Compliance Matrix: (Units=1/GPa)
#
#
# Indices 1 2 3 4 5 6 
#
# 1 0.016802 -0.001890 -0.006017 0.000000 0.000000 0.000000
# 2 -0.001890 0.046287 -0.013243 0.000000 0.000000 0.000000
# 3 -0.006017 -0.013243 0.012941 0.000000 0.000000 0.000000
# 4 0.000000 0.000000 0.000000 0.165997 0.000000 0.000000
# 5 0.000000 0.000000 0.000000 0.000000 0.046568 0.000000
# 6 0.000000 0.000000 0.000000 0.000000 0.000000 0.059956
#
#
# Mechanical properties :
#
#
# Convention : Reuss Voigt Hill
#
# Bulk Modulus (GPa) = 29.64768 58.06344 43.85556
# Shear Modulus (GPa) = 12.43492 18.48579 15.46035
#
# Velocity S-wave (km/s) = 2.65839 3.24128 2.96420
# Velocity P-wave (km/s) = 5.12564 6.85613 6.05304
#
# Compressibility (1/GPa) = 0.03372946
#
# Stress axis : x y z
#
# Youngs Moduli (GPa) = 59.51572 21.60456 77.27666
#
# Poissons Ratio (x) = 0.04083 0.46496
# Poissons Ratio (y) = 0.11248 1.02339
# Poissons Ratio (z) = 0.35810 0.28611
#
# Static dielectric constant tensor:
#      x y z
#    x 1.607160 0.000000 0.000000 
#    y 0.000000 1.633560 0.000000 
#    z 0.000000 0.000000 1.605010 
# 
# From -- ./inp_files/33493.got.cif
#   From: 2010.05.17/outbox.cif.g08.bks.cpg/sg58_17_cif.got.tgz:33493.got - 2010.06.03 14:20:14.
