data_PCOD9441214
_publ_section_title
;
Structure prediction by ZEFSAII (Michael W. Deem and Ramdas Pophale) SiO2 
 PCOD9441214
Probable space group: P N N M
;
_chemical_formula_sum "Si O2"
_cell_formula_units_Z 64
_cell_length_a 31.687060
_cell_length_b 14.719806
_cell_length_c 7.682004
_cell_angle_alpha 90.000000
_cell_angle_beta 90.000000
_cell_angle_gamma 90.000000
_cell_volume 3583.096967
_symmetry_space_group_name_H-M "P N N M"
_symmetry_group_IT_number 58
_symmetry_cell_setting 'orthorhombic'
loop_
_space_group_symop_operation_xyz
x,y,z
-x,-y,z
1/2+x,1/2-y,1/2-z
1/2-x,1/2+y,1/2-z
-x,-y,-z
x,y,-z
1/2-x,1/2+y,1/2+z
1/2+x,1/2-y,1/2+z
loop_
_atom_site_type_symbol
_atom_site_label
_atom_site_fract_x
_atom_site_fract_y
_atom_site_fract_z
Si Si1 0.134610 0.177655 0.206852
Si Si2 0.046875 0.104777 0.211737
Si Si3 0.776226 0.479168 0.701043
Si Si4 0.367153 0.321959 0.700136
Si Si5 0.319064 0.496172 0.798741
Si Si6 0.784960 0.273116 0.796836
Si Si7 0.799867 0.672609 0.289480
Si Si8 0.452499 0.393804 0.286826
O O1 0.086361 0.165703 0.267794
O O2 0.158723 0.270833 0.242751
O O3 0.161691 0.096370 0.288853
O O4 0.135086 0.162106 0.000000
O O5 0.999827 0.132316 0.268196
O O6 0.053993 0.999520 0.264310
O O7 0.046029 0.105102 0.000000
O O8 0.788171 0.467411 0.500000
O O9 0.726780 0.503154 0.713774
O O10 0.782323 0.381539 0.787113
O O11 0.799254 0.568599 0.773364
O O12 0.372466 0.291432 0.500000
O O13 0.349099 0.424477 0.705090
O O14 0.329120 0.263029 0.780254
O O15 0.413998 0.331682 0.777219
O O16 0.314957 0.469265 0.000000
O O17 0.742244 0.226347 0.725200
O O18 0.785939 0.246010 0.000000
O O19 0.797412 0.669832 0.500000
O O20 0.451257 0.392744 0.500000
#
# Coordination Sequence:
#
# PCOD9441214 Si02
#       8
#     8   8   8   8   8   8   8   8
#     4  11  20  31  49  71  96 129 166 196 232 282
#     4   8  14  24  43  72  98 121 156 197 229 273
#     4  11  22  37  52  66  92 129 166 199 234 280
#     4  10  18  32  51  70  96 131 164 193 234 287
#     4  12  22  30  45  69 100 130 161 200 234 274
#     4  10  20  33  49  72  99 123 155 199 239 278
#     4  10  21  35  49  69  97 125 157 198 238 278
#     4   8  13  24  45  71  97 124 155 192 233 276
#
# _framework density 17.861644999999999
#
# number of rings (size 3 to 8) (size 9 to 14) (size 15 to 20)
#    0.000    2.000    3.750    2.625    0.000    1.500 
#    0.000    0.000    0.000    2.250    0.000    0.875 
#    0.000    7.000    0.000    0.000    0.000    0.000 
#
# Total GULP energy -356941.106246 kJ/mol
# GULP energy per Si atom -5577.204785 kJ/mol
# Density = 1.782099 g / cm^3
# Si number density = 17.861645 Si / 1000 Ang^3
#
#
#
# Elastic Constant Matrix: (Units=GPa)
#
#
# Indices 1 2 3 4 5 6 
#
# 1 118.0514 23.8106 -0.1936 0.0000 0.0000 0.0000
# 2 23.8106 48.7612 0.7772 0.0000 0.0000 0.0000
# 3 -0.1936 0.7772 38.8515 0.0000 0.0000 0.0000
# 4 0.0000 0.0000 0.0000 16.7605 0.0000 0.0000
# 5 0.0000 0.0000 0.0000 0.0000 6.4100 0.0000
# 6 0.0000 0.0000 0.0000 0.0000 0.0000 27.0300
#
#
#
# Elastic Compliance Matrix: (Units=1/GPa)
#
#
# Indices 1 2 3 4 5 6 
#
# 1 0.009397 -0.004591 0.000139 0.000000 0.000000 0.000000
# 2 -0.004591 0.022758 -0.000478 0.000000 0.000000 0.000000
# 3 0.000139 -0.000478 0.025749 0.000000 0.000000 0.000000
# 4 0.000000 0.000000 0.000000 0.059664 0.000000 0.000000
# 5 0.000000 0.000000 0.000000 0.000000 0.156006 0.000000
# 6 0.000000 0.000000 0.000000 0.000000 0.000000 0.036996
#
#
# Mechanical properties :
#
#
# Convention : Reuss Voigt Hill
#
# Bulk Modulus (GPa) = 20.81464 28.27250 24.54357
# Shear Modulus (GPa) = 14.86125 22.12475 18.49300
#
# Velocity S-wave (km/s) = 2.88761 3.52330 3.22117
# Velocity P-wave (km/s) = 4.77454 5.69337 5.25408
#
# Compressibility (1/GPa) = 0.04804311
#
# Stress axis : x y z
#
# Youngs Moduli (GPa) = 106.41597 43.94155 38.83604
#
# Poissons Ratio (x) = 0.20173 -0.00539
# Poissons Ratio (y) = 0.48854 0.01857
# Poissons Ratio (z) = -0.01476 0.02101
#
# Static dielectric constant tensor:
#      x y z
#    x 1.640540 0.000000 0.000000 
#    y 0.000000 1.594590 0.000000 
#    z 0.000000 0.000000 1.688190 
# 
# From -- ./inp_files/11138.got.cif
#   From: 2010.05.17/outbox.cif.g08.bks.cpg/sg58_6_cif.got.tgz:11138.got - 2010.06.03 14:20:14.
