data_PCOD9441475
_publ_section_title
;
Structure prediction by ZEFSAII (Michael W. Deem and Ramdas Pophale) SiO2 
 PCOD9441475
Probable space group: P N N M
;
_chemical_formula_sum "Si O2"
_cell_formula_units_Z 28
_cell_length_a 15.345253
_cell_length_b 8.963585
_cell_length_c 8.569000
_cell_angle_alpha 90.000000
_cell_angle_beta 90.000000
_cell_angle_gamma 90.000000
_cell_volume 1178.652922
_symmetry_space_group_name_H-M "P N N M"
_symmetry_group_IT_number 58
_symmetry_cell_setting 'orthorhombic'
loop_
_space_group_symop_operation_xyz
x,y,z
-x,-y,z
1/2+x,1/2-y,1/2-z
1/2-x,1/2+y,1/2-z
-x,-y,-z
x,y,-z
1/2-x,1/2+y,1/2+z
1/2+x,1/2-y,1/2+z
loop_
_atom_site_type_symbol
_atom_site_label
_atom_site_fract_x
_atom_site_fract_y
_atom_site_fract_z
Si Si1 0.910545 0.595340 0.000000
Si Si2 0.589371 0.095508 0.168138
Si Si3 0.804187 0.297271 0.329741
Si Si4 0.252041 0.143308 0.500000
Si Si5 0.091301 0.919527 0.500000
O O1 0.908103 0.678669 0.833615
O O2 0.835560 0.468445 0.000000
O O3 0.000000 0.500000 0.000000
O O4 0.663165 0.967158 0.170814
O O5 0.500000 0.000000 0.166628
O O6 0.592870 0.174313 0.000000
O O7 0.758299 0.274361 0.500000
O O8 0.888177 0.189533 0.353094
O O9 0.758660 0.269406 0.164612
O O10 0.169075 0.037503 0.500000
O O11 0.000000 0.000000 0.500000
#
# Coordination Sequence:
#
# PCOD9441475 Si02
#       5
#     4   8   8   4   4
#     4   8  14  24  44  74 101 132 182 243 285 331
#     4   8  12  22  44  71 103 139 177 235 290 336
#     4   8  18  36  58  83 121 154 209 256 308 380
#     4  10  18  38  62  82 120 168 209 253 310 381
#     4  10  22  42  62  90 135 168 203 270 328 380
#
# _framework density 23.755934
#
# number of rings (size 3 to 8) (size 9 to 14) (size 15 to 20)
#    0.857    2.571    0.000    0.000    0.000    0.000 
#    2.571   12.143    0.000    0.000    0.000    0.000 
#    0.000    0.000    0.000    0.000    0.000    0.000 
#
# Total GULP energy -156031.594502 kJ/mol
# GULP energy per Si atom -5572.556946 kJ/mol
# Density = 2.370186 g / cm^3
# Si number density = 23.755934 Si / 1000 Ang^3
#
#
#
# Elastic Constant Matrix: (Units=GPa)
#
#
# Indices 1 2 3 4 5 6 
#
# 1 110.7558 30.7204 32.0024 0.0000 0.0000 0.0000
# 2 30.7204 73.3760 11.5923 0.0000 0.0000 0.0000
# 3 32.0024 11.5923 289.3099 0.0000 0.0000 0.0000
# 4 0.0000 0.0000 0.0000 13.9427 0.0000 0.0000
# 5 0.0000 0.0000 0.0000 0.0000 31.2886 0.0000
# 6 0.0000 0.0000 0.0000 0.0000 0.0000 32.3094
#
#
#
# Elastic Compliance Matrix: (Units=1/GPa)
#
#
# Indices 1 2 3 4 5 6 
#
# 1 0.010490 -0.004235 -0.000991 0.000000 0.000000 0.000000
# 2 -0.004235 0.015425 -0.000150 0.000000 0.000000 0.000000
# 3 -0.000991 -0.000150 0.003572 0.000000 0.000000 0.000000
# 4 0.000000 0.000000 0.000000 0.071722 0.000000 0.000000
# 5 0.000000 0.000000 0.000000 0.000000 0.031960 0.000000
# 6 0.000000 0.000000 0.000000 0.000000 0.000000 0.030951
#
#
# Mechanical properties :
#
#
# Convention : Reuss Voigt Hill
#
# Bulk Modulus (GPa) = 53.37276 69.11912 61.24594
# Shear Modulus (GPa) = 27.60647 42.11660 34.86154
#
# Velocity S-wave (km/s) = 3.41264 4.21513 3.83494
# Velocity P-wave (km/s) = 6.16799 7.26970 6.74138
#
# Compressibility (1/GPa) = 0.01873615
#
# Stress axis : x y z
#
# Youngs Moduli (GPa) = 95.33012 64.82876 279.94924
#
# Poissons Ratio (x) = 0.27457 0.27733
# Poissons Ratio (y) = 0.40375 0.04187
# Poissons Ratio (z) = 0.09444 0.00970
#
# Static dielectric constant tensor:
#      x y z
#    x 2.182830 0.000000 0.000000 
#    y 0.000000 1.847570 0.000000 
#    z 0.000000 0.000000 2.020180 
# 
# From -- ./inp_files/5029.got.cif
#   From: 2010.05.17/outbox.cif.g08.bks.cpg/sg58_3_cif.got.tgz:5029.got - 2010.06.03 14:20:14.
