data_PCOD9441256
_publ_section_title
;
Structure prediction by ZEFSAII (Michael W. Deem and Ramdas Pophale) SiO2 
 PCOD9441256
Probable space group: P N N M
;
_chemical_formula_sum "Si O2"
_cell_formula_units_Z 48
_cell_length_a 16.993420
_cell_length_b 8.236516
_cell_length_c 16.916145
_cell_angle_alpha 90.000000
_cell_angle_beta 90.000000
_cell_angle_gamma 90.000000
_cell_volume 2367.694890
_symmetry_space_group_name_H-M "P N N M"
_symmetry_group_IT_number 58
_symmetry_cell_setting 'orthorhombic'
loop_
_space_group_symop_operation_xyz
x,y,z
-x,-y,z
1/2+x,1/2-y,1/2-z
1/2-x,1/2+y,1/2-z
-x,-y,-z
x,y,-z
1/2-x,1/2+y,1/2+z
1/2+x,1/2-y,1/2+z
loop_
_atom_site_type_symbol
_atom_site_label
_atom_site_fract_x
_atom_site_fract_y
_atom_site_fract_z
Si Si1 0.067169 0.368619 0.248535
Si Si2 0.647048 0.559584 0.693013
Si Si3 0.081229 0.046210 0.655990
Si Si4 0.206503 0.822322 0.411699
Si Si5 0.387999 0.723616 0.410791
Si Si6 0.299402 0.122988 0.242654
O O1 0.076305 0.231373 0.315050
O O2 0.058820 0.290944 0.160754
O O3 0.147615 0.468408 0.244228
O O4 0.000000 0.500000 0.264442
O O5 0.581252 0.557402 0.760974
O O6 0.625147 0.466083 0.613420
O O7 0.683891 0.738223 0.692585
O O8 0.711091 0.439000 0.733382
O O9 0.158184 0.986744 0.607940
O O10 0.000000 0.000000 0.613260
O O11 0.185542 0.769477 0.500000
O O12 0.302176 0.814101 0.408355
O O13 0.180636 0.701456 0.342269
O O14 0.418316 0.739566 0.500000
#
# Coordination Sequence:
#
# PCOD9441256 Si02
#       6
#     8   8   8   8   8   8
#     4  11  21  33  53  78 106 139 176 218 259 308
#     4   9  17  31  53  74  98 130 167 211 254 304
#     4  10  19  33  52  75 102 136 177 213 255 306
#     4   9  18  34  55  77 103 134 170 216 264 309
#     4   9  19  35  54  76 103 134 170 215 264 310
#     4  10  18  32  54  79 102 131 173 212 256 309
#
# _framework density 20.272881999999999
#
# number of rings (size 3 to 8) (size 9 to 14) (size 15 to 20)
#    0.000    2.333    0.000    6.000    0.000    0.667 
#    0.000    1.667    0.000   33.000    0.000    0.000 
#    0.000    0.000    0.000    0.000    0.000    0.000 
#
# Total GULP energy -267326.816694 kJ/mol
# GULP energy per Si atom -5569.308681 kJ/mol
# Density = 2.022674 g / cm^3
# Si number density = 20.272882 Si / 1000 Ang^3
#
#
#
# Elastic Constant Matrix: (Units=GPa)
#
#
# Indices 1 2 3 4 5 6 
#
# 1 15.6727 -2.3051 -2.7617 0.0000 0.0000 0.0000
# 2 -2.3051 85.7396 10.6534 0.0000 0.0000 0.0000
# 3 -2.7617 10.6534 72.3657 0.0000 0.0000 0.0000
# 4 0.0000 0.0000 0.0000 15.1688 0.0000 0.0000
# 5 0.0000 0.0000 0.0000 0.0000 14.4728 0.0000
# 6 0.0000 0.0000 0.0000 0.0000 0.0000 27.8887
#
#
#
# Elastic Compliance Matrix: (Units=1/GPa)
#
#
# Indices 1 2 3 4 5 6 
#
# 1 0.064414 0.001453 0.002244 0.000000 0.000000 0.000000
# 2 0.001453 0.011913 -0.001698 0.000000 0.000000 0.000000
# 3 0.002244 -0.001698 0.014154 0.000000 0.000000 0.000000
# 4 0.000000 0.000000 0.000000 0.065925 0.000000 0.000000
# 5 0.000000 0.000000 0.000000 0.000000 0.069095 0.000000
# 6 0.000000 0.000000 0.000000 0.000000 0.000000 0.035857
#
#
# Mechanical properties :
#
#
# Convention : Reuss Voigt Hill
#
# Bulk Modulus (GPa) = 10.58427 20.55013 15.56720
# Shear Modulus (GPa) = 17.30977 22.71882 20.01430
#
# Velocity S-wave (km/s) = 2.92522 3.35124 3.14545
# Velocity P-wave (km/s) = 4.07939 5.01330 4.57027
#
# Compressibility (1/GPa) = 0.09447985
#
# Stress axis : x y z
#
# Youngs Moduli (GPa) = 15.52448 83.93973 70.64953
#
# Poissons Ratio (x) = -0.12196 -0.15856
# Poissons Ratio (y) = -0.02256 0.11999
# Poissons Ratio (z) = -0.03484 0.14256
#
# Static dielectric constant tensor:
#      x y z
#    x 1.955670 0.000000 0.000000 
#    y 0.000000 1.750320 0.000000 
#    z 0.000000 0.000000 1.712030 
# 
# From -- ./inp_files/27230.got.cif
#   From: 2010.05.17/outbox.cif.g08.bks.cpg/sg58_14_cif.got.tgz:27230.got - 2010.06.03 14:20:14.
