data_PCOD9441304
_publ_section_title
;
Structure prediction by ZEFSAII (Michael W. Deem and Ramdas Pophale) SiO2 
 PCOD9441304
Probable space group: P N N M
;
_chemical_formula_sum "Si O2"
_cell_formula_units_Z 48
_cell_length_a 16.060080
_cell_length_b 11.562432
_cell_length_c 13.870170
_cell_angle_alpha 90.000000
_cell_angle_beta 90.000000
_cell_angle_gamma 90.000000
_cell_volume 2575.601563
_symmetry_space_group_name_H-M "P N N M"
_symmetry_group_IT_number 58
_symmetry_cell_setting 'orthorhombic'
loop_
_space_group_symop_operation_xyz
x,y,z
-x,-y,z
1/2+x,1/2-y,1/2-z
1/2-x,1/2+y,1/2-z
-x,-y,-z
x,y,-z
1/2-x,1/2+y,1/2+z
1/2+x,1/2-y,1/2+z
loop_
_atom_site_type_symbol
_atom_site_label
_atom_site_fract_x
_atom_site_fract_y
_atom_site_fract_z
Si Si1 0.128856 0.978823 0.320060
Si Si2 0.599701 0.522491 0.606513
Si Si3 0.955697 0.619461 0.748860
Si Si4 0.515923 0.320208 0.888993
Si Si5 0.905464 0.293578 0.107708
Si Si6 0.313754 0.973900 0.612730
O O1 0.133936 0.021297 0.208630
O O2 0.218833 0.949833 0.360538
O O3 0.064276 0.872047 0.332005
O O4 0.085621 0.080809 0.379985
O O5 0.500000 0.500000 0.609946
O O6 0.627587 0.479280 0.500000
O O7 0.618767 0.659688 0.610294
O O8 0.947689 0.705609 0.659844
O O9 0.874733 0.590163 0.812376
O O10 0.000000 0.500000 0.719000
O O11 0.020425 0.681393 0.820154
O O12 0.492913 0.302724 0.000000
O O13 0.833800 0.388596 0.124415
O O14 0.937825 0.316898 0.000000
O O15 0.330198 0.944941 0.500000
#
# Coordination Sequence:
#
# PCOD9441304 Si02
#       6
#     8   8   8   8   8   8
#     4  11  20  38  59  87 115 148 197 244 286 342
#     4  10  18  32  58  87 114 148 189 233 288 343
#     4  10  20  37  57  84 114 151 190 238 290 348
#     4  11  22  38  60  82 112 157 198 238 287 348
#     4   9  17  33  56  82 113 147 188 235 288 344
#     4  10  21  35  57  87 117 152 194 241 289 342
#
# _framework density 18.636422
#
# number of rings (size 3 to 8) (size 9 to 14) (size 15 to 20)
#    0.000    1.833    3.333    2.500    0.000    3.667 
#    0.000    3.333    0.000    1.000    0.000    0.000 
#    0.000    0.000    0.000    0.000    0.000    0.000 
#
# Total GULP energy -267559.882788 kJ/mol
# GULP energy per Si atom -5574.164225 kJ/mol
# Density = 1.859400 g / cm^3
# Si number density = 18.636422 Si / 1000 Ang^3
#
#
#
# Elastic Constant Matrix: (Units=GPa)
#
#
# Indices 1 2 3 4 5 6 
#
# 1 80.8790 30.1689 18.6228 0.0000 0.0000 0.0000
# 2 30.1689 50.0932 23.4851 0.0000 0.0000 0.0000
# 3 18.6228 23.4851 109.8211 0.0000 0.0000 0.0000
# 4 0.0000 0.0000 0.0000 21.9126 0.0000 0.0000
# 5 0.0000 0.0000 0.0000 0.0000 13.8484 0.0000
# 6 0.0000 0.0000 0.0000 0.0000 0.0000 5.6439
#
#
#
# Elastic Compliance Matrix: (Units=1/GPa)
#
#
# Indices 1 2 3 4 5 6 
#
# 1 0.015998 -0.009295 -0.000725 0.000000 0.000000 0.000000
# 2 -0.009295 0.027588 -0.004323 0.000000 0.000000 0.000000
# 3 -0.000725 -0.004323 0.010153 0.000000 0.000000 0.000000
# 4 0.000000 0.000000 0.000000 0.045636 0.000000 0.000000
# 5 0.000000 0.000000 0.000000 0.000000 0.072211 0.000000
# 6 0.000000 0.000000 0.000000 0.000000 0.000000 0.177183
#
#
# Mechanical properties :
#
#
# Convention : Reuss Voigt Hill
#
# Bulk Modulus (GPa) = 39.91696 42.81632 41.36664
# Shear Modulus (GPa) = 12.95984 19.51540 16.23762
#
# Velocity S-wave (km/s) = 2.63991 3.23950 2.95495
# Velocity P-wave (km/s) = 5.54594 6.08415 5.82127
#
# Compressibility (1/GPa) = 0.02505201
#
# Stress axis : x y z
#
# Youngs Moduli (GPa) = 62.50656 36.24794 98.49075
#
# Poissons Ratio (x) = 0.33693 0.07142
# Poissons Ratio (y) = 0.58101 0.42581
# Poissons Ratio (z) = 0.04533 0.15671
#
# Static dielectric constant tensor:
#      x y z
#    x 1.613540 0.000000 0.000000 
#    y 0.000000 1.674370 0.000000 
#    z 0.000000 0.000000 1.676340 
# 
# From -- ./inp_files/22108.got.cif
#   From: 2010.05.17/outbox.cif.g08.bks.cpg/sg58_12_cif.got.tgz:22108.got - 2010.06.03 14:20:14.
