data_PCOD9441228
_publ_section_title
;
Structure prediction by ZEFSAII (Michael W. Deem and Ramdas Pophale) SiO2 
 PCOD9441228
Probable space group: P N N M
;
_chemical_formula_sum "Si O2"
_cell_formula_units_Z 52
_cell_length_a 14.500793
_cell_length_b 21.378064
_cell_length_c 9.814137
_cell_angle_alpha 90.000000
_cell_angle_beta 90.000000
_cell_angle_gamma 90.000000
_cell_volume 3042.371486
_symmetry_space_group_name_H-M "P N N M"
_symmetry_group_IT_number 58
_symmetry_cell_setting 'orthorhombic'
loop_
_space_group_symop_operation_xyz
x,y,z
-x,-y,z
1/2+x,1/2-y,1/2-z
1/2-x,1/2+y,1/2-z
-x,-y,-z
x,y,-z
1/2-x,1/2+y,1/2+z
1/2+x,1/2-y,1/2+z
loop_
_atom_site_type_symbol
_atom_site_label
_atom_site_fract_x
_atom_site_fract_y
_atom_site_fract_z
Si Si1 0.502867 0.344941 0.334419
Si Si2 0.644882 0.900182 0.654166
Si Si3 0.320704 0.573319 0.664336
Si Si4 0.991551 0.700591 0.837938
Si Si5 0.628673 0.110023 0.842437
Si Si6 0.000000 0.500000 0.250539
Si Si7 0.666379 0.570204 0.665278
O O1 0.499343 0.345667 0.500000
O O2 0.597225 0.379842 0.296556
O O3 0.501413 0.272508 0.294013
O O4 0.414715 0.384497 0.285379
O O5 0.681148 0.899075 0.500000
O O6 0.725902 0.909924 0.761411
O O7 0.587361 0.836847 0.680310
O O8 0.570220 0.956182 0.667259
O O9 0.308877 0.575463 0.500000
O O10 0.347415 0.502206 0.702459
O O11 0.916287 0.662664 0.752032
O O12 0.970183 0.698081 0.000000
O O13 0.731354 0.092112 0.794757
O O14 0.563909 0.048457 0.832891
O O15 0.632527 0.130154 0.000000
O O16 0.664782 0.571870 0.500000
#
# Coordination Sequence:
#
# PCOD9441228 Si02
#       7
#     8   8   8   8   8   4   8
#     4   9  18  34  55  73 102 140 178 215 248 302
#     4  10  20  33  52  77 106 138 171 210 258 313
#     4  10  19  33  55  82 103 130 173 221 264 301
#     4   9  20  36  51  74 104 142 178 205 249 312
#     4  10  19  31  53  81 107 131 164 216 265 303
#     4  10  18  32  52  78 104 136 168 210 252 312
#     4   9  17  31  52  81 103 129 172 217 260 299
#
# _framework density 17.091930000000001
#
# number of rings (size 3 to 8) (size 9 to 14) (size 15 to 20)
#    0.000    2.462    1.538    0.923    0.000    6.154 
#    0.000    2.308    0.000    4.615    0.000    0.000 
#    0.000    0.000    0.000    0.000    0.000    0.000 
#
# Total GULP energy -289851.047967 kJ/mol
# GULP energy per Si atom -5574.058615 kJ/mol
# Density = 1.705303 g / cm^3
# Si number density = 17.091930 Si / 1000 Ang^3
#
#
#
# Elastic Constant Matrix: (Units=GPa)
#
#
# Indices 1 2 3 4 5 6 
#
# 1 120.5674 85.0456 34.5741 0.0000 0.0000 0.0000
# 2 85.0456 166.4569 41.3914 0.0000 0.0000 0.0000
# 3 34.5741 41.3914 35.7641 0.0000 0.0000 0.0000
# 4 0.0000 0.0000 0.0000 16.2976 0.0000 0.0000
# 5 0.0000 0.0000 0.0000 0.0000 9.2195 0.0000
# 6 0.0000 0.0000 0.0000 0.0000 0.0000 12.6092
#
#
#
# Elastic Compliance Matrix: (Units=1/GPa)
#
#
# Indices 1 2 3 4 5 6 
#
# 1 0.014278 -0.005423 -0.007526 0.000000 0.000000 0.000000
# 2 -0.005423 0.010495 -0.006904 0.000000 0.000000 0.000000
# 3 -0.007526 -0.006904 0.043226 0.000000 0.000000 0.000000
# 4 0.000000 0.000000 0.000000 0.061359 0.000000 0.000000
# 5 0.000000 0.000000 0.000000 0.000000 0.108466 0.000000
# 6 0.000000 0.000000 0.000000 0.000000 0.000000 0.079307
#
#
# Mechanical properties :
#
#
# Convention : Reuss Voigt Hill
#
# Bulk Modulus (GPa) = 35.34394 71.64563 53.49478
# Shear Modulus (GPa) = 13.65121 18.41042 16.03082
#
# Velocity S-wave (km/s) = 2.82918 3.28554 3.06587
# Velocity P-wave (km/s) = 5.60321 7.51012 6.62563
#
# Compressibility (1/GPa) = 0.02829339
#
# Stress axis : x y z
#
# Youngs Moduli (GPa) = 70.03886 95.28286 23.13402
#
# Poissons Ratio (x) = 0.51675 0.17411
# Poissons Ratio (y) = 0.37984 0.15971
# Poissons Ratio (z) = 0.52712 0.65779
#
# Static dielectric constant tensor:
#      x y z
#    x 1.564100 0.000000 0.000000 
#    y 0.000000 1.575840 0.000000 
#    z 0.000000 0.000000 1.564740 
# 
# From -- ./inp_files/6206.got.cif
#   From: 2010.05.17/outbox.cif.g08.bks.cpg/sg58_4_cif.got.tgz:6206.got - 2010.06.03 14:20:14.
