data_PCOD9441050
_publ_section_title
;
Structure prediction by ZEFSAII (Michael W. Deem and Ramdas Pophale) SiO2 
 PCOD9441050
Probable space group: P N N M
;
_chemical_formula_sum "Si O2"
_cell_formula_units_Z 48
_cell_length_a 17.712238
_cell_length_b 12.317513
_cell_length_c 9.445130
_cell_angle_alpha 90.000000
_cell_angle_beta 90.000000
_cell_angle_gamma 90.000000
_cell_volume 2060.650830
_symmetry_space_group_name_H-M "P N N M"
_symmetry_group_IT_number 58
_symmetry_cell_setting 'orthorhombic'
loop_
_space_group_symop_operation_xyz
x,y,z
-x,-y,z
1/2+x,1/2-y,1/2-z
1/2-x,1/2+y,1/2-z
-x,-y,-z
x,y,-z
1/2-x,1/2+y,1/2+z
1/2+x,1/2-y,1/2+z
loop_
_atom_site_type_symbol
_atom_site_label
_atom_site_fract_x
_atom_site_fract_y
_atom_site_fract_z
Si Si1 0.117045 0.001608 0.829589
Si Si2 0.838754 0.209530 0.333907
Si Si3 0.168004 0.341459 0.246818
Si Si4 0.049113 0.188230 0.659058
Si Si5 0.508726 0.125523 0.656195
Si Si6 0.786055 0.428205 0.662988
O O1 0.058301 0.086865 0.763826
O O2 0.199676 0.052905 0.792852
O O3 0.119853 0.884016 0.755827
O O4 0.110037 0.993561 0.000000
O O5 0.860407 0.202390 0.500000
O O6 0.835824 0.332318 0.270467
O O7 0.748382 0.183549 0.320461
O O8 0.131576 0.247492 0.342484
O O9 0.099011 0.357576 0.140792
O O10 0.176064 0.455128 0.326327
O O11 0.029503 0.156304 0.500000
O O12 0.995200 0.282674 0.724024
O O13 0.473864 0.142183 0.500000
O O14 0.500000 0.000000 0.700147
O O15 0.781100 0.395317 0.500000
#
# Coordination Sequence:
#
# PCOD9441050 Si02
#       6
#     8   8   8   8   8   8
#     4  10  19  31  45  64  95 127 159 193 230 275
#     4  10  18  30  47  67  94 128 163 190 223 273
#     4   9  18  28  47  69  95 125 155 194 231 275
#     4  10  19  30  47  69  94 122 156 193 232 278
#     4   9  18  32  49  69  95 125 155 192 242 288
#     4   9  16  29  44  63  92 126 156 190 230 270
#
# _framework density 23.293612
#
# number of rings (size 3 to 8) (size 9 to 14) (size 15 to 20)
#    1.000    1.500    1.667    2.000    0.000    1.000 
#    0.000    1.667    0.000    0.000    0.000    1.167 
#    0.000    8.000    0.000    0.000    0.000    0.000 
#
# Total GULP energy -267441.040133 kJ/mol
# GULP energy per Si atom -5571.688336 kJ/mol
# Density = 2.324059 g / cm^3
# Si number density = 23.293612 Si / 1000 Ang^3
#
#
#
# Elastic Constant Matrix: (Units=GPa)
#
#
# Indices 1 2 3 4 5 6 
#
# 1 68.2697 12.6901 1.4735 0.0000 0.0000 0.0000
# 2 12.6901 169.8326 63.0514 0.0000 0.0000 0.0000
# 3 1.4735 63.0514 105.3705 0.0000 0.0000 0.0000
# 4 0.0000 0.0000 0.0000 26.8439 0.0000 0.0000
# 5 0.0000 0.0000 0.0000 0.0000 -4.5943 0.0000
# 6 0.0000 0.0000 0.0000 0.0000 0.0000 45.3707
#
#
#
# Elastic Compliance Matrix: (Units=1/GPa)
#
#
# Indices 1 2 3 4 5 6 
#
# 1 0.014882 -0.001330 0.000588 0.000000 0.000000 0.000000
# 2 -0.001330 0.007689 -0.004582 0.000000 0.000000 0.000000
# 3 0.000588 -0.004582 0.012224 0.000000 0.000000 0.000000
# 4 0.000000 0.000000 0.000000 0.037252 0.000000 0.000000
# 5 0.000000 0.000000 0.000000 0.000000 -0.217662 0.000000
# 6 0.000000 0.000000 0.000000 0.000000 0.000000 0.022041
#
#
# Mechanical properties :
#
#
# Convention : Reuss Voigt Hill
#
# Bulk Modulus (GPa) = 41.41481 55.32256 48.36868
# Shear Modulus (GPa) = -47.67534 31.27457 -8.20038
#
# Velocity S-wave (km/s) = -4.52897 3.66816 -1.87832
# Velocity P-wave (km/s) = 3.08718 6.46082 4.01320
#
# Compressibility (1/GPa) = 0.02414595
#
# Stress axis : x y z
#
# Youngs Moduli (GPa) = 67.19353 130.06095 81.80659
#
# Poissons Ratio (x) = 0.17302 -0.04809
# Poissons Ratio (y) = 0.08939 0.37485
# Poissons Ratio (z) = -0.03950 0.59596
#
# Static dielectric constant tensor:
#      x y z
#    x 1.987770 0.000000 0.000000 
#    y 0.000000 1.927900 0.000000 
#    z 0.000000 0.000000 1.825670 
# 
# From -- ./inp_files/10337.got.cif
#   From: 2010.05.17/outbox.cif.g08.bks.cpg/sg58_6_cif.got.tgz:10337.got - 2010.06.03 14:20:14.
