data_PCOD9441986
_publ_section_title
;
Structure prediction by ZEFSAII (Michael W. Deem and Ramdas Pophale) SiO2 
 PCOD9441986
Probable space group: P N N M
;
_chemical_formula_sum "Si O2"
_cell_formula_units_Z 58
_cell_length_a 13.161545
_cell_length_b 24.726371
_cell_length_c 7.407585
_cell_angle_alpha 90.000000
_cell_angle_beta 90.000000
_cell_angle_gamma 90.000000
_cell_volume 2410.704052
_symmetry_space_group_name_H-M "P N N M"
_symmetry_group_IT_number 58
_symmetry_cell_setting 'orthorhombic'
loop_
_space_group_symop_operation_xyz
x,y,z
-x,-y,z
1/2+x,1/2-y,1/2-z
1/2-x,1/2+y,1/2-z
-x,-y,-z
x,y,-z
1/2-x,1/2+y,1/2+z
1/2+x,1/2-y,1/2+z
loop_
_atom_site_type_symbol
_atom_site_label
_atom_site_fract_x
_atom_site_fract_y
_atom_site_fract_z
Si Si1 0.328019 0.321608 0.782920
Si Si2 0.409310 0.430100 0.219927
Si Si3 0.865429 0.946194 0.281858
Si Si4 0.542913 0.268803 0.220022
Si Si5 0.460365 0.159548 0.202595
Si Si6 0.752999 0.289608 0.795732
Si Si7 0.000000 0.500000 0.500000
Si Si8 0.137702 0.551536 0.203975
O O1 0.331425 0.383484 0.722391
O O2 0.440803 0.300140 0.737077
O O3 0.257038 0.275856 0.700914
O O4 0.314413 0.319313 0.000000
O O5 0.375241 0.490325 0.267360
O O6 0.526657 0.421432 0.280136
O O7 0.411315 0.427832 0.000000
O O8 0.868821 0.940992 0.500000
O O9 0.750806 0.929176 0.232728
O O10 0.530587 0.206668 0.283080
O O11 0.642403 0.300340 0.281434
O O12 0.548694 0.266506 0.000000
O O13 0.350825 0.189374 0.193997
O O14 0.436710 0.103614 0.297602
O O15 0.495104 0.145816 0.000000
O O16 0.761291 0.310873 0.000000
O O17 0.086756 0.510929 0.342319
O O18 0.147912 0.530049 0.000000
#
# Coordination Sequence:
#
# PCOD9441986 Si02
#       8
#     8   8   8   8   8   8   2   8
#     4   9  17  31  51  76 108 146 186 228 292 356
#     4   8  14  29  55  87 118 151 190 248 304 361
#     4   8  16  31  57  90 118 147 198 249 301 363
#     4   8  17  32  52  77 111 152 194 240 297 353
#     4  10  20  39  60  84 117 156 199 247 303 362
#     4  10  19  33  53  81 112 147 192 243 289 353
#     4  12  26  48  64  88 128 156 210 264 312 350
#     4  11  23  42  67  93 118 162 209 256 309 368
#
# _framework density 24.059363999999999
#
# number of rings (size 3 to 8) (size 9 to 14) (size 15 to 20)
#    0.000    2.759    0.690    2.690    1.931    0.000 
#    2.483    6.897    1.517    0.828    0.000    0.000 
#    0.000    0.000    0.000    0.000    0.000    0.000 
#
# Total GULP energy -323135.509073 kJ/mol
# GULP energy per Si atom -5571.301881 kJ/mol
# Density = 2.400460 g / cm^3
# Si number density = 24.059364 Si / 1000 Ang^3
#
#
#
# Elastic Constant Matrix: (Units=GPa)
#
#
# Indices 1 2 3 4 5 6 
#
# 1 55.3337 -17.8590 6.7138 0.0000 0.0000 0.0000
# 2 -17.8590 48.0331 -0.3524 0.0000 0.0000 0.0000
# 3 6.7138 -0.3524 96.7180 0.0000 0.0000 0.0000
# 4 0.0000 0.0000 0.0000 12.3476 0.0000 0.0000
# 5 0.0000 0.0000 0.0000 0.0000 3.8199 0.0000
# 6 0.0000 0.0000 0.0000 0.0000 0.0000 26.8674
#
#
#
# Elastic Compliance Matrix: (Units=1/GPa)
#
#
# Indices 1 2 3 4 5 6 
#
# 1 0.020727 0.007696 -0.001411 0.000000 0.000000 0.000000
# 2 0.007696 0.023677 -0.000448 0.000000 0.000000 0.000000
# 3 -0.001411 -0.000448 0.010436 0.000000 0.000000 0.000000
# 4 0.000000 0.000000 0.000000 0.080987 0.000000 0.000000
# 5 0.000000 0.000000 0.000000 0.000000 0.261790 0.000000
# 6 0.000000 0.000000 0.000000 0.000000 0.000000 0.037220
#
#
# Mechanical properties :
#
#
# Convention : Reuss Voigt Hill
#
# Bulk Modulus (GPa) = 15.03421 19.67662 17.35541
# Shear Modulus (GPa) = 11.22753 22.71248 16.97000
#
# Velocity S-wave (km/s) = 2.16257 3.07582 2.65870
# Velocity P-wave (km/s) = 3.53525 4.56184 4.08095
#
# Compressibility (1/GPa) = 0.06651498
#
# Stress axis : x y z
#
# Youngs Moduli (GPa) = 48.24560 42.23478 95.82549
#
# Poissons Ratio (x) = -0.32505 0.13519
# Poissons Ratio (y) = -0.37131 0.04293
# Poissons Ratio (z) = 0.06806 0.01892
#
# Static dielectric constant tensor:
#      x y z
#    x 1.940610 0.000000 0.000000 
#    y 0.000000 1.975440 0.000000 
#    z 0.000000 0.000000 1.915910 
# 
# From -- ./inp_files/4439.got.cif
#   From: 2010.05.17/outbox.cif.g08.bks.cpg/sg58_3_cif.got.tgz:4439.got - 2010.06.03 14:20:14.
