data_PCOD9441332
_publ_section_title
;
Structure prediction by ZEFSAII (Michael W. Deem and Ramdas Pophale) SiO2 
 PCOD9441332
Probable space group: P N N M
;
_chemical_formula_sum "Si O2"
_cell_formula_units_Z 64
_cell_length_a 21.360275
_cell_length_b 20.347069
_cell_length_c 7.801517
_cell_angle_alpha 90.000000
_cell_angle_beta 90.000000
_cell_angle_gamma 90.000000
_cell_volume 3390.687433
_symmetry_space_group_name_H-M "P N N M"
_symmetry_group_IT_number 58
_symmetry_cell_setting 'orthorhombic'
loop_
_space_group_symop_operation_xyz
x,y,z
-x,-y,z
1/2+x,1/2-y,1/2-z
1/2-x,1/2+y,1/2-z
-x,-y,-z
x,y,-z
1/2-x,1/2+y,1/2+z
1/2+x,1/2-y,1/2+z
loop_
_atom_site_type_symbol
_atom_site_label
_atom_site_fract_x
_atom_site_fract_y
_atom_site_fract_z
Si Si1 0.880806 0.561338 0.706867
Si Si2 0.303054 0.724680 0.201393
Si Si3 0.074934 0.299609 0.706097
Si Si4 0.680099 0.698920 0.289724
Si Si5 0.229689 0.082054 0.198702
Si Si6 0.765188 0.062092 0.790759
Si Si7 0.063653 0.716518 0.205920
Si Si8 0.873830 0.416827 0.797336
O O1 0.882399 0.559724 0.500000
O O2 0.918672 0.624900 0.768049
O O3 0.807791 0.571022 0.758249
O O4 0.901182 0.489393 0.767872
O O5 0.365967 0.757732 0.272425
O O6 0.238965 0.756832 0.269647
O O7 0.299500 0.646518 0.218908
O O8 0.302530 0.740732 0.000000
O O9 0.079455 0.301998 0.500000
O O10 0.007670 0.270333 0.747834
O O11 0.679449 0.699671 0.500000
O O12 0.694239 0.624356 0.236188
O O13 0.615409 0.731560 0.231823
O O14 0.305221 0.085979 0.213082
O O15 0.213338 0.009836 0.269837
O O16 0.212145 0.083759 0.000000
O O17 0.765519 0.060612 0.000000
O O18 0.084239 0.643569 0.265801
O O19 0.067188 0.715988 0.000000
O O20 0.863241 0.408080 0.000000
#
# Coordination Sequence:
#
# PCOD9441332 Si02
#       8
#     8   8   8   8   8   8   8   8
#     4   9  17  31  50  73  99 132 171 211 251 293
#     4  10  18  33  56  76  98 134 175 208 251 306
#     4  10  21  35  53  74 101 138 175 213 254 305
#     4   9  15  30  54  74  94 128 172 209 244 297
#     4  10  19  30  50  80 107 129 161 214 262 298
#     4   8  14  27  50  75  97 123 163 208 248 292
#     4  10  21  34  50  72 101 136 170 211 255 299
#     4  10  19  32  49  72 103 140 174 204 247 305
#
# _framework density 18.875228
#
# number of rings (size 3 to 8) (size 9 to 14) (size 15 to 20)
#    0.000    2.500    2.500    1.500    0.000    2.500 
#    0.000    2.500    0.000    4.500    0.000    5.250 
#    0.000    0.000    0.000    0.000    0.000    0.000 
#
# Total GULP energy -356953.643483 kJ/mol
# GULP energy per Si atom -5577.400679 kJ/mol
# Density = 1.883227 g / cm^3
# Si number density = 18.875228 Si / 1000 Ang^3
#
#
#
# Elastic Constant Matrix: (Units=GPa)
#
#
# Indices 1 2 3 4 5 6 
#
# 1 75.5151 42.9229 -2.5210 0.0000 0.0000 0.0000
# 2 42.9229 103.3118 -4.2400 0.0000 0.0000 0.0000
# 3 -2.5210 -4.2400 20.4296 0.0000 0.0000 0.0000
# 4 0.0000 0.0000 0.0000 25.5988 0.0000 0.0000
# 5 0.0000 0.0000 0.0000 0.0000 18.9783 0.0000
# 6 0.0000 0.0000 0.0000 0.0000 0.0000 23.5648
#
#
#
# Elastic Compliance Matrix: (Units=1/GPa)
#
#
# Indices 1 2 3 4 5 6 
#
# 1 0.017345 -0.007180 0.000650 0.000000 0.000000 0.000000
# 2 -0.007180 0.012734 0.001757 0.000000 0.000000 0.000000
# 3 0.000650 0.001757 0.049394 0.000000 0.000000 0.000000
# 4 0.000000 0.000000 0.000000 0.039064 0.000000 0.000000
# 5 0.000000 0.000000 0.000000 0.000000 0.052692 0.000000
# 6 0.000000 0.000000 0.000000 0.000000 0.000000 0.042436
#
#
# Mechanical properties :
#
#
# Convention : Reuss Voigt Hill
#
# Bulk Modulus (GPa) = 14.30035 30.17558 22.23796
# Shear Modulus (GPa) = 20.28236 24.50134 22.39185
#
# Velocity S-wave (km/s) = 3.28159 3.60678 3.44802
# Velocity P-wave (km/s) = 4.68520 5.77639 5.25918
#
# Compressibility (1/GPa) = 0.06992837
#
# Stress axis : x y z
#
# Youngs Moduli (GPa) = 57.65350 78.52712 20.24555
#
# Poissons Ratio (x) = 0.56380 -0.01317
# Poissons Ratio (y) = 0.41393 -0.03557
# Poissons Ratio (z) = -0.03749 -0.13797
#
# Static dielectric constant tensor:
#      x y z
#    x 1.633310 0.000000 0.000000 
#    y 0.000000 1.675930 0.000000 
#    z 0.000000 0.000000 1.704380 
# 
# From -- ./inp_files/9461.got.cif
#   From: 2010.05.17/outbox.cif.g08.bks.cpg/sg58_5_cif.got.tgz:9461.got - 2010.06.03 14:20:14.
