data_PCOD9441357
_publ_section_title
;
Structure prediction by ZEFSAII (Michael W. Deem and Ramdas Pophale) SiO2 
 PCOD9441357
Probable space group: P N N M
;
_chemical_formula_sum "Si O2"
_cell_formula_units_Z 40
_cell_length_a 14.956215
_cell_length_b 12.112740
_cell_length_c 11.338165
_cell_angle_alpha 90.000000
_cell_angle_beta 90.000000
_cell_angle_gamma 90.000000
_cell_volume 2054.030403
_symmetry_space_group_name_H-M "P N N M"
_symmetry_group_IT_number 58
_symmetry_cell_setting 'orthorhombic'
loop_
_space_group_symop_operation_xyz
x,y,z
-x,-y,z
1/2+x,1/2-y,1/2-z
1/2-x,1/2+y,1/2-z
-x,-y,-z
x,y,-z
1/2-x,1/2+y,1/2+z
1/2+x,1/2-y,1/2+z
loop_
_atom_site_type_symbol
_atom_site_label
_atom_site_fract_x
_atom_site_fract_y
_atom_site_fract_z
Si Si1 0.606753 0.013090 0.867775
Si Si2 0.488053 0.629111 0.856608
Si Si3 0.207407 0.151449 0.366450
Si Si4 0.201964 0.416794 0.129687
Si Si5 0.161802 0.732539 0.312490
O O1 0.644467 0.074307 0.750660
O O2 0.500000 0.000000 0.856575
O O3 0.647019 0.889022 0.865011
O O4 0.624752 0.060483 0.000000
O O5 0.500000 0.500000 0.827790
O O6 0.390652 0.666802 0.811587
O O7 0.568590 0.703437 0.810552
O O8 0.490643 0.637225 0.000000
O O9 0.198703 0.185769 0.500000
O O10 0.292037 0.211651 0.312484
O O11 0.230921 0.021452 0.362738
O O12 0.263963 0.309140 0.127252
O O13 0.155548 0.425945 0.000000
#
# Coordination Sequence:
#
# PCOD9441357 Si02
#       5
#     8   8   8   8   8
#     4  10  23  40  59  88 122 156 198 248 298 352
#     4  10  18  33  61  88 109 142 198 252 285 338
#     4   9  20  36  56  85 117 150 194 247 298 347
#     4  10  20  37  59  85 117 155 196 243 296 353
#     4  11  21  35  61  87 119 156 198 242 297 350
#
# _framework density 19.473908999999999
#
# number of rings (size 3 to 8) (size 9 to 14) (size 15 to 20)
#    0.000    2.000    2.000    1.800    2.800    1.200 
#    0.000    0.000    0.000    1.800    0.000    0.000 
#    0.000    0.000    0.000    0.000    0.000    0.000 
#
# Total GULP energy -222895.549655 kJ/mol
# GULP energy per Si atom -5572.388741 kJ/mol
# Density = 1.942959 g / cm^3
# Si number density = 19.473909 Si / 1000 Ang^3
#
#
#
# Elastic Constant Matrix: (Units=GPa)
#
#
# Indices 1 2 3 4 5 6 
#
# 1 87.0449 14.7533 63.3514 0.0000 0.0000 0.0000
# 2 14.7533 76.4910 30.7378 0.0000 0.0000 0.0000
# 3 63.3514 30.7378 116.4625 0.0000 0.0000 0.0000
# 4 0.0000 0.0000 0.0000 10.3246 0.0000 0.0000
# 5 0.0000 0.0000 0.0000 0.0000 8.3816 0.0000
# 6 0.0000 0.0000 0.0000 0.0000 0.0000 35.8469
#
#
#
# Elastic Compliance Matrix: (Units=1/GPa)
#
#
# Indices 1 2 3 4 5 6 
#
# 1 0.019038 0.000548 -0.010500 0.000000 0.000000 0.000000
# 2 0.000548 0.014640 -0.004162 0.000000 0.000000 0.000000
# 3 -0.010500 -0.004162 0.015397 0.000000 0.000000 0.000000
# 4 0.000000 0.000000 0.000000 0.096856 0.000000 0.000000
# 5 0.000000 0.000000 0.000000 0.000000 0.119309 0.000000
# 6 0.000000 0.000000 0.000000 0.000000 0.000000 0.027896
#
#
# Mechanical properties :
#
#
# Convention : Reuss Voigt Hill
#
# Bulk Modulus (GPa) = 47.97210 55.29815 51.63512
# Shear Modulus (GPa) = 15.22935 22.32101 18.77518
#
# Velocity S-wave (km/s) = 2.79953 3.38923 3.10840
# Velocity P-wave (km/s) = 5.92767 6.61616 6.28136
#
# Compressibility (1/GPa) = 0.02084545
#
# Stress axis : x y z
#
# Youngs Moduli (GPa) = 52.52748 68.30483 64.94898
#
# Poissons Ratio (x) = -0.03741 0.68199
# Poissons Ratio (y) = -0.02877 0.27031
# Poissons Ratio (z) = 0.55156 0.28428
#
# Static dielectric constant tensor:
#      x y z
#    x 1.657290 0.000000 0.000000 
#    y 0.000000 1.726960 0.000000 
#    z 0.000000 0.000000 1.735710 
# 
# From -- ./inp_files/14095.got.cif
#   From: 2010.05.17/outbox.cif.g08.bks.cpg/sg58_8_cif.got.tgz:14095.got - 2010.06.03 14:20:14.
