data_PCOD9441154
_publ_section_title
;
Structure prediction by ZEFSAII (Michael W. Deem and Ramdas Pophale) SiO2 
 PCOD9441154
Probable space group: P N N M
;
_chemical_formula_sum "Si O2"
_cell_formula_units_Z 56
_cell_length_a 19.693905
_cell_length_b 18.450915
_cell_length_c 7.685698
_cell_angle_alpha 90.000000
_cell_angle_beta 90.000000
_cell_angle_gamma 90.000000
_cell_volume 2792.756441
_symmetry_space_group_name_H-M "P N N M"
_symmetry_group_IT_number 58
_symmetry_cell_setting 'orthorhombic'
loop_
_space_group_symop_operation_xyz
x,y,z
-x,-y,z
1/2+x,1/2-y,1/2-z
1/2-x,1/2+y,1/2-z
-x,-y,-z
x,y,-z
1/2-x,1/2+y,1/2+z
1/2+x,1/2-y,1/2+z
loop_
_atom_site_type_symbol
_atom_site_label
_atom_site_fract_x
_atom_site_fract_y
_atom_site_fract_z
Si Si1 0.711094 0.071931 0.712089
Si Si2 0.809051 0.191783 0.298747
Si Si3 0.923931 0.490161 0.794920
Si Si4 0.353844 0.157054 0.805034
Si Si5 0.078150 0.078917 0.790868
Si Si6 0.274291 0.577343 0.798625
Si Si7 0.069009 0.909051 0.210549
O O1 0.708994 0.076595 0.500000
O O2 0.744156 0.147470 0.774683
O O3 0.637230 0.042509 0.772714
O O4 0.763418 0.006494 0.755311
O O5 0.792352 0.209877 0.500000
O O6 0.839590 0.265264 0.217495
O O7 0.871078 0.135693 0.293840
O O8 0.899300 0.406859 0.775803
O O9 0.000000 0.500000 0.721752
O O10 0.927686 0.506596 0.000000
O O11 0.278890 0.122911 0.809046
O O12 0.380800 0.168939 0.000000
O O13 0.149551 0.104957 0.719454
O O14 0.007161 0.114332 0.736196
O O15 0.074618 0.993788 0.744371
O O16 0.080894 0.082942 0.000000
O O17 0.252954 0.581684 0.000000
O O18 0.074112 0.903374 0.000000
#
# Coordination Sequence:
#
# PCOD9441154 Si02
#       7
#     8   8   8   8   8   8   8
#     4   8  15  29  50  74  96 124 167 211 252 300
#     4  10  19  33  50  72 103 138 174 212 257 311
#     4   9  18  35  58  80 101 130 175 226 266 313
#     4  10  21  34  51  74 105 138 168 214 270 316
#     4   9  17  30  47  72 103 131 164 207 254 298
#     4  10  18  31  52  74  98 131 173 216 249 298
#     4   9  18  30  47  72 103 136 168 205 248 301
#
# _framework density 20.051874999999999
#
# number of rings (size 3 to 8) (size 9 to 14) (size 15 to 20)
#    0.000    2.714    1.429    2.571    0.000    2.000 
#    0.000    2.857    0.000    3.429    0.000    0.000 
#    0.000    0.000    0.000    0.000    0.000    0.000 
#
# Total GULP energy -311800.997648 kJ/mol
# GULP energy per Si atom -5567.874958 kJ/mol
# Density = 2.000624 g / cm^3
# Si number density = 20.051875 Si / 1000 Ang^3
#
#
#
# Elastic Constant Matrix: (Units=GPa)
#
#
# Indices 1 2 3 4 5 6 
#
# 1 138.9283 40.2816 0.4137 0.0000 0.0000 0.0000
# 2 40.2816 85.3753 0.5249 0.0000 0.0000 0.0000
# 3 0.4137 0.5249 31.1620 0.0000 0.0000 0.0000
# 4 0.0000 0.0000 0.0000 54.8863 0.0000 0.0000
# 5 0.0000 0.0000 0.0000 0.0000 37.5823 0.0000
# 6 0.0000 0.0000 0.0000 0.0000 0.0000 12.7835
#
#
#
# Elastic Compliance Matrix: (Units=1/GPa)
#
#
# Indices 1 2 3 4 5 6 
#
# 1 0.008339 -0.003934 -0.000044 0.000000 0.000000 0.000000
# 2 -0.003934 0.013570 -0.000176 0.000000 0.000000 0.000000
# 3 -0.000044 -0.000176 0.032094 0.000000 0.000000 0.000000
# 4 0.000000 0.000000 0.000000 0.018219 0.000000 0.000000
# 5 0.000000 0.000000 0.000000 0.000000 0.026608 0.000000
# 6 0.000000 0.000000 0.000000 0.000000 0.000000 0.078226
#
#
# Mechanical properties :
#
#
# Convention : Reuss Voigt Hill
#
# Bulk Modulus (GPa) = 21.88512 37.54510 29.71511
# Shear Modulus (GPa) = 24.92552 35.33344 30.12948
#
# Velocity S-wave (km/s) = 3.52952 4.20229 3.88051
# Velocity P-wave (km/s) = 5.24861 6.50464 5.91009
#
# Compressibility (1/GPa) = 0.04569315
#
# Stress axis : x y z
#
# Youngs Moduli (GPa) = 119.92184 73.69063 31.15856
#
# Poissons Ratio (x) = 0.28991 0.00138
# Poissons Ratio (y) = 0.47178 0.00549
# Poissons Ratio (z) = 0.00533 0.01300
#
# Static dielectric constant tensor:
#      x y z
#    x 1.729790 0.000000 0.000000 
#    y 0.000000 1.725310 0.000000 
#    z 0.000000 0.000000 1.758510 
# 
# From -- ./inp_files/9167.got.cif
#   From: 2010.05.17/outbox.cif.g08.bks.cpg/sg58_5_cif.got.tgz:9167.got - 2010.06.03 14:20:14.
