data_PCOD9441006
_publ_section_title
;
Structure prediction by ZEFSAII (Michael W. Deem and Ramdas Pophale) SiO2 
 PCOD9441006
Probable space group: P N N M
;
_chemical_formula_sum "Si O2"
_cell_formula_units_Z 48
_cell_length_a 32.925917
_cell_length_b 9.718651
_cell_length_c 7.932440
_cell_angle_alpha 90.000000
_cell_angle_beta 90.000000
_cell_angle_gamma 90.000000
_cell_volume 2538.345074
_symmetry_space_group_name_H-M "P N N M"
_symmetry_group_IT_number 58
_symmetry_cell_setting 'orthorhombic'
loop_
_space_group_symop_operation_xyz
x,y,z
-x,-y,z
1/2+x,1/2-y,1/2-z
1/2-x,1/2+y,1/2-z
-x,-y,-z
x,y,-z
1/2-x,1/2+y,1/2+z
1/2+x,1/2-y,1/2+z
loop_
_atom_site_type_symbol
_atom_site_label
_atom_site_fract_x
_atom_site_fract_y
_atom_site_fract_z
Si Si1 0.710119 0.581429 0.700994
Si Si2 0.037649 0.909024 0.203597
Si Si3 0.461807 0.090149 0.706758
Si Si4 0.286208 0.103073 0.296410
Si Si5 0.124218 0.884509 0.305486
Si Si6 0.373646 0.076105 0.306468
O O1 0.707083 0.584149 0.500000
O O2 0.717400 0.738522 0.762074
O O3 0.747350 0.485293 0.749482
O O4 0.666096 0.537160 0.770488
O O5 0.033433 0.749596 0.257255
O O6 0.082042 0.958061 0.262636
O O7 0.037568 0.911446 0.000000
O O8 0.000000 0.000000 0.263642
O O9 0.460715 0.088116 0.500000
O O10 0.417554 0.037286 0.767169
O O11 0.500000 0.000000 0.760970
O O12 0.289059 0.106227 0.500000
O O13 0.329440 0.042849 0.231456
O O14 0.123386 0.842471 0.500000
O O15 0.125543 0.743701 0.197097
O O16 0.373530 0.027854 0.500000
#
# Coordination Sequence:
#
# PCOD9441006 Si02
#       6
#     8   8   8   8   8   8
#     4  10  20  34  52  73  98 127 161 201 244 292
#     4   9  17  30  47  67  93 123 156 193 232 278
#     4   8  13  24  45  69  90 116 151 188 225 267
#     4   9  18  32  49  71  98 127 162 202 243 288
#     4  10  18  29  48  70  93 123 160 196 234 285
#     4   8  15  29  47  67  94 125 158 195 234 282
#
# _framework density 18.909958
#
# number of rings (size 3 to 8) (size 9 to 14) (size 15 to 20)
#    0.000    3.000    0.000    4.000    0.000    3.667 
#    0.000    1.667    0.000   12.000    0.000    0.000 
#    0.000    0.000    0.000    0.000    0.000    0.000 
#
# Total GULP energy -267292.360969 kJ/mol
# GULP energy per Si atom -5568.590854 kJ/mol
# Density = 1.886692 g / cm^3
# Si number density = 18.909958 Si / 1000 Ang^3
#
#
#
# Elastic Constant Matrix: (Units=GPa)
#
#
# Indices 1 2 3 4 5 6 
#
# 1 241.7502 71.3911 13.0277 0.0000 0.0000 0.0000
# 2 71.3911 44.4798 8.0047 0.0000 0.0000 0.0000
# 3 13.0277 8.0047 31.6806 0.0000 0.0000 0.0000
# 4 0.0000 0.0000 0.0000 11.6936 0.0000 0.0000
# 5 0.0000 0.0000 0.0000 0.0000 21.5393 0.0000
# 6 0.0000 0.0000 0.0000 0.0000 0.0000 35.0626
#
#
#
# Elastic Compliance Matrix: (Units=1/GPa)
#
#
# Indices 1 2 3 4 5 6 
#
# 1 0.007864 -0.012613 -0.000047 0.000000 0.000000 0.000000
# 2 -0.012613 0.043784 -0.005876 0.000000 0.000000 0.000000
# 3 -0.000047 -0.005876 0.033069 0.000000 0.000000 0.000000
# 4 0.000000 0.000000 0.000000 0.085517 0.000000 0.000000
# 5 0.000000 0.000000 0.000000 0.000000 0.046427 0.000000
# 6 0.000000 0.000000 0.000000 0.000000 0.000000 0.028520
#
#
# Mechanical properties :
#
#
# Convention : Reuss Voigt Hill
#
# Bulk Modulus (GPa) = 20.98867 55.86197 38.42532
# Shear Modulus (GPa) = 16.77096 28.69157 22.73126
#
# Velocity S-wave (km/s) = 2.98129 3.89944 3.47086
# Velocity P-wave (km/s) = 4.79314 7.06253 6.03546
#
# Compressibility (1/GPa) = 0.04764475
#
# Stress axis : x y z
#
# Youngs Moduli (GPa) = 127.16463 22.83936 30.23980
#
# Poissons Ratio (x) = 0.28808 0.00142
# Poissons Ratio (y) = 1.60395 0.17769
# Poissons Ratio (z) = 0.00595 0.13421
#
# Static dielectric constant tensor:
#      x y z
#    x 1.713020 0.000000 0.000000 
#    y 0.000000 1.626180 0.000000 
#    z 0.000000 0.000000 1.691400 
# 
# From -- ./inp_files/4328.got.cif
#   From: 2010.05.17/outbox.cif.g08.bks.cpg/sg58_3_cif.got.tgz:4328.got - 2010.06.03 14:20:14.
