data_PCOD9441088
_publ_section_title
;
Structure prediction by ZEFSAII (Michael W. Deem and Ramdas Pophale) SiO2 
 PCOD9441088
Probable space group: P N N M
;
_chemical_formula_sum "Si O2"
_cell_formula_units_Z 48
_cell_length_a 32.536180
_cell_length_b 9.318136
_cell_length_c 8.814509
_cell_angle_alpha 90.000000
_cell_angle_beta 90.000000
_cell_angle_gamma 90.000000
_cell_volume 2672.352430
_symmetry_space_group_name_H-M "P N N M"
_symmetry_group_IT_number 58
_symmetry_cell_setting 'orthorhombic'
loop_
_space_group_symop_operation_xyz
x,y,z
-x,-y,z
1/2+x,1/2-y,1/2-z
1/2-x,1/2+y,1/2-z
-x,-y,-z
x,y,-z
1/2-x,1/2+y,1/2+z
1/2+x,1/2-y,1/2+z
loop_
_atom_site_type_symbol
_atom_site_label
_atom_site_fract_x
_atom_site_fract_y
_atom_site_fract_z
Si Si1 0.540457 0.408750 0.181450
Si Si2 0.285455 0.584075 0.681036
Si Si3 0.040746 0.409751 0.818725
Si Si4 0.624274 0.086405 0.180753
Si Si5 0.208618 0.424074 0.179696
Si Si6 0.876227 0.908533 0.817839
O O1 0.500000 0.500000 0.216958
O O2 0.535977 0.249800 0.250877
O O3 0.582370 0.475337 0.250220
O O4 0.544800 0.397895 0.000000
O O5 0.279742 0.566272 0.500000
O O6 0.248969 0.507052 0.767821
O O7 0.285390 0.754640 0.713748
O O8 0.331406 0.527863 0.719788
O O9 0.082095 0.477298 0.747175
O O10 0.000000 0.500000 0.785025
O O11 0.045898 0.399965 0.000000
O O12 0.667377 0.022049 0.236815
O O13 0.624545 0.247939 0.248990
O O14 0.622641 0.090776 0.000000
O O15 0.202283 0.437073 0.000000
O O16 0.879119 0.899132 0.000000
#
# Coordination Sequence:
#
# PCOD9441088 Si02
#       6
#     8   8   8   8   8   8
#     4  10  20  33  51  76 103 132 168 207 248 296
#     4   9  19  34  51  75 102 129 166 207 248 295
#     4  10  20  34  53  76 101 131 168 207 248 296
#     4  10  18  30  51  74  99 132 167 203 245 295
#     4  10  20  34  53  76 102 132 167 206 247 295
#     4   9  17  31  51  73  99 131 168 206 244 295
#
# _framework density 17.961704000000001
#
# number of rings (size 3 to 8) (size 9 to 14) (size 15 to 20)
#    0.000    2.333    0.000    6.500    0.000    6.667 
#    0.000    1.667    0.000    4.000    0.000    0.000 
#    0.000    0.000    0.000    0.000    0.000    0.000 
#
# Total GULP energy -267610.698785 kJ/mol
# GULP energy per Si atom -5575.222891 kJ/mol
# Density = 1.792082 g / cm^3
# Si number density = 17.961704 Si / 1000 Ang^3
#
#
#
# Elastic Constant Matrix: (Units=GPa)
#
#
# Indices 1 2 3 4 5 6 
#
# 1 211.2804 45.7535 85.9910 0.0000 0.0000 0.0000
# 2 45.7535 25.1318 28.0764 0.0000 0.0000 0.0000
# 3 85.9910 28.0764 82.9062 0.0000 0.0000 0.0000
# 4 0.0000 0.0000 0.0000 4.7495 0.0000 0.0000
# 5 0.0000 0.0000 0.0000 0.0000 41.7713 0.0000
# 6 0.0000 0.0000 0.0000 0.0000 0.0000 26.8352
#
#
#
# Elastic Compliance Matrix: (Units=1/GPa)
#
#
# Indices 1 2 3 4 5 6 
#
# 1 0.009580 -0.010199 -0.006483 0.000000 0.000000 0.000000
# 2 -0.010199 0.074862 -0.014774 0.000000 0.000000 0.000000
# 3 -0.006483 -0.014774 0.023789 0.000000 0.000000 0.000000
# 4 0.000000 0.000000 0.000000 0.210549 0.000000 0.000000
# 5 0.000000 0.000000 0.000000 0.000000 0.023940 0.000000
# 6 0.000000 0.000000 0.000000 0.000000 0.000000 0.037264
#
#
# Mechanical properties :
#
#
# Convention : Reuss Voigt Hill
#
# Bulk Modulus (GPa) = 22.06516 70.99558 46.53037
# Shear Modulus (GPa) = 10.91697 25.30438 18.11068
#
# Velocity S-wave (km/s) = 2.46802 3.75747 3.17881
# Velocity P-wave (km/s) = 4.52026 7.64439 6.27970
#
# Compressibility (1/GPa) = 0.04532032
#
# Stress axis : x y z
#
# Youngs Moduli (GPa) = 104.38365 13.35784 42.03598
#
# Poissons Ratio (x) = 0.13623 0.27251
# Poissons Ratio (y) = 1.06456 0.62105
# Poissons Ratio (z) = 0.67669 0.19735
#
# Static dielectric constant tensor:
#      x y z
#    x 1.672300 0.000000 0.000000 
#    y 0.000000 1.602840 0.000000 
#    z 0.000000 0.000000 1.597270 
# 
# From -- ./inp_files/10331.got.cif
#   From: 2010.05.17/outbox.cif.g08.bks.cpg/sg58_6_cif.got.tgz:10331.got - 2010.06.03 14:20:14.
