data_PCOD9441494
_publ_section_title
;
Structure prediction by ZEFSAII (Michael W. Deem and Ramdas Pophale) SiO2 
 PCOD9441494
Probable space group: P N N M
;
_chemical_formula_sum "Si O2"
_cell_formula_units_Z 64
_cell_length_a 12.633098
_cell_length_b 23.113745
_cell_length_c 9.417629
_cell_angle_alpha 90.000000
_cell_angle_beta 90.000000
_cell_angle_gamma 90.000000
_cell_volume 2749.930770
_symmetry_space_group_name_H-M "P N N M"
_symmetry_group_IT_number 58
_symmetry_cell_setting 'orthorhombic'
loop_
_space_group_symop_operation_xyz
x,y,z
-x,-y,z
1/2+x,1/2-y,1/2-z
1/2-x,1/2+y,1/2-z
-x,-y,-z
x,y,-z
1/2-x,1/2+y,1/2+z
1/2+x,1/2-y,1/2+z
loop_
_atom_site_type_symbol
_atom_site_label
_atom_site_fract_x
_atom_site_fract_y
_atom_site_fract_z
Si Si1 0.585949 0.603157 0.162917
Si Si2 0.658807 0.092914 0.336259
Si Si3 0.314064 0.032264 0.330804
Si Si4 0.096267 0.057794 0.838084
Si Si5 0.832951 0.811342 0.844598
Si Si6 0.355297 0.794117 0.159757
Si Si7 0.865742 0.341938 0.163844
Si Si8 0.097712 0.784825 0.158563
O O1 0.712104 0.592529 0.167390
O O2 0.517880 0.558695 0.258604
O O3 0.572420 0.668233 0.221878
O O4 0.549762 0.598477 0.000000
O O5 0.624983 0.102837 0.500000
O O6 0.621430 0.146015 0.240378
O O7 0.631001 0.027955 0.289406
O O8 0.291590 0.027344 0.500000
O O9 0.200995 0.038602 0.249923
O O10 0.386451 0.089829 0.312642
O O11 0.112164 0.127087 0.850177
O O12 0.097773 0.034802 0.000000
O O13 0.883129 0.764343 0.741912
O O14 0.720521 0.827928 0.781282
O O15 0.821505 0.784806 0.000000
O O16 0.226493 0.788671 0.153187
O O17 0.397446 0.795156 0.000000
O O18 0.932525 0.282930 0.173088
O O19 0.824242 0.340194 0.000000
O O20 0.060688 0.803131 0.000000
#
# Coordination Sequence:
#
# PCOD9441494 Si02
#       8
#     8   8   8   8   8   8   8   8
#     4  10  19  29  41  57  79 110 144 174 204 239
#     4   9  18  30  43  60  83 112 144 175 204 236
#     4   9  17  30  45  60  82 112 144 174 203 240
#     4  10  20  31  42  58  81 110 142 176 210 242
#     4   9  16  26  41  59  78 100 129 167 210 250
#     4   9  16  26  42  61  80 103 131 166 208 249
#     4   8  14  25  42  61  79 102 131 165 207 248
#     4   8  14  25  40  58  78  99 127 165 207 246
#
# _framework density 23.273312000000001
#
# number of rings (size 3 to 8) (size 9 to 14) (size 15 to 20)
#    0.000    3.000    0.000    2.250    0.000    6.000 
#    0.000    2.500    0.000    0.000    0.000    0.000 
#    0.000    1.000    0.000   11.500    0.000    3.750 
#
# Total GULP energy -356909.128292 kJ/mol
# GULP energy per Si atom -5576.705130 kJ/mol
# Density = 2.322034 g / cm^3
# Si number density = 23.273312 Si / 1000 Ang^3
#
#
#
# Elastic Constant Matrix: (Units=GPa)
#
#
# Indices 1 2 3 4 5 6 
#
# 1 37.1207 -4.0325 3.5917 0.0000 0.0000 0.0000
# 2 -4.0325 169.3224 54.6383 0.0000 0.0000 0.0000
# 3 3.5917 54.6383 88.6197 0.0000 0.0000 0.0000
# 4 0.0000 0.0000 0.0000 16.0629 0.0000 0.0000
# 5 0.0000 0.0000 0.0000 0.0000 2.3779 0.0000
# 6 0.0000 0.0000 0.0000 0.0000 0.0000 28.4311
#
#
#
# Elastic Compliance Matrix: (Units=1/GPa)
#
#
# Indices 1 2 3 4 5 6 
#
# 1 0.027257 0.001255 -0.001879 0.000000 0.000000 0.000000
# 2 0.001255 0.007431 -0.004632 0.000000 0.000000 0.000000
# 3 -0.001879 -0.004632 0.014216 0.000000 0.000000 0.000000
# 4 0.000000 0.000000 0.000000 0.062255 0.000000 0.000000
# 5 0.000000 0.000000 0.000000 0.000000 0.420537 0.000000
# 6 0.000000 0.000000 0.000000 0.000000 0.000000 0.035173
#
#
# Mechanical properties :
#
#
# Convention : Reuss Voigt Hill
#
# Bulk Modulus (GPa) = 26.04634 44.82865 35.43749
# Shear Modulus (GPa) = 8.47202 25.43208 16.95205
#
# Velocity S-wave (km/s) = 1.91001 3.30927 2.70180
# Velocity P-wave (km/s) = 4.00998 5.82283 4.99927
#
# Compressibility (1/GPa) = 0.03839312
#
# Stress axis : x y z
#
# Youngs Moduli (GPa) = 36.68741 134.57994 70.34203
#
# Poissons Ratio (x) = -0.16895 0.13215
# Poissons Ratio (y) = -0.04606 0.32584
# Poissons Ratio (z) = 0.06892 0.62339
#
# Static dielectric constant tensor:
#      x y z
#    x 1.952400 0.000000 0.000000 
#    y 0.000000 1.888660 0.000000 
#    z 0.000000 0.000000 1.865660 
# 
# From -- ./inp_files/9399.got.cif
#   From: 2010.05.17/outbox.cif.g08.bks.cpg/sg58_5_cif.got.tgz:9399.got - 2010.06.03 14:20:14.
