data_PCOD9441153
_publ_section_title
;
Structure prediction by ZEFSAII (Michael W. Deem and Ramdas Pophale) SiO2 
 PCOD9441153
Probable space group: P N N M
;
_chemical_formula_sum "Si O2"
_cell_formula_units_Z 64
_cell_length_a 14.297195
_cell_length_b 24.940225
_cell_length_c 7.262842
_cell_angle_alpha 90.000000
_cell_angle_beta 90.000000
_cell_angle_gamma 90.000000
_cell_volume 2589.749776
_symmetry_space_group_name_H-M "P N N M"
_symmetry_group_IT_number 58
_symmetry_cell_setting 'orthorhombic'
loop_
_space_group_symop_operation_xyz
x,y,z
-x,-y,z
1/2+x,1/2-y,1/2-z
1/2-x,1/2+y,1/2-z
-x,-y,-z
x,y,-z
1/2-x,1/2+y,1/2+z
1/2+x,1/2-y,1/2+z
loop_
_atom_site_type_symbol
_atom_site_label
_atom_site_fract_x
_atom_site_fract_y
_atom_site_fract_z
Si Si1 0.676282 0.259870 0.277491
Si Si2 0.949729 0.944336 0.723390
Si Si3 0.764182 0.441686 0.775058
Si Si4 0.681800 0.135971 0.724996
Si Si5 0.968514 0.235925 0.777135
Si Si6 0.145869 0.666988 0.790875
Si Si7 0.115364 0.873526 0.710196
Si Si8 0.408282 0.968720 0.276219
O O1 0.682852 0.261531 0.500000
O O2 0.676085 0.197689 0.218658
O O3 0.573250 0.279698 0.222156
O O4 0.760981 0.295755 0.206169
O O5 0.943699 0.941571 0.500000
O O6 0.843194 0.940010 0.787663
O O7 0.021793 0.899081 0.790184
O O8 0.000000 0.000000 0.770351
O O9 0.822368 0.389656 0.711014
O O10 0.818600 0.495578 0.724759
O O11 0.762750 0.439460 0.000000
O O12 0.681397 0.137295 0.500000
O O13 0.783118 0.114428 0.787825
O O14 0.604600 0.092834 0.782036
O O15 0.933963 0.294179 0.711924
O O16 0.898100 0.190270 0.712321
O O17 0.965369 0.236948 0.000000
O O18 0.115320 0.655177 0.000000
O O19 0.119441 0.893196 0.500000
O O20 0.411763 0.967924 0.500000
O O21 0.500000 0.000000 0.213273
#
# Coordination Sequence:
#
# PCOD9441153 Si02
#       8
#     8   8   8   8   8   8   8   8
#     4  10  20  34  51  73 103 137 169 208 254 301
#     4   9  16  26  44  70  97 121 151 199 252 291
#     4   9  17  28  42  65  97 128 159 199 246 295
#     4   9  17  29  46  69  97 129 167 205 245 297
#     4  10  21  33  48  71 102 135 166 206 255 299
#     4  10  20  34  51  74 104 134 167 207 252 300
#     4  10  18  31  52  74  98 130 167 206 247 301
#     4   9  17  27  43  68  99 133 165 201 249 303
#
# _framework density 24.712814000000002
#
# number of rings (size 3 to 8) (size 9 to 14) (size 15 to 20)
#    0.000    2.500    1.250    1.500    1.750    4.500 
#    0.000    0.000    0.000    0.375    0.000    3.500 
#    0.000    2.500    0.000    0.000    0.000    0.000 
#
# Total GULP energy -357769.386412 kJ/mol
# GULP energy per Si atom -5590.146663 kJ/mol
# Density = 2.465657 g / cm^3
# Si number density = 24.712814 Si / 1000 Ang^3
#
#
#
# Elastic Constant Matrix: (Units=GPa)
#
#
# Indices 1 2 3 4 5 6 
#
# 1 43.1685 -23.0249 -8.1799 0.0000 0.0000 0.0000
# 2 -23.0249 88.1524 -11.8892 0.0000 0.0000 0.0000
# 3 -8.1799 -11.8892 110.9048 0.0000 0.0000 0.0000
# 4 0.0000 0.0000 0.0000 90.5158 0.0000 0.0000
# 5 0.0000 0.0000 0.0000 0.0000 -9.4583 0.0000
# 6 0.0000 0.0000 0.0000 0.0000 0.0000 44.1588
#
#
#
# Elastic Compliance Matrix: (Units=1/GPa)
#
#
# Indices 1 2 3 4 5 6 
#
# 1 0.027786 0.007644 0.002869 0.000000 0.000000 0.000000
# 2 0.007644 0.013614 0.002023 0.000000 0.000000 0.000000
# 3 0.002869 0.002023 0.009445 0.000000 0.000000 0.000000
# 4 0.000000 0.000000 0.000000 0.011048 0.000000 0.000000
# 5 0.000000 0.000000 0.000000 0.000000 -0.105728 0.000000
# 6 0.000000 0.000000 0.000000 0.000000 0.000000 0.022646
#
#
# Mechanical properties :
#
#
# Convention : Reuss Voigt Hill
#
# Bulk Modulus (GPa) = 13.17210 17.33752 15.25481
# Shear Modulus (GPa) = -238.58681 44.06459 -97.26111
#
# Velocity S-wave (km/s) = -9.83633 4.22722 -6.28029
# Velocity P-wave (km/s) = 11.12038 5.55488 6.81198
#
# Compressibility (1/GPa) = 0.07591805
#
# Stress axis : x y z
#
# Youngs Moduli (GPa) = 35.98929 73.45617 105.87353
#
# Poissons Ratio (x) = -0.56153 -0.30374
# Poissons Ratio (y) = -0.27512 -0.21421
# Poissons Ratio (z) = -0.10325 -0.14862
#
# Static dielectric constant tensor:
#      x y z
#    x 1.923070 0.000000 0.000000 
#    y 0.000000 1.922840 0.000000 
#    z 0.000000 0.000000 1.987800 
# 
# From -- ./inp_files/6809.got.cif
#   From: 2010.05.17/outbox.cif.g08.bks.cpg/sg58_4_cif.got.tgz:6809.got - 2010.06.03 14:20:14.
