data_PCOD9441385
_publ_section_title
;
Structure prediction by ZEFSAII (Michael W. Deem and Ramdas Pophale) SiO2 
 PCOD9441385
Probable space group: P N N M
;
_chemical_formula_sum "Si O2"
_cell_formula_units_Z 48
_cell_length_a 29.025811
_cell_length_b 10.672894
_cell_length_c 8.074640
_cell_angle_alpha 90.000000
_cell_angle_beta 90.000000
_cell_angle_gamma 90.000000
_cell_volume 2501.437914
_symmetry_space_group_name_H-M "P N N M"
_symmetry_group_IT_number 58
_symmetry_cell_setting 'orthorhombic'
loop_
_space_group_symop_operation_xyz
x,y,z
-x,-y,z
1/2+x,1/2-y,1/2-z
1/2-x,1/2+y,1/2-z
-x,-y,-z
x,y,-z
1/2-x,1/2+y,1/2+z
1/2+x,1/2-y,1/2+z
loop_
_atom_site_type_symbol
_atom_site_label
_atom_site_fract_x
_atom_site_fract_y
_atom_site_fract_z
Si Si1 0.692430 0.499777 0.699826
Si Si2 0.855539 0.255688 0.796994
Si Si3 0.298749 0.000240 0.300245
Si Si4 0.355107 0.755841 0.299619
Si Si5 0.446680 0.875811 0.809210
Si Si6 0.453253 0.153615 0.307488
O O1 0.690078 0.499954 0.500000
O O2 0.667588 0.626607 0.758187
O O3 0.745795 0.498460 0.748271
O O4 0.666861 0.374206 0.759064
O O5 0.825615 0.375565 0.742651
O O6 0.908394 0.274040 0.743853
O O7 0.855931 0.257216 0.000000
O O8 0.300549 0.000167 0.500000
O O9 0.324639 0.874571 0.242468
O O10 0.354597 0.755502 0.500000
O O11 0.407093 0.780434 0.242807
O O12 0.498358 0.826104 0.782559
O O13 0.442366 0.004899 0.706706
O O14 0.440819 0.910777 0.000000
O O15 0.460095 0.184367 0.500000
#
# Coordination Sequence:
#
# PCOD9441385 Si02
#       6
#     8   8   8   8   8   8
#     4  10  21  35  53  79 108 139 178 220 260 308
#     4   9  18  34  55  78 106 138 176 217 257 309
#     4  10  19  34  54  76 105 142 181 217 259 311
#     4  10  20  36  55  77 107 144 180 213 258 320
#     4  11  21  33  53  83 110 132 173 226 268 308
#     4  10  18  34  58  79 105 141 176 214 268 319
#
# _framework density 19.188962
#
# number of rings (size 3 to 8) (size 9 to 14) (size 15 to 20)
#    0.000    2.000    1.667    4.000    0.000    1.333 
#    0.000    2.500    0.000    5.000    0.000    0.000 
#    0.000    0.000    0.000    0.000    0.000    0.000 
#
# Total GULP energy -268051.702968 kJ/mol
# GULP energy per Si atom -5584.410478 kJ/mol
# Density = 1.914529 g / cm^3
# Si number density = 19.188962 Si / 1000 Ang^3
#
#
#
# Elastic Constant Matrix: (Units=GPa)
#
#
# Indices 1 2 3 4 5 6 
#
# 1 169.1762 92.6231 1.0428 0.0000 0.0000 0.0000
# 2 92.6231 152.2860 8.9348 0.0000 0.0000 0.0000
# 3 1.0428 8.9348 16.5639 0.0000 0.0000 0.0000
# 4 0.0000 0.0000 0.0000 1.7479 0.0000 0.0000
# 5 0.0000 0.0000 0.0000 0.0000 30.6503 0.0000
# 6 0.0000 0.0000 0.0000 0.0000 0.0000 -2.5688
#
#
#
# Elastic Compliance Matrix: (Units=1/GPa)
#
#
# Indices 1 2 3 4 5 6 
#
# 1 0.008957 -0.005592 0.002452 0.000000 0.000000 0.000000
# 2 -0.005592 0.010272 -0.005189 0.000000 0.000000 0.000000
# 3 0.002452 -0.005189 0.063017 0.000000 0.000000 0.000000
# 4 0.000000 0.000000 0.000000 0.572118 0.000000 0.000000
# 5 0.000000 0.000000 0.000000 0.000000 0.032626 0.000000
# 6 0.000000 0.000000 0.000000 0.000000 0.000000 -0.389293
#
#
# Mechanical properties :
#
#
# Convention : Reuss Voigt Hill
#
# Bulk Modulus (GPa) = 15.24628 60.35860 37.80244
# Shear Modulus (GPa) = 14.87134 21.66092 18.26613
#
# Velocity S-wave (km/s) = 2.78689 3.36344 3.08865
# Velocity P-wave (km/s) = 4.27999 6.82692 5.69759
#
# Compressibility (1/GPa) = 0.06558976
#
# Stress axis : x y z
#
# Youngs Moduli (GPa) = 111.63889 97.35047 15.86874
#
# Poissons Ratio (x) = 0.54438 -0.03892
# Poissons Ratio (y) = 0.62428 0.08234
# Poissons Ratio (z) = -0.27379 0.50514
#
# Static dielectric constant tensor:
#      x y z
#    x 1.647780 0.000000 0.000000 
#    y 0.000000 1.653090 0.000000 
#    z 0.000000 0.000000 1.678010 
# 
# From -- ./inp_files/10329.got.cif
#   From: 2010.05.17/outbox.cif.g08.bks.cpg/sg58_6_cif.got.tgz:10329.got - 2010.06.03 14:20:14.
