data_PCOD9441589
_publ_section_title
;
Structure prediction by ZEFSAII (Michael W. Deem and Ramdas Pophale) SiO2 
 PCOD9441589
Probable space group: P N N M
;
_chemical_formula_sum "Si O2"
_cell_formula_units_Z 64
_cell_length_a 21.132258
_cell_length_b 20.532667
_cell_length_c 7.557390
_cell_angle_alpha 90.000000
_cell_angle_beta 90.000000
_cell_angle_gamma 90.000000
_cell_volume 3279.163737
_symmetry_space_group_name_H-M "P N N M"
_symmetry_group_IT_number 58
_symmetry_cell_setting 'orthorhombic'
loop_
_space_group_symop_operation_xyz
x,y,z
-x,-y,z
1/2+x,1/2-y,1/2-z
1/2-x,1/2+y,1/2-z
-x,-y,-z
x,y,-z
1/2-x,1/2+y,1/2+z
1/2+x,1/2-y,1/2+z
loop_
_atom_site_type_symbol
_atom_site_label
_atom_site_fract_x
_atom_site_fract_y
_atom_site_fract_z
Si Si1 0.872307 0.576512 0.715515
Si Si2 0.305336 0.704524 0.292108
Si Si3 0.071937 0.286560 0.712966
Si Si4 0.687317 0.708915 0.217210
Si Si5 0.247570 0.068749 0.293848
Si Si6 0.775745 0.070460 0.706425
Si Si7 0.067929 0.705175 0.282996
Si Si8 0.891483 0.434022 0.702391
O O1 0.871427 0.574552 0.500000
O O2 0.909242 0.640677 0.773330
O O3 0.799703 0.582283 0.776701
O O4 0.899144 0.506704 0.778141
O O5 0.294377 0.697963 0.500000
O O6 0.373340 0.736551 0.264011
O O7 0.250436 0.752882 0.223757
O O8 0.294727 0.632677 0.217433
O O9 0.071304 0.288667 0.500000
O O10 0.001076 0.270395 0.771587
O O11 0.690480 0.634382 0.280985
O O12 0.625804 0.749209 0.272675
O O13 0.688361 0.707604 0.000000
O O14 0.262961 0.057024 0.500000
O O15 0.315636 0.078685 0.203120
O O16 0.215716 0.002638 0.221538
O O17 0.793531 0.068044 0.500000
O O18 0.070244 0.703485 0.500000
O O19 0.077838 0.630818 0.219695
O O20 0.914543 0.437836 0.500000
#
# Coordination Sequence:
#
# PCOD9441589 Si02
#       8
#     8   8   8   8   8   8   8   8
#     4   9  17  27  43  70 102 131 162 198 237 287
#     4  11  20  33  54  73  96 131 168 203 242 297
#     4  10  20  32  47  72 103 132 164 207 251 284
#     4   9  16  29  51  74  92 123 167 203 237 285
#     4  10  19  30  48  75 102 123 155 207 254 288
#     4   9  17  30  49  72  97 126 160 200 246 292
#     4   9  17  30  49  71  98 131 168 206 242 288
#     4   9  16  29  47  69  99 136 170 192 230 294
#
# _framework density 19.51717
#
# number of rings (size 3 to 8) (size 9 to 14) (size 15 to 20)
#    0.000    2.500    2.500    0.750    0.000    1.000 
#    0.000    3.125    0.000    0.750    0.000    9.625 
#    0.000    0.000    0.000    0.000    0.000    0.000 
#
# Total GULP energy -356996.685414 kJ/mol
# GULP energy per Si atom -5578.073210 kJ/mol
# Density = 1.947275 g / cm^3
# Si number density = 19.517170 Si / 1000 Ang^3
#
#
#
# Elastic Constant Matrix: (Units=GPa)
#
#
# Indices 1 2 3 4 5 6 
#
# 1 60.9776 38.1565 -8.0440 0.0000 0.0000 0.0000
# 2 38.1565 121.5046 -0.8530 0.0000 0.0000 0.0000
# 3 -8.0440 -0.8530 47.9377 0.0000 0.0000 0.0000
# 4 0.0000 0.0000 0.0000 8.1948 0.0000 0.0000
# 5 0.0000 0.0000 0.0000 0.0000 13.7503 0.0000
# 6 0.0000 0.0000 0.0000 0.0000 0.0000 24.2260
#
#
#
# Elastic Compliance Matrix: (Units=1/GPa)
#
#
# Indices 1 2 3 4 5 6 
#
# 1 0.020950 -0.006555 0.003399 0.000000 0.000000 0.000000
# 2 -0.006555 0.010282 -0.000917 0.000000 0.000000 0.000000
# 3 0.003399 -0.000917 0.021414 0.000000 0.000000 0.000000
# 4 0.000000 0.000000 0.000000 0.122028 0.000000 0.000000
# 5 0.000000 0.000000 0.000000 0.000000 0.072726 0.000000
# 6 0.000000 0.000000 0.000000 0.000000 0.000000 0.041278
#
#
# Mechanical properties :
#
#
# Convention : Reuss Voigt Hill
#
# Bulk Modulus (GPa) = 22.47205 32.10431 27.28818
# Shear Modulus (GPa) = 16.04325 22.64492 19.34408
#
# Velocity S-wave (km/s) = 2.87018 3.40995 3.15164
# Velocity P-wave (km/s) = 4.74583 5.65585 5.22070
#
# Compressibility (1/GPa) = 0.04449973
#
# Stress axis : x y z
#
# Youngs Moduli (GPa) = 47.73361 97.25555 46.69749
#
# Poissons Ratio (x) = 0.63751 -0.15871
# Poissons Ratio (y) = 0.31289 0.04282
# Poissons Ratio (z) = -0.16223 0.08918
#
# Static dielectric constant tensor:
#      x y z
#    x 1.644320 0.000000 0.000000 
#    y 0.000000 1.712690 0.000000 
#    z 0.000000 0.000000 1.745630 
# 
# From -- ./inp_files/9460.got.cif
#   From: 2010.05.17/outbox.cif.g08.bks.cpg/sg58_5_cif.got.tgz:9460.got - 2010.06.03 14:20:14.
