data_PCOD9441421
_publ_section_title
;
Structure prediction by ZEFSAII (Michael W. Deem and Ramdas Pophale) SiO2 
 PCOD9441421
Probable space group: P N N M
;
_chemical_formula_sum "Si O2"
_cell_formula_units_Z 52
_cell_length_a 18.676317
_cell_length_b 13.951920
_cell_length_c 7.526617
_cell_angle_alpha 90.000000
_cell_angle_beta 90.000000
_cell_angle_gamma 90.000000
_cell_volume 1961.214210
_symmetry_space_group_name_H-M "P N N M"
_symmetry_group_IT_number 58
_symmetry_cell_setting 'orthorhombic'
loop_
_space_group_symop_operation_xyz
x,y,z
-x,-y,z
1/2+x,1/2-y,1/2-z
1/2-x,1/2+y,1/2-z
-x,-y,-z
x,y,-z
1/2-x,1/2+y,1/2+z
1/2+x,1/2-y,1/2+z
loop_
_atom_site_type_symbol
_atom_site_label
_atom_site_fract_x
_atom_site_fract_y
_atom_site_fract_z
Si Si1 0.404203 0.043230 0.699823
Si Si2 0.554130 0.766797 0.500000
Si Si3 0.110879 0.346761 0.702981
Si Si4 0.987428 0.823709 0.702832
Si Si5 0.274268 0.365161 0.717184
Si Si6 0.366255 0.542886 0.708558
Si Si7 0.273584 0.152255 0.284668
O O1 0.396615 0.001840 0.500000
O O2 0.437953 0.146509 0.654071
O O3 0.430773 0.948189 0.796961
O O4 0.328566 0.073544 0.785125
O O5 0.550013 0.683668 0.655911
O O6 0.121503 0.314331 0.500000
O O7 0.065412 0.260432 0.784907
O O8 0.190514 0.367534 0.773097
O O9 0.007487 0.802778 0.500000
O O10 0.939187 0.918884 0.707494
O O11 0.275302 0.370595 0.500000
O O12 0.324674 0.450156 0.783259
O O13 0.295870 0.258064 0.769861
O O14 0.379063 0.531429 0.500000
O O15 0.306378 0.625949 0.734571
O O16 0.280544 0.149918 0.500000
#
# Coordination Sequence:
#
# PCOD9441421 Si02
#       7
#     8   4   8   8   8   8   8
#     4   9  21  35  56  80 116 156 198 250 293 348
#     4  10  24  43  58  89 120 164 218 253 288 359
#     4  10  19  33  54  85 116 159 196 234 302 370
#     4  11  23  39  60  84 120 163 205 251 304 356
#     4   9  18  31  53  83 121 149 189 245 301 370
#     4  11  20  33  56  87 117 154 197 251 301 361
#     4  10  18  35  56  82 116 155 197 241 307 363
#
# _framework density 26.514187
#
# number of rings (size 3 to 8) (size 9 to 14) (size 15 to 20)
#    0.462    1.538    3.846    0.462    1.077    1.846 
#    0.000    3.077    0.000    1.846    0.000    1.077 
#    0.000    0.000    0.000    0.000    0.000    0.000 
#
# Total GULP energy -289521.506008 kJ/mol
# GULP energy per Si atom -5567.721269 kJ/mol
# Density = 2.645384 g / cm^3
# Si number density = 26.514187 Si / 1000 Ang^3
#
#
#
# Elastic Constant Matrix: (Units=GPa)
#
#
# Indices 1 2 3 4 5 6 
#
# 1 72.7369 40.6512 2.7271 0.0000 0.0000 0.0000
# 2 40.6512 104.5061 5.3180 0.0000 0.0000 0.0000
# 3 2.7271 5.3180 115.7294 0.0000 0.0000 0.0000
# 4 0.0000 0.0000 0.0000 19.5494 0.0000 0.0000
# 5 0.0000 0.0000 0.0000 0.0000 17.6469 0.0000
# 6 0.0000 0.0000 0.0000 0.0000 0.0000 54.2522
#
#
#
# Elastic Compliance Matrix: (Units=1/GPa)
#
#
# Indices 1 2 3 4 5 6 
#
# 1 0.017568 -0.006829 -0.000100 0.000000 0.000000 0.000000
# 2 -0.006829 0.012246 -0.000402 0.000000 0.000000 0.000000
# 3 -0.000100 -0.000402 0.008662 0.000000 0.000000 0.000000
# 4 0.000000 0.000000 0.000000 0.051153 0.000000 0.000000
# 5 0.000000 0.000000 0.000000 0.000000 0.056667 0.000000
# 6 0.000000 0.000000 0.000000 0.000000 0.000000 0.018432
#
#
# Mechanical properties :
#
#
# Convention : Reuss Voigt Hill
#
# Bulk Modulus (GPa) = 41.99182 43.37388 42.68285
# Shear Modulus (GPa) = 26.69125 34.57476 30.63300
#
# Velocity S-wave (km/s) = 3.17626 3.61503 3.40272
# Velocity P-wave (km/s) = 5.41511 5.81539 5.61882
#
# Compressibility (1/GPa) = 0.02381416
#
# Stress axis : x y z
#
# Youngs Moduli (GPa) = 56.92046 81.66247 115.45120
#
# Poissons Ratio (x) = 0.55765 0.01157
# Poissons Ratio (y) = 0.38869 0.04639
# Poissons Ratio (z) = 0.00570 0.03281
#
# Static dielectric constant tensor:
#      x y z
#    x 2.291840 0.000000 0.000000 
#    y 0.000000 2.086630 0.000000 
#    z 0.000000 0.000000 1.997800 
# 
# From -- ./inp_files/6586.got.cif
#   From: 2010.05.17/outbox.cif.g08.bks.cpg/sg58_4_cif.got.tgz:6586.got - 2010.06.03 14:20:14.
