data_PCOD9441918
_publ_section_title
;
Structure prediction by ZEFSAII (Michael W. Deem and Ramdas Pophale) SiO2 
 PCOD9441918
Probable space group: P N N M
;
_chemical_formula_sum "Si O2"
_cell_formula_units_Z 36
_cell_length_a 9.153235
_cell_length_b 18.875535
_cell_length_c 10.265405
_cell_angle_alpha 90.000000
_cell_angle_beta 90.000000
_cell_angle_gamma 90.000000
_cell_volume 1773.576684
_symmetry_space_group_name_H-M "P N N M"
_symmetry_group_IT_number 58
_symmetry_cell_setting 'orthorhombic'
loop_
_space_group_symop_operation_xyz
x,y,z
-x,-y,z
1/2+x,1/2-y,1/2-z
1/2-x,1/2+y,1/2-z
-x,-y,-z
x,y,-z
1/2-x,1/2+y,1/2+z
1/2+x,1/2-y,1/2+z
loop_
_atom_site_type_symbol
_atom_site_label
_atom_site_fract_x
_atom_site_fract_y
_atom_site_fract_z
Si Si1 0.717428 0.154043 0.000000
Si Si2 0.766051 0.832798 0.500000
Si Si3 0.791443 0.305141 0.703774
Si Si4 0.036301 0.775877 0.500000
Si Si5 0.453591 0.920481 0.214776
Si Si6 0.470852 0.881585 0.500000
Si Si7 0.453539 0.709243 0.500000
O O1 0.594116 0.216723 0.000000
O O2 0.675954 0.107773 0.125386
O O3 0.884418 0.178391 0.000000
O O4 0.734254 0.797919 0.642803
O O5 0.646557 0.895212 0.500000
O O6 0.868335 0.239820 0.627853
O O7 0.905739 0.369614 0.689179
O O8 0.640801 0.314391 0.625730
O O9 0.939481 0.846190 0.500000
O O10 0.411954 0.911617 0.366007
O O11 0.500000 0.000000 0.185024
O O12 0.457033 0.795586 0.500000
#
# Coordination Sequence:
#
# PCOD9441918 Si02
#       7
#     4   4   8   4   8   4   4
#     4  10  21  35  61  86 111 152 189 246 285 351
#     4  10  19  32  55  81 112 151 186 227 292 346
#     4   9  22  36  55  84 117 154 186 244 291 343
#     4   9  18  34  50  77 115 147 184 221 288 351
#     4  10  21  41  61  84 112 159 206 235 282 348
#     4  10  22  35  62  87 119 150 187 253 290 348
#     4  11  22  38  55  95 124 143 193 239 322 340
#
# _framework density 20.297967
#
# number of rings (size 3 to 8) (size 9 to 14) (size 15 to 20)
#    0.000    2.222    1.111    1.333    9.333    0.000 
#    4.000    2.222    0.000    0.000    0.000    6.222 
#    0.000    0.000    0.000    0.000    0.000    0.000 
#
# Total GULP energy -200693.603495 kJ/mol
# GULP energy per Si atom -5574.822319 kJ/mol
# Density = 2.025177 g / cm^3
# Si number density = 20.297967 Si / 1000 Ang^3
#
#
#
# Elastic Constant Matrix: (Units=GPa)
#
#
# Indices 1 2 3 4 5 6 
#
# 1 126.5929 19.7875 66.8517 0.0000 0.0000 0.0000
# 2 19.7875 46.8034 4.7338 0.0000 0.0000 0.0000
# 3 66.8517 4.7338 143.8481 0.0000 0.0000 0.0000
# 4 0.0000 0.0000 0.0000 9.2363 0.0000 0.0000
# 5 0.0000 0.0000 0.0000 0.0000 -15.4712 0.0000
# 6 0.0000 0.0000 0.0000 0.0000 0.0000 15.7151
#
#
#
# Elastic Compliance Matrix: (Units=1/GPa)
#
#
# Indices 1 2 3 4 5 6 
#
# 1 0.011249 -0.004241 -0.005088 0.000000 0.000000 0.000000
# 2 -0.004241 0.023036 0.001213 0.000000 0.000000 0.000000
# 3 -0.005088 0.001213 0.009277 0.000000 0.000000 0.000000
# 4 0.000000 0.000000 0.000000 0.108268 0.000000 0.000000
# 5 0.000000 0.000000 0.000000 0.000000 -0.064636 0.000000
# 6 0.000000 0.000000 0.000000 0.000000 0.000000 0.063633
#
#
# Mechanical properties :
#
#
# Convention : Reuss Voigt Hill
#
# Bulk Modulus (GPa) = 36.59126 55.55450 46.07288
# Shear Modulus (GPa) = 28.38157 16.95413 22.66785
#
# Velocity S-wave (km/s) = 3.74337 2.89323 3.34541
# Velocity P-wave (km/s) = 6.06217 6.21208 6.13758
#
# Compressibility (1/GPa) = 0.02732893
#
# Stress axis : x y z
#
# Youngs Moduli (GPa) = 88.89336 43.40950 107.79736
#
# Poissons Ratio (x) = 0.18412 0.54852
# Poissons Ratio (y) = 0.37703 -0.13076
# Poissons Ratio (z) = 0.45233 -0.05266
#
# Static dielectric constant tensor:
#      x y z
#    x 1.786410 0.000000 0.000000 
#    y 0.000000 1.761680 0.000000 
#    z 0.000000 0.000000 1.746010 
# 
# From -- ./inp_files/14266.got.cif
#   From: 2010.05.17/outbox.cif.g08.bks.cpg/sg58_8_cif.got.tgz:14266.got - 2010.06.03 14:20:14.
