data_PCOD9441197
_publ_section_title
;
Structure prediction by ZEFSAII (Michael W. Deem and Ramdas Pophale) SiO2 
 PCOD9441197
Probable space group: P N N M
;
_chemical_formula_sum "Si O2"
_cell_formula_units_Z 64
_cell_length_a 22.388970
_cell_length_b 7.147012
_cell_length_c 16.473296
_cell_angle_alpha 90.000000
_cell_angle_beta 90.000000
_cell_angle_gamma 90.000000
_cell_volume 2635.961895
_symmetry_space_group_name_H-M "P N N M"
_symmetry_group_IT_number 58
_symmetry_cell_setting 'orthorhombic'
loop_
_space_group_symop_operation_xyz
x,y,z
-x,-y,z
1/2+x,1/2-y,1/2-z
1/2-x,1/2+y,1/2-z
-x,-y,-z
x,y,-z
1/2-x,1/2+y,1/2+z
1/2+x,1/2-y,1/2+z
loop_
_atom_site_type_symbol
_atom_site_label
_atom_site_fract_x
_atom_site_fract_y
_atom_site_fract_z
Si Si1 0.266098 0.388723 0.589043
Si Si2 0.191035 0.326833 0.909137
Si Si3 0.377657 0.878668 0.909573
Si Si4 0.057900 0.787403 0.586319
Si Si5 0.817715 0.176725 0.406091
Si Si6 0.983781 0.282088 0.757781
Si Si7 0.151841 0.800532 0.229763
Si Si8 0.890182 0.780912 0.231289
O O1 0.284009 0.319284 0.500000
O O2 0.287085 0.607576 0.592686
O O3 0.194613 0.384990 0.594296
O O4 0.300783 0.279353 0.658838
O O5 0.255073 0.429621 0.900464
O O6 0.146178 0.343945 0.833906
O O7 0.166490 0.361600 0.000000
O O8 0.394545 0.801005 0.821467
O O9 0.411680 0.080473 0.912015
O O10 0.391227 0.799439 0.000000
O O11 0.027314 0.808726 0.500000
O O12 0.116755 0.917640 0.590999
O O13 0.020258 0.799251 0.666478
O O14 0.814671 0.256331 0.500000
O O15 0.823476 0.271565 0.316282
O O16 0.915712 0.265759 0.788489
O O17 0.000000 0.500000 0.755925
O O18 0.041555 0.188742 0.798892
O O19 0.143648 0.023763 0.238750
#
# Coordination Sequence:
#
# PCOD9441197 Si02
#       8
#     8   8   8   8   8   8   8   8
#     4   9  17  33  57  85 112 141 181 230 277 327
#     4   9  17  32  56  81 107 141 187 231 269 322
#     4  10  18  31  55  86 116 141 174 218 273 337
#     4   9  17  31  54  82 105 135 184 228 257 311
#     4   9  16  31  54  80 110 142 175 216 271 331
#     4  11  22  38  56  76 102 150 196 229 257 317
#     4  10  22  36  54  81 114 145 178 230 283 327
#     4  11  22  35  52  81 113 144 180 228 283 320
#
# _framework density 24.279564000000001
#
# number of rings (size 3 to 8) (size 9 to 14) (size 15 to 20)
#    0.000    2.250    2.500    1.125    0.000    1.250 
#    0.000    0.625    0.000    9.750    0.000    0.000 
#    0.000    0.000    0.000    0.000    0.000    0.000 
#
# Total GULP energy -356990.474152 kJ/mol
# GULP energy per Si atom -5577.976159 kJ/mol
# Density = 2.422430 g / cm^3
# Si number density = 24.279564 Si / 1000 Ang^3
#
#
#
# Elastic Constant Matrix: (Units=GPa)
#
#
# Indices 1 2 3 4 5 6 
#
# 1 139.9498 17.8882 80.1989 0.0000 0.0000 0.0000
# 2 17.8882 67.6084 29.5082 0.0000 0.0000 0.0000
# 3 80.1989 29.5082 131.9088 0.0000 0.0000 0.0000
# 4 0.0000 0.0000 0.0000 20.0636 0.0000 0.0000
# 5 0.0000 0.0000 0.0000 0.0000 12.7098 0.0000
# 6 0.0000 0.0000 0.0000 0.0000 0.0000 31.2885
#
#
#
# Elastic Compliance Matrix: (Units=1/GPa)
#
#
# Indices 1 2 3 4 5 6 
#
# 1 0.010966 0.000009 -0.006669 0.000000 0.000000 0.000000
# 2 0.000009 0.016391 -0.003673 0.000000 0.000000 0.000000
# 3 -0.006669 -0.003673 0.012457 0.000000 0.000000 0.000000
# 4 0.000000 0.000000 0.000000 0.049841 0.000000 0.000000
# 5 0.000000 0.000000 0.000000 0.000000 0.078679 0.000000
# 6 0.000000 0.000000 0.000000 0.000000 0.000000 0.031961
#
#
# Mechanical properties :
#
#
# Convention : Reuss Voigt Hill
#
# Bulk Modulus (GPa) = 52.21909 66.07306 59.14607
# Shear Modulus (GPa) = 21.99301 26.93716 24.46509
#
# Velocity S-wave (km/s) = 3.01296 3.33447 3.17778
# Velocity P-wave (km/s) = 5.80155 6.48825 6.15449
#
# Compressibility (1/GPa) = 0.01915009
#
# Stress axis : x y z
#
# Youngs Moduli (GPa) = 91.18982 61.00736 80.27330
#
# Poissons Ratio (x) = -0.00057 0.53537
# Poissons Ratio (y) = -0.00086 0.29481
# Poissons Ratio (z) = 0.60818 0.22405
#
# Static dielectric constant tensor:
#      x y z
#    x 1.986740 0.000000 0.000000 
#    y 0.000000 2.146880 0.000000 
#    z 0.000000 0.000000 1.901200 
# 
# From -- ./inp_files/23530.got.cif
#   From: 2010.05.17/outbox.cif.g08.bks.cpg/sg58_12_cif.got.tgz:23530.got - 2010.06.03 14:20:14.
