data_PCOD9441552
_publ_section_title
;
Structure prediction by ZEFSAII (Michael W. Deem and Ramdas Pophale) SiO2 
 PCOD9441552
Probable space group: P N N M
;
_chemical_formula_sum "Si O2"
_cell_formula_units_Z 64
_cell_length_a 20.204088
_cell_length_b 21.129250
_cell_length_c 8.778775
_cell_angle_alpha 90.000000
_cell_angle_beta 90.000000
_cell_angle_gamma 90.000000
_cell_volume 3747.634698
_symmetry_space_group_name_H-M "P N N M"
_symmetry_group_IT_number 58
_symmetry_cell_setting 'orthorhombic'
loop_
_space_group_symop_operation_xyz
x,y,z
-x,-y,z
1/2+x,1/2-y,1/2-z
1/2-x,1/2+y,1/2-z
-x,-y,-z
x,y,-z
1/2-x,1/2+y,1/2+z
1/2+x,1/2-y,1/2+z
loop_
_atom_site_type_symbol
_atom_site_label
_atom_site_fract_x
_atom_site_fract_y
_atom_site_fract_z
Si Si1 0.058475 0.048043 0.816289
Si Si2 0.667027 0.787743 0.182887
Si Si3 0.978779 0.300283 0.819244
Si Si4 0.994822 0.169872 0.681604
Si Si5 0.304209 0.483421 0.683928
Si Si6 0.686953 0.925905 0.183055
Si Si7 0.459784 0.061648 0.315876
Si Si8 0.840215 0.148846 0.317687
O O1 0.041673 0.116286 0.749440
O O2 0.128429 0.018936 0.767515
O O3 0.058071 0.052121 0.000000
O O4 0.000000 0.000000 0.769964
O O5 0.598322 0.794793 0.272500
O O6 0.706248 0.852360 0.215907
O O7 0.692265 0.717265 0.219194
O O8 0.652766 0.787399 0.000000
O O9 0.995631 0.372201 0.772352
O O10 0.011769 0.240203 0.739437
O O11 0.986621 0.294194 0.000000
O O12 0.996675 0.168855 0.500000
O O13 0.918232 0.154005 0.727527
O O14 0.303762 0.482668 0.500000
O O15 0.241244 0.523981 0.737117
O O16 0.307482 0.411727 0.741611
O O17 0.614444 0.938077 0.250919
O O18 0.682379 0.931003 0.000000
O O19 0.455431 0.061415 0.500000
O O20 0.500000 0.000000 0.266310
O O21 0.838299 0.140805 0.500000
#
# Coordination Sequence:
#
# PCOD9441552 Si02
#       8
#     8   8   8   8   8   8   8   8
#     4  10  19  31  47  69  98 133 169 205 245 288
#     4   8  15  29  47  68  93 120 157 199 239 285
#     4   9  16  27  47  73  97 123 155 195 241 287
#     4  10  19  30  46  69  98 129 164 206 244 283
#     4  10  20  32  48  71  98 130 165 203 245 291
#     4   9  18  33  52  73  98 128 163 202 244 295
#     4   9  18  33  54  79 103 125 157 201 247 297
#     4   9  17  28  45  69  93 122 159 200 241 285
#
# _framework density 17.077438000000001
#
# number of rings (size 3 to 8) (size 9 to 14) (size 15 to 20)
#    0.000    2.750    1.250    1.500    0.000    4.000 
#    0.000    0.000    2.750    0.000    0.000    0.000 
#    0.000    0.000    0.000    0.000    0.000    0.000 
#
# Total GULP energy -356378.954684 kJ/mol
# GULP energy per Si atom -5568.421167 kJ/mol
# Density = 1.703857 g / cm^3
# Si number density = 17.077438 Si / 1000 Ang^3
#
#
#
# Elastic Constant Matrix: (Units=GPa)
#
#
# Indices 1 2 3 4 5 6 
#
# 1 52.8542 60.8753 12.2769 0.0000 0.0000 0.0000
# 2 60.8753 191.2956 30.9367 0.0000 0.0000 0.0000
# 3 12.2769 30.9367 7.6690 0.0000 0.0000 0.0000
# 4 0.0000 0.0000 0.0000 25.3705 0.0000 0.0000
# 5 0.0000 0.0000 0.0000 0.0000 13.8966 0.0000
# 6 0.0000 0.0000 0.0000 0.0000 0.0000 26.3078
#
#
#
# Elastic Compliance Matrix: (Units=1/GPa)
#
#
# Indices 1 2 3 4 5 6 
#
# 1 0.031986 -0.005460 -0.029181 0.000000 0.000000 0.000000
# 2 -0.005460 0.015970 -0.055683 0.000000 0.000000 0.000000
# 3 -0.029181 -0.055683 0.401733 0.000000 0.000000 0.000000
# 4 0.000000 0.000000 0.000000 0.039416 0.000000 0.000000
# 5 0.000000 0.000000 0.000000 0.000000 0.071960 0.000000
# 6 0.000000 0.000000 0.000000 0.000000 0.000000 0.038012
#
#
# Mechanical properties :
#
#
# Convention : Reuss Voigt Hill
#
# Bulk Modulus (GPa) = 3.71688 51.11076 27.41382
# Shear Modulus (GPa) = 5.75106 22.96365 14.35735
#
# Velocity S-wave (km/s) = 1.83710 3.67096 2.90266
# Velocity P-wave (km/s) = 2.58479 6.92544 5.22699
#
# Compressibility (1/GPa) = 0.26904261
#
# Stress axis : x y z
#
# Youngs Moduli (GPa) = 31.26338 62.61697 2.48921
#
# Poissons Ratio (x) = 0.34187 0.07264
# Poissons Ratio (y) = 0.17069 0.13861
# Poissons Ratio (z) = 0.91229 3.48670
#
# Static dielectric constant tensor:
#      x y z
#    x 1.550960 0.000000 0.000000 
#    y 0.000000 1.619390 0.000000 
#    z 0.000000 0.000000 1.573780 
# 
# From -- ./inp_files/8298.got.cif
#   From: 2010.05.17/outbox.cif.g08.bks.cpg/sg58_5_cif.got.tgz:8298.got - 2010.06.03 14:20:14.
