data_PCOD9441063
_publ_section_title
;
Structure prediction by ZEFSAII (Michael W. Deem and Ramdas Pophale) SiO2 
 PCOD9441063
Probable space group: P N N M
;
_chemical_formula_sum "Si O2"
_cell_formula_units_Z 44
_cell_length_a 15.996309
_cell_length_b 18.496275
_cell_length_c 8.034298
_cell_angle_alpha 90.000000
_cell_angle_beta 90.000000
_cell_angle_gamma 90.000000
_cell_volume 2377.124864
_symmetry_space_group_name_H-M "P N N M"
_symmetry_group_IT_number 58
_symmetry_cell_setting 'orthorhombic'
loop_
_space_group_symop_operation_xyz
x,y,z
-x,-y,z
1/2+x,1/2-y,1/2-z
1/2-x,1/2+y,1/2-z
-x,-y,-z
x,y,-z
1/2-x,1/2+y,1/2+z
1/2+x,1/2-y,1/2+z
loop_
_atom_site_type_symbol
_atom_site_label
_atom_site_fract_x
_atom_site_fract_y
_atom_site_fract_z
Si Si1 0.432461 0.437621 0.500000
Si Si2 0.749713 0.676484 0.809631
Si Si3 0.472914 0.084071 0.321203
Si Si4 0.061242 0.826812 0.305606
Si Si5 0.417632 0.789926 0.198657
Si Si6 0.590685 0.958063 0.000000
Si Si7 0.744197 0.066956 0.000000
O O1 0.500000 0.500000 0.500000
O O2 0.442891 0.388797 0.333906
O O3 0.337040 0.466513 0.500000
O O4 0.655287 0.705401 0.791994
O O5 0.827347 0.729086 0.773069
O O6 0.759750 0.615894 0.666525
O O7 0.757284 0.649340 0.000000
O O8 0.437491 0.104874 0.500000
O O9 0.551080 0.135271 0.280235
O O10 0.411117 0.089276 0.165992
O O11 0.500000 0.000000 0.330796
O O12 0.051842 0.850829 0.500000
O O13 0.989401 0.768687 0.270496
O O14 0.411342 0.799871 0.000000
O O15 0.500000 0.000000 0.000000
O O16 0.666841 0.012837 0.000000
#
# Coordination Sequence:
#
# PCOD9441063 Si02
#       7
#     4   8   8   8   8   4   4
#     4  10  22  42  66  86 107 147 198 245 289 337
#     4  10  19  34  55  82 111 149 194 235 277 342
#     4  10  20  31  47  76 113 153 188 221 265 333
#     4   9  22  39  58  87 117 146 191 241 287 341
#     4  11  20  35  58  83 115 158 190 231 287 335
#     4  10  18  30  48  74 112 144 179 228 269 324
#     4  10  20  36  58  82 114 151 193 235 280 345
#
# _framework density 18.509755999999999
#
# number of rings (size 3 to 8) (size 9 to 14) (size 15 to 20)
#    0.000    2.000    1.818    2.727    2.545    2.545 
#    0.000    1.818    0.000    2.182    0.000    0.000 
#    0.000    0.000    0.000    0.000    0.000    0.000 
#
# Total GULP energy -245170.590446 kJ/mol
# GULP energy per Si atom -5572.058874 kJ/mol
# Density = 1.846763 g / cm^3
# Si number density = 18.509756 Si / 1000 Ang^3
#
#
#
# Elastic Constant Matrix: (Units=GPa)
#
#
# Indices 1 2 3 4 5 6 
#
# 1 164.0059 53.2386 55.8001 0.0000 0.0000 0.0000
# 2 53.2386 38.6704 23.5981 0.0000 0.0000 0.0000
# 3 55.8001 23.5981 143.3338 0.0000 0.0000 0.0000
# 4 0.0000 0.0000 0.0000 0.8121 0.0000 0.0000
# 5 0.0000 0.0000 0.0000 0.0000 -1.6103 0.0000
# 6 0.0000 0.0000 0.0000 0.0000 0.0000 32.7121
#
#
#
# Elastic Compliance Matrix: (Units=1/GPa)
#
#
# Indices 1 2 3 4 5 6 
#
# 1 0.011561 -0.014641 -0.002090 0.000000 0.000000 0.000000
# 2 -0.014641 0.047289 -0.002086 0.000000 0.000000 0.000000
# 3 -0.002090 -0.002086 0.008134 0.000000 0.000000 0.000000
# 4 0.000000 0.000000 0.000000 1.231424 0.000000 0.000000
# 5 0.000000 0.000000 0.000000 0.000000 -0.620984 0.000000
# 6 0.000000 0.000000 0.000000 0.000000 0.000000 0.030570
#
#
# Mechanical properties :
#
#
# Convention : Reuss Voigt Hill
#
# Bulk Modulus (GPa) = 34.07165 67.92040 50.99603
# Shear Modulus (GPa) = 6.61890 20.60766 13.61328
#
# Velocity S-wave (km/s) = 1.89306 3.34030 2.71489
# Velocity P-wave (km/s) = 4.81929 7.18685 6.11868
#
# Compressibility (1/GPa) = 0.02934991
#
# Stress axis : x y z
#
# Youngs Moduli (GPa) = 86.49602 21.14653 122.94235
#
# Poissons Ratio (x) = 0.30961 0.25699
# Poissons Ratio (y) = 1.26639 0.25643
# Poissons Ratio (z) = 0.18081 0.04411
#
# Static dielectric constant tensor:
#      x y z
#    x 1.649860 0.000000 0.000000 
#    y 0.000000 1.612730 0.000000 
#    z 0.000000 0.000000 1.706260 
# 
# From -- ./inp_files/5721.got.cif
#   From: 2010.05.17/outbox.cif.g08.bks.cpg/sg58_3_cif.got.tgz:5721.got - 2010.06.03 14:20:14.
