data_PCOD9441948
_publ_section_title
;
Structure prediction by ZEFSAII (Michael W. Deem and Ramdas Pophale) SiO2 
 PCOD9441948
Probable space group: P N N M
;
_chemical_formula_sum "Si O2"
_cell_formula_units_Z 64
_cell_length_a 14.615943
_cell_length_b 10.171204
_cell_length_c 23.791481
_cell_angle_alpha 90.000000
_cell_angle_beta 90.000000
_cell_angle_gamma 90.000000
_cell_volume 3536.882913
_symmetry_space_group_name_H-M "P N N M"
_symmetry_group_IT_number 58
_symmetry_cell_setting 'orthorhombic'
loop_
_space_group_symop_operation_xyz
x,y,z
-x,-y,z
1/2+x,1/2-y,1/2-z
1/2-x,1/2+y,1/2-z
-x,-y,-z
x,y,-z
1/2-x,1/2+y,1/2+z
1/2+x,1/2-y,1/2+z
loop_
_atom_site_type_symbol
_atom_site_label
_atom_site_fract_x
_atom_site_fract_y
_atom_site_fract_z
Si Si1 0.392263 0.485945 0.882383
Si Si2 0.308631 0.429591 0.761821
Si Si3 0.856130 0.771765 0.754631
Si Si4 0.588244 0.778465 0.936022
Si Si5 0.031584 0.847031 0.818886
Si Si6 0.283568 0.984650 0.934532
Si Si7 0.419537 0.393347 0.437842
Si Si8 0.600240 0.230398 0.874527
O O1 0.500000 0.500000 0.868199
O O2 0.342544 0.441144 0.825911
O O3 0.383553 0.372234 0.927762
O O4 0.366415 0.631773 0.901676
O O5 0.215560 0.346447 0.761437
O O6 0.308660 0.582686 0.740865
O O7 0.383023 0.351068 0.723992
O O8 0.895705 0.757917 0.691575
O O9 0.943391 0.770343 0.795880
O O10 0.501540 0.802236 0.895885
O O11 0.672813 0.873450 0.923409
O O12 0.558420 0.802698 0.000000
O O13 0.061760 0.808877 0.881931
O O14 0.000000 0.000000 0.820711
O O15 0.175380 0.970628 0.928100
O O16 0.332809 0.883694 0.893474
O O17 0.304971 0.952300 0.000000
O O18 0.500000 0.500000 0.440766
O O19 0.414156 0.328911 0.500000
#
# Coordination Sequence:
#
# PCOD9441948 Si02
#       8
#     8   8   8   8   8   8   8   8
#     4   9  19  33  50  73 105 142 176 209 251 312
#     4  10  19  35  54  74 104 135 170 216 261 307
#     4  10  21  35  54  78 101 135 176 213 260 314
#     4  10  20  33  52  80 111 141 173 209 253 310
#     4   9  17  32  52  73 100 135 170 203 252 313
#     4  10  20  33  52  79 107 136 174 218 261 304
#     4   9  18  32  50  74 102 132 171 217 257 298
#     4  10  19  33  50  75 110 142 171 207 258 319
#
# _framework density 18.095030000000001
#
# number of rings (size 3 to 8) (size 9 to 14) (size 15 to 20)
#    0.000    2.375    0.000    4.125    0.000    7.750 
#    0.000    1.875    0.000    0.000    0.000    2.625 
#    0.000   22.000    0.000    0.000    0.000    0.000 
#
# Total GULP energy -356667.918228 kJ/mol
# GULP energy per Si atom -5572.936222 kJ/mol
# Density = 1.805384 g / cm^3
# Si number density = 18.095030 Si / 1000 Ang^3
#
#
#
# Elastic Constant Matrix: (Units=GPa)
#
#
# Indices 1 2 3 4 5 6 
#
# 1 80.2920 39.7640 59.7892 0.0000 0.0000 0.0000
# 2 39.7640 59.1098 32.4965 0.0000 0.0000 0.0000
# 3 59.7892 32.4965 68.1399 0.0000 0.0000 0.0000
# 4 0.0000 0.0000 0.0000 19.2207 0.0000 0.0000
# 5 0.0000 0.0000 0.0000 0.0000 25.6703 0.0000
# 6 0.0000 0.0000 0.0000 0.0000 0.0000 25.8685
#
#
#
# Elastic Compliance Matrix: (Units=1/GPa)
#
#
# Indices 1 2 3 4 5 6 
#
# 1 0.040116 -0.010348 -0.030264 0.000000 0.000000 0.000000
# 2 -0.010348 0.025599 -0.003128 0.000000 0.000000 0.000000
# 3 -0.030264 -0.003128 0.042723 0.000000 0.000000 0.000000
# 4 0.000000 0.000000 0.000000 0.052027 0.000000 0.000000
# 5 0.000000 0.000000 0.000000 0.000000 0.038955 0.000000
# 6 0.000000 0.000000 0.000000 0.000000 0.000000 0.038657
#
#
# Mechanical properties :
#
#
# Convention : Reuss Voigt Hill
#
# Bulk Modulus (GPa) = 47.71919 52.40455 50.06187
# Shear Modulus (GPa) = 15.03559 19.18469 17.11014
#
# Velocity S-wave (km/s) = 2.88570 3.25963 3.07835
# Velocity P-wave (km/s) = 6.12631 6.57195 6.35304
#
# Compressibility (1/GPa) = 0.02095593
#
# Stress axis : x y z
#
# Youngs Moduli (GPa) = 24.92797 39.06424 23.40659
#
# Poissons Ratio (x) = 0.40424 0.70838
# Poissons Ratio (y) = 0.25796 0.07323
# Poissons Ratio (z) = 0.75443 0.12221
#
# Static dielectric constant tensor:
#      x y z
#    x 1.608000 0.000000 0.000000 
#    y 0.000000 1.626890 0.000000 
#    z 0.000000 0.000000 1.653340 
# 
# From -- ./inp_files/32243.got.cif
#   From: 2010.05.17/outbox.cif.g08.bks.cpg/sg58_17_cif.got.tgz:32243.got - 2010.06.03 14:20:14.
