data_PCOD9441134
_publ_section_title
;
Structure prediction by ZEFSAII (Michael W. Deem and Ramdas Pophale) SiO2 
 PCOD9441134
Probable space group: P N N M
;
_chemical_formula_sum "Si O2"
_cell_formula_units_Z 48
_cell_length_a 14.058002
_cell_length_b 24.486972
_cell_length_c 8.546774
_cell_angle_alpha 90.000000
_cell_angle_beta 90.000000
_cell_angle_gamma 90.000000
_cell_volume 2942.123545
_symmetry_space_group_name_H-M "P N N M"
_symmetry_group_IT_number 58
_symmetry_cell_setting 'orthorhombic'
loop_
_space_group_symop_operation_xyz
x,y,z
-x,-y,z
1/2+x,1/2-y,1/2-z
1/2-x,1/2+y,1/2-z
-x,-y,-z
x,y,-z
1/2-x,1/2+y,1/2+z
1/2+x,1/2-y,1/2+z
loop_
_atom_site_type_symbol
_atom_site_label
_atom_site_fract_x
_atom_site_fract_y
_atom_site_fract_z
Si Si1 0.601152 0.228509 0.686506
Si Si2 0.388940 0.562958 0.689525
Si Si3 0.285842 0.667763 0.186299
Si Si4 0.391055 0.438929 0.310017
Si Si5 0.108642 0.728828 0.686431
Si Si6 0.280256 0.332677 0.688165
O O1 0.594638 0.230064 0.500000
O O2 0.642022 0.286516 0.746565
O O3 0.498283 0.218069 0.759403
O O4 0.679481 0.184307 0.739391
O O5 0.383491 0.566508 0.500000
O O6 0.322694 0.608670 0.763244
O O7 0.499447 0.572503 0.735250
O O8 0.365525 0.500662 0.737040
O O9 0.183056 0.683235 0.255680
O O10 0.282944 0.673011 0.000000
O O11 0.390671 0.438742 0.500000
O O12 0.321249 0.390927 0.258379
O O13 0.114046 0.733354 0.500000
O O14 0.146129 0.785386 0.761477
O O15 0.272422 0.332310 0.500000
#
# Coordination Sequence:
#
# PCOD9441134 Si02
#       6
#     8   8   8   8   8   8
#     4  11  21  34  50  71  98 131 164 202 245 290
#     4   9  16  31  51  73  99 132 166 199 238 286
#     4  11  21  33  49  74 102 131 163 200 242 290
#     4   8  16  29  50  74  99 130 165 198 238 288
#     4  11  21  34  51  73  98 129 163 202 246 292
#     4  10  18  31  50  75 102 131 163 199 239 290
#
# _framework density 16.314747000000001
#
# number of rings (size 3 to 8) (size 9 to 14) (size 15 to 20)
#    0.000    2.000    0.000    9.000    0.000    1.333 
#    0.000    4.167    0.000    1.000    0.000    7.000 
#    0.000    0.000    0.000    0.000    0.000    0.000 
#
# Total GULP energy -267927.447097 kJ/mol
# GULP energy per Si atom -5581.821815 kJ/mol
# Density = 1.627761 g / cm^3
# Si number density = 16.314747 Si / 1000 Ang^3
#
#
#
# Elastic Constant Matrix: (Units=GPa)
#
#
# Indices 1 2 3 4 5 6 
#
# 1 108.5414 65.5407 11.6215 0.0000 0.0000 0.0000
# 2 65.5407 105.3642 8.1218 0.0000 0.0000 0.0000
# 3 11.6215 8.1218 63.1040 0.0000 0.0000 0.0000
# 4 0.0000 0.0000 0.0000 24.2584 0.0000 0.0000
# 5 0.0000 0.0000 0.0000 0.0000 26.0835 0.0000
# 6 0.0000 0.0000 0.0000 0.0000 0.0000 18.7996
#
#
#
# Elastic Compliance Matrix: (Units=1/GPa)
#
#
# Indices 1 2 3 4 5 6 
#
# 1 0.014907 -0.009152 -0.001567 0.000000 0.000000 0.000000
# 2 -0.009152 0.015205 -0.000271 0.000000 0.000000 0.000000
# 3 -0.001567 -0.000271 0.016170 0.000000 0.000000 0.000000
# 4 0.000000 0.000000 0.000000 0.041223 0.000000 0.000000
# 5 0.000000 0.000000 0.000000 0.000000 0.038338 0.000000
# 6 0.000000 0.000000 0.000000 0.000000 0.000000 0.053193
#
#
# Mechanical properties :
#
#
# Convention : Reuss Voigt Hill
#
# Bulk Modulus (GPa) = 41.15140 49.73085 45.44113
# Shear Modulus (GPa) = 23.90988 26.60998 25.25993
#
# Velocity S-wave (km/s) = 3.83239 4.04299 3.93910
# Velocity P-wave (km/s) = 6.69784 7.23483 6.97151
#
# Compressibility (1/GPa) = 0.02430051
#
# Stress axis : x y z
#
# Youngs Moduli (GPa) = 67.08172 65.76894 61.84118
#
# Poissons Ratio (x) = 0.60192 0.09693
# Poissons Ratio (y) = 0.61393 0.01679
# Poissons Ratio (z) = 0.10515 0.01785
#
# Static dielectric constant tensor:
#      x y z
#    x 1.529100 0.000000 0.000000 
#    y 0.000000 1.542330 0.000000 
#    z 0.000000 0.000000 1.550720 
# 
# From -- ./inp_files/4267.got.cif
#   From: 2010.05.17/outbox.cif.g08.bks.cpg/sg58_3_cif.got.tgz:4267.got - 2010.06.03 14:20:14.
