data_PCOD9441102
_publ_section_title
;
Structure prediction by ZEFSAII (Michael W. Deem and Ramdas Pophale) SiO2 
 PCOD9441102
Probable space group: P N N M
;
_chemical_formula_sum "Si O2"
_cell_formula_units_Z 52
_cell_length_a 27.023948
_cell_length_b 10.748743
_cell_length_c 7.454631
_cell_angle_alpha 90.000000
_cell_angle_beta 90.000000
_cell_angle_gamma 90.000000
_cell_volume 2165.372548
_symmetry_space_group_name_H-M "P N N M"
_symmetry_group_IT_number 58
_symmetry_cell_setting 'orthorhombic'
loop_
_space_group_symop_operation_xyz
x,y,z
-x,-y,z
1/2+x,1/2-y,1/2-z
1/2-x,1/2+y,1/2-z
-x,-y,-z
x,y,-z
1/2-x,1/2+y,1/2+z
1/2+x,1/2-y,1/2+z
loop_
_atom_site_type_symbol
_atom_site_label
_atom_site_fract_x
_atom_site_fract_y
_atom_site_fract_z
Si Si1 0.105921 0.942316 0.291372
Si Si2 0.000000 0.000000 0.751990
Si Si3 0.211766 0.005932 0.712693
Si Si4 0.720886 0.218607 0.715804
Si Si5 0.485794 0.774650 0.718409
Si Si6 0.118473 0.392322 0.218795
Si Si7 0.904949 0.339108 0.784796
O O1 0.096579 0.977935 0.500000
O O2 0.112998 0.793201 0.287214
O O3 0.056624 0.977422 0.184449
O O4 0.155507 0.004765 0.218518
O O5 0.992118 0.858485 0.688615
O O6 0.206620 0.985656 0.500000
O O7 0.235407 0.140959 0.738368
O O8 0.243200 0.890216 0.783565
O O9 0.720216 0.210772 0.500000
O O10 0.665259 0.187614 0.779442
O O11 0.484703 0.752941 0.500000
O O12 0.434701 0.837983 0.771337
O O13 0.536160 0.849888 0.754323
O O14 0.121908 0.536087 0.276950
O O15 0.118556 0.392832 0.000000
O O16 0.900101 0.331949 0.000000
#
# Coordination Sequence:
#
# PCOD9441102 Si02
#       7
#     8   4   8   8   8   8   8
#     4  10  21  36  53  76 110 145 180 223 273 324
#     4  10  18  30  52  74 101 146 185 214 265 332
#     4  10  23  41  59  84 116 148 185 234 283 330
#     4  10  22  39  60  84 110 145 188 231 278 331
#     4   9  16  27  47  78 111 136 170 222 272 320
#     4   9  17  31  52  77 108 140 176 223 274 325
#     4   9  18  31  52  81 107 140 179 220 270 324
#
# _framework density 24.014341999999999
#
# number of rings (size 3 to 8) (size 9 to 14) (size 15 to 20)
#    0.000    2.462    0.000    1.846    2.154    3.692 
#    0.000    0.769    0.000    8.308    0.000    0.000 
#    0.000    0.000    0.000    0.000    0.000    0.000 
#
# Total GULP energy -290147.489254 kJ/mol
# GULP energy per Si atom -5579.759409 kJ/mol
# Density = 2.395968 g / cm^3
# Si number density = 24.014342 Si / 1000 Ang^3
#
#
#
# Elastic Constant Matrix: (Units=GPa)
#
#
# Indices 1 2 3 4 5 6 
#
# 1 78.8529 59.2179 10.0200 0.0000 0.0000 0.0000
# 2 59.2179 129.7066 -4.2059 0.0000 0.0000 0.0000
# 3 10.0200 -4.2059 84.4422 0.0000 0.0000 0.0000
# 4 0.0000 0.0000 0.0000 9.5810 0.0000 0.0000
# 5 0.0000 0.0000 0.0000 0.0000 -84.6032 0.0000
# 6 0.0000 0.0000 0.0000 0.0000 0.0000 38.3965
#
#
#
# Elastic Compliance Matrix: (Units=1/GPa)
#
#
# Indices 1 2 3 4 5 6 
#
# 1 0.019950 -0.009200 -0.002825 0.000000 0.000000 0.000000
# 2 -0.009200 0.011965 0.001688 0.000000 0.000000 0.000000
# 3 -0.002825 0.001688 0.012262 0.000000 0.000000 0.000000
# 4 0.000000 0.000000 0.000000 0.104373 0.000000 0.000000
# 5 0.000000 0.000000 0.000000 0.000000 -0.011820 0.000000
# 6 0.000000 0.000000 0.000000 0.000000 0.000000 0.026044
#
#
# Mechanical properties :
#
#
# Convention : Reuss Voigt Hill
#
# Bulk Modulus (GPa) = 42.55168 47.00733 44.77951
# Shear Modulus (GPa) = 26.13934 7.87283 17.00608
#
# Velocity S-wave (km/s) = 3.30280 1.81260 2.66402
# Velocity P-wave (km/s) = 5.68352 4.89876 5.30567
#
# Compressibility (1/GPa) = 0.02350083
#
# Stress axis : x y z
#
# Youngs Moduli (GPa) = 50.12572 83.57986 81.55443
#
# Poissons Ratio (x) = 0.76892 0.23043
# Poissons Ratio (y) = 0.46115 -0.13763
# Poissons Ratio (z) = 0.14163 -0.14105
#
# Static dielectric constant tensor:
#      x y z
#    x 1.892490 0.000000 0.000000 
#    y 0.000000 1.880620 0.000000 
#    z 0.000000 0.000000 2.033030 
# 
# From -- ./inp_files/10384.got.cif
#   From: 2010.05.17/outbox.cif.g08.bks.cpg/sg58_6_cif.got.tgz:10384.got - 2010.06.03 14:20:14.
