data_PCOD9441307
_publ_section_title
;
Structure prediction by ZEFSAII (Michael W. Deem and Ramdas Pophale) SiO2 
 PCOD9441307
Probable space group: P N N M
;
_chemical_formula_sum "Si O2"
_cell_formula_units_Z 48
_cell_length_a 12.034934
_cell_length_b 8.882435
_cell_length_c 19.336076
_cell_angle_alpha 90.000000
_cell_angle_beta 90.000000
_cell_angle_gamma 90.000000
_cell_volume 2067.017223
_symmetry_space_group_name_H-M "P N N M"
_symmetry_group_IT_number 58
_symmetry_cell_setting 'orthorhombic'
loop_
_space_group_symop_operation_xyz
x,y,z
-x,-y,z
1/2+x,1/2-y,1/2-z
1/2-x,1/2+y,1/2-z
-x,-y,-z
x,y,-z
1/2-x,1/2+y,1/2+z
1/2+x,1/2-y,1/2+z
loop_
_atom_site_type_symbol
_atom_site_label
_atom_site_fract_x
_atom_site_fract_y
_atom_site_fract_z
Si Si1 0.512574 0.819655 0.419415
Si Si2 0.248186 0.966859 0.719366
Si Si3 0.065889 0.641635 0.697138
Si Si4 0.893511 0.814652 0.791842
Si Si5 0.735512 0.357804 0.079730
Si Si6 0.491049 0.319797 0.921441
O O1 0.480861 0.804448 0.500000
O O2 0.438665 0.718951 0.368421
O O3 0.643896 0.780583 0.413066
O O4 0.500000 0.000000 0.401948
O O5 0.350353 0.060413 0.751523
O O6 0.145400 0.020975 0.767031
O O7 0.233677 0.021574 0.641061
O O8 0.288199 0.796070 0.721618
O O9 0.987423 0.749618 0.741783
O O10 0.092780 0.742552 0.631073
O O11 0.000000 0.500000 0.666619
O O12 0.620211 0.267147 0.088802
O O13 0.732277 0.416551 0.000000
O O14 0.500000 0.500000 0.911913
O O15 0.459126 0.290458 0.000000
#
# Coordination Sequence:
#
# PCOD9441307 Si02
#       6
#     8   8   8   8   8   8
#     4  10  18  32  59  88 112 142 188 245 286 326
#     4  11  22  35  57  84 112 149 187 233 279 336
#     4  10  21  36  54  81 116 146 186 228 278 345
#     4  11  21  37  55  85 117 145 189 231 283 343
#     4  10  19  34  57  84 111 145 189 236 284 331
#     4  10  22  38  57  84 114 148 191 235 280 333
#
# _framework density 23.221868000000001
#
# number of rings (size 3 to 8) (size 9 to 14) (size 15 to 20)
#    0.000    1.667    5.000    0.500    2.333    0.333 
#    0.000    0.833    0.000    2.000    0.000    2.333 
#    0.000    0.000    0.000    0.000    0.000    0.000 
#
# Total GULP energy -268077.454864 kJ/mol
# GULP energy per Si atom -5584.946976 kJ/mol
# Density = 2.316901 g / cm^3
# Si number density = 23.221868 Si / 1000 Ang^3
#
#
#
# Elastic Constant Matrix: (Units=GPa)
#
#
# Indices 1 2 3 4 5 6 
#
# 1 80.2465 34.6336 21.8053 0.0000 0.0000 0.0000
# 2 34.6336 56.6529 53.5710 0.0000 0.0000 0.0000
# 3 21.8053 53.5710 134.2577 0.0000 0.0000 0.0000
# 4 0.0000 0.0000 0.0000 7.9248 0.0000 0.0000
# 5 0.0000 0.0000 0.0000 0.0000 377.7988 0.0000
# 6 0.0000 0.0000 0.0000 0.0000 0.0000 35.4435
#
#
#
# Elastic Compliance Matrix: (Units=1/GPa)
#
#
# Indices 1 2 3 4 5 6 
#
# 1 0.017349 -0.012753 0.002271 0.000000 0.000000 0.000000
# 2 -0.012753 0.037722 -0.012980 0.000000 0.000000 0.000000
# 3 0.002271 -0.012980 0.012259 0.000000 0.000000 0.000000
# 4 0.000000 0.000000 0.000000 0.126186 0.000000 0.000000
# 5 0.000000 0.000000 0.000000 0.000000 0.002647 0.000000
# 6 0.000000 0.000000 0.000000 0.000000 0.000000 0.028214
#
#
# Mechanical properties :
#
#
# Convention : Reuss Voigt Hill
#
# Bulk Modulus (GPa) = 49.00895 54.57521 51.79208
# Shear Modulus (GPa) = 17.97891 94.97656 56.47773
#
# Velocity S-wave (km/s) = 2.78550 6.40222 4.93698
# Velocity P-wave (km/s) = 5.61212 8.84330 7.40607
#
# Compressibility (1/GPa) = 0.02040444
#
# Stress axis : x y z
#
# Youngs Moduli (GPa) = 57.64121 26.50967 81.57346
#
# Poissons Ratio (x) = 0.33809 -0.18526
# Poissons Ratio (y) = 0.73512 1.05886
# Poissons Ratio (z) = -0.13091 0.34411
#
# Static dielectric constant tensor:
#      x y z
#    x 2.019200 0.000000 0.000000 
#    y 0.000000 1.850630 0.000000 
#    z 0.000000 0.000000 1.842240 
# 
# From -- ./inp_files/26149.got.cif
#   From: 2010.05.17/outbox.cif.g08.bks.cpg/sg58_14_cif.got.tgz:26149.got - 2010.06.03 14:20:14.
