data_PCOD9441821
_publ_section_title
;
Structure prediction by ZEFSAII (Michael W. Deem and Ramdas Pophale) SiO2 
 PCOD9441821
Probable space group: P N N M
;
_chemical_formula_sum "Si O2"
_cell_formula_units_Z 48
_cell_length_a 30.671262
_cell_length_b 10.322649
_cell_length_c 7.515399
_cell_angle_alpha 90.000000
_cell_angle_beta 90.000000
_cell_angle_gamma 90.000000
_cell_volume 2379.440497
_symmetry_space_group_name_H-M "P N N M"
_symmetry_group_IT_number 58
_symmetry_cell_setting 'orthorhombic'
loop_
_space_group_symop_operation_xyz
x,y,z
-x,-y,z
1/2+x,1/2-y,1/2-z
1/2-x,1/2+y,1/2-z
-x,-y,-z
x,y,-z
1/2-x,1/2+y,1/2+z
1/2+x,1/2-y,1/2+z
loop_
_atom_site_type_symbol
_atom_site_label
_atom_site_fract_x
_atom_site_fract_y
_atom_site_fract_z
Si Si1 0.786270 0.035311 0.214099
Si Si2 0.475239 0.368341 0.716177
Si Si3 0.115488 0.260317 0.284382
Si Si4 0.029071 0.386013 0.293310
Si Si5 0.786319 0.734241 0.286881
Si Si6 0.883897 0.041344 0.210550
O O1 0.749925 0.134815 0.281809
O O2 0.835253 0.063192 0.283613
O O3 0.775962 0.884878 0.251194
O O4 0.787920 0.048014 0.000000
O O5 0.500000 0.500000 0.767971
O O6 0.475594 0.362751 0.500000
O O7 0.500954 0.244731 0.784620
O O8 0.425210 0.379070 0.779310
O O9 0.115449 0.264678 0.500000
O O10 0.076650 0.351562 0.217436
O O11 0.164401 0.291339 0.220963
O O12 0.106263 0.111324 0.233952
O O13 0.036734 0.421278 0.500000
O O14 0.000000 0.500000 0.211733
O O15 0.787733 0.719030 0.500000
O O16 0.881852 0.066933 0.000000
#
# Coordination Sequence:
#
# PCOD9441821 Si02
#       6
#     8   8   8   8   8   8
#     4   9  18  33  52  73  99 129 160 199 245 290
#     4  10  19  32  52  75  97 125 162 203 241 282
#     4   9  17  31  51  70  94 129 165 196 235 287
#     4  10  21  35  49  70 101 133 163 198 241 289
#     4   9  18  33  52  73  97 126 161 201 242 287
#     4   9  17  31  51  73  97 124 161 203 242 285
#
# _framework density 20.172809000000001
#
# number of rings (size 3 to 8) (size 9 to 14) (size 15 to 20)
#    0.000    2.667    1.667    0.000    0.000    2.000 
#    3.000    0.000    0.000    0.000    0.000    0.000 
#    0.000    0.000    0.000    0.000    0.000    0.000 
#
# Total GULP energy -267739.415719 kJ/mol
# GULP energy per Si atom -5577.904494 kJ/mol
# Density = 2.012690 g / cm^3
# Si number density = 20.172809 Si / 1000 Ang^3
#
#
#
# Elastic Constant Matrix: (Units=GPa)
#
#
# Indices 1 2 3 4 5 6 
#
# 1 158.1285 64.7393 4.7179 0.0000 0.0000 0.0000
# 2 64.7393 70.1466 -4.5879 0.0000 0.0000 0.0000
# 3 4.7179 -4.5879 50.1057 0.0000 0.0000 0.0000
# 4 0.0000 0.0000 0.0000 17.5256 0.0000 0.0000
# 5 0.0000 0.0000 0.0000 0.0000 18.0151 0.0000
# 6 0.0000 0.0000 0.0000 0.0000 0.0000 35.2488
#
#
#
# Elastic Compliance Matrix: (Units=1/GPa)
#
#
# Indices 1 2 3 4 5 6 
#
# 1 0.010334 -0.009659 -0.001857 0.000000 0.000000 0.000000
# 2 -0.009659 0.023369 0.003049 0.000000 0.000000 0.000000
# 3 -0.001857 0.003049 0.020412 0.000000 0.000000 0.000000
# 4 0.000000 0.000000 0.000000 0.057059 0.000000 0.000000
# 5 0.000000 0.000000 0.000000 0.000000 0.055509 0.000000
# 6 0.000000 0.000000 0.000000 0.000000 0.000000 0.028370
#
#
# Mechanical properties :
#
#
# Convention : Reuss Voigt Hill
#
# Bulk Modulus (GPa) = 26.89511 45.34660 36.12086
# Shear Modulus (GPa) = 22.28359 28.39200 25.33779
#
# Velocity S-wave (km/s) = 3.32721 3.75566 3.54791
# Velocity P-wave (km/s) = 5.30299 6.42919 5.89306
#
# Compressibility (1/GPa) = 0.03718148
#
# Stress axis : x y z
#
# Youngs Moduli (GPa) = 96.77059 42.79104 48.99098
#
# Poissons Ratio (x) = 0.41330 0.09100
# Poissons Ratio (y) = 0.93467 -0.14939
# Poissons Ratio (z) = 0.17974 -0.13048
#
# Static dielectric constant tensor:
#      x y z
#    x 1.758470 0.000000 0.000000 
#    y 0.000000 1.659930 0.000000 
#    z 0.000000 0.000000 1.743300 
# 
# From -- ./inp_files/2992.got.cif
#   From: 2010.05.17/outbox.cif.g08.bks.cpg/sg58_2_cif.got.tgz:2992.got - 2010.06.03 14:20:14.
