data_PCOD9441151
_publ_section_title
;
Structure prediction by ZEFSAII (Michael W. Deem and Ramdas Pophale) SiO2 
 PCOD9441151
Probable space group: P N N M
;
_chemical_formula_sum "Si O2"
_cell_formula_units_Z 48
_cell_length_a 17.010109
_cell_length_b 19.991466
_cell_length_c 8.023029
_cell_angle_alpha 90.000000
_cell_angle_beta 90.000000
_cell_angle_gamma 90.000000
_cell_volume 2728.287299
_symmetry_space_group_name_H-M "P N N M"
_symmetry_group_IT_number 58
_symmetry_cell_setting 'orthorhombic'
loop_
_space_group_symop_operation_xyz
x,y,z
-x,-y,z
1/2+x,1/2-y,1/2-z
1/2-x,1/2+y,1/2-z
-x,-y,-z
x,y,-z
1/2-x,1/2+y,1/2+z
1/2+x,1/2-y,1/2+z
loop_
_atom_site_type_symbol
_atom_site_label
_atom_site_fract_x
_atom_site_fract_y
_atom_site_fract_z
Si Si1 0.521074 0.842774 0.199479
Si Si2 0.469879 0.609196 0.500000
Si Si3 0.148969 0.391886 0.691836
Si Si4 0.627945 0.518198 0.500000
Si Si5 0.185519 0.904943 0.313533
Si Si6 0.533228 0.687710 0.194559
Si Si7 0.409719 0.025223 0.311312
O O1 0.432399 0.860501 0.259367
O O2 0.540328 0.766110 0.235104
O O3 0.582833 0.897133 0.266133
O O4 0.519146 0.852059 0.000000
O O5 0.547216 0.561538 0.500000
O O6 0.396411 0.559092 0.500000
O O7 0.477751 0.652941 0.331998
O O8 0.158438 0.371340 0.500000
O O9 0.227742 0.374973 0.790041
O O10 0.137386 0.472380 0.701429
O O11 0.672521 0.541587 0.333552
O O12 0.177709 0.933408 0.500000
O O13 0.117410 0.849374 0.294359
O O14 0.506889 0.681508 0.000000
O O15 0.381562 0.017158 0.500000
O O16 0.500000 0.000000 0.301187
#
# Coordination Sequence:
#
# PCOD9441151 Si02
#       7
#     8   4   8   4   8   8   8
#     4   9  18  32  51  74 103 139 174 215 259 308
#     4   9  18  32  56  78 101 130 172 217 250 307
#     4  10  18  31  52  74 102 136 175 218 261 311
#     4   9  18  34  52  80 101 128 174 213 258 300
#     4  10  19  33  54  76 103 138 172 214 263 314
#     4   9  19  34  53  78 106 138 175 211 259 312
#     4   9  17  28  45  73 100 126 169 215 254 300
#
# _framework density 17.593454999999999
#
# number of rings (size 3 to 8) (size 9 to 14) (size 15 to 20)
#    0.000    2.667    0.833    1.000    1.167    3.333 
#    0.000    3.333    3.667    0.000    0.000    0.000 
#    0.000    0.000    0.000    0.000    0.000    0.000 
#
# Total GULP energy -267310.706192 kJ/mol
# GULP energy per Si atom -5568.973046 kJ/mol
# Density = 1.755341 g / cm^3
# Si number density = 17.593455 Si / 1000 Ang^3
#
#
#
# Elastic Constant Matrix: (Units=GPa)
#
#
# Indices 1 2 3 4 5 6 
#
# 1 46.8798 14.0944 22.5164 0.0000 0.0000 0.0000
# 2 14.0944 86.8833 38.6777 0.0000 0.0000 0.0000
# 3 22.5164 38.6777 82.8182 0.0000 0.0000 0.0000
# 4 0.0000 0.0000 0.0000 20.7641 0.0000 0.0000
# 5 0.0000 0.0000 0.0000 0.0000 12.3589 0.0000
# 6 0.0000 0.0000 0.0000 0.0000 0.0000 11.5423
#
#
#
# Elastic Compliance Matrix: (Units=1/GPa)
#
#
# Indices 1 2 3 4 5 6 
#
# 1 0.024648 -0.001282 -0.006103 0.000000 0.000000 0.000000
# 2 -0.001282 0.014597 -0.006469 0.000000 0.000000 0.000000
# 3 -0.006103 -0.006469 0.016755 0.000000 0.000000 0.000000
# 4 0.000000 0.000000 0.000000 0.048160 0.000000 0.000000
# 5 0.000000 0.000000 0.000000 0.000000 0.080913 0.000000
# 6 0.000000 0.000000 0.000000 0.000000 0.000000 0.086638
#
#
# Mechanical properties :
#
#
# Convention : Reuss Voigt Hill
#
# Bulk Modulus (GPa) = 35.34361 40.79536 38.06948
# Shear Modulus (GPa) = 16.18917 18.35256 17.27086
#
# Velocity S-wave (km/s) = 3.03674 3.23328 3.13655
# Velocity P-wave (km/s) = 5.69459 6.09729 5.89938
#
# Compressibility (1/GPa) = 0.02829366
#
# Stress axis : x y z
#
# Youngs Moduli (GPa) = 40.57196 68.50580 59.68429
#
# Poissons Ratio (x) = 0.08781 0.36423
# Poissons Ratio (y) = 0.05200 0.38608
# Poissons Ratio (z) = 0.24759 0.44315
#
# Static dielectric constant tensor:
#      x y z
#    x 1.610840 0.000000 0.000000 
#    y 0.000000 1.590290 0.000000 
#    z 0.000000 0.000000 1.625740 
# 
# From -- ./inp_files/7901.got.cif
#   From: 2010.05.17/outbox.cif.g08.bks.cpg/sg58_4_cif.got.tgz:7901.got - 2010.06.03 14:20:14.
