data_PCOD9441106
_publ_section_title
;
Structure prediction by ZEFSAII (Michael W. Deem and Ramdas Pophale) SiO2 
 PCOD9441106
Probable space group: P N N M
;
_chemical_formula_sum "Si O2"
_cell_formula_units_Z 58
_cell_length_a 14.992927
_cell_length_b 26.048863
_cell_length_c 7.518738
_cell_angle_alpha 90.000000
_cell_angle_beta 90.000000
_cell_angle_gamma 90.000000
_cell_volume 2936.433362
_symmetry_space_group_name_H-M "P N N M"
_symmetry_group_IT_number 58
_symmetry_cell_setting 'orthorhombic'
loop_
_space_group_symop_operation_xyz
x,y,z
-x,-y,z
1/2+x,1/2-y,1/2-z
1/2-x,1/2+y,1/2-z
-x,-y,-z
x,y,-z
1/2-x,1/2+y,1/2+z
1/2+x,1/2-y,1/2+z
loop_
_atom_site_type_symbol
_atom_site_label
_atom_site_fract_x
_atom_site_fract_y
_atom_site_fract_z
Si Si1 0.540583 0.741497 0.704348
Si Si2 0.000000 0.500000 0.000000
Si Si3 0.032348 0.643546 0.296122
Si Si4 0.733445 0.708043 0.717587
Si Si5 0.640518 0.300627 0.794750
Si Si6 0.657152 0.109620 0.784702
Si Si7 0.726719 0.887701 0.787720
Si Si8 0.155883 0.505778 0.287270
O O1 0.557360 0.755990 0.500000
O O2 0.517133 0.795384 0.795736
O O3 0.631891 0.717229 0.775476
O O4 0.456481 0.703866 0.710170
O O5 0.072992 0.514706 0.157758
O O6 0.036946 0.624830 0.500000
O O7 0.130314 0.632701 0.219451
O O8 0.944167 0.617658 0.214872
O O9 0.732933 0.707274 0.500000
O O10 0.793747 0.756159 0.776441
O O11 0.779186 0.655284 0.777759
O O12 0.692425 0.354029 0.782922
O O13 0.625258 0.288217 0.000000
O O14 0.687670 0.052022 0.746145
O O15 0.652443 0.114549 0.000000
O O16 0.725690 0.948457 0.755217
O O17 0.728243 0.879337 0.000000
O O18 0.132603 0.507494 0.500000
#
# Coordination Sequence:
#
# PCOD9441106 Si02
#       8
#     8   2   8   8   8   8   8   8
#     4  11  21  34  51  81 114 142 184 230 280 337
#     4  12  22  36  60  86 128 150 202 236 288 348
#     4  10  18  30  52  78 112 148 180 220 274 336
#     4   9  18  33  54  80 107 145 188 233 278 341
#     4  11  21  36  56  78 109 147 188 229 283 337
#     4   9  17  35  58  77 108 152 191 228 280 337
#     4  10  21  36  55  81 114 150 191 233 281 338
#     4  10  22  39  57  83 118 160 196 238 288 345
#
# _framework density 19.751854000000002
#
# number of rings (size 3 to 8) (size 9 to 14) (size 15 to 20)
#    0.000    1.931    2.759    1.862    0.966    2.207 
#    3.724    0.000    3.034    0.828    0.000    5.793 
#    0.000    0.000    0.000    0.000    0.000    0.000 
#
# Total GULP energy -323256.134443 kJ/mol
# GULP energy per Si atom -5573.381628 kJ/mol
# Density = 1.970690 g / cm^3
# Si number density = 19.751854 Si / 1000 Ang^3
#
#
#
# Elastic Constant Matrix: (Units=GPa)
#
#
# Indices 1 2 3 4 5 6 
#
# 1 96.1774 34.3945 3.6481 0.0000 0.0000 0.0000
# 2 34.3945 95.3843 6.3997 0.0000 0.0000 0.0000
# 3 3.6481 6.3997 62.5585 0.0000 0.0000 0.0000
# 4 0.0000 0.0000 0.0000 -7.5878 0.0000 0.0000
# 5 0.0000 0.0000 0.0000 0.0000 19.0488 0.0000
# 6 0.0000 0.0000 0.0000 0.0000 0.0000 25.5641
#
#
#
# Elastic Compliance Matrix: (Units=1/GPa)
#
#
# Indices 1 2 3 4 5 6 
#
# 1 0.011941 -0.004288 -0.000258 0.000000 0.000000 0.000000
# 2 -0.004288 0.012097 -0.000987 0.000000 0.000000 0.000000
# 3 -0.000258 -0.000987 0.016101 0.000000 0.000000 0.000000
# 4 0.000000 0.000000 0.000000 -0.131790 0.000000 0.000000
# 5 0.000000 0.000000 0.000000 0.000000 0.052497 0.000000
# 6 0.000000 0.000000 0.000000 0.000000 0.000000 0.039117
#
#
# Mechanical properties :
#
#
# Convention : Reuss Voigt Hill
#
# Bulk Modulus (GPa) = 34.39796 38.11168 36.25482
# Shear Modulus (GPa) = 241.31292 21.38352 131.34822
#
# Velocity S-wave (km/s) = 11.06515 3.29387 8.16355
# Velocity P-wave (km/s) = 13.44258 5.81406 10.35631
#
# Compressibility (1/GPa) = 0.02907149
#
# Stress axis : x y z
#
# Youngs Moduli (GPa) = 83.74621 82.66844 62.10767
#
# Poissons Ratio (x) = 0.35452 0.01600
# Poissons Ratio (y) = 0.35914 0.06132
# Poissons Ratio (z) = 0.02158 0.08163
#
# Static dielectric constant tensor:
#      x y z
#    x 1.677610 0.000000 0.000000 
#    y 0.000000 1.710520 0.000000 
#    z 0.000000 0.000000 1.739450 
# 
# From -- ./inp_files/6664.got.cif
#   From: 2010.05.17/outbox.cif.g08.bks.cpg/sg58_4_cif.got.tgz:6664.got - 2010.06.03 14:20:14.
