data_PCOD9441174
_publ_section_title
;
Structure prediction by ZEFSAII (Michael W. Deem and Ramdas Pophale) SiO2 
 PCOD9441174
Probable space group: P N N M
;
_chemical_formula_sum "Si O2"
_cell_formula_units_Z 56
_cell_length_a 16.354168
_cell_length_b 21.938429
_cell_length_c 8.765421
_cell_angle_alpha 90.000000
_cell_angle_beta 90.000000
_cell_angle_gamma 90.000000
_cell_volume 3144.899413
_symmetry_space_group_name_H-M "P N N M"
_symmetry_group_IT_number 58
_symmetry_cell_setting 'orthorhombic'
loop_
_space_group_symop_operation_xyz
x,y,z
-x,-y,z
1/2+x,1/2-y,1/2-z
1/2-x,1/2+y,1/2-z
-x,-y,-z
x,y,-z
1/2-x,1/2+y,1/2+z
1/2+x,1/2-y,1/2+z
loop_
_atom_site_type_symbol
_atom_site_label
_atom_site_fract_x
_atom_site_fract_y
_atom_site_fract_z
Si Si1 0.743436 0.690028 0.183612
Si Si2 0.944266 0.055968 0.819936
Si Si3 0.420159 0.777054 0.318598
Si Si4 0.013378 0.398566 0.322277
Si Si5 0.130493 0.516846 0.677609
Si Si6 0.442545 0.310968 0.817353
Si Si7 0.725923 0.548347 0.821744
O O1 0.825328 0.724426 0.238965
O O2 0.650842 0.705651 0.236898
O O3 0.755333 0.617579 0.213369
O O4 0.742440 0.697179 0.000000
O O5 0.851636 0.037668 0.783810
O O6 0.957844 0.119558 0.733948
O O7 0.956801 0.065662 0.000000
O O8 0.000000 0.000000 0.768291
O O9 0.418916 0.767649 0.500000
O O10 0.453797 0.844359 0.279910
O O11 0.485064 0.730819 0.246041
O O12 0.011094 0.378613 0.500000
O O13 0.072366 0.457227 0.314916
O O14 0.924253 0.424893 0.280436
O O15 0.155394 0.523211 0.500000
O O16 0.205582 0.500876 0.784369
O O17 0.441833 0.307399 0.000000
O O18 0.703046 0.547621 0.000000
#
# Coordination Sequence:
#
# PCOD9441174 Si02
#       7
#     8   8   8   8   8   8   8
#     4   8  17  33  52  75 104 138 176 219 267 320
#     4  10  21  38  59  82 106 135 174 222 274 322
#     4  11  20  34  55  80 109 144 184 224 272 325
#     4   9  18  31  48  74 108 144 178 217 263 310
#     4   9  17  30  48  74 108 142 179 219 261 309
#     4  10  21  38  58  82 110 141 180 224 272 325
#     4  10  18  31  53  80 108 140 180 222 266 318
#
# _framework density 17.806609999999999
#
# number of rings (size 3 to 8) (size 9 to 14) (size 15 to 20)
#    0.000    2.429    1.429    3.429    0.000    1.714 
#    0.000    5.000    0.000    3.429    0.000    0.000 
#    0.000    0.000    0.000    0.000    0.000    0.000 
#
# Total GULP energy -312024.071680 kJ/mol
# GULP energy per Si atom -5571.858423 kJ/mol
# Density = 1.776608 g / cm^3
# Si number density = 17.806610 Si / 1000 Ang^3
#
#
#
# Elastic Constant Matrix: (Units=GPa)
#
#
# Indices 1 2 3 4 5 6 
#
# 1 124.0872 59.3482 27.8804 0.0000 0.0000 0.0000
# 2 59.3482 49.3374 21.4811 0.0000 0.0000 0.0000
# 3 27.8804 21.4811 30.0732 0.0000 0.0000 0.0000
# 4 0.0000 0.0000 0.0000 26.2345 0.0000 0.0000
# 5 0.0000 0.0000 0.0000 0.0000 25.1910 0.0000
# 6 0.0000 0.0000 0.0000 0.0000 0.0000 32.6103
#
#
#
# Elastic Compliance Matrix: (Units=1/GPa)
#
#
# Indices 1 2 3 4 5 6 
#
# 1 0.019049 -0.022097 -0.001876 0.000000 0.000000 0.000000
# 2 -0.022097 0.055051 -0.018836 0.000000 0.000000 0.000000
# 3 -0.001876 -0.018836 0.048446 0.000000 0.000000 0.000000
# 4 0.000000 0.000000 0.000000 0.038118 0.000000 0.000000
# 5 0.000000 0.000000 0.000000 0.000000 0.039697 0.000000
# 6 0.000000 0.000000 0.000000 0.000000 0.000000 0.030665
#
#
# Mechanical properties :
#
#
# Convention : Reuss Voigt Hill
#
# Bulk Modulus (GPa) = 27.08088 46.76858 36.92473
# Shear Modulus (GPa) = 15.19970 23.12635 19.16303
#
# Velocity S-wave (km/s) = 2.92481 3.60773 3.28407
# Velocity P-wave (km/s) = 5.16211 6.60878 5.92973
#
# Compressibility (1/GPa) = 0.03692642
#
# Stress axis : x y z
#
# Youngs Moduli (GPa) = 52.49613 18.16508 20.64149
#
# Poissons Ratio (x) = 0.40140 0.03873
# Poissons Ratio (y) = 1.16002 0.38881
# Poissons Ratio (z) = 0.09849 0.34216
#
# Static dielectric constant tensor:
#      x y z
#    x 1.653570 0.000000 0.000000 
#    y 0.000000 1.587280 0.000000 
#    z 0.000000 0.000000 1.605100 
# 
# From -- ./inp_files/6320.got.cif
#   From: 2010.05.17/outbox.cif.g08.bks.cpg/sg58_4_cif.got.tgz:6320.got - 2010.06.03 14:20:14.
