data_PCOD9441845
_publ_section_title
;
Structure prediction by ZEFSAII (Michael W. Deem and Ramdas Pophale) SiO2 
 PCOD9441845
Probable space group: P N N M
;
_chemical_formula_sum "Si O2"
_cell_formula_units_Z 48
_cell_length_a 15.386283
_cell_length_b 20.378140
_cell_length_c 8.750514
_cell_angle_alpha 90.000000
_cell_angle_beta 90.000000
_cell_angle_gamma 90.000000
_cell_volume 2743.669666
_symmetry_space_group_name_H-M "P N N M"
_symmetry_group_IT_number 58
_symmetry_cell_setting 'orthorhombic'
loop_
_space_group_symop_operation_xyz
x,y,z
-x,-y,z
1/2+x,1/2-y,1/2-z
1/2-x,1/2+y,1/2-z
-x,-y,-z
x,y,-z
1/2-x,1/2+y,1/2+z
1/2+x,1/2-y,1/2+z
loop_
_atom_site_type_symbol
_atom_site_label
_atom_site_fract_x
_atom_site_fract_y
_atom_site_fract_z
Si Si1 0.724632 0.519689 0.816171
Si Si2 0.563036 0.438051 0.183135
Si Si3 0.919084 0.544335 0.815493
Si Si4 0.694398 0.662824 0.315831
Si Si5 0.388490 0.812695 0.816913
Si Si6 0.505261 0.697492 0.682678
O O1 0.659438 0.461831 0.770893
O O2 0.825824 0.512284 0.774978
O O3 0.693389 0.588703 0.747075
O O4 0.718824 0.525176 0.000000
O O5 0.500000 0.500000 0.213388
O O6 0.531463 0.373142 0.266869
O O7 0.561135 0.426144 0.000000
O O8 0.919618 0.616749 0.744700
O O9 0.000000 0.500000 0.766579
O O10 0.922091 0.550548 0.000000
O O11 0.693815 0.659574 0.500000
O O12 0.786844 0.693663 0.268811
O O13 0.606554 0.699289 0.267196
O O14 0.447710 0.754770 0.754007
O O15 0.391309 0.812744 0.000000
O O16 0.502512 0.703051 0.500000
#
# Coordination Sequence:
#
# PCOD9441845 Si02
#       6
#     8   8   8   8   8   8
#     4   9  17  31  53  78 104 137 174 214 258 312
#     4  10  19  32  52  80 110 139 174 214 263 317
#     4   9  18  35  58  81 106 139 179 219 263 315
#     4   9  19  35  55  76 101 138 177 216 265 315
#     4  10  21  38  57  78 106 141 180 222 268 318
#     4  11  22  36  55  79 108 141 179 223 268 317
#
# _framework density 17.494817000000001
#
# number of rings (size 3 to 8) (size 9 to 14) (size 15 to 20)
#    0.000    2.333    1.667    1.000    0.000    2.667 
#    3.000    0.000    0.000    0.000    0.000    0.000 
#    0.000    0.000    0.000    0.000    0.000    0.000 
#
# Total GULP energy -267727.764551 kJ/mol
# GULP energy per Si atom -5577.661761 kJ/mol
# Density = 1.745500 g / cm^3
# Si number density = 17.494817 Si / 1000 Ang^3
#
#
#
# Elastic Constant Matrix: (Units=GPa)
#
#
# Indices 1 2 3 4 5 6 
#
# 1 172.4880 95.4237 40.9541 0.0000 0.0000 0.0000
# 2 95.4237 95.0819 31.4332 0.0000 0.0000 0.0000
# 3 40.9541 31.4332 19.2537 0.0000 0.0000 0.0000
# 4 0.0000 0.0000 0.0000 29.4829 0.0000 0.0000
# 5 0.0000 0.0000 0.0000 0.0000 21.6119 0.0000
# 6 0.0000 0.0000 0.0000 0.0000 0.0000 33.8330
#
#
#
# Elastic Compliance Matrix: (Units=1/GPa)
#
#
# Indices 1 2 3 4 5 6 
#
# 1 0.014985 -0.009780 -0.015908 0.000000 0.000000 0.000000
# 2 -0.009780 0.029232 -0.026922 0.000000 0.000000 0.000000
# 3 -0.015908 -0.026922 0.129727 0.000000 0.000000 0.000000
# 4 0.000000 0.000000 0.000000 0.033918 0.000000 0.000000
# 5 0.000000 0.000000 0.000000 0.000000 0.046271 0.000000
# 6 0.000000 0.000000 0.000000 0.000000 0.000000 0.029557
#
#
# Mechanical properties :
#
#
# Convention : Reuss Voigt Hill
#
# Bulk Modulus (GPa) = 14.55058 69.16061 41.85560
# Shear Modulus (GPa) = 12.14131 24.91973 18.53052
#
# Velocity S-wave (km/s) = 2.63724 3.77823 3.25807
# Velocity P-wave (km/s) = 4.19625 7.65841 6.17494
#
# Compressibility (1/GPa) = 0.06872578
#
# Stress axis : x y z
#
# Youngs Moduli (GPa) = 66.73409 34.20870 7.70849
#
# Poissons Ratio (x) = 0.33455 0.12262
# Poissons Ratio (y) = 0.65265 0.20753
# Poissons Ratio (z) = 1.06158 0.92096
#
# Static dielectric constant tensor:
#      x y z
#    x 1.634150 0.000000 0.000000 
#    y 0.000000 1.540440 0.000000 
#    z 0.000000 0.000000 1.590240 
# 
# From -- ./inp_files/5817.got.cif
#   From: 2010.05.17/outbox.cif.g08.bks.cpg/sg58_3_cif.got.tgz:5817.got - 2010.06.03 14:20:14.
