data_PCOD9441011
_publ_section_title
;
Structure prediction by ZEFSAII (Michael W. Deem and Ramdas Pophale) SiO2 
 PCOD9441011
Probable space group: P N N M
;
_chemical_formula_sum "Si O2"
_cell_formula_units_Z 64
_cell_length_a 5.637299
_cell_length_b 18.550489
_cell_length_c 23.623250
_cell_angle_alpha 90.000000
_cell_angle_beta 90.000000
_cell_angle_gamma 90.000000
_cell_volume 2470.393174
_symmetry_space_group_name_H-M "P N N M"
_symmetry_group_IT_number 58
_symmetry_cell_setting 'orthorhombic'
loop_
_space_group_symop_operation_xyz
x,y,z
-x,-y,z
1/2+x,1/2-y,1/2-z
1/2-x,1/2+y,1/2-z
-x,-y,-z
x,y,-z
1/2-x,1/2+y,1/2+z
1/2+x,1/2-y,1/2+z
loop_
_atom_site_type_symbol
_atom_site_label
_atom_site_fract_x
_atom_site_fract_y
_atom_site_fract_z
Si Si1 0.969160 0.918837 0.732361
Si Si2 0.652049 0.250000 0.140020
Si Si3 0.368160 0.886840 0.435780
Si Si4 0.131841 0.113160 0.935780
Si Si5 0.869335 0.907819 0.399259
Si Si6 0.530840 0.081163 0.232361
Si Si7 0.130665 0.407819 0.399258
Si Si8 0.348276 0.750000 0.648617
O O1 0.897184 0.924842 0.666979
O O2 0.734274 0.886351 0.761754
O O3 0.234274 0.886351 0.738246
O O4 0.000000 0.000000 0.756728
O O5 0.644486 0.320146 0.100611
O O6 0.644486 0.179854 0.100611
O O7 0.411063 0.250000 0.175846
O O8 0.892534 0.250000 0.176292
O O9 0.378521 0.860190 0.500000
O O10 0.613403 0.928374 0.423168
O O11 0.355128 0.821106 0.391144
O O12 0.118263 0.928203 0.427755
O O13 0.381737 0.071797 0.927755
O O14 0.144872 0.178894 0.891144
O O15 0.886597 0.071626 0.923168
O O16 0.121480 0.139810 0.000000
O O17 0.602816 0.075158 0.166979
O O18 0.500000 0.000000 0.256728
#
# Coordination Sequence:
#
# PCOD9441011 Si02
#       8
#     8   8   8   8   8   8   8   8
#     4  10  21  38  59  78  94 122 169 216 255 295
#     4   8  16  28  45  71 101 132 161 195 245 298
#     4  10  18  29  48  74 105 139 170 198 237 292
#     4  10  18  29  48  74 105 139 170 198 237 292
#     4  10  19  33  51  74 105 133 164 207 248 289
#     4  10  21  38  59  78  94 122 169 216 255 295
#     4  10  19  33  51  74 105 133 164 207 248 289
#     4   8  15  26  42  67  99 136 173 203 228 268
#
# _framework density 25.906808000000002
#
# number of rings (size 3 to 8) (size 9 to 14) (size 15 to 20)
#    0.000    2.500    0.000    2.625    0.000    0.000 
#    0.000    8.750    0.000    4.500    0.000    0.000 
#    0.000    0.000    0.000    0.000    0.000    0.000 
#
# Total GULP energy -357344.487628 kJ/mol
# GULP energy per Si atom -5583.507619 kJ/mol
# Density = 2.584784 g / cm^3
# Si number density = 25.906808 Si / 1000 Ang^3
#
#
#
# Elastic Constant Matrix: (Units=GPa)
#
#
# Indices 1 2 3 4 5 6 
#
# 1 343.2870 35.9784 27.9416 0.0000 0.0000 0.0000
# 2 35.9784 91.1715 -4.2080 0.0000 0.0000 0.0000
# 3 27.9416 -4.2080 83.4954 0.0000 0.0000 0.0000
# 4 0.0000 0.0000 0.0000 308.0781 0.0000 0.0000
# 5 0.0000 0.0000 0.0000 0.0000 36.2424 0.0000
# 6 0.0000 0.0000 0.0000 0.0000 0.0000 32.0752
#
#
#
# Elastic Compliance Matrix: (Units=1/GPa)
#
#
# Indices 1 2 3 4 5 6 
#
# 1 0.003139 -0.001290 -0.001115 0.000000 0.000000 0.000000
# 2 -0.001290 0.011524 0.001013 0.000000 0.000000 0.000000
# 3 -0.001115 0.001013 0.012401 0.000000 0.000000 0.000000
# 4 0.000000 0.000000 0.000000 0.003246 0.000000 0.000000
# 5 0.000000 0.000000 0.000000 0.000000 0.027592 0.000000
# 6 0.000000 0.000000 0.000000 0.000000 0.000000 0.031177
#
#
# Mechanical properties :
#
#
# Convention : Reuss Voigt Hill
#
# Bulk Modulus (GPa) = 41.18954 70.81977 56.00466
# Shear Modulus (GPa) = 50.02105 105.82860 77.92482
#
# Velocity S-wave (km/s) = 4.39886 6.39831 5.49037
# Velocity P-wave (km/s) = 6.46016 9.05429 7.86492
#
# Compressibility (1/GPa) = 0.02427801
#
# Stress axis : x y z
#
# Youngs Moduli (GPa) = 318.56958 86.77377 80.63836
#
# Poissons Ratio (x) = 0.11196 0.08995
# Poissons Ratio (y) = 0.41102 -0.08165
# Poissons Ratio (z) = 0.35536 -0.08786
#
# Static dielectric constant tensor:
#      x y z
#    x 2.124680 0.000000 0.000000 
#    y 0.000000 2.087150 0.000000 
#    z 0.000000 0.000000 1.912840 
# 
# From -- ./inp_files/28334.got.cif
#   From: 2010.05.17/outbox.cif.g08.bks.cpg/sg58_15_cif.got.tgz:28334.got - 2010.06.03 14:20:14.
