data_PCOD9441966
_publ_section_title
;
Structure prediction by ZEFSAII (Michael W. Deem and Ramdas Pophale) SiO2 
 PCOD9441966
Probable space group: P N N M
;
_chemical_formula_sum "Si O2"
_cell_formula_units_Z 56
_cell_length_a 5.701942
_cell_length_b 17.679410
_cell_length_c 25.154211
_cell_angle_alpha 90.000000
_cell_angle_beta 90.000000
_cell_angle_gamma 90.000000
_cell_volume 2535.719804
_symmetry_space_group_name_H-M "P N N M"
_symmetry_group_IT_number 58
_symmetry_cell_setting 'orthorhombic'
loop_
_space_group_symop_operation_xyz
x,y,z
-x,-y,z
1/2+x,1/2-y,1/2-z
1/2-x,1/2+y,1/2-z
-x,-y,-z
x,y,-z
1/2-x,1/2+y,1/2+z
1/2+x,1/2-y,1/2+z
loop_
_atom_site_type_symbol
_atom_site_label
_atom_site_fract_x
_atom_site_fract_y
_atom_site_fract_z
Si Si1 0.704272 0.146045 0.736881
Si Si2 0.289765 0.686311 0.738558
Si Si3 0.166082 0.928590 0.365312
Si Si4 0.752099 0.968385 0.936579
Si Si5 0.321808 0.713499 0.862427
Si Si6 0.086822 0.696725 0.441229
Si Si7 0.428007 0.840701 0.441339
O O1 0.710787 0.231577 0.710641
O O2 0.457807 0.143663 0.768934
O O3 0.696793 0.084079 0.690081
O O4 0.961536 0.142672 0.765603
O O5 0.277089 0.714862 0.800022
O O6 0.322589 0.917995 0.417515
O O7 0.000919 0.855548 0.367557
O O8 0.000000 0.000000 0.364228
O O9 0.739607 0.877729 0.931447
O O10 0.500000 0.000000 0.916018
O O11 0.752613 0.986462 0.000000
O O12 0.000000 0.000000 0.914904
O O13 0.416700 0.787970 0.891799
O O14 0.103958 0.687995 0.897083
O O15 0.970399 0.686499 0.500000
O O16 0.240788 0.772469 0.445257
O O17 0.531992 0.850899 0.500000
#
# Coordination Sequence:
#
# PCOD9441966 Si02
#       7
#     8   8   8   8   8   8   8
#     4   9  17  33  53  83 104 135 170 233 292 346
#     4   9  17  31  56  79 109 128 176 232 288 344
#     4  10  21  36  52  77 114 148 197 248 300 350
#     4   9  18  31  48  74 104 134 176 227 279 333
#     4  10  19  33  52  79 107 149 192 243 285 350
#     4   9  19  32  50  76 108 146 190 239 285 337
#     4  10  20  34  52  75 111 155 202 248 289 335
#
# _framework density 22.084458000000001
#
# number of rings (size 3 to 8) (size 9 to 14) (size 15 to 20)
#    0.000    2.571    1.429    0.429    2.000    1.429 
#    0.000    0.714    0.000    0.000    3.714    0.000 
#    0.000    0.000    0.000    0.000    0.000    0.000 
#
# Total GULP energy -311856.082980 kJ/mol
# GULP energy per Si atom -5568.858625 kJ/mol
# Density = 2.203419 g / cm^3
# Si number density = 22.084458 Si / 1000 Ang^3
#
#
#
# Elastic Constant Matrix: (Units=GPa)
#
#
# Indices 1 2 3 4 5 6 
#
# 1 127.1664 19.1691 17.6878 0.0000 0.0000 0.0000
# 2 19.1691 63.9764 23.9785 0.0000 0.0000 0.0000
# 3 17.6878 23.9785 67.1445 0.0000 0.0000 0.0000
# 4 0.0000 0.0000 0.0000 7.3883 0.0000 0.0000
# 5 0.0000 0.0000 0.0000 0.0000 315.1192 0.0000
# 6 0.0000 0.0000 0.0000 0.0000 0.0000 23.0255
#
#
#
# Elastic Compliance Matrix: (Units=1/GPa)
#
#
# Indices 1 2 3 4 5 6 
#
# 1 0.008366 -0.001940 -0.001511 0.000000 0.000000 0.000000
# 2 -0.001940 0.018496 -0.006094 0.000000 0.000000 0.000000
# 3 -0.001511 -0.006094 0.017468 0.000000 0.000000 0.000000
# 4 0.000000 0.000000 0.000000 0.135349 0.000000 0.000000
# 5 0.000000 0.000000 0.000000 0.000000 0.003173 0.000000
# 6 0.000000 0.000000 0.000000 0.000000 0.000000 0.043430
#
#
# Mechanical properties :
#
#
# Convention : Reuss Voigt Hill
#
# Bulk Modulus (GPa) = 39.62113 42.21756 40.91934
# Shear Modulus (GPa) = 19.70155 82.27008 50.98582
#
# Velocity S-wave (km/s) = 2.99005 6.11010 4.81008
# Velocity P-wave (km/s) = 5.46811 8.30275 7.02979
#
# Compressibility (1/GPa) = 0.02523906
#
# Stress axis : x y z
#
# Youngs Moduli (GPa) = 119.52595 54.06486 57.24882
#
# Poissons Ratio (x) = 0.10491 0.08650
# Poissons Ratio (y) = 0.23194 0.34888
# Poissons Ratio (z) = 0.18060 0.32948
#
# Static dielectric constant tensor:
#      x y z
#    x 1.940210 0.000000 0.000000 
#    y 0.000000 1.791150 0.000000 
#    z 0.000000 0.000000 1.921490 
# 
# From -- ./inp_files/34188.got.cif
#   From: 2010.05.17/outbox.cif.g08.bks.cpg/sg58_18_cif.got.tgz:34188.got - 2010.06.03 14:20:14.
