data_PCOD9441198
_publ_section_title
;
Structure prediction by ZEFSAII (Michael W. Deem and Ramdas Pophale) SiO2 
 PCOD9441198
Probable space group: P N N M
;
_chemical_formula_sum "Si O2"
_cell_formula_units_Z 56
_cell_length_a 17.231022
_cell_length_b 8.199534
_cell_length_c 15.133463
_cell_angle_alpha 90.000000
_cell_angle_beta 90.000000
_cell_angle_gamma 90.000000
_cell_volume 2138.151761
_symmetry_space_group_name_H-M "P N N M"
_symmetry_group_IT_number 58
_symmetry_cell_setting 'orthorhombic'
loop_
_space_group_symop_operation_xyz
x,y,z
-x,-y,z
1/2+x,1/2-y,1/2-z
1/2-x,1/2+y,1/2-z
-x,-y,-z
x,y,-z
1/2-x,1/2+y,1/2+z
1/2+x,1/2-y,1/2+z
loop_
_atom_site_type_symbol
_atom_site_label
_atom_site_fract_x
_atom_site_fract_y
_atom_site_fract_z
Si Si1 0.110237 0.686851 0.645100
Si Si2 0.954809 0.828413 0.404785
Si Si3 0.958624 0.326189 0.839609
Si Si4 0.686740 0.918814 0.598012
Si Si5 0.608105 0.240057 0.598279
Si Si6 0.737916 0.511000 0.601224
Si Si7 0.326067 0.524710 0.797970
O O1 0.080969 0.667956 0.745184
O O2 0.173659 0.555023 0.614920
O O3 0.153890 0.862892 0.644633
O O4 0.025857 0.700505 0.599482
O O5 0.913430 0.808852 0.500000
O O6 0.898279 0.853005 0.320383
O O7 0.000000 0.000000 0.406698
O O8 0.885842 0.297521 0.902842
O O9 0.000000 0.500000 0.858066
O O10 0.030173 0.205123 0.852694
O O11 0.713160 0.958742 0.500000
O O12 0.651022 0.083958 0.638921
O O13 0.756842 0.872005 0.658847
O O14 0.580901 0.191014 0.500000
O O15 0.675326 0.368100 0.588417
O O16 0.738504 0.593148 0.500000
O O17 0.704568 0.542594 0.703373
#
# Coordination Sequence:
#
# PCOD9441198 Si02
#       7
#     8   8   8   8   8   8   8
#     4  11  21  37  60  83 116 159 199 236 294 352
#     4   9  19  34  57  88 116 147 195 252 298 343
#     4  10  20  35  56  85 116 149 191 240 291 346
#     4  10  18  31  55  87 115 144 188 246 297 342
#     4   9  18  33  55  82 110 148 193 235 284 349
#     4  11  22  37  58  84 117 162 206 238 285 361
#     4  11  21  36  58  86 120 148 196 251 297 344
#
# _framework density 26.190844999999999
#
# number of rings (size 3 to 8) (size 9 to 14) (size 15 to 20)
#    0.000    1.857    2.857    2.143    0.000    2.857 
#    0.000    1.429    0.000    9.000    0.000    0.000 
#    0.000    0.000    0.000    0.000    0.000    0.000 
#
# Total GULP energy -311809.993879 kJ/mol
# GULP energy per Si atom -5568.035605 kJ/mol
# Density = 2.613123 g / cm^3
# Si number density = 26.190845 Si / 1000 Ang^3
#
#
#
# Elastic Constant Matrix: (Units=GPa)
#
#
# Indices 1 2 3 4 5 6 
#
# 1 163.2039 22.4108 62.8777 0.0000 0.0000 0.0000
# 2 22.4108 16.1133 9.6613 0.0000 0.0000 0.0000
# 3 62.8777 9.6613 146.1788 0.0000 0.0000 0.0000
# 4 0.0000 0.0000 0.0000 22.9708 0.0000 0.0000
# 5 0.0000 0.0000 0.0000 0.0000 48.2152 0.0000
# 6 0.0000 0.0000 0.0000 0.0000 0.0000 13.3648
#
#
#
# Elastic Compliance Matrix: (Units=1/GPa)
#
#
# Indices 1 2 3 4 5 6 
#
# 1 0.008724 -0.010292 -0.003072 0.000000 0.000000 0.000000
# 2 -0.010292 0.076762 -0.000646 0.000000 0.000000 0.000000
# 3 -0.003072 -0.000646 0.008205 0.000000 0.000000 0.000000
# 4 0.000000 0.000000 0.000000 0.043534 0.000000 0.000000
# 5 0.000000 0.000000 0.000000 0.000000 0.020740 0.000000
# 6 0.000000 0.000000 0.000000 0.000000 0.000000 0.074823
#
#
# Mechanical properties :
#
#
# Convention : Reuss Voigt Hill
#
# Bulk Modulus (GPa) = 15.22753 57.26617 36.24685
# Shear Modulus (GPa) = 17.68655 32.27992 24.98324
#
# Velocity S-wave (km/s) = 2.60146 3.51449 3.09186
# Velocity P-wave (km/s) = 3.85359 6.19526 5.15904
#
# Compressibility (1/GPa) = 0.06567054
#
# Stress axis : x y z
#
# Youngs Moduli (GPa) = 114.62264 13.02721 121.87301
#
# Poissons Ratio (x) = 0.13407 0.37445
# Poissons Ratio (y) = 1.17967 0.07879
# Poissons Ratio (z) = 0.35218 0.00842
#
# Static dielectric constant tensor:
#      x y z
#    x 2.122780 0.000000 0.000000 
#    y 0.000000 2.149080 0.000000 
#    z 0.000000 0.000000 2.254420 
# 
# From -- ./inp_files/22194.got.cif
#   From: 2010.05.17/outbox.cif.g08.bks.cpg/sg58_12_cif.got.tgz:22194.got - 2010.06.03 14:20:14.
