data_PCOD9441929
_publ_section_title
;
Structure prediction by ZEFSAII (Michael W. Deem and Ramdas Pophale) SiO2 
 PCOD9441929
Probable space group: P N N M
;
_chemical_formula_sum "Si O2"
_cell_formula_units_Z 64
_cell_length_a 17.067519
_cell_length_b 11.156840
_cell_length_c 17.488484
_cell_angle_alpha 90.000000
_cell_angle_beta 90.000000
_cell_angle_gamma 90.000000
_cell_volume 3330.149755
_symmetry_space_group_name_H-M "P N N M"
_symmetry_group_IT_number 58
_symmetry_cell_setting 'orthorhombic'
loop_
_space_group_symop_operation_xyz
x,y,z
-x,-y,z
1/2+x,1/2-y,1/2-z
1/2-x,1/2+y,1/2-z
-x,-y,-z
x,y,-z
1/2-x,1/2+y,1/2+z
1/2+x,1/2-y,1/2+z
loop_
_atom_site_type_symbol
_atom_site_label
_atom_site_fract_x
_atom_site_fract_y
_atom_site_fract_z
Si Si1 0.773587 0.641007 0.658869
Si Si2 0.972235 0.867938 0.746580
Si Si3 0.699038 0.866324 0.848095
Si Si4 0.374812 0.228964 0.298758
Si Si5 0.963306 0.385591 0.415038
Si Si6 0.592538 0.981060 0.585450
Si Si7 0.841868 0.708249 0.824139
Si Si8 0.899845 0.808825 0.586217
O O1 0.786506 0.504948 0.632826
O O2 0.682003 0.669035 0.667903
O O3 0.811390 0.655816 0.743181
O O4 0.819665 0.738534 0.607250
O O5 0.049692 0.783677 0.755108
O O6 0.908813 0.803738 0.801030
O O7 0.930371 0.879107 0.662232
O O8 0.000000 0.000000 0.769613
O O9 0.680195 0.847322 0.758608
O O10 0.616746 0.831829 0.885223
O O11 0.771463 0.780179 0.864632
O O12 0.396902 0.137999 0.365109
O O13 0.941800 0.428449 0.500000
O O14 0.000000 0.500000 0.370717
O O15 0.032468 0.291316 0.418205
O O16 0.625218 0.967795 0.500000
O O17 0.628381 0.097478 0.626366
O O18 0.500000 0.000000 0.580915
O O19 0.894844 0.864075 0.500000
#
# Coordination Sequence:
#
# PCOD9441929 Si02
#       8
#     8   8   8   8   8   8   8   8
#     4  10  21  35  59  89 122 163 203 251 303 368
#     4  11  22  39  63  88 121 161 208 259 308 368
#     4  11  20  35  60  88 125 160 202 254 306 361
#     4  11  22  38  62  90 120 158 208 253 310 367
#     4  10  19  32  55  87 120 157 203 243 290 359
#     4  11  23  42  68  91 118 157 209 264 314 372
#     4  10  22  38  59  91 121 155 207 261 309 369
#     4  10  21  37  57  88 126 164 203 243 299 368
#
# _framework density 19.218354999999999
#
# number of rings (size 3 to 8) (size 9 to 14) (size 15 to 20)
#    0.000    1.500    5.000    0.750    0.000    1.750 
#    0.000    0.000    0.000    3.000    0.000    0.000 
#    0.000    0.000    0.000    0.000    0.000    0.000 
#
# Total GULP energy -356654.916150 kJ/mol
# GULP energy per Si atom -5572.733065 kJ/mol
# Density = 1.917461 g / cm^3
# Si number density = 19.218355 Si / 1000 Ang^3
#
#
#
# Elastic Constant Matrix: (Units=GPa)
#
#
# Indices 1 2 3 4 5 6 
#
# 1 93.0679 8.8695 15.2400 0.0000 0.0000 0.0000
# 2 8.8695 55.9593 14.7861 0.0000 0.0000 0.0000
# 3 15.2400 14.7861 74.4777 0.0000 0.0000 0.0000
# 4 0.0000 0.0000 0.0000 7.6933 0.0000 0.0000
# 5 0.0000 0.0000 0.0000 0.0000 -75.8245 0.0000
# 6 0.0000 0.0000 0.0000 0.0000 0.0000 35.4298
#
#
#
# Elastic Compliance Matrix: (Units=1/GPa)
#
#
# Indices 1 2 3 4 5 6 
#
# 1 0.011198 -0.001234 -0.002046 0.000000 0.000000 0.000000
# 2 -0.001234 0.018995 -0.003519 0.000000 0.000000 0.000000
# 3 -0.002046 -0.003519 0.014544 0.000000 0.000000 0.000000
# 4 0.000000 0.000000 0.000000 0.129983 0.000000 0.000000
# 5 0.000000 0.000000 0.000000 0.000000 -0.013188 0.000000
# 6 0.000000 0.000000 0.000000 0.000000 0.000000 0.028225
#
#
# Mechanical properties :
#
#
# Convention : Reuss Voigt Hill
#
# Bulk Modulus (GPa) = 32.11406 33.47736 32.79571
# Shear Modulus (GPa) = 23.39351 5.76700 14.58025
#
# Velocity S-wave (km/s) = 3.49269 1.73415 2.75737
# Velocity P-wave (km/s) = 5.74557 4.63325 5.21913
#
# Compressibility (1/GPa) = 0.03113901
#
# Stress axis : x y z
#
# Youngs Moduli (GPa) = 89.30536 52.64417 68.75630
#
# Poissons Ratio (x) = 0.06497 0.14070
# Poissons Ratio (y) = 0.11021 0.24193
# Poissons Ratio (z) = 0.18274 0.18524
#
# Static dielectric constant tensor:
#      x y z
#    x 1.677980 0.000000 0.000000 
#    y 0.000000 1.682250 0.000000 
#    z 0.000000 0.000000 1.737350 
# 
# From -- ./inp_files/27015.got.cif
#   From: 2010.05.17/outbox.cif.g08.bks.cpg/sg58_14_cif.got.tgz:27015.got - 2010.06.03 14:20:14.
