data_PCOD9441027
_publ_section_title
;
Structure prediction by ZEFSAII (Michael W. Deem and Ramdas Pophale) SiO2 
 PCOD9441027
Probable space group: P N N M
;
_chemical_formula_sum "Si O2"
_cell_formula_units_Z 64
_cell_length_a 24.600546
_cell_length_b 15.926710
_cell_length_c 7.615770
_cell_angle_alpha 90.000000
_cell_angle_beta 90.000000
_cell_angle_gamma 90.000000
_cell_volume 2983.902568
_symmetry_space_group_name_H-M "P N N M"
_symmetry_group_IT_number 58
_symmetry_cell_setting 'orthorhombic'
loop_
_space_group_symop_operation_xyz
x,y,z
-x,-y,z
1/2+x,1/2-y,1/2-z
1/2-x,1/2+y,1/2-z
-x,-y,-z
x,y,-z
1/2-x,1/2+y,1/2+z
1/2+x,1/2-y,1/2+z
loop_
_atom_site_type_symbol
_atom_site_label
_atom_site_fract_x
_atom_site_fract_y
_atom_site_fract_z
Si Si1 0.315236 0.792893 0.793452
Si Si2 0.078280 0.063161 0.213239
Si Si3 0.197357 0.114285 0.296461
Si Si4 0.959956 0.117762 0.789716
Si Si5 0.113940 0.537359 0.287091
Si Si6 0.569423 0.140142 0.786072
Si Si7 0.269102 0.967868 0.701745
Si Si8 0.452122 0.196242 0.209355
O O1 0.291308 0.706445 0.718894
O O2 0.375253 0.815573 0.721106
O O3 0.278693 0.875779 0.779811
O O4 0.323350 0.776890 0.000000
O O5 0.132725 0.102512 0.287075
O O6 0.022702 0.108926 0.270798
O O7 0.071640 0.965684 0.268565
O O8 0.081075 0.066693 0.000000
O O9 0.215737 0.114468 0.500000
O O10 0.225955 0.032364 0.216147
O O11 0.936492 0.207762 0.741640
O O12 0.961744 0.112523 0.000000
O O13 0.119128 0.538388 0.500000
O O14 0.075105 0.458481 0.243153
O O15 0.172947 0.514893 0.214147
O O16 0.088781 0.624825 0.224912
O O17 0.513213 0.179359 0.721937
O O18 0.569955 0.145363 0.000000
O O19 0.254424 0.952003 0.500000
O O20 0.454688 0.184041 0.000000
#
# Coordination Sequence:
#
# PCOD9441027 Si02
#       8
#     8   8   8   8   8   8   8   8
#     4   9  18  35  57  78 102 136 175 215 265 320
#     4   9  19  36  56  76 103 140 175 210 258 317
#     4  10  21  37  58  82 105 133 178 229 268 307
#     4   9  19  35  51  74 110 142 169 207 259 317
#     4   9  18  33  51  72 103 141 177 215 260 314
#     4   8  14  27  50  75  98 127 169 215 252 297
#     4  10  21  37  54  77 108 138 173 225 272 308
#     4  10  18  29  50  79 105 137 178 214 257 311
#
# _framework density 21.448421
#
# number of rings (size 3 to 8) (size 9 to 14) (size 15 to 20)
#    0.000    2.750    0.000    3.000    0.000    5.500 
#    2.250    5.000    0.000    3.750    0.000    0.000 
#    0.000    0.000    0.000    0.000    0.000    0.000 
#
# Total GULP energy -357085.847502 kJ/mol
# GULP energy per Si atom -5579.466367 kJ/mol
# Density = 2.139960 g / cm^3
# Si number density = 21.448421 Si / 1000 Ang^3
#
#
#
# Elastic Constant Matrix: (Units=GPa)
#
#
# Indices 1 2 3 4 5 6 
#
# 1 24.0282 39.3015 -2.2257 0.0000 0.0000 0.0000
# 2 39.3015 136.3017 -4.5845 0.0000 0.0000 0.0000
# 3 -2.2257 -4.5845 40.4052 0.0000 0.0000 0.0000
# 4 0.0000 0.0000 0.0000 24.5803 0.0000 0.0000
# 5 0.0000 0.0000 0.0000 0.0000 -8.7865 0.0000
# 6 0.0000 0.0000 0.0000 0.0000 0.0000 17.5422
#
#
#
# Elastic Compliance Matrix: (Units=1/GPa)
#
#
# Indices 1 2 3 4 5 6 
#
# 1 0.078891 -0.022688 0.001771 0.000000 0.000000 0.000000
# 2 -0.022688 0.013890 0.000326 0.000000 0.000000 0.000000
# 3 0.001771 0.000326 0.024884 0.000000 0.000000 0.000000
# 4 0.000000 0.000000 0.000000 0.040683 0.000000 0.000000
# 5 0.000000 0.000000 0.000000 0.000000 -0.113812 0.000000
# 6 0.000000 0.000000 0.000000 0.000000 0.000000 0.057006
#
#
# Mechanical properties :
#
#
# Convention : Reuss Voigt Hill
#
# Bulk Modulus (GPa) = 13.07464 29.52418 21.29941
# Shear Modulus (GPa) = 29.72346 17.88347 23.80346
#
# Velocity S-wave (km/s) = 3.72669 2.89067 3.33498
# Velocity P-wave (km/s) = 4.96253 4.99364 4.97811
#
# Compressibility (1/GPa) = 0.07648391
#
# Stress axis : x y z
#
# Youngs Moduli (GPa) = 12.67565 71.99643 40.18670
#
# Poissons Ratio (x) = 1.63346 -0.07119
# Poissons Ratio (y) = 0.28759 -0.01311
# Poissons Ratio (z) = -0.02245 -0.02348
#
# Static dielectric constant tensor:
#      x y z
#    x 1.747000 0.000000 0.000000 
#    y 0.000000 1.809680 0.000000 
#    z 0.000000 0.000000 1.808430 
# 
# From -- ./inp_files/9932.got.cif
#   From: 2010.05.17/outbox.cif.g08.bks.cpg/sg58_5_cif.got.tgz:9932.got - 2010.06.03 14:20:14.
