data_PCOD9441439
_publ_section_title
;
Structure prediction by ZEFSAII (Michael W. Deem and Ramdas Pophale) SiO2 
 PCOD9441439
Probable space group: P N N M
;
_chemical_formula_sum "Si O2"
_cell_formula_units_Z 48
_cell_length_a 17.572607
_cell_length_b 9.933237
_cell_length_c 14.194507
_cell_angle_alpha 90.000000
_cell_angle_beta 90.000000
_cell_angle_gamma 90.000000
_cell_volume 2477.691936
_symmetry_space_group_name_H-M "P N N M"
_symmetry_group_IT_number 58
_symmetry_cell_setting 'orthorhombic'
loop_
_space_group_symop_operation_xyz
x,y,z
-x,-y,z
1/2+x,1/2-y,1/2-z
1/2-x,1/2+y,1/2-z
-x,-y,-z
x,y,-z
1/2-x,1/2+y,1/2+z
1/2+x,1/2-y,1/2+z
loop_
_atom_site_type_symbol
_atom_site_label
_atom_site_fract_x
_atom_site_fract_y
_atom_site_fract_z
Si Si1 0.431798 0.902457 0.390863
Si Si2 0.091010 0.471300 0.606772
Si Si3 0.124802 0.741826 0.707130
Si Si4 0.810108 0.364167 0.893971
Si Si5 0.943924 0.782567 0.724958
Si Si6 0.644520 0.488592 0.891075
O O1 0.448501 0.873490 0.500000
O O2 0.426310 0.767525 0.330382
O O3 0.500000 0.000000 0.353266
O O4 0.358266 0.997194 0.384998
O O5 0.118181 0.459100 0.500000
O O6 0.130568 0.595251 0.659052
O O7 0.096487 0.332301 0.661717
O O8 0.000000 0.500000 0.604313
O O9 0.162281 0.731577 0.810035
O O10 0.034674 0.771702 0.714342
O O11 0.158541 0.858848 0.642084
O O12 0.722415 0.404680 0.886457
O O13 0.825316 0.311670 0.000000
O O14 0.913013 0.920823 0.683100
O O15 0.616771 0.485576 0.000000
#
# Coordination Sequence:
#
# PCOD9441439 Si02
#       6
#     8   8   8   8   8   8
#     4  10  18  35  63  90 114 150 206 259 297 343
#     4   9  17  30  53  82 112 148 199 248 282 336
#     4  11  21  37  61  88 118 157 205 253 301 359
#     4  10  22  40  61  86 118 159 206 253 304 357
#     4  11  20  36  59  91 119 157 203 247 304 361
#     4  11  26  41  58  87 130 170 195 241 317 380
#
# _framework density 19.372866999999999
#
# number of rings (size 3 to 8) (size 9 to 14) (size 15 to 20)
#    0.000    1.667    3.333    2.000    2.333    2.667 
#    0.000    0.833    0.000    3.000    0.000    0.000 
#    0.000    0.000    0.000    0.000    0.000    0.000 
#
# Total GULP energy -267936.987748 kJ/mol
# GULP energy per Si atom -5582.020578 kJ/mol
# Density = 1.932877 g / cm^3
# Si number density = 19.372867 Si / 1000 Ang^3
#
#
#
# Elastic Constant Matrix: (Units=GPa)
#
#
# Indices 1 2 3 4 5 6 
#
# 1 44.2237 2.0655 19.9658 0.0000 0.0000 0.0000
# 2 2.0655 76.9353 37.1376 0.0000 0.0000 0.0000
# 3 19.9658 37.1376 133.2530 0.0000 0.0000 0.0000
# 4 0.0000 0.0000 0.0000 30.2929 0.0000 0.0000
# 5 0.0000 0.0000 0.0000 0.0000 15.7413 0.0000
# 6 0.0000 0.0000 0.0000 0.0000 0.0000 19.0823
#
#
#
# Elastic Compliance Matrix: (Units=1/GPa)
#
#
# Indices 1 2 3 4 5 6 
#
# 1 0.024362 0.001280 -0.004007 0.000000 0.000000 0.000000
# 2 0.001280 0.015086 -0.004396 0.000000 0.000000 0.000000
# 3 -0.004007 -0.004396 0.009330 0.000000 0.000000 0.000000
# 4 0.000000 0.000000 0.000000 0.033011 0.000000 0.000000
# 5 0.000000 0.000000 0.000000 0.000000 0.063527 0.000000
# 6 0.000000 0.000000 0.000000 0.000000 0.000000 0.052404
#
#
# Mechanical properties :
#
#
# Convention : Reuss Voigt Hill
#
# Bulk Modulus (GPa) = 28.95919 41.41666 35.18793
# Shear Modulus (GPa) = 22.37373 26.03951 24.20662
#
# Velocity S-wave (km/s) = 3.40207 3.67021 3.53868
# Velocity P-wave (km/s) = 5.51479 6.27580 5.90756
#
# Compressibility (1/GPa) = 0.03453135
#
# Stress axis : x y z
#
# Youngs Moduli (GPa) = 41.04826 66.28813 107.17975
#
# Poissons Ratio (x) = -0.08486 0.42947
# Poissons Ratio (y) = -0.05255 0.47118
# Poissons Ratio (z) = 0.16448 0.29141
#
# Static dielectric constant tensor:
#      x y z
#    x 1.692550 0.000000 0.000000 
#    y 0.000000 1.662690 0.000000 
#    z 0.000000 0.000000 1.699710 
# 
# From -- ./inp_files/19833.got.cif
#   From: 2010.05.17/outbox.cif.g08.bks.cpg/sg58_10_cif.got.tgz:19833.got - 2010.06.03 14:20:14.
