data_PCOD9441303
_publ_section_title
;
Structure prediction by ZEFSAII (Michael W. Deem and Ramdas Pophale) SiO2 
 PCOD9441303
Probable space group: P N N M
;
_chemical_formula_sum "Si O2"
_cell_formula_units_Z 64
_cell_length_a 12.608215
_cell_length_b 18.585182
_cell_length_c 15.001399
_cell_angle_alpha 90.000000
_cell_angle_beta 90.000000
_cell_angle_gamma 90.000000
_cell_volume 3515.217379
_symmetry_space_group_name_H-M "P N N M"
_symmetry_group_IT_number 58
_symmetry_cell_setting 'orthorhombic'
loop_
_space_group_symop_operation_xyz
x,y,z
-x,-y,z
1/2+x,1/2-y,1/2-z
1/2-x,1/2+y,1/2-z
-x,-y,-z
x,y,-z
1/2-x,1/2+y,1/2+z
1/2+x,1/2-y,1/2+z
loop_
_atom_site_type_symbol
_atom_site_label
_atom_site_fract_x
_atom_site_fract_y
_atom_site_fract_z
Si Si1 0.266261 0.621167 0.231661
Si Si2 0.725750 0.288208 0.398533
Si Si3 0.083490 0.359082 0.399695
Si Si4 0.027025 0.578196 0.772450
Si Si5 0.731427 0.743782 0.399272
Si Si6 0.000983 0.267225 0.151115
Si Si7 0.060459 0.075273 0.599991
Si Si8 0.948860 0.222185 0.648806
O O1 0.288949 0.645159 0.331923
O O2 0.153178 0.583325 0.237326
O O3 0.257963 0.694623 0.172487
O O4 0.353292 0.577048 0.178252
O O5 0.750653 0.307862 0.500000
O O6 0.612476 0.249856 0.392840
O O7 0.824360 0.240299 0.362135
O O8 0.082998 0.389994 0.500000
O O9 0.201144 0.327951 0.377950
O O10 0.034551 0.407877 0.321358
O O11 0.011099 0.286947 0.399540
O O12 0.000000 0.500000 0.808421
O O13 0.001707 0.646966 0.833612
O O14 0.764301 0.764231 0.500000
O O15 0.604304 0.739264 0.397803
O O16 0.987738 0.231839 0.249296
O O17 0.107421 0.081497 0.500000
O O18 0.984021 0.144424 0.614220
O O19 0.000000 0.000000 0.603922
#
# Coordination Sequence:
#
# PCOD9441303 Si02
#       8
#     8   8   8   8   8   8   8   8
#     4  11  20  38  56  84 117 156 190 245 302 355
#     4  12  22  36  62  91 119 153 201 254 299 350
#     4  10  18  32  58  85 109 142 193 246 286 328
#     4  10  22  36  54  81 117 157 194 229 293 363
#     4  10  18  33  60  87 112 149 194 243 292 349
#     4  10  21  37  58  83 120 155 198 241 298 352
#     4  11  23  39  61  90 118 154 201 246 301 359
#     4  11  20  35  59  87 117 147 193 248 296 340
#
# _framework density 18.206555000000002
#
# number of rings (size 3 to 8) (size 9 to 14) (size 15 to 20)
#    0.000    1.375    6.250    2.625    0.000    1.250 
#    0.000    0.000    0.000   13.125    0.000    0.000 
#    0.000    0.000    0.000    0.000    0.000    0.000 
#
# Total GULP energy -356862.456098 kJ/mol
# GULP energy per Si atom -5575.975877 kJ/mol
# Density = 1.816512 g / cm^3
# Si number density = 18.206555 Si / 1000 Ang^3
#
#
#
# Elastic Constant Matrix: (Units=GPa)
#
#
# Indices 1 2 3 4 5 6 
#
# 1 106.4772 25.8158 20.1135 0.0000 0.0000 0.0000
# 2 25.8158 63.4538 12.2708 0.0000 0.0000 0.0000
# 3 20.1135 12.2708 95.6512 0.0000 0.0000 0.0000
# 4 0.0000 0.0000 0.0000 2.8617 0.0000 0.0000
# 5 0.0000 0.0000 0.0000 0.0000 13.9971 0.0000
# 6 0.0000 0.0000 0.0000 0.0000 0.0000 17.5855
#
#
#
# Elastic Compliance Matrix: (Units=1/GPa)
#
#
# Indices 1 2 3 4 5 6 
#
# 1 0.010693 -0.004015 -0.001733 0.000000 0.000000 0.000000
# 2 -0.004015 0.017668 -0.001422 0.000000 0.000000 0.000000
# 3 -0.001733 -0.001422 0.011002 0.000000 0.000000 0.000000
# 4 0.000000 0.000000 0.000000 0.349445 0.000000 0.000000
# 5 0.000000 0.000000 0.000000 0.000000 0.071443 0.000000
# 6 0.000000 0.000000 0.000000 0.000000 0.000000 0.056865
#
#
# Mechanical properties :
#
#
# Convention : Reuss Voigt Hill
#
# Bulk Modulus (GPa) = 39.96667 42.44250 41.20458
# Shear Modulus (GPa) = 9.26273 20.71432 14.98852
#
# Velocity S-wave (km/s) = 2.25801 3.37670 2.87234
# Velocity P-wave (km/s) = 5.36634 6.21008 5.80356
#
# Compressibility (1/GPa) = 0.02502085
#
# Stress axis : x y z
#
# Youngs Moduli (GPa) = 93.52290 56.59943 90.89587
#
# Poissons Ratio (x) = 0.22725 0.15755
# Poissons Ratio (y) = 0.37550 0.12928
# Poissons Ratio (z) = 0.16211 0.08050
#
# Static dielectric constant tensor:
#      x y z
#    x 1.676770 0.000000 0.000000 
#    y 0.000000 1.600000 0.000000 
#    z 0.000000 0.000000 1.671630 
# 
# From -- ./inp_files/21504.got.cif
#   From: 2010.05.17/outbox.cif.g08.bks.cpg/sg58_11_cif.got.tgz:21504.got - 2010.06.03 14:20:14.
