data_PCOD9441714
_publ_section_title
;
Structure prediction by ZEFSAII (Michael W. Deem and Ramdas Pophale) SiO2 
 PCOD9441714
Probable space group: P N N M
;
_chemical_formula_sum "Si O2"
_cell_formula_units_Z 64
_cell_length_a 20.194530
_cell_length_b 21.005210
_cell_length_c 7.786258
_cell_angle_alpha 90.000000
_cell_angle_beta 90.000000
_cell_angle_gamma 90.000000
_cell_volume 3302.855456
_symmetry_space_group_name_H-M "P N N M"
_symmetry_group_IT_number 58
_symmetry_cell_setting 'orthorhombic'
loop_
_space_group_symop_operation_xyz
x,y,z
-x,-y,z
1/2+x,1/2-y,1/2-z
1/2-x,1/2+y,1/2-z
-x,-y,-z
x,y,-z
1/2-x,1/2+y,1/2+z
1/2+x,1/2-y,1/2+z
loop_
_atom_site_type_symbol
_atom_site_label
_atom_site_fract_x
_atom_site_fract_y
_atom_site_fract_z
Si Si1 0.961191 0.183217 0.796751
Si Si2 0.173595 0.502874 0.797617
Si Si3 0.040661 0.563297 0.792674
Si Si4 0.321443 0.360539 0.709909
Si Si5 0.824688 0.643918 0.701980
Si Si6 0.820487 0.991071 0.207107
Si Si7 0.963843 0.690136 0.298851
Si Si8 0.957450 0.937958 0.789896
O O1 0.885781 0.178045 0.730225
O O2 0.996658 0.250316 0.774914
O O3 0.006688 0.125799 0.727634
O O4 0.955335 0.171012 0.000000
O O5 0.115967 0.549923 0.736671
O O6 0.167781 0.432690 0.716211
O O7 0.247621 0.527594 0.768313
O O8 0.163075 0.492936 0.000000
O O9 0.000000 0.500000 0.745016
O O10 0.006031 0.625858 0.722382
O O11 0.038900 0.568870 0.000000
O O12 0.318429 0.358302 0.500000
O O13 0.248428 0.340525 0.773457
O O14 0.331420 0.434892 0.756697
O O15 0.823189 0.659342 0.500000
O O16 0.890314 0.676918 0.776194
O O17 0.882034 0.948959 0.267434
O O18 0.819577 0.989890 0.000000
O O19 0.956274 0.702998 0.500000
O O20 0.956188 0.936509 0.000000
O O21 0.000000 0.000000 0.742115
#
# Coordination Sequence:
#
# PCOD9441714 Si02
#       8
#     8   8   8   8   8   8   8   8
#     4  10  19  33  55  79 105 139 181 220 255 302
#     4  10  19  31  51  79 107 133 168 215 266 313
#     4  10  20  36  56  77 102 133 173 218 259 308
#     4   8  14  28  52  77  98 129 174 216 251 300
#     4   9  18  33  53  76 101 133 173 213 260 314
#     4   9  16  29  51  79 110 136 170 217 261 308
#     4  11  23  36  52  77 110 142 173 214 266 321
#     4   9  15  28  54  83 104 133 180 221 252 301
#
# _framework density 19.377171000000001
#
# number of rings (size 3 to 8) (size 9 to 14) (size 15 to 20)
#    0.000    2.500    2.500    1.500    0.000    1.750 
#    0.000    4.375    0.000    5.250    0.000    0.000 
#    0.000    0.000    0.000    0.000    0.000    0.000 
#
# Total GULP energy -356892.848387 kJ/mol
# GULP energy per Si atom -5576.450756 kJ/mol
# Density = 1.933307 g / cm^3
# Si number density = 19.377171 Si / 1000 Ang^3
#
#
#
# Elastic Constant Matrix: (Units=GPa)
#
#
# Indices 1 2 3 4 5 6 
#
# 1 199.9087 63.8417 5.0129 0.0000 0.0000 0.0000
# 2 63.8417 75.6333 -5.2903 0.0000 0.0000 0.0000
# 3 5.0129 -5.2903 21.0736 0.0000 0.0000 0.0000
# 4 0.0000 0.0000 0.0000 -4.9268 0.0000 0.0000
# 5 0.0000 0.0000 0.0000 0.0000 16.7701 0.0000
# 6 0.0000 0.0000 0.0000 0.0000 0.0000 27.1329
#
#
#
# Elastic Compliance Matrix: (Units=1/GPa)
#
#
# Indices 1 2 3 4 5 6 
#
# 1 0.007058 -0.006184 -0.003231 0.000000 0.000000 0.000000
# 2 -0.006184 0.018876 0.006210 0.000000 0.000000 0.000000
# 3 -0.003231 0.006210 0.049780 0.000000 0.000000 0.000000
# 4 0.000000 0.000000 0.000000 -0.202970 0.000000 0.000000
# 5 0.000000 0.000000 0.000000 0.000000 0.059630 0.000000
# 6 0.000000 0.000000 0.000000 0.000000 0.000000 0.036856
#
#
# Mechanical properties :
#
#
# Convention : Reuss Voigt Hill
#
# Bulk Modulus (GPa) = 14.42941 47.08267 30.75604
# Shear Modulus (GPa) = -3974.44690 23.33199 -1975.55745
#
# Velocity S-wave (km/s) = -45.33818 3.47377 -31.96469
# Velocity P-wave (km/s) = 52.28069 6.35926 36.69353
#
# Compressibility (1/GPa) = 0.06930292
#
# Stress axis : x y z
#
# Youngs Moduli (GPa) = 141.68091 52.97820 20.08831
#
# Poissons Ratio (x) = 0.32760 0.06491
# Poissons Ratio (y) = 0.87612 -0.12474
# Poissons Ratio (z) = 0.45782 -0.32897
#
# Static dielectric constant tensor:
#      x y z
#    x 1.730730 0.000000 0.000000 
#    y 0.000000 1.622180 0.000000 
#    z 0.000000 0.000000 1.716600 
# 
# From -- ./inp_files/9271.got.cif
#   From: 2010.05.17/outbox.cif.g08.bks.cpg/sg58_5_cif.got.tgz:9271.got - 2010.06.03 14:20:14.
