data_PCOD9441145
_publ_section_title
;
Structure prediction by ZEFSAII (Michael W. Deem and Ramdas Pophale) SiO2 
 PCOD9441145
Probable space group: P N N M
;
_chemical_formula_sum "Si O2"
_cell_formula_units_Z 52
_cell_length_a 8.730960
_cell_length_b 22.790598
_cell_length_c 13.073954
_cell_angle_alpha 90.000000
_cell_angle_beta 90.000000
_cell_angle_gamma 90.000000
_cell_volume 2601.505042
_symmetry_space_group_name_H-M "P N N M"
_symmetry_group_IT_number 58
_symmetry_cell_setting 'orthorhombic'
loop_
_space_group_symop_operation_xyz
x,y,z
-x,-y,z
1/2+x,1/2-y,1/2-z
1/2-x,1/2+y,1/2-z
-x,-y,-z
x,y,-z
1/2-x,1/2+y,1/2+z
1/2+x,1/2-y,1/2+z
loop_
_atom_site_type_symbol
_atom_site_label
_atom_site_fract_x
_atom_site_fract_y
_atom_site_fract_z
Si Si1 0.190858 0.394604 0.722637
Si Si2 0.221545 0.772828 0.819906
Si Si3 0.000000 0.500000 0.277709
Si Si4 0.477212 0.170721 0.612015
Si Si5 0.219599 0.559947 0.885659
Si Si6 0.066671 0.916676 0.385851
Si Si7 0.552692 0.724073 0.884961
O O1 0.274535 0.342924 0.660196
O O2 0.088623 0.445255 0.669849
O O3 0.084190 0.355903 0.799909
O O4 0.313200 0.426406 0.796099
O O5 0.387675 0.749103 0.851990
O O6 0.087596 0.735868 0.874319
O O7 0.179752 0.761237 0.700342
O O8 0.878401 0.469742 0.201949
O O9 0.552072 0.164200 0.500000
O O10 0.329104 0.128324 0.614586
O O11 0.400485 0.555210 0.870924
O O12 0.177531 0.538823 0.000000
O O13 0.122349 0.932240 0.500000
O O14 0.042876 0.846329 0.385666
O O15 0.589363 0.744210 0.000000
#
# Coordination Sequence:
#
# PCOD9441145 Si02
#       7
#     8   8   4   8   8   8   8
#     4  10  21  33  49  71 106 142 186 228 270 343
#     4  11  19  34  53  78 107 146 185 229 291 340
#     4  10  21  34  44  68 103 150 194 226 267 328
#     4  10  18  31  51  76 104 138 176 222 281 339
#     4   9  17  29  48  70 101 140 179 219 266 328
#     4   9  17  30  48  72 103 138 172 220 273 321
#     4  10  20  34  52  80 115 145 181 231 285 348
#
# _framework density 19.988427999999999
#
# number of rings (size 3 to 8) (size 9 to 14) (size 15 to 20)
#    0.000    2.154    3.077    1.154    0.000    3.077 
#    0.000    1.538    0.000    0.000    0.000    2.154 
#    0.000    0.000    0.000   23.692    0.000    0.000 
#
# Total GULP energy -289961.393763 kJ/mol
# GULP energy per Si atom -5576.180649 kJ/mol
# Density = 1.994293 g / cm^3
# Si number density = 19.988428 Si / 1000 Ang^3
#
#
#
# Elastic Constant Matrix: (Units=GPa)
#
#
# Indices 1 2 3 4 5 6 
#
# 1 58.7373 10.7105 2.4648 0.0000 0.0000 0.0000
# 2 10.7105 81.8732 6.3571 0.0000 0.0000 0.0000
# 3 2.4648 6.3571 33.5573 0.0000 0.0000 0.0000
# 4 0.0000 0.0000 0.0000 14.4627 0.0000 0.0000
# 5 0.0000 0.0000 0.0000 0.0000 16.3449 0.0000
# 6 0.0000 0.0000 0.0000 0.0000 0.0000 41.0506
#
#
#
# Elastic Compliance Matrix: (Units=1/GPa)
#
#
# Indices 1 2 3 4 5 6 
#
# 1 0.017466 -0.002218 -0.000863 0.000000 0.000000 0.000000
# 2 -0.002218 0.012678 -0.002239 0.000000 0.000000 0.000000
# 3 -0.000863 -0.002239 0.030287 0.000000 0.000000 0.000000
# 4 0.000000 0.000000 0.000000 0.069143 0.000000 0.000000
# 5 0.000000 0.000000 0.000000 0.000000 0.061181 0.000000
# 6 0.000000 0.000000 0.000000 0.000000 0.000000 0.024360
#
#
# Mechanical properties :
#
#
# Convention : Reuss Voigt Hill
#
# Bulk Modulus (GPa) = 20.08352 23.69253 21.88802
# Shear Modulus (GPa) = 20.63118 24.68067 22.65593
#
# Velocity S-wave (km/s) = 3.21620 3.51771 3.37033
# Velocity P-wave (km/s) = 4.88481 5.32709 5.11074
#
# Compressibility (1/GPa) = 0.04979208
#
# Stress axis : x y z
#
# Youngs Moduli (GPa) = 57.25552 78.87689 33.01716
#
# Poissons Ratio (x) = 0.17494 0.02848
# Poissons Ratio (y) = 0.12698 0.07392
# Poissons Ratio (z) = 0.04940 0.17659
#
# Static dielectric constant tensor:
#      x y z
#    x 1.720560 0.000000 0.000000 
#    y 0.000000 1.780010 0.000000 
#    z 0.000000 0.000000 1.713520 
# 
# From -- ./inp_files/20227.got.cif
#   From: 2010.05.17/outbox.cif.g08.bks.cpg/sg58_11_cif.got.tgz:20227.got - 2010.06.03 14:20:14.
