data_PCOD9441447
_publ_section_title
;
Structure prediction by ZEFSAII (Michael W. Deem and Ramdas Pophale) SiO2 
 PCOD9441447
Probable space group: P N N M
;
_chemical_formula_sum "Si O2"
_cell_formula_units_Z 44
_cell_length_a 16.717219
_cell_length_b 5.141560
_cell_length_c 22.117579
_cell_angle_alpha 90.000000
_cell_angle_beta 90.000000
_cell_angle_gamma 90.000000
_cell_volume 1901.063078
_symmetry_space_group_name_H-M "P N N M"
_symmetry_group_IT_number 58
_symmetry_cell_setting 'orthorhombic'
loop_
_space_group_symop_operation_xyz
x,y,z
-x,-y,z
1/2+x,1/2-y,1/2-z
1/2-x,1/2+y,1/2-z
-x,-y,-z
x,y,-z
1/2-x,1/2+y,1/2+z
1/2+x,1/2-y,1/2+z
loop_
_atom_site_type_symbol
_atom_site_label
_atom_site_fract_x
_atom_site_fract_y
_atom_site_fract_z
Si Si1 0.347134 0.255187 0.632635
Si Si2 0.407949 0.487978 0.072476
Si Si3 0.000000 0.500000 0.145529
Si Si4 0.233127 0.979849 0.714355
Si Si5 0.697249 0.992173 0.928752
Si Si6 0.419313 0.607602 0.261734
O O1 0.431713 0.148659 0.606970
O O2 0.290382 0.026314 0.657895
O O3 0.285029 0.435645 0.596969
O O4 0.379773 0.407720 0.691098
O O5 0.500000 0.500000 0.094198
O O6 0.360769 0.758812 0.077739
O O7 0.352061 0.253782 0.097339
O O8 0.414378 0.434335 0.000000
O O9 0.947638 0.667557 0.193160
O O10 0.268544 0.177711 0.766688
O O11 0.146988 0.119466 0.710300
O O12 0.709866 0.944601 0.000000
O O13 0.500000 0.500000 0.234465
#
# Coordination Sequence:
#
# PCOD9441447 Si02
#       6
#     8   8   4   8   8   8
#     4  10  21  34  58  82 116 151 196 237 287 345
#     4   9  18  35  59  81 108 147 193 237 288 344
#     4  10  18  36  57  80 108 150 199 226 284 354
#     4  10  19  34  55  82 106 139 182 231 284 337
#     4  10  21  35  57  87 117 154 197 242 283 339
#     4   9  19  34  56  82 107 146 186 234 282 352
#
# _framework density 23.144943999999999
#
# number of rings (size 3 to 8) (size 9 to 14) (size 15 to 20)
#    0.000    2.364    1.818    0.545    2.545    2.182 
#    0.000    1.364    4.000    4.909    0.000    0.000 
#    0.000    0.000    0.000    0.000    0.000    0.000 
#
# Total GULP energy -245160.124210 kJ/mol
# GULP energy per Si atom -5571.821005 kJ/mol
# Density = 2.309226 g / cm^3
# Si number density = 23.144944 Si / 1000 Ang^3
#
#
#
# Elastic Constant Matrix: (Units=GPa)
#
#
# Indices 1 2 3 4 5 6 
#
# 1 234.4040 59.1362 33.5328 0.0000 0.0000 0.0000
# 2 59.1362 99.7353 3.9210 0.0000 0.0000 0.0000
# 3 33.5328 3.9210 49.1924 0.0000 0.0000 0.0000
# 4 0.0000 0.0000 0.0000 12.0580 0.0000 0.0000
# 5 0.0000 0.0000 0.0000 0.0000 23.0639 0.0000
# 6 0.0000 0.0000 0.0000 0.0000 0.0000 41.4461
#
#
#
# Elastic Compliance Matrix: (Units=1/GPa)
#
#
# Indices 1 2 3 4 5 6 
#
# 1 0.005572 -0.003164 -0.003546 0.000000 0.000000 0.000000
# 2 -0.003164 0.011855 0.001212 0.000000 0.000000 0.000000
# 3 -0.003546 0.001212 0.022649 0.000000 0.000000 0.000000
# 4 0.000000 0.000000 0.000000 0.082933 0.000000 0.000000
# 5 0.000000 0.000000 0.000000 0.000000 0.043358 0.000000
# 6 0.000000 0.000000 0.000000 0.000000 0.000000 0.024128
#
#
# Mechanical properties :
#
#
# Convention : Reuss Voigt Hill
#
# Bulk Modulus (GPa) = 34.38851 64.05684 49.22268
# Shear Modulus (GPa) = 23.67615 34.42972 29.05293
#
# Velocity S-wave (km/s) = 3.20183 3.86109 3.54681
# Velocity P-wave (km/s) = 5.34407 6.90027 6.17142
#
# Compressibility (1/GPa) = 0.02907948
#
# Stress axis : x y z
#
# Youngs Moduli (GPa) = 179.47970 84.35226 44.15249
#
# Poissons Ratio (x) = 0.26691 0.15656
# Poissons Ratio (y) = 0.56791 -0.05351
# Poissons Ratio (z) = 0.63640 -0.10224
#
# Static dielectric constant tensor:
#      x y z
#    x 2.021630 0.000000 0.000000 
#    y 0.000000 1.938520 0.000000 
#    z 0.000000 0.000000 1.946360 
# 
# From -- ./inp_files/32768.got.cif
#   From: 2010.05.17/outbox.cif.g08.bks.cpg/sg58_17_cif.got.tgz:32768.got - 2010.06.03 14:20:14.
