data_PCOD9441571
_publ_section_title
;
Structure prediction by ZEFSAII (Michael W. Deem and Ramdas Pophale) SiO2 
 PCOD9441571
Probable space group: P N N M
;
_chemical_formula_sum "Si O2"
_cell_formula_units_Z 48
_cell_length_a 16.873934
_cell_length_b 18.570583
_cell_length_c 9.350537
_cell_angle_alpha 90.000000
_cell_angle_beta 90.000000
_cell_angle_gamma 90.000000
_cell_volume 2930.072978
_symmetry_space_group_name_H-M "P N N M"
_symmetry_group_IT_number 58
_symmetry_cell_setting 'orthorhombic'
loop_
_space_group_symop_operation_xyz
x,y,z
-x,-y,z
1/2+x,1/2-y,1/2-z
1/2-x,1/2+y,1/2-z
-x,-y,-z
x,y,-z
1/2-x,1/2+y,1/2+z
1/2+x,1/2-y,1/2+z
loop_
_atom_site_type_symbol
_atom_site_label
_atom_site_fract_x
_atom_site_fract_y
_atom_site_fract_z
Si Si1 0.082215 0.454415 0.336175
Si Si2 0.497162 0.166828 0.670287
Si Si3 0.515480 0.335134 0.329429
Si Si4 0.077921 0.948596 0.662798
Si Si5 0.161131 0.579461 0.829362
Si Si6 0.160778 0.089851 0.328448
O O1 0.105719 0.442189 0.500000
O O2 0.142890 0.505495 0.252716
O O3 0.000000 0.500000 0.336012
O O4 0.060698 0.380952 0.255319
O O5 0.509331 0.156856 0.500000
O O6 0.503285 0.251080 0.702690
O O7 0.409845 0.134984 0.704061
O O8 0.519867 0.344714 0.500000
O O9 0.444194 0.383323 0.265509
O O10 0.595911 0.364102 0.255921
O O11 0.090712 0.923342 0.500000
O O12 0.146044 0.005009 0.704429
O O13 0.000000 0.000000 0.661711
O O14 0.248558 0.608189 0.794823
O O15 0.158870 0.565848 0.000000
O O16 0.147310 0.097750 0.500000
#
# Coordination Sequence:
#
# PCOD9441571 Si02
#       6
#     8   8   8   8   8   8
#     4   9  17  29  47  71  94 117 151 192 231 273
#     4   9  18  32  49  69  94 126 160 191 230 283
#     4  10  19  30  47  71  97 125 158 195 234 279
#     4   8  15  29  47  66  88 116 153 191 229 280
#     4   9  17  32  52  69  91 125 161 196 235 282
#     4   9  18  32  50  70  92 123 161 198 239 285
#
# _framework density 16.381844999999998
#
# number of rings (size 3 to 8) (size 9 to 14) (size 15 to 20)
#    0.000    3.000    0.000    2.000    0.000    7.000 
#    0.000    1.667    0.000    4.000    0.000    0.000 
#    0.000    0.000    0.000    0.000    0.000    0.000 
#
# Total GULP energy -267295.590083 kJ/mol
# GULP energy per Si atom -5568.658127 kJ/mol
# Density = 1.634456 g / cm^3
# Si number density = 16.381845 Si / 1000 Ang^3
#
#
#
# Elastic Constant Matrix: (Units=GPa)
#
#
# Indices 1 2 3 4 5 6 
#
# 1 70.7464 40.6009 37.9853 0.0000 0.0000 0.0000
# 2 40.6009 124.3732 69.3477 0.0000 0.0000 0.0000
# 3 37.9853 69.3477 61.9823 0.0000 0.0000 0.0000
# 4 0.0000 0.0000 0.0000 26.0711 0.0000 0.0000
# 5 0.0000 0.0000 0.0000 0.0000 15.5925 0.0000
# 6 0.0000 0.0000 0.0000 0.0000 0.0000 15.1783
#
#
#
# Elastic Compliance Matrix: (Units=1/GPa)
#
#
# Indices 1 2 3 4 5 6 
#
# 1 0.021101 0.000856 -0.013890 0.000000 0.000000 0.000000
# 2 0.000856 0.021409 -0.024478 0.000000 0.000000 0.000000
# 3 -0.013890 -0.024478 0.052033 0.000000 0.000000 0.000000
# 4 0.000000 0.000000 0.000000 0.038357 0.000000 0.000000
# 5 0.000000 0.000000 0.000000 0.000000 0.064133 0.000000
# 6 0.000000 0.000000 0.000000 0.000000 0.000000 0.065884
#
#
# Mechanical properties :
#
#
# Convention : Reuss Voigt Hill
#
# Bulk Modulus (GPa) = 51.22925 61.44105 56.33515
# Shear Modulus (GPa) = 14.51605 18.64625 16.58115
#
# Velocity S-wave (km/s) = 2.97998 3.37742 3.18491
# Velocity P-wave (km/s) = 6.57117 7.26611 6.92736
#
# Compressibility (1/GPa) = 0.01952010
#
# Stress axis : x y z
#
# Youngs Moduli (GPa) = 47.39039 46.70891 19.21875
#
# Poissons Ratio (x) = -0.03999 0.26694
# Poissons Ratio (y) = -0.04057 0.47044
# Poissons Ratio (z) = 0.65824 1.14334
#
# Static dielectric constant tensor:
#      x y z
#    x 1.564650 0.000000 0.000000 
#    y 0.000000 1.536090 0.000000 
#    z 0.000000 0.000000 1.550770 
# 
# From -- ./inp_files/7868.got.cif
#   From: 2010.05.17/outbox.cif.g08.bks.cpg/sg58_4_cif.got.tgz:7868.got - 2010.06.03 14:20:14.
