data_PCOD9441076
_publ_section_title
;
Structure prediction by ZEFSAII (Michael W. Deem and Ramdas Pophale) SiO2 
 PCOD9441076
Probable space group: P N N M
;
_chemical_formula_sum "Si O2"
_cell_formula_units_Z 56
_cell_length_a 19.785997
_cell_length_b 18.510148
_cell_length_c 7.554017
_cell_angle_alpha 90.000000
_cell_angle_beta 90.000000
_cell_angle_gamma 90.000000
_cell_volume 2766.596276
_symmetry_space_group_name_H-M "P N N M"
_symmetry_group_IT_number 58
_symmetry_cell_setting 'orthorhombic'
loop_
_space_group_symop_operation_xyz
x,y,z
-x,-y,z
1/2+x,1/2-y,1/2-z
1/2-x,1/2+y,1/2-z
-x,-y,-z
x,y,-z
1/2-x,1/2+y,1/2+z
1/2+x,1/2-y,1/2+z
loop_
_atom_site_type_symbol
_atom_site_label
_atom_site_fract_x
_atom_site_fract_y
_atom_site_fract_z
Si Si1 0.955240 0.269395 0.716785
Si Si2 0.791535 0.888114 0.297183
Si Si3 0.183889 0.348451 0.289985
Si Si4 0.821982 0.485886 0.206358
Si Si5 0.035598 0.569569 0.298238
Si Si6 0.802036 0.253890 0.289072
Si Si7 0.594320 0.287497 0.783027
O O1 0.954358 0.271108 0.500000
O O2 0.972658 0.350806 0.778318
O O3 0.879354 0.250366 0.772792
O O4 0.016359 0.217259 0.769667
O O5 0.807574 0.907536 0.500000
O O6 0.748768 0.954549 0.220927
O O7 0.738944 0.820806 0.293725
O O8 0.860000 0.854355 0.218873
O O9 0.175408 0.353716 0.500000
O O10 0.173142 0.428144 0.217517
O O11 0.258061 0.317067 0.249220
O O12 0.131923 0.286601 0.226789
O O13 0.885171 0.448568 0.300048
O O14 0.826521 0.464769 0.000000
O O15 0.008676 0.574102 0.500000
O O16 0.000000 0.500000 0.212828
O O17 0.802232 0.266218 0.500000
O O18 0.597204 0.288445 0.000000
#
# Coordination Sequence:
#
# PCOD9441076 Si02
#       7
#     8   8   8   8   8   8   8
#     4   9  16  27  47  74  98 125 161 205 246 290
#     4   9  18  32  50  71  98 133 169 206 246 298
#     4  10  20  34  52  71  97 133 171 208 249 301
#     4  11  21  32  48  73 103 132 167 211 258 299
#     4  10  19  31  48  72 103 139 173 199 241 308
#     4  10  18  30  50  74  99 125 163 209 252 297
#     4   8  15  30  50  71  94 124 166 206 242 289
#
# _framework density 20.241479000000002
#
# number of rings (size 3 to 8) (size 9 to 14) (size 15 to 20)
#    0.000    2.429    1.429    3.000    0.000    3.143 
#    0.000    0.000    0.000    9.429    0.000    6.000 
#    0.000    0.000    0.000    0.000    0.000    0.000 
#
# Total GULP energy -312406.497726 kJ/mol
# GULP energy per Si atom -5578.687459 kJ/mol
# Density = 2.019541 g / cm^3
# Si number density = 20.241479 Si / 1000 Ang^3
#
#
#
# Elastic Constant Matrix: (Units=GPa)
#
#
# Indices 1 2 3 4 5 6 
#
# 1 83.4464 -13.4037 -7.1415 0.0000 0.0000 0.0000
# 2 -13.4037 11.5881 -3.0435 0.0000 0.0000 0.0000
# 3 -7.1415 -3.0435 56.5046 0.0000 0.0000 0.0000
# 4 0.0000 0.0000 0.0000 8.0213 0.0000 0.0000
# 5 0.0000 0.0000 0.0000 0.0000 12.4973 0.0000
# 6 0.0000 0.0000 0.0000 0.0000 0.0000 30.6304
#
#
#
# Elastic Compliance Matrix: (Units=1/GPa)
#
#
# Indices 1 2 3 4 5 6 
#
# 1 0.015174 0.018314 0.002904 0.000000 0.000000 0.000000
# 2 0.018314 0.109638 0.008220 0.000000 0.000000 0.000000
# 3 0.002904 0.008220 0.018507 0.000000 0.000000 0.000000
# 4 0.000000 0.000000 0.000000 0.124669 0.000000 0.000000
# 5 0.000000 0.000000 0.000000 0.000000 0.080017 0.000000
# 6 0.000000 0.000000 0.000000 0.000000 0.000000 0.032647
#
#
# Mechanical properties :
#
#
# Convention : Reuss Voigt Hill
#
# Bulk Modulus (GPa) = 4.94569 11.59576 8.27073
# Shear Modulus (GPa) = 12.84772 21.90498 17.37635
#
# Velocity S-wave (km/s) = 2.52210 3.29322 2.93312
# Velocity P-wave (km/s) = 3.30605 4.49462 3.94535
#
# Compressibility (1/GPa) = 0.20219609
#
# Stress axis : x y z
#
# Youngs Moduli (GPa) = 65.90204 9.12096 54.03223
#
# Poissons Ratio (x) = -0.16704 -0.15692
# Poissons Ratio (y) = -1.20694 -0.44415
# Poissons Ratio (z) = -0.19140 -0.07497
#
# Static dielectric constant tensor:
#      x y z
#    x 1.741300 0.000000 0.000000 
#    y 0.000000 1.699400 0.000000 
#    z 0.000000 0.000000 1.798010 
# 
# From -- ./inp_files/8102.got.cif
#   From: 2010.05.17/outbox.cif.g08.bks.cpg/sg58_5_cif.got.tgz:8102.got - 2010.06.03 14:20:14.
