data_PCOD9441525
_publ_section_title
;
Structure prediction by ZEFSAII (Michael W. Deem and Ramdas Pophale) SiO2 
 PCOD9441525
Probable space group: P N N M
;
_chemical_formula_sum "Si O2"
_cell_formula_units_Z 64
_cell_length_a 22.036810
_cell_length_b 18.855446
_cell_length_c 9.311045
_cell_angle_alpha 90.000000
_cell_angle_beta 90.000000
_cell_angle_gamma 90.000000
_cell_volume 3868.868444
_symmetry_space_group_name_H-M "P N N M"
_symmetry_group_IT_number 58
_symmetry_cell_setting 'orthorhombic'
loop_
_space_group_symop_operation_xyz
x,y,z
-x,-y,z
1/2+x,1/2-y,1/2-z
1/2-x,1/2+y,1/2-z
-x,-y,-z
x,y,-z
1/2-x,1/2+y,1/2+z
1/2+x,1/2-y,1/2+z
loop_
_atom_site_type_symbol
_atom_site_label
_atom_site_fract_x
_atom_site_fract_y
_atom_site_fract_z
Si Si1 0.257699 0.625311 0.663305
Si Si2 0.354337 0.079874 0.668672
Si Si3 0.112414 0.179254 0.172630
Si Si4 0.192495 0.418236 0.170506
Si Si5 0.021605 0.578548 0.329191
Si Si6 0.905887 0.677551 0.328659
Si Si7 0.433145 0.522825 0.674798
Si Si8 0.692007 0.536615 0.334071
O O1 0.238755 0.641207 0.500000
O O2 0.200822 0.625491 0.767504
O O3 0.315393 0.672957 0.701807
O O4 0.283964 0.544856 0.663267
O O5 0.360170 0.090753 0.500000
O O6 0.416850 0.096132 0.747681
O O7 0.336588 0.996880 0.692791
O O8 0.087300 0.245306 0.259328
O O9 0.082521 0.103940 0.214189
O O10 0.105201 0.187816 0.000000
O O11 0.149917 0.362739 0.252336
O O12 0.260070 0.421434 0.237231
O O13 0.194027 0.404462 0.000000
O O14 0.033628 0.576796 0.500000
O O15 0.000000 0.500000 0.285216
O O16 0.966655 0.632103 0.302004
O O17 0.896112 0.680833 0.500000
O O18 0.500000 0.500000 0.722909
O O19 0.432039 0.520880 0.500000
O O20 0.377364 0.471635 0.719189
O O21 0.692937 0.561808 0.500000
#
# Coordination Sequence:
#
# PCOD9441525 Si02
#       8
#     8   8   8   8   8   8   8   8
#     4   8  15  29  49  70  95 127 159 195 244 302
#     4  10  19  29  48  76 101 125 162 215 257 290
#     4   9  18  33  53  77 103 132 167 210 260 309
#     4  10  19  30  46  71 101 130 163 207 258 300
#     4  10  20  34  50  70  99 138 180 214 252 309
#     4  11  22  34  51  72  98 136 176 215 257 309
#     4   8  14  28  54  83 105 130 168 210 252 304
#     4   8  14  26  47  74  99 124 159 199 241 293
#
# _framework density 16.542304000000001
#
# number of rings (size 3 to 8) (size 9 to 14) (size 15 to 20)
#    0.000    2.750    1.250    2.625    0.000    2.750 
#    0.000    1.875    2.750    1.500    0.000    0.000 
#    0.000    0.000    0.000    0.000    0.000    0.000 
#
# Total GULP energy -356624.484548 kJ/mol
# GULP energy per Si atom -5572.257571 kJ/mol
# Density = 1.650465 g / cm^3
# Si number density = 16.542304 Si / 1000 Ang^3
#
#
#
# Elastic Constant Matrix: (Units=GPa)
#
#
# Indices 1 2 3 4 5 6 
#
# 1 141.4195 45.5344 62.9093 0.0000 0.0000 0.0000
# 2 45.5344 58.9209 38.6967 0.0000 0.0000 0.0000
# 3 62.9093 38.6967 49.7223 0.0000 0.0000 0.0000
# 4 0.0000 0.0000 0.0000 19.4316 0.0000 0.0000
# 5 0.0000 0.0000 0.0000 0.0000 8.7161 0.0000
# 6 0.0000 0.0000 0.0000 0.0000 0.0000 19.2673
#
#
#
# Elastic Compliance Matrix: (Units=1/GPa)
#
#
# Indices 1 2 3 4 5 6 
#
# 1 0.016282 0.001936 -0.022107 0.000000 0.000000 0.000000
# 2 0.001936 0.034946 -0.029647 0.000000 0.000000 0.000000
# 3 -0.022107 -0.029647 0.071154 0.000000 0.000000 0.000000
# 4 0.000000 0.000000 0.000000 0.051463 0.000000 0.000000
# 5 0.000000 0.000000 0.000000 0.000000 0.114730 0.000000
# 6 0.000000 0.000000 0.000000 0.000000 0.000000 0.051901
#
#
# Mechanical properties :
#
#
# Convention : Reuss Voigt Hill
#
# Bulk Modulus (GPa) = 43.96079 60.48260 52.22169
# Shear Modulus (GPa) = 11.16835 16.34449 13.75642
#
# Velocity S-wave (km/s) = 2.60116 3.14672 2.88686
# Velocity P-wave (km/s) = 5.97109 7.06005 6.53828
#
# Compressibility (1/GPa) = 0.02274754
#
# Stress axis : x y z
#
# Youngs Moduli (GPa) = 61.41856 28.61519 14.05401
#
# Poissons Ratio (x) = -0.05540 0.31069
# Poissons Ratio (y) = -0.11891 0.41666
# Poissons Ratio (z) = 1.35775 0.84835
#
# Static dielectric constant tensor:
#      x y z
#    x 1.566850 0.000000 0.000000 
#    y 0.000000 1.548770 0.000000 
#    z 0.000000 0.000000 1.546050 
# 
# From -- ./inp_files/9433.got.cif
#   From: 2010.05.17/outbox.cif.g08.bks.cpg/sg58_5_cif.got.tgz:9433.got - 2010.06.03 14:20:14.
