data_PCOD9441067
_publ_section_title
;
Structure prediction by ZEFSAII (Michael W. Deem and Ramdas Pophale) SiO2 
 PCOD9441067
Probable space group: P N N M
;
_chemical_formula_sum "Si O2"
_cell_formula_units_Z 64
_cell_length_a 19.985483
_cell_length_b 20.458442
_cell_length_c 7.422859
_cell_angle_alpha 90.000000
_cell_angle_beta 90.000000
_cell_angle_gamma 90.000000
_cell_volume 3034.998053
_symmetry_space_group_name_H-M "P N N M"
_symmetry_group_IT_number 58
_symmetry_cell_setting 'orthorhombic'
loop_
_space_group_symop_operation_xyz
x,y,z
-x,-y,z
1/2+x,1/2-y,1/2-z
1/2-x,1/2+y,1/2-z
-x,-y,-z
x,y,-z
1/2-x,1/2+y,1/2+z
1/2+x,1/2-y,1/2+z
loop_
_atom_site_type_symbol
_atom_site_label
_atom_site_fract_x
_atom_site_fract_y
_atom_site_fract_z
Si Si1 0.205217 0.007323 0.718420
Si Si2 0.462809 0.934309 0.719842
Si Si3 0.067262 0.673512 0.779913
Si Si4 0.603145 0.684270 0.281322
Si Si5 0.814722 0.598411 0.220147
Si Si6 0.247073 0.272105 0.791933
Si Si7 0.712241 0.869543 0.705724
Si Si8 0.059829 0.956620 0.209680
O O1 0.202102 0.007668 0.500000
O O2 0.240408 0.074244 0.782106
O O3 0.253896 0.948234 0.775269
O O4 0.130106 0.994661 0.781275
O O5 0.462343 0.935102 0.500000
O O6 0.506117 0.871670 0.775986
O O7 0.386106 0.929362 0.777451
O O8 0.500000 0.000000 0.778426
O O9 0.064890 0.749465 0.726797
O O10 0.138275 0.643224 0.715969
O O11 0.069250 0.673125 0.000000
O O12 0.605438 0.682605 0.500000
O O13 0.679385 0.695170 0.219769
O O14 0.573060 0.616058 0.214817
O O15 0.802459 0.672693 0.280898
O O16 0.813817 0.599514 0.000000
O O17 0.252512 0.201103 0.704882
O O18 0.230695 0.260078 0.000000
O O19 0.699450 0.890610 0.500000
O O20 0.042493 0.945740 0.000000
O O21 0.000000 0.000000 0.288880
#
# Coordination Sequence:
#
# PCOD9441067 Si02
#       8
#     8   8   8   8   8   8   8   8
#     4  10  19  34  54  75 102 134 170 211 255 308
#     4   9  15  24  41  68 100 128 157 198 247 293
#     4   8  14  26  45  69  95 129 167 198 237 293
#     4   9  17  32  52  71  95 131 170 204 247 307
#     4   9  17  28  45  73 103 129 161 206 254 295
#     4  10  18  30  49  74 102 130 164 210 256 296
#     4   9  18  32  51  74 101 135 172 207 246 301
#     4  10  21  36  52  74 102 131 167 216 268 314
#
# _framework density 21.087327999999999
#
# number of rings (size 3 to 8) (size 9 to 14) (size 15 to 20)
#    0.000    2.750    1.250    1.875    0.000    3.750 
#    2.250    0.000    0.000    0.000    0.000    4.375 
#    0.000   17.500    0.000    0.000    0.000    0.000 
#
# Total GULP energy -357164.143324 kJ/mol
# GULP energy per Si atom -5580.689739 kJ/mol
# Density = 2.103933 g / cm^3
# Si number density = 21.087328 Si / 1000 Ang^3
#
#
#
# Elastic Constant Matrix: (Units=GPa)
#
#
# Indices 1 2 3 4 5 6 
#
# 1 111.7129 50.4273 -10.3869 0.0000 0.0000 0.0000
# 2 50.4273 109.2748 -9.5614 0.0000 0.0000 0.0000
# 3 -10.3869 -9.5614 65.5398 0.0000 0.0000 0.0000
# 4 0.0000 0.0000 0.0000 7.4521 0.0000 0.0000
# 5 0.0000 0.0000 0.0000 0.0000 0.6712 0.0000
# 6 0.0000 0.0000 0.0000 0.0000 0.0000 34.8114
#
#
#
# Elastic Compliance Matrix: (Units=1/GPa)
#
#
# Indices 1 2 3 4 5 6 
#
# 1 0.011378 -0.005159 0.001051 0.000000 0.000000 0.000000
# 2 -0.005159 0.011608 0.000876 0.000000 0.000000 0.000000
# 3 0.001051 0.000876 0.015552 0.000000 0.000000 0.000000
# 4 0.000000 0.000000 0.000000 0.134190 0.000000 0.000000
# 5 0.000000 0.000000 0.000000 0.000000 1.489880 0.000000
# 6 0.000000 0.000000 0.000000 0.000000 0.000000 0.028726
#
#
# Mechanical properties :
#
#
# Convention : Reuss Voigt Hill
#
# Bulk Modulus (GPa) = 31.17754 38.60949 34.89351
# Shear Modulus (GPa) = 2.92656 25.65684 14.29170
#
# Velocity S-wave (km/s) = 1.17934 3.49190 2.60617
# Velocity P-wave (km/s) = 4.08308 5.88276 5.06352
#
# Compressibility (1/GPa) = 0.03207438
#
# Stress axis : x y z
#
# Youngs Moduli (GPa) = 87.89047 86.14417 64.29960
#
# Poissons Ratio (x) = 0.44438 -0.06755
# Poissons Ratio (y) = 0.45339 -0.05632
# Poissons Ratio (z) = -0.09234 -0.07546
#
# Static dielectric constant tensor:
#      x y z
#    x 1.714900 0.000000 0.000000 
#    y 0.000000 1.757160 0.000000 
#    z 0.000000 0.000000 1.812490 
# 
# From -- ./inp_files/8409.got.cif
#   From: 2010.05.17/outbox.cif.g08.bks.cpg/sg58_5_cif.got.tgz:8409.got - 2010.06.03 14:20:14.
