data_PCOD9441078
_publ_section_title
;
Structure prediction by ZEFSAII (Michael W. Deem and Ramdas Pophale) SiO2 
 PCOD9441078
Probable space group: P N N M
;
_chemical_formula_sum "Si O2"
_cell_formula_units_Z 64
_cell_length_a 19.691685
_cell_length_b 23.854484
_cell_length_c 8.627897
_cell_angle_alpha 90.000000
_cell_angle_beta 90.000000
_cell_angle_gamma 90.000000
_cell_volume 4052.825066
_symmetry_space_group_name_H-M "P N N M"
_symmetry_group_IT_number 58
_symmetry_cell_setting 'orthorhombic'
loop_
_space_group_symop_operation_xyz
x,y,z
-x,-y,z
1/2+x,1/2-y,1/2-z
1/2-x,1/2+y,1/2-z
-x,-y,-z
x,y,-z
1/2-x,1/2+y,1/2+z
1/2+x,1/2-y,1/2+z
loop_
_atom_site_type_symbol
_atom_site_label
_atom_site_fract_x
_atom_site_fract_y
_atom_site_fract_z
Si Si1 0.846402 0.766461 0.812337
Si Si2 0.235210 0.339988 0.315748
Si Si3 0.001727 0.251557 0.813141
Si Si4 0.866049 0.439382 0.313877
Si Si5 0.498656 0.883156 0.312997
Si Si6 0.853391 0.563453 0.814459
Si Si7 0.280827 0.166318 0.812006
Si Si8 0.639355 0.721308 0.814599
O O1 0.813810 0.708784 0.751472
O O2 0.924479 0.771113 0.764074
O O3 0.795016 0.815917 0.763722
O O4 0.845284 0.763261 0.000000
O O5 0.234010 0.337693 0.500000
O O6 0.205809 0.398634 0.256858
O O7 0.310249 0.324835 0.255271
O O8 0.998503 0.317529 0.769905
O O9 0.937720 0.220017 0.741593
O O10 0.997581 0.248575 0.000000
O O11 0.863561 0.443108 0.500000
O O12 0.852153 0.499806 0.242206
O O13 0.811956 0.392289 0.259432
O O14 0.939805 0.416769 0.263273
O O15 0.504909 0.886990 0.500000
O O16 0.425982 0.909163 0.269103
O O17 0.849041 0.565837 0.000000
O O18 0.329380 0.218125 0.765154
O O19 0.281425 0.165116 0.000000
O O20 0.642837 0.718567 0.000000
#
# Coordination Sequence:
#
# PCOD9441078 Si02
#       8
#     8   8   8   8   8   8   8   8
#     4   9  17  33  52  71  99 135 165 200 250 304
#     4  11  21  33  50  74  98 126 166 213 250 292
#     4  10  18  30  50  75 100 130 168 204 241 292
#     4  11  21  33  48  72  99 131 174 216 246 286
#     4  10  20  33  47  67  99 136 172 205 241 292
#     4  11  22  37  51  67  95 138 175 206 252 302
#     4   8  16  30  48  68  94 128 164 199 243 291
#     4  10  19  33  51  71  99 133 163 200 252 302
#
# _framework density 15.791454999999999
#
# number of rings (size 3 to 8) (size 9 to 14) (size 15 to 20)
#    0.000    2.000    2.500    3.375    0.000    3.000 
#    0.000    0.625    0.000    0.000    0.000    0.875 
#    0.000    7.000    0.000    0.000    0.000    0.000 
#
# Total GULP energy -357116.940023 kJ/mol
# GULP energy per Si atom -5579.952188 kJ/mol
# Density = 1.575551 g / cm^3
# Si number density = 15.791455 Si / 1000 Ang^3
#
#
#
# Elastic Constant Matrix: (Units=GPa)
#
#
# Indices 1 2 3 4 5 6 
#
# 1 123.3067 48.6023 28.9084 0.0000 0.0000 0.0000
# 2 48.6023 70.1814 18.1382 0.0000 0.0000 0.0000
# 3 28.9084 18.1382 29.5382 0.0000 0.0000 0.0000
# 4 0.0000 0.0000 0.0000 8.8928 0.0000 0.0000
# 5 0.0000 0.0000 0.0000 0.0000 23.7141 0.0000
# 6 0.0000 0.0000 0.0000 0.0000 0.0000 20.9556
#
#
#
# Elastic Compliance Matrix: (Units=1/GPa)
#
#
# Indices 1 2 3 4 5 6 
#
# 1 0.012675 -0.006623 -0.008338 0.000000 0.000000 0.000000
# 2 -0.006623 0.020397 -0.006043 0.000000 0.000000 0.000000
# 3 -0.008338 -0.006043 0.045726 0.000000 0.000000 0.000000
# 4 0.000000 0.000000 0.000000 0.112451 0.000000 0.000000
# 5 0.000000 0.000000 0.000000 0.000000 0.042169 0.000000
# 6 0.000000 0.000000 0.000000 0.000000 0.000000 0.047720
#
#
# Mechanical properties :
#
#
# Convention : Reuss Voigt Hill
#
# Bulk Modulus (GPa) = 27.18175 46.03601 36.60888
# Shear Modulus (GPa) = 14.90715 19.20432 17.05574
#
# Velocity S-wave (km/s) = 3.07579 3.49108 3.28999
# Velocity P-wave (km/s) = 5.46483 6.74284 6.13719
#
# Compressibility (1/GPa) = 0.03678939
#
# Stress axis : x y z
#
# Youngs Moduli (GPa) = 78.89488 49.02634 21.86952
#
# Poissons Ratio (x) = 0.32469 0.18235
# Poissons Ratio (y) = 0.52251 0.13217
# Poissons Ratio (z) = 0.65782 0.29629
#
# Static dielectric constant tensor:
#      x y z
#    x 1.532050 0.000000 0.000000 
#    y 0.000000 1.506790 0.000000 
#    z 0.000000 0.000000 1.533270 
# 
# From -- ./inp_files/8505.got.cif
#   From: 2010.05.17/outbox.cif.g08.bks.cpg/sg58_5_cif.got.tgz:8505.got - 2010.06.03 14:20:14.
