data_PCOD9441932
_publ_section_title
;
Structure prediction by ZEFSAII (Michael W. Deem and Ramdas Pophale) SiO2 
 PCOD9441932
Probable space group: P N N M
;
_chemical_formula_sum "Si O2"
_cell_formula_units_Z 48
_cell_length_a 9.943348
_cell_length_b 21.908243
_cell_length_c 10.695529
_cell_angle_alpha 90.000000
_cell_angle_beta 90.000000
_cell_angle_gamma 90.000000
_cell_volume 2329.927773
_symmetry_space_group_name_H-M "P N N M"
_symmetry_group_IT_number 58
_symmetry_cell_setting 'orthorhombic'
loop_
_space_group_symop_operation_xyz
x,y,z
-x,-y,z
1/2+x,1/2-y,1/2-z
1/2-x,1/2+y,1/2-z
-x,-y,-z
x,y,-z
1/2-x,1/2+y,1/2+z
1/2+x,1/2-y,1/2+z
loop_
_atom_site_type_symbol
_atom_site_label
_atom_site_fract_x
_atom_site_fract_y
_atom_site_fract_z
Si Si1 0.261849 0.578360 0.284825
Si Si2 0.669657 0.288337 0.359716
Si Si3 0.002476 0.073300 0.367998
Si Si4 0.679546 0.557147 0.642501
Si Si5 0.519028 0.099113 0.855837
Si Si6 0.973827 0.256321 0.355420
O O1 0.291310 0.639978 0.360370
O O2 0.342850 0.588778 0.157187
O O3 0.322011 0.516617 0.344416
O O4 0.102087 0.572211 0.274733
O O5 0.622797 0.271545 0.500000
O O6 0.812282 0.254022 0.334713
O O7 0.561708 0.276273 0.250926
O O8 0.951387 0.097859 0.500000
O O9 0.915446 0.087663 0.245812
O O10 0.000000 0.000000 0.375224
O O11 0.645689 0.574076 0.500000
O O12 0.832238 0.576313 0.670702
O O13 0.513067 0.172094 0.846817
O O14 0.487718 0.081691 0.000000
O O15 0.001359 0.237750 0.500000
#
# Coordination Sequence:
#
# PCOD9441932 Si02
#       6
#     8   8   8   8   8   8
#     4  10  19  33  56  81 110 141 176 222 274 321
#     4  10  21  37  57  81 108 138 178 227 273 320
#     4   9  20  36  50  71 109 148 178 210 252 308
#     4  10  19  32  56  86 111 140 179 221 269 322
#     4   9  18  34  55  81 110 137 174 226 274 319
#     4   9  20  38  56  77 107 142 179 221 270 322
#
# _framework density 20.601496999999998
#
# number of rings (size 3 to 8) (size 9 to 14) (size 15 to 20)
#    0.000    2.500    0.000    3.000    0.000    8.333 
#    0.000    7.500    0.000    4.000    0.000    0.000 
#    0.000    0.000    0.000    0.000    0.000    0.000 
#
# Total GULP energy -267719.270673 kJ/mol
# GULP energy per Si atom -5577.484806 kJ/mol
# Density = 2.055461 g / cm^3
# Si number density = 20.601497 Si / 1000 Ang^3
#
#
#
# Elastic Constant Matrix: (Units=GPa)
#
#
# Indices 1 2 3 4 5 6 
#
# 1 119.9015 19.4523 91.1612 0.0000 0.0000 0.0000
# 2 19.4523 51.8028 14.1680 0.0000 0.0000 0.0000
# 3 91.1612 14.1680 147.4621 0.0000 0.0000 0.0000
# 4 0.0000 0.0000 0.0000 -19.3892 0.0000 0.0000
# 5 0.0000 0.0000 0.0000 0.0000 31.5730 0.0000
# 6 0.0000 0.0000 0.0000 0.0000 0.0000 29.0688
#
#
#
# Elastic Compliance Matrix: (Units=1/GPa)
#
#
# Indices 1 2 3 4 5 6 
#
# 1 0.016319 -0.003460 -0.009756 0.000000 0.000000 0.000000
# 2 -0.003460 0.020558 0.000164 0.000000 0.000000 0.000000
# 3 -0.009756 0.000164 0.012797 0.000000 0.000000 0.000000
# 4 0.000000 0.000000 0.000000 -0.051575 0.000000 0.000000
# 5 0.000000 0.000000 0.000000 0.000000 0.031673 0.000000
# 6 0.000000 0.000000 0.000000 0.000000 0.000000 0.034401
#
#
# Mechanical properties :
#
#
# Convention : Reuss Voigt Hill
#
# Bulk Modulus (GPa) = 42.42686 63.19214 52.80950
# Shear Modulus (GPa) = 50.95091 21.20951 36.08021
#
# Velocity S-wave (km/s) = 4.97849 3.21208 4.18944
# Velocity P-wave (km/s) = 7.32707 6.67059 7.00652
#
# Compressibility (1/GPa) = 0.02356998
#
# Stress axis : x y z
#
# Youngs Moduli (GPa) = 61.27850 48.64199 78.14422
#
# Poissons Ratio (x) = 0.16828 0.76237
# Poissons Ratio (y) = 0.21200 -0.01278
# Poissons Ratio (z) = 0.59783 -0.00795
#
# Static dielectric constant tensor:
#      x y z
#    x 1.749710 0.000000 0.000000 
#    y 0.000000 1.773330 0.000000 
#    z 0.000000 0.000000 1.745570 
# 
# From -- ./inp_files/13062.got.cif
#   From: 2010.05.17/outbox.cif.g08.bks.cpg/sg58_7_cif.got.tgz:13062.got - 2010.06.03 14:20:14.
