data_PCOD9441868
_publ_section_title
;
Structure prediction by ZEFSAII (Michael W. Deem and Ramdas Pophale) SiO2 
 PCOD9441868
Probable space group: P N N M
;
_chemical_formula_sum "Si O2"
_cell_formula_units_Z 64
_cell_length_a 8.795372
_cell_length_b 19.085137
_cell_length_c 18.026616
_cell_angle_alpha 90.000000
_cell_angle_beta 90.000000
_cell_angle_gamma 90.000000
_cell_volume 3025.963618
_symmetry_space_group_name_H-M "P N N M"
_symmetry_group_IT_number 58
_symmetry_cell_setting 'orthorhombic'
loop_
_space_group_symop_operation_xyz
x,y,z
-x,-y,z
1/2+x,1/2-y,1/2-z
1/2-x,1/2+y,1/2-z
-x,-y,-z
x,y,-z
1/2-x,1/2+y,1/2+z
1/2+x,1/2-y,1/2+z
loop_
_atom_site_type_symbol
_atom_site_label
_atom_site_fract_x
_atom_site_fract_y
_atom_site_fract_z
Si Si1 0.612254 0.140593 0.362566
Si Si2 0.585082 0.073939 0.789513
Si Si3 0.683332 0.906813 0.583701
Si Si4 0.568367 0.838507 0.912319
Si Si5 0.651138 0.671694 0.291461
Si Si6 0.328479 0.717920 0.683627
Si Si7 0.342675 0.460720 0.911107
Si Si8 0.703368 0.259937 0.087361
O O1 0.540117 0.120868 0.282289
O O2 0.495416 0.105030 0.418068
O O3 0.607093 0.222991 0.372076
O O4 0.781263 0.110274 0.374437
O O5 0.527135 0.103358 0.868005
O O6 0.765999 0.095486 0.787615
O O7 0.500000 0.000000 0.779335
O O8 0.745768 0.912288 0.500000
O O9 0.721593 0.981502 0.617236
O O10 0.762106 0.837897 0.617053
O O11 0.719632 0.830621 0.864055
O O12 0.469243 0.766999 0.903981
O O13 0.588631 0.851505 0.000000
O O14 0.470903 0.677796 0.280590
O O15 0.734785 0.730395 0.239149
O O16 0.694110 0.702906 0.371754
O O17 0.500000 0.500000 0.893425
O O18 0.341599 0.448173 0.000000
O O19 0.737280 0.261058 0.000000
#
# Coordination Sequence:
#
# PCOD9441868 Si02
#       8
#     8   8   8   8   8   8   8   8
#     4  11  21  36  59  86 121 162 208 250 299 372
#     4  10  22  42  65  90 119 161 206 256 325 392
#     4  10  19  32  53  79 114 159 200 241 291 351
#     4  10  23  40  62  91 122 154 204 263 323 390
#     4  10  20  38  60  89 124 157 201 252 312 375
#     4  11  22  38  60  89 118 158 196 255 315 368
#     4  10  22  36  49  76 122 168 208 250 295 352
#     4   9  18  33  55  84 114 153 194 242 301 362
#
# _framework density 21.150286999999999
#
# number of rings (size 3 to 8) (size 9 to 14) (size 15 to 20)
#    0.000    1.875    1.250    3.750    1.750    2.750 
#    0.000    0.625    0.000    0.750    0.000    0.000 
#    0.000    0.000    0.000    0.000    0.000    0.000 
#
# Total GULP energy -356332.796961 kJ/mol
# GULP energy per Si atom -5567.699953 kJ/mol
# Density = 2.110215 g / cm^3
# Si number density = 21.150287 Si / 1000 Ang^3
#
#
#
# Elastic Constant Matrix: (Units=GPa)
#
#
# Indices 1 2 3 4 5 6 
#
# 1 104.0204 4.0885 25.8783 0.0000 0.0000 0.0000
# 2 4.0885 35.5924 -0.9278 0.0000 0.0000 0.0000
# 3 25.8783 -0.9278 68.2182 0.0000 0.0000 0.0000
# 4 0.0000 0.0000 0.0000 16.8275 0.0000 0.0000
# 5 0.0000 0.0000 0.0000 0.0000 23.3707 0.0000
# 6 0.0000 0.0000 0.0000 0.0000 0.0000 37.6578
#
#
#
# Elastic Compliance Matrix: (Units=1/GPa)
#
#
# Indices 1 2 3 4 5 6 
#
# 1 0.010678 -0.001333 -0.004069 0.000000 0.000000 0.000000
# 2 -0.001333 0.028272 0.000890 0.000000 0.000000 0.000000
# 3 -0.004069 0.000890 0.016214 0.000000 0.000000 0.000000
# 4 0.000000 0.000000 0.000000 0.059427 0.000000 0.000000
# 5 0.000000 0.000000 0.000000 0.000000 0.042789 0.000000
# 6 0.000000 0.000000 0.000000 0.000000 0.000000 0.026555
#
#
# Mechanical properties :
#
#
# Convention : Reuss Voigt Hill
#
# Bulk Modulus (GPa) = 21.67229 29.54546 25.60887
# Shear Modulus (GPa) = 23.99941 27.49067 25.74504
#
# Velocity S-wave (km/s) = 3.37220 3.60915 3.49269
# Velocity P-wave (km/s) = 5.04295 5.60068 5.32912
#
# Compressibility (1/GPa) = 0.04614187
#
# Stress axis : x y z
#
# Youngs Moduli (GPa) = 93.64942 35.37044 61.67339
#
# Poissons Ratio (x) = 0.04714 0.25094
# Poissons Ratio (y) = 0.12480 -0.05489
# Poissons Ratio (z) = 0.38104 -0.03148
#
# Static dielectric constant tensor:
#      x y z
#    x 1.862060 0.000000 0.000000 
#    y 0.000000 1.788240 0.000000 
#    z 0.000000 0.000000 1.797190 
# 
# From -- ./inp_files/25661.got.cif
#   From: 2010.05.17/outbox.cif.g08.bks.cpg/sg58_13_cif.got.tgz:25661.got - 2010.06.03 14:20:14.
