data_PCOD9441237
_publ_section_title
;
Structure prediction by ZEFSAII (Michael W. Deem and Ramdas Pophale) SiO2 
 PCOD9441237
Probable space group: P N N M
;
_chemical_formula_sum "Si O2"
_cell_formula_units_Z 64
_cell_length_a 13.098139
_cell_length_b 29.100795
_cell_length_c 7.463424
_cell_angle_alpha 90.000000
_cell_angle_beta 90.000000
_cell_angle_gamma 90.000000
_cell_volume 2844.805397
_symmetry_space_group_name_H-M "P N N M"
_symmetry_group_IT_number 58
_symmetry_cell_setting 'orthorhombic'
loop_
_space_group_symop_operation_xyz
x,y,z
-x,-y,z
1/2+x,1/2-y,1/2-z
1/2-x,1/2+y,1/2-z
-x,-y,-z
x,y,-z
1/2-x,1/2+y,1/2+z
1/2+x,1/2-y,1/2+z
loop_
_atom_site_type_symbol
_atom_site_label
_atom_site_fract_x
_atom_site_fract_y
_atom_site_fract_z
Si Si1 0.868019 0.862135 0.793546
Si Si2 0.757356 0.703911 0.780337
Si Si3 0.958837 0.651377 0.789571
Si Si4 0.407625 0.367555 0.793915
Si Si5 0.678145 0.804129 0.783046
Si Si6 0.238675 0.047053 0.284276
Si Si7 0.403495 0.469855 0.780879
Si Si8 0.469881 0.052245 0.280798
O O1 0.767236 0.838206 0.718532
O O2 0.843407 0.915902 0.778875
O O3 0.975977 0.850664 0.708324
O O4 0.877336 0.848596 0.000000
O O5 0.671872 0.668064 0.717396
O O6 0.717045 0.753976 0.724654
O O7 0.866951 0.683725 0.720147
O O8 0.760001 0.706190 0.000000
O O9 0.067116 0.677661 0.772968
O O10 0.970354 0.598501 0.720124
O O11 0.937253 0.645633 0.000000
O O12 0.405982 0.418225 0.712619
O O13 0.375709 0.373101 0.000000
O O14 0.675554 0.804873 0.000000
O O15 0.238763 0.048919 0.500000
O O16 0.352157 0.058485 0.223457
O O17 0.199100 0.996912 0.232105
O O18 0.500000 0.500000 0.722349
O O19 0.409353 0.468523 0.000000
O O20 0.473868 0.052315 0.500000
O O21 0.500000 0.000000 0.226810
#
# Coordination Sequence:
#
# PCOD9441237 Si02
#       8
#     8   8   8   8   8   8   8   8
#     4  11  22  35  54  79 111 146 183 229 276 320
#     4   9  21  38  58  83 110 142 182 231 281 326
#     4  10  20  37  61  88 113 141 185 233 276 329
#     4  10  20  36  57  80 109 145 185 224 272 332
#     4  10  22  40  57  77 110 148 182 226 281 328
#     4  10  18  32  53  79 110 143 183 221 268 330
#     4   9  16  27  48  78 107 134 169 219 265 307
#     4   9  18  30  51  85 115 138 173 227 280 326
#
# _framework density 22.497146000000001
#
# number of rings (size 3 to 8) (size 9 to 14) (size 15 to 20)
#    0.000    2.250    2.500    0.375    3.500    0.500 
#    0.000    2.500    0.000    1.500    0.000    0.000 
#    0.000    0.000    0.000    0.000    0.000    0.000 
#
# Total GULP energy -357217.299745 kJ/mol
# GULP energy per Si atom -5581.520309 kJ/mol
# Density = 2.244594 g / cm^3
# Si number density = 22.497146 Si / 1000 Ang^3
#
#
#
# Elastic Constant Matrix: (Units=GPa)
#
#
# Indices 1 2 3 4 5 6 
#
# 1 121.1986 71.7833 -13.4893 0.0000 0.0000 0.0000
# 2 71.7833 147.9276 -3.6841 0.0000 0.0000 0.0000
# 3 -13.4893 -3.6841 60.8266 0.0000 0.0000 0.0000
# 4 0.0000 0.0000 0.0000 -0.7339 0.0000 0.0000
# 5 0.0000 0.0000 0.0000 0.0000 -29.2994 0.0000
# 6 0.0000 0.0000 0.0000 0.0000 0.0000 34.3256
#
#
#
# Elastic Compliance Matrix: (Units=1/GPa)
#
#
# Indices 1 2 3 4 5 6 
#
# 1 0.011889 -0.005712 0.002291 0.000000 0.000000 0.000000
# 2 -0.005712 0.009515 -0.000691 0.000000 0.000000 0.000000
# 3 0.002291 -0.000691 0.016906 0.000000 0.000000 0.000000
# 4 0.000000 0.000000 0.000000 -1.362586 0.000000 0.000000
# 5 0.000000 0.000000 0.000000 0.000000 -0.034130 0.000000
# 6 0.000000 0.000000 0.000000 0.000000 0.000000 0.029133
#
#
# Mechanical properties :
#
#
# Convention : Reuss Voigt Hill
#
# Bulk Modulus (GPa) = 33.23806 48.79695 41.01751
# Shear Modulus (GPa) = -3.81382 19.21465 7.70041
#
# Velocity S-wave (km/s) = -1.30343 2.92566 1.85210
# Velocity P-wave (km/s) = 3.54135 5.75760 4.77971
#
# Compressibility (1/GPa) = 0.03008599
#
# Stress axis : x y z
#
# Youngs Moduli (GPa) = 84.11056 105.09945 59.14939
#
# Poissons Ratio (x) = 0.60036 -0.13549
# Poissons Ratio (y) = 0.48046 0.04084
# Poissons Ratio (z) = -0.19267 0.07257
#
# Static dielectric constant tensor:
#      x y z
#    x 1.795180 0.000000 0.000000 
#    y 0.000000 1.853140 0.000000 
#    z 0.000000 0.000000 1.755550 
# 
# From -- ./inp_files/4827.got.cif
#   From: 2010.05.17/outbox.cif.g08.bks.cpg/sg58_3_cif.got.tgz:4827.got - 2010.06.03 14:20:14.
