data_PCOD9441176
_publ_section_title
;
Structure prediction by ZEFSAII (Michael W. Deem and Ramdas Pophale) SiO2 
 PCOD9441176
Probable space group: P N N M
;
_chemical_formula_sum "Si O2"
_cell_formula_units_Z 58
_cell_length_a 22.533263
_cell_length_b 15.378066
_cell_length_c 9.006098
_cell_angle_alpha 90.000000
_cell_angle_beta 90.000000
_cell_angle_gamma 90.000000
_cell_volume 3120.775117
_symmetry_space_group_name_H-M "P N N M"
_symmetry_group_IT_number 58
_symmetry_cell_setting 'orthorhombic'
loop_
_space_group_symop_operation_xyz
x,y,z
-x,-y,z
1/2+x,1/2-y,1/2-z
1/2-x,1/2+y,1/2-z
-x,-y,-z
x,y,-z
1/2-x,1/2+y,1/2+z
1/2+x,1/2-y,1/2+z
loop_
_atom_site_type_symbol
_atom_site_label
_atom_site_fract_x
_atom_site_fract_y
_atom_site_fract_z
Si Si1 0.704826 0.835024 0.824181
Si Si2 0.053548 0.846620 0.334720
Si Si3 0.823896 0.157228 0.176640
Si Si4 0.500000 0.500000 0.000000
Si Si5 0.574963 0.919203 0.825942
Si Si6 0.250456 0.991474 0.321226
Si Si7 0.535093 0.203929 0.176323
Si Si8 0.621368 0.086751 0.324623
O O1 0.709265 0.741112 0.747093
O O2 0.636089 0.865836 0.806594
O O3 0.742711 0.912213 0.747932
O O4 0.717545 0.829372 0.000000
O O5 0.070763 0.807553 0.500000
O O6 0.107305 0.834697 0.224005
O O7 0.993338 0.797253 0.289736
O O8 0.036670 0.944588 0.373190
O O9 0.800020 0.068473 0.250329
O O10 0.816631 0.156207 0.000000
O O11 0.518622 0.861684 0.783965
O O12 0.581754 0.006914 0.734322
O O13 0.569795 0.941929 0.000000
O O14 0.244702 0.996810 0.500000
O O15 0.311707 0.940089 0.284255
O O16 0.594638 0.173747 0.255203
O O17 0.545008 0.198853 0.000000
O O18 0.617998 0.091928 0.500000
#
# Coordination Sequence:
#
# PCOD9441176 Si02
#       8
#     8   8   8   2   8   8   8   8
#     4  10  19  36  60  87 119 153 198 260 306 363
#     4   9  19  39  63  89 111 152 199 253 302 362
#     4  12  23  37  63  94 122 158 208 256 310 375
#     4   8  20  40  70  84 114 144 202 244 314 358
#     4   9  17  30  50  78 110 151 187 228 278 351
#     4  10  22  40  58  82 121 168 208 255 311 373
#     4  10  18  31  53  80 112 148 194 231 290 357
#     4  10  21  33  48  77 119 158 191 233 297 348
#
# _framework density 18.585127
#
# number of rings (size 3 to 8) (size 9 to 14) (size 15 to 20)
#    0.414    1.655    1.379    2.897    0.000    4.966 
#    0.000    1.724    3.034    1.655    0.000    0.000 
#    0.000    0.000    0.000    0.000    0.000    0.000 
#
# Total GULP energy -322912.842244 kJ/mol
# GULP energy per Si atom -5567.462797 kJ/mol
# Density = 1.854283 g / cm^3
# Si number density = 18.585127 Si / 1000 Ang^3
#
#
#
# Elastic Constant Matrix: (Units=GPa)
#
#
# Indices 1 2 3 4 5 6 
#
# 1 6.7581 14.8641 13.7329 0.0000 0.0000 0.0000
# 2 14.8641 72.7320 31.4986 0.0000 0.0000 0.0000
# 3 13.7329 31.4986 55.9877 0.0000 0.0000 0.0000
# 4 0.0000 0.0000 0.0000 21.7901 0.0000 0.0000
# 5 0.0000 0.0000 0.0000 0.0000 31.1652 0.0000
# 6 0.0000 0.0000 0.0000 0.0000 0.0000 30.8552
#
#
#
# Elastic Compliance Matrix: (Units=1/GPa)
#
#
# Indices 1 2 3 4 5 6 
#
# 1 0.405935 -0.052673 -0.069936 0.000000 0.000000 0.000000
# 2 -0.052673 0.025013 -0.001152 0.000000 0.000000 0.000000
# 3 -0.069936 -0.001152 0.035664 0.000000 0.000000 0.000000
# 4 0.000000 0.000000 0.000000 0.045892 0.000000 0.000000
# 5 0.000000 0.000000 0.000000 0.000000 0.032087 0.000000
# 6 0.000000 0.000000 0.000000 0.000000 0.000000 0.032409
#
#
# Mechanical properties :
#
#
# Convention : Reuss Voigt Hill
#
# Bulk Modulus (GPa) = 4.56435 28.40769 16.48602
# Shear Modulus (GPa) = 5.57070 21.78760 13.67915
#
# Velocity S-wave (km/s) = 1.73318 3.42762 2.71592
# Velocity P-wave (km/s) = 2.54292 5.56625 4.32722
#
# Compressibility (1/GPa) = 0.21908947
#
# Stress axis : x y z
#
# Youngs Moduli (GPa) = 2.46345 39.97959 28.03976
#
# Poissons Ratio (x) = 2.10583 1.96099
# Poissons Ratio (y) = 0.12976 0.03231
# Poissons Ratio (z) = 0.17228 0.04607
#
# Static dielectric constant tensor:
#      x y z
#    x 1.651400 0.000000 0.000000 
#    y 0.000000 1.666600 0.000000 
#    z 0.000000 0.000000 1.617060 
# 
# From -- ./inp_files/9905.got.cif
#   From: 2010.05.17/outbox.cif.g08.bks.cpg/sg58_5_cif.got.tgz:9905.got - 2010.06.03 14:20:14.
