data_PCOD9441485
_publ_section_title
;
Structure prediction by ZEFSAII (Michael W. Deem and Ramdas Pophale) SiO2 
 PCOD9441485
Probable space group: P N N M
;
_chemical_formula_sum "Si O2"
_cell_formula_units_Z 48
_cell_length_a 16.284615
_cell_length_b 8.137147
_cell_length_c 15.858299
_cell_angle_alpha 90.000000
_cell_angle_beta 90.000000
_cell_angle_gamma 90.000000
_cell_volume 2101.388055
_symmetry_space_group_name_H-M "P N N M"
_symmetry_group_IT_number 58
_symmetry_cell_setting 'orthorhombic'
loop_
_space_group_symop_operation_xyz
x,y,z
-x,-y,z
1/2+x,1/2-y,1/2-z
1/2-x,1/2+y,1/2-z
-x,-y,-z
x,y,-z
1/2-x,1/2+y,1/2+z
1/2+x,1/2-y,1/2+z
loop_
_atom_site_type_symbol
_atom_site_label
_atom_site_fract_x
_atom_site_fract_y
_atom_site_fract_z
Si Si1 0.990280 0.698744 0.500000
Si Si2 0.230103 0.600457 0.334265
Si Si3 0.323770 0.286582 0.668240
Si Si4 0.773474 0.395099 0.000000
Si Si5 0.679340 0.702913 0.000000
Si Si6 0.927291 0.634393 0.328315
Si Si7 0.485941 0.692911 0.665855
Si Si8 0.571688 0.134359 0.500000
O O1 0.082153 0.765440 0.500000
O O2 0.000000 0.500000 0.500000
O O3 0.943246 0.735804 0.413775
O O4 0.309325 0.482872 0.332949
O O5 0.218614 0.709957 0.250964
O O6 0.218511 0.711518 0.417151
O O7 0.155821 0.468093 0.334289
O O8 0.284780 0.212963 0.583306
O O9 0.420043 0.238721 0.669330
O O10 0.844987 0.532838 0.000000
O O11 0.694155 0.508976 0.000000
O O12 0.000000 0.500000 0.321509
O O13 0.936330 0.746406 0.246836
O O14 0.500000 0.500000 0.664223
O O15 0.441183 0.757236 0.582758
O O16 0.500000 0.000000 0.500000
#
# Coordination Sequence:
#
# PCOD9441485 Si02
#       8
#     4   8   8   4   4   8   8   4
#     4  10  18  40  70  93 122 165 224 265 318 385
#     4  12  25  42  70  94 136 177 219 269 342 399
#     4  12  26  45  63 100 137 174 219 280 332 404
#     4  12  27  44  69  99 136 173 231 276 336 401
#     4  12  23  42  69  97 129 176 218 276 332 402
#     4  11  20  43  71  93 125 177 223 266 326 396
#     4  12  26  42  68  99 134 171 227 281 325 391
#     4  12  23  46  72  92 126 183 223 274 336 396
#
# _framework density 22.842044000000001
#
# number of rings (size 3 to 8) (size 9 to 14) (size 15 to 20)
#    0.000    0.333    6.667    3.250    4.667    0.000 
#    0.000    0.417    0.000    0.000    0.000    0.000 
#    0.000    0.000    0.000    0.000    0.000    0.000 
#
# Total GULP energy -269014.553707 kJ/mol
# GULP energy per Si atom -5604.469869 kJ/mol
# Density = 2.279005 g / cm^3
# Si number density = 22.842044 Si / 1000 Ang^3
#
#
#
# Elastic Constant Matrix: (Units=GPa)
#
#
# Indices 1 2 3 4 5 6 
#
# 1 64.3656 6.7100 3.4400 0.0000 0.0000 0.0000
# 2 6.7100 94.1261 72.4164 0.0000 0.0000 0.0000
# 3 3.4400 72.4164 246.2774 0.0000 0.0000 0.0000
# 4 0.0000 0.0000 0.0000 -37.2264 0.0000 0.0000
# 5 0.0000 0.0000 0.0000 0.0000 -0.9643 0.0000
# 6 0.0000 0.0000 0.0000 0.0000 0.0000 42.1299
#
#
#
# Elastic Compliance Matrix: (Units=1/GPa)
#
#
# Indices 1 2 3 4 5 6 
#
# 1 0.015656 -0.001225 0.000142 0.000000 0.000000 0.000000
# 2 -0.001225 0.013826 -0.004048 0.000000 0.000000 0.000000
# 3 0.000142 -0.004048 0.005249 0.000000 0.000000 0.000000
# 4 0.000000 0.000000 0.000000 -0.026863 0.000000 0.000000
# 5 0.000000 0.000000 0.000000 0.000000 -1.036980 0.000000
# 6 0.000000 0.000000 0.000000 0.000000 0.000000 0.023736
#
#
# Mechanical properties :
#
#
# Convention : Reuss Voigt Hill
#
# Bulk Modulus (GPa) = 40.87029 63.32243 52.09636
# Shear Modulus (GPa) = -5.06608 22.26802 8.60097
#
# Velocity S-wave (km/s) = -1.49087 3.12568 1.94257
# Velocity P-wave (km/s) = 3.86883 6.38816 5.28093
#
# Compressibility (1/GPa) = 0.02446765
#
# Stress axis : x y z
#
# Youngs Moduli (GPa) = 63.87166 72.32766 190.51710
#
# Poissons Ratio (x) = 0.08860 -0.02696
# Poissons Ratio (y) = 0.07824 0.77128
# Poissons Ratio (z) = -0.00904 0.29281
#
# Static dielectric constant tensor:
#      x y z
#    x 1.913250 0.000000 0.000000 
#    y 0.000000 1.812540 0.000000 
#    z 0.000000 0.000000 1.854120 
# 
# From -- ./inp_files/22823.got.cif
#   From: 2010.05.17/outbox.cif.g08.bks.cpg/sg58_12_cif.got.tgz:22823.got - 2010.06.03 14:20:14.
