data_PCOD9441622
_publ_section_title
;
Structure prediction by ZEFSAII (Michael W. Deem and Ramdas Pophale) SiO2 
 PCOD9441622
Probable space group: P N N M
;
_chemical_formula_sum "Si O2"
_cell_formula_units_Z 56
_cell_length_a 14.002969
_cell_length_b 30.248215
_cell_length_c 8.738901
_cell_angle_alpha 90.000000
_cell_angle_beta 90.000000
_cell_angle_gamma 90.000000
_cell_volume 3701.491002
_symmetry_space_group_name_H-M "P N N M"
_symmetry_group_IT_number 58
_symmetry_cell_setting 'orthorhombic'
loop_
_space_group_symop_operation_xyz
x,y,z
-x,-y,z
1/2+x,1/2-y,1/2-z
1/2-x,1/2+y,1/2-z
-x,-y,-z
x,y,-z
1/2-x,1/2+y,1/2+z
1/2+x,1/2-y,1/2+z
loop_
_atom_site_type_symbol
_atom_site_label
_atom_site_fract_x
_atom_site_fract_y
_atom_site_fract_z
Si Si1 0.204533 0.684756 0.684408
Si Si2 0.097646 0.769128 0.815726
Si Si3 0.610079 0.271586 0.815911
Si Si4 0.885921 0.592292 0.684668
Si Si5 0.391598 0.093078 0.815955
Si Si6 0.615480 0.999537 0.678556
Si Si7 0.786535 0.681262 0.685476
O O1 0.204514 0.687656 0.500000
O O2 0.133827 0.722148 0.750695
O O3 0.308842 0.696312 0.749104
O O4 0.167490 0.636297 0.729715
O O5 0.179932 0.804201 0.769467
O O6 0.994348 0.780140 0.749851
O O7 0.095032 0.767017 0.000000
O O8 0.643902 0.221828 0.771430
O O9 0.609988 0.274092 0.000000
O O10 0.884134 0.591612 0.500000
O O11 0.850842 0.544846 0.743860
O O12 0.824812 0.634151 0.740249
O O13 0.997096 0.598365 0.731393
O O14 0.353212 0.046803 0.751221
O O15 0.390869 0.090439 0.000000
O O16 0.637862 0.000255 0.500000
O O17 0.500000 0.000000 0.696813
O O18 0.787609 0.679750 0.500000
#
# Coordination Sequence:
#
# PCOD9441622 Si02
#       7
#     8   8   8   8   8   8   8
#     4  10  19  31  47  68  91 117 152 188 223 264
#     4  10  19  31  46  66  92 121 152 185 223 264
#     4  10  19  32  47  65  91 121 153 187 223 262
#     4   9  15  27  45  62  84 116 149 178 212 257
#     4   9  17  28  44  64  87 118 151 179 213 264
#     4   9  17  27  39  60  89 115 141 178 220 259
#     4   8  16  29  45  64  86 115 150 183 215 258
#
# _framework density 15.129039000000001
#
# number of rings (size 3 to 8) (size 9 to 14) (size 15 to 20)
#    0.000    2.714    0.000    3.429    0.000    5.143 
#    0.000    7.143    0.000    0.000    0.000    1.000 
#    0.000    8.000    0.000    0.000    0.000    0.000 
#
# Total GULP energy -312047.720889 kJ/mol
# GULP energy per Si atom -5572.280730 kJ/mol
# Density = 1.509460 g / cm^3
# Si number density = 15.129039 Si / 1000 Ang^3
#
#
#
# Elastic Constant Matrix: (Units=GPa)
#
#
# Indices 1 2 3 4 5 6 
#
# 1 89.2843 66.5610 25.9049 0.0000 0.0000 0.0000
# 2 66.5610 159.9676 39.1551 0.0000 0.0000 0.0000
# 3 25.9049 39.1551 33.5738 0.0000 0.0000 0.0000
# 4 0.0000 0.0000 0.0000 23.2143 0.0000 0.0000
# 5 0.0000 0.0000 0.0000 0.0000 20.9353 0.0000
# 6 0.0000 0.0000 0.0000 0.0000 0.0000 22.6357
#
#
#
# Elastic Compliance Matrix: (Units=1/GPa)
#
#
# Indices 1 2 3 4 5 6 
#
# 1 0.017320 -0.005508 -0.006940 0.000000 0.000000 0.000000
# 2 -0.005508 0.010500 -0.007996 0.000000 0.000000 0.000000
# 3 -0.006940 -0.007996 0.044465 0.000000 0.000000 0.000000
# 4 0.000000 0.000000 0.000000 0.043077 0.000000 0.000000
# 5 0.000000 0.000000 0.000000 0.000000 0.047766 0.000000
# 6 0.000000 0.000000 0.000000 0.000000 0.000000 0.044178
#
#
# Mechanical properties :
#
#
# Convention : Reuss Voigt Hill
#
# Bulk Modulus (GPa) = 31.84985 60.67418 46.26202
# Shear Modulus (GPa) = 19.33036 23.43737 21.38386
#
# Velocity S-wave (km/s) = 3.57837 3.94021 3.76364
# Velocity P-wave (km/s) = 6.17825 7.80333 7.03785
#
# Compressibility (1/GPa) = 0.03139732
#
# Stress axis : x y z
#
# Youngs Moduli (GPa) = 57.73700 95.23604 22.48945
#
# Poissons Ratio (x) = 0.52455 0.15608
# Poissons Ratio (y) = 0.31801 0.17983
# Poissons Ratio (z) = 0.40070 0.76151
#
# Static dielectric constant tensor:
#      x y z
#    x 1.487170 0.000000 0.000000 
#    y 0.000000 1.502200 0.000000 
#    z 0.000000 0.000000 1.509340 
# 
# From -- ./inp_files/7127.got.cif
#   From: 2010.05.17/outbox.cif.g08.bks.cpg/sg58_4_cif.got.tgz:7127.got - 2010.06.03 14:20:14.
