data_PCOD9441943
_publ_section_title
;
Structure prediction by ZEFSAII (Michael W. Deem and Ramdas Pophale) SiO2 
 PCOD9441943
Probable space group: P N N M
;
_chemical_formula_sum "Si O2"
_cell_formula_units_Z 48
_cell_length_a 9.608214
_cell_length_b 23.994305
_cell_length_c 9.851619
_cell_angle_alpha 90.000000
_cell_angle_beta 90.000000
_cell_angle_gamma 90.000000
_cell_volume 2271.216058
_symmetry_space_group_name_H-M "P N N M"
_symmetry_group_IT_number 58
_symmetry_cell_setting 'orthorhombic'
loop_
_space_group_symop_operation_xyz
x,y,z
-x,-y,z
1/2+x,1/2-y,1/2-z
1/2-x,1/2+y,1/2-z
-x,-y,-z
x,y,-z
1/2-x,1/2+y,1/2+z
1/2+x,1/2-y,1/2+z
loop_
_atom_site_type_symbol
_atom_site_label
_atom_site_fract_x
_atom_site_fract_y
_atom_site_fract_z
Si Si1 0.043548 0.252906 0.726238
Si Si2 0.596165 0.925041 0.342005
Si Si3 0.402368 0.358643 0.846501
Si Si4 0.798742 0.299169 0.144708
Si Si5 0.864303 0.623920 0.342992
Si Si6 0.388326 0.544795 0.836152
O O1 0.954532 0.204772 0.654133
O O2 0.945111 0.268133 0.850881
O O3 0.069499 0.313300 0.659089
O O4 0.193023 0.225460 0.753715
O O5 0.558019 0.938149 0.500000
O O6 0.666311 0.863639 0.345878
O O7 0.466611 0.917213 0.241569
O O8 0.727991 0.961351 0.291284
O O9 0.536213 0.396370 0.809949
O O10 0.278838 0.369775 0.741033
O O11 0.357525 0.374140 0.000000
O O12 0.728198 0.288041 0.000000
O O13 0.845686 0.607572 0.500000
O O14 0.500000 0.500000 0.785401
O O15 0.379069 0.539670 0.000000
#
# Coordination Sequence:
#
# PCOD9441943 Si02
#       6
#     8   8   8   8   8   8
#     4  11  20  33  51  77 112 148 180 217 264 319
#     4   9  18  35  58  81 108 141 179 224 272 320
#     4  11  21  35  57  82 110 143 182 226 275 323
#     4  10  19  33  49  74 110 144 178 217 262 316
#     4  11  23  37  53  79 116 152 185 218 262 325
#     4   9  18  35  62  90 109 132 177 236 285 323
#
# _framework density 21.134052000000001
#
# number of rings (size 3 to 8) (size 9 to 14) (size 15 to 20)
#    0.000    1.833    3.333    2.000    0.000    0.667 
#    0.000    2.500    0.000    7.000    0.000    0.000 
#    0.000    0.000    0.000    0.000    0.000    0.000 
#
# Total GULP energy -267416.192698 kJ/mol
# GULP energy per Si atom -5571.170681 kJ/mol
# Density = 2.108595 g / cm^3
# Si number density = 21.134052 Si / 1000 Ang^3
#
#
#
# Elastic Constant Matrix: (Units=GPa)
#
#
# Indices 1 2 3 4 5 6 
#
# 1 123.9200 15.6360 64.1150 0.0000 0.0000 0.0000
# 2 15.6360 45.0457 6.0611 0.0000 0.0000 0.0000
# 3 64.1150 6.0611 93.5769 0.0000 0.0000 0.0000
# 4 0.0000 0.0000 0.0000 2.0199 0.0000 0.0000
# 5 0.0000 0.0000 0.0000 0.0000 80.0404 0.0000
# 6 0.0000 0.0000 0.0000 0.0000 0.0000 38.7152
#
#
#
# Elastic Compliance Matrix: (Units=1/GPa)
#
#
# Indices 1 2 3 4 5 6 
#
# 1 0.012981 -0.003338 -0.008678 0.000000 0.000000 0.000000
# 2 -0.003338 0.023253 0.000781 0.000000 0.000000 0.000000
# 3 -0.008678 0.000781 0.016581 0.000000 0.000000 0.000000
# 4 0.000000 0.000000 0.000000 0.495076 0.000000 0.000000
# 5 0.000000 0.000000 0.000000 0.000000 0.012494 0.000000
# 6 0.000000 0.000000 0.000000 0.000000 0.000000 0.025830
#
#
# Mechanical properties :
#
#
# Convention : Reuss Voigt Hill
#
# Bulk Modulus (GPa) = 32.95342 48.24075 40.59709
# Shear Modulus (GPa) = 8.08017 35.93714 22.00866
#
# Velocity S-wave (km/s) = 1.95745 4.12811 3.23055
# Velocity P-wave (km/s) = 4.55359 6.75258 5.75902
#
# Compressibility (1/GPa) = 0.03034586
#
# Stress axis : x y z
#
# Youngs Moduli (GPa) = 77.03806 43.00460 60.30886
#
# Poissons Ratio (x) = 0.14356 0.52333
# Poissons Ratio (y) = 0.25716 -0.04710
# Poissons Ratio (z) = 0.66850 -0.03359
#
# Static dielectric constant tensor:
#      x y z
#    x 1.787100 0.000000 0.000000 
#    y 0.000000 1.827690 0.000000 
#    z 0.000000 0.000000 1.722350 
# 
# From -- ./inp_files/13054.got.cif
#   From: 2010.05.17/outbox.cif.g08.bks.cpg/sg58_7_cif.got.tgz:13054.got - 2010.06.03 14:20:14.
