data_PCOD9441644
_publ_section_title
;
Structure prediction by ZEFSAII (Michael W. Deem and Ramdas Pophale) SiO2 
 PCOD9441644
Probable space group: P N N M
;
_chemical_formula_sum "Si O2"
_cell_formula_units_Z 48
_cell_length_a 10.045398
_cell_length_b 22.400336
_cell_length_c 13.803378
_cell_angle_alpha 90.000000
_cell_angle_beta 90.000000
_cell_angle_gamma 90.000000
_cell_volume 3106.040127
_symmetry_space_group_name_H-M "P N N M"
_symmetry_group_IT_number 58
_symmetry_cell_setting 'orthorhombic'
loop_
_space_group_symop_operation_xyz
x,y,z
-x,-y,z
1/2+x,1/2-y,1/2-z
1/2-x,1/2+y,1/2-z
-x,-y,-z
x,y,-z
1/2-x,1/2+y,1/2+z
1/2+x,1/2-y,1/2+z
loop_
_atom_site_type_symbol
_atom_site_label
_atom_site_fract_x
_atom_site_fract_y
_atom_site_fract_z
Si Si1 0.108961 0.947681 0.387094
Si Si2 0.355001 0.028072 0.385413
Si Si3 0.810790 0.271727 0.390077
Si Si4 0.496266 0.744185 0.388843
Si Si5 0.002713 0.827284 0.303087
Si Si6 0.191234 0.657631 0.197294
O O1 0.118197 0.928603 0.500000
O O2 0.064407 0.891538 0.324770
O O3 0.246937 0.978253 0.357849
O O4 0.000000 0.000000 0.381531
O O5 0.332667 0.041880 0.500000
O O6 0.336933 0.089000 0.326663
O O7 0.500000 0.000000 0.374680
O O8 0.823843 0.293257 0.500000
O O9 0.662385 0.243381 0.380139
O O10 0.823684 0.323231 0.309629
O O11 0.919791 0.221812 0.366093
O O12 0.521558 0.726448 0.500000
O O13 0.521602 0.693534 0.308213
O O14 0.588823 0.800225 0.361261
O O15 0.845694 0.828824 0.327289
#
# Coordination Sequence:
#
# PCOD9441644 Si02
#       6
#     8   8   8   8   8   8
#     4  10  19  31  48  71  96 123 157 197 237 280
#     4  10  21  33  48  71  97 127 160 196 240 288
#     4   9  19  33  51  74  97 126 161 199 240 282
#     4   9  19  33  50  72  99 128 159 198 240 284
#     4  10  19  32  51  73  98 127 161 198 240 286
#     4  10  19  33  51  72  99 129 159 196 241 287
#
# _framework density 15.453761
#
# number of rings (size 3 to 8) (size 9 to 14) (size 15 to 20)
#    0.000    2.333    1.667    1.000    2.333    2.000 
#    0.000    0.000    0.000    2.000    0.000    0.000 
#    0.000    0.000    0.000    0.000    0.000    0.000 
#
# Total GULP energy -267548.093508 kJ/mol
# GULP energy per Si atom -5573.918615 kJ/mol
# Density = 1.541859 g / cm^3
# Si number density = 15.453761 Si / 1000 Ang^3
#
#
#
# Elastic Constant Matrix: (Units=GPa)
#
#
# Indices 1 2 3 4 5 6 
#
# 1 76.1119 36.6478 39.3896 0.0000 0.0000 0.0000
# 2 36.6478 80.7259 43.3772 0.0000 0.0000 0.0000
# 3 39.3896 43.3772 85.0179 0.0000 0.0000 0.0000
# 4 0.0000 0.0000 0.0000 11.7837 0.0000 0.0000
# 5 0.0000 0.0000 0.0000 0.0000 19.5841 0.0000
# 6 0.0000 0.0000 0.0000 0.0000 0.0000 22.9394
#
#
#
# Elastic Compliance Matrix: (Units=1/GPa)
#
#
# Indices 1 2 3 4 5 6 
#
# 1 0.018801 -0.005311 -0.006001 0.000000 0.000000 0.000000
# 2 -0.005311 0.018567 -0.007012 0.000000 0.000000 0.000000
# 3 -0.006001 -0.007012 0.018120 0.000000 0.000000 0.000000
# 4 0.000000 0.000000 0.000000 0.084863 0.000000 0.000000
# 5 0.000000 0.000000 0.000000 0.000000 0.051062 0.000000
# 6 0.000000 0.000000 0.000000 0.000000 0.000000 0.043593
#
#
# Mechanical properties :
#
#
# Convention : Reuss Voigt Hill
#
# Bulk Modulus (GPa) = 53.07936 53.40943 53.24439
# Shear Modulus (GPa) = 17.98983 19.02420 18.50701
#
# Velocity S-wave (km/s) = 3.41560 3.51242 3.46435
# Velocity P-wave (km/s) = 7.06943 7.14740 7.10852
#
# Compressibility (1/GPa) = 0.01883972
#
# Stress axis : x y z
#
# Youngs Moduli (GPa) = 53.18738 53.86018 55.18616
#
# Poissons Ratio (x) = 0.28604 0.33119
# Poissons Ratio (y) = 0.28246 0.38699
# Poissons Ratio (z) = 0.31919 0.37769
#
# Static dielectric constant tensor:
#      x y z
#    x 1.543780 0.000000 0.000000 
#    y 0.000000 1.475730 0.000000 
#    z 0.000000 0.000000 1.514210 
# 
# From -- ./inp_files/19976.got.cif
#   From: 2010.05.17/outbox.cif.g08.bks.cpg/sg58_10_cif.got.tgz:19976.got - 2010.06.03 14:20:14.
