data_PCOD9441803
_publ_section_title
;
Structure prediction by ZEFSAII (Michael W. Deem and Ramdas Pophale) SiO2 
 PCOD9441803
Probable space group: P N N M
;
_chemical_formula_sum "Si O2"
_cell_formula_units_Z 48
_cell_length_a 5.146182
_cell_length_b 22.020031
_cell_length_c 23.058743
_cell_angle_alpha 90.000000
_cell_angle_beta 90.000000
_cell_angle_gamma 90.000000
_cell_volume 2612.995708
_symmetry_space_group_name_H-M "P N N M"
_symmetry_group_IT_number 58
_symmetry_cell_setting 'orthorhombic'
loop_
_space_group_symop_operation_xyz
x,y,z
-x,-y,z
1/2+x,1/2-y,1/2-z
1/2-x,1/2+y,1/2-z
-x,-y,-z
x,y,-z
1/2-x,1/2+y,1/2+z
1/2+x,1/2-y,1/2+z
loop_
_atom_site_type_symbol
_atom_site_label
_atom_site_fract_x
_atom_site_fract_y
_atom_site_fract_z
Si Si1 0.600815 0.432238 0.065282
Si Si2 0.774063 0.669236 0.067137
Si Si3 0.171845 0.167113 0.748065
Si Si4 0.172819 0.295543 0.314908
Si Si5 0.238902 0.541330 0.182641
Si Si6 0.238950 0.248880 0.432446
O O1 0.500000 0.500000 0.058140
O O2 0.372278 0.389807 0.091041
O O3 0.810807 0.437319 0.115808
O O4 0.675718 0.410784 0.000000
O O5 0.547006 0.719548 0.070108
O O6 0.042430 0.699340 0.086074
O O7 0.815777 0.653467 0.000000
O O8 0.185422 0.224042 0.703400
O O9 0.390952 0.181140 0.796192
O O10 0.223903 0.102669 0.718795
O O11 0.889226 0.170802 0.776931
O O12 0.237383 0.299525 0.382879
O O13 0.500000 0.500000 0.183887
O O14 0.000000 0.500000 0.202339
O O15 0.291608 0.265323 0.500000
#
# Coordination Sequence:
#
# PCOD9441803 Si02
#       6
#     8   8   8   8   8   8
#     4   9  19  33  48  69  97 134 179 220 256 288
#     4   9  18  30  45  67  99 134 164 201 245 295
#     4  10  21  36  52  75 103 136 178 209 252 306
#     4  10  20  34  55  76 103 137 166 213 257 304
#     4  11  23  37  54  74 102 138 177 224 261 298
#     4  10  19  32  51  76 102 128 162 202 256 313
#
# _framework density 18.369720000000001
#
# number of rings (size 3 to 8) (size 9 to 14) (size 15 to 20)
#    0.000    2.167    0.000    3.000    0.000    8.333 
#    0.000    5.000    0.000    0.000    0.000    0.000 
#    0.000   13.333    0.000    0.000    0.000    0.000 
#
# Total GULP energy -267764.940603 kJ/mol
# GULP energy per Si atom -5578.436263 kJ/mol
# Density = 1.832791 g / cm^3
# Si number density = 18.369720 Si / 1000 Ang^3
#
#
#
# Elastic Constant Matrix: (Units=GPa)
#
#
# Indices 1 2 3 4 5 6 
#
# 1 72.6388 5.8763 -9.5267 0.0000 0.0000 0.0000
# 2 5.8763 60.6104 18.0861 0.0000 0.0000 0.0000
# 3 -9.5267 18.0861 56.0754 0.0000 0.0000 0.0000
# 4 0.0000 0.0000 0.0000 22.2182 0.0000 0.0000
# 5 0.0000 0.0000 0.0000 0.0000 17.4458 0.0000
# 6 0.0000 0.0000 0.0000 0.0000 0.0000 18.7012
#
#
#
# Elastic Compliance Matrix: (Units=1/GPa)
#
#
# Indices 1 2 3 4 5 6 
#
# 1 0.014376 -0.002349 0.003200 0.000000 0.000000 0.000000
# 2 -0.002349 0.018640 -0.006411 0.000000 0.000000 0.000000
# 3 0.003200 -0.006411 0.020444 0.000000 0.000000 0.000000
# 4 0.000000 0.000000 0.000000 0.045008 0.000000 0.000000
# 5 0.000000 0.000000 0.000000 0.000000 0.057320 0.000000
# 6 0.000000 0.000000 0.000000 0.000000 0.000000 0.053473
#
#
# Mechanical properties :
#
#
# Convention : Reuss Voigt Hill
#
# Bulk Modulus (GPa) = 23.61763 24.24399 23.93081
# Shear Modulus (GPa) = 21.32246 23.33229 22.32738
#
# Velocity S-wave (km/s) = 3.41066 3.56778 3.49010
# Velocity P-wave (km/s) = 5.32868 5.49532 5.41264
#
# Compressibility (1/GPa) = 0.04234125
#
# Stress axis : x y z
#
# Youngs Moduli (GPa) = 69.55829 53.64944 48.91293
#
# Poissons Ratio (x) = 0.12601 -0.15652
# Poissons Ratio (y) = 0.16337 0.31357
# Poissons Ratio (z) = -0.22258 0.34394
#
# Static dielectric constant tensor:
#      x y z
#    x 1.687320 0.000000 0.000000 
#    y 0.000000 1.640090 0.000000 
#    z 0.000000 0.000000 1.678670 
# 
# From -- ./inp_files/28133.got.cif
#   From: 2010.05.17/outbox.cif.g08.bks.cpg/sg58_15_cif.got.tgz:28133.got - 2010.06.03 14:20:14.
