data_PCOD9441683
_publ_section_title
;
Structure prediction by ZEFSAII (Michael W. Deem and Ramdas Pophale) SiO2 
 PCOD9441683
Probable space group: P N N M
;
_chemical_formula_sum "Si O2"
_cell_formula_units_Z 48
_cell_length_a 32.631717
_cell_length_b 9.730463
_cell_length_c 8.733349
_cell_angle_alpha 90.000000
_cell_angle_beta 90.000000
_cell_angle_gamma 90.000000
_cell_volume 2773.027951
_symmetry_space_group_name_H-M "P N N M"
_symmetry_group_IT_number 58
_symmetry_cell_setting 'orthorhombic'
loop_
_space_group_symop_operation_xyz
x,y,z
-x,-y,z
1/2+x,1/2-y,1/2-z
1/2-x,1/2+y,1/2-z
-x,-y,-z
x,y,-z
1/2-x,1/2+y,1/2+z
1/2+x,1/2-y,1/2+z
loop_
_atom_site_type_symbol
_atom_site_label
_atom_site_fract_x
_atom_site_fract_y
_atom_site_fract_z
Si Si1 0.037531 0.902912 0.813835
Si Si2 0.873602 0.085865 0.176504
Si Si3 0.123670 0.579559 0.176276
Si Si4 0.037605 0.597401 0.316725
Si Si5 0.285032 0.386012 0.313855
Si Si6 0.290020 0.080869 0.816607
O O1 0.712948 0.621590 0.500000
O O2 0.082272 0.955971 0.757532
O O3 0.031739 0.749101 0.752657
O O4 0.000000 0.000000 0.769392
O O5 0.874941 0.252921 0.177911
O O6 0.828848 0.052298 0.242203
O O7 0.960760 0.103135 0.000000
O O8 0.081342 0.541539 0.257843
O O9 0.165545 0.533647 0.256151
O O10 0.123049 0.535890 0.000000
O O11 0.038829 0.607345 0.500000
O O12 0.000000 0.500000 0.271340
O O13 0.373255 0.461179 0.500000
O O14 0.281617 0.232187 0.250376
O O15 0.246440 0.478567 0.270796
O O16 0.291265 0.089038 0.000000
#
# Coordination Sequence:
#
# PCOD9441683 Si02
#       6
#     8   8   8   8   8   8
#     4   9  17  30  50  74  98 128 166 204 242 287
#     4   7  12  26  46  65  88 121 159 195 231 276
#     4   9  17  31  51  71  94 127 165 202 242 293
#     4  10  20  33  50  73 101 131 163 201 243 288
#     4   9  18  32  49  70  98 131 166 205 245 289
#     4  10  19  31  50  74  99 129 165 204 247 293
#
# _framework density 17.309598999999999
#
# number of rings (size 3 to 8) (size 9 to 14) (size 15 to 20)
#    0.000    3.000    0.000    3.500    0.000    3.000 
#    0.000    1.667    0.000    2.000    0.000    0.000 
#    0.000    0.000    0.000    0.000    0.000    0.000 
#
# Total GULP energy -267240.436921 kJ/mol
# GULP energy per Si atom -5567.509103 kJ/mol
# Density = 1.727020 g / cm^3
# Si number density = 17.309599 Si / 1000 Ang^3
#
#
#
# Elastic Constant Matrix: (Units=GPa)
#
#
# Indices 1 2 3 4 5 6 
#
# 1 221.3015 72.8105 43.2370 0.0000 0.0000 0.0000
# 2 72.8105 46.0593 17.6353 0.0000 0.0000 0.0000
# 3 43.2370 17.6353 27.8955 0.0000 0.0000 0.0000
# 4 0.0000 0.0000 0.0000 19.5091 0.0000 0.0000
# 5 0.0000 0.0000 0.0000 0.0000 19.4738 0.0000
# 6 0.0000 0.0000 0.0000 0.0000 0.0000 32.5298
#
#
#
# Elastic Compliance Matrix: (Units=1/GPa)
#
#
# Indices 1 2 3 4 5 6 
#
# 1 0.010521 -0.013706 -0.007643 0.000000 0.000000 0.000000
# 2 -0.013706 0.046499 -0.008153 0.000000 0.000000 0.000000
# 3 -0.007643 -0.008153 0.052848 0.000000 0.000000 0.000000
# 4 0.000000 0.000000 0.000000 0.051258 0.000000 0.000000
# 5 0.000000 0.000000 0.000000 0.000000 0.051351 0.000000
# 6 0.000000 0.000000 0.000000 0.000000 0.000000 0.030741
#
#
# Mechanical properties :
#
#
# Convention : Reuss Voigt Hill
#
# Bulk Modulus (GPa) = 19.65963 62.51356 41.08660
# Shear Modulus (GPa) = 15.66531 25.07410 20.36971
#
# Velocity S-wave (km/s) = 3.01160 3.81013 3.43415
# Velocity P-wave (km/s) = 4.84513 7.45315 6.28589
#
# Compressibility (1/GPa) = 0.05086565
#
# Stress axis : x y z
#
# Youngs Moduli (GPa) = 95.04515 21.50601 18.92204
#
# Poissons Ratio (x) = 0.29476 0.14462
# Poissons Ratio (y) = 1.30266 0.15426
# Poissons Ratio (z) = 0.72643 0.17533
#
# Static dielectric constant tensor:
#      x y z
#    x 1.637890 0.000000 0.000000 
#    y 0.000000 1.551300 0.000000 
#    z 0.000000 0.000000 1.586100 
# 
# From -- ./inp_files/4315.got.cif
#   From: 2010.05.17/outbox.cif.g08.bks.cpg/sg58_3_cif.got.tgz:4315.got - 2010.06.03 14:20:14.
