data_PCOD9441557
_publ_section_title
;
Structure prediction by ZEFSAII (Michael W. Deem and Ramdas Pophale) SiO2 
 PCOD9441557
Probable space group: P N N M
;
_chemical_formula_sum "Si O2"
_cell_formula_units_Z 48
_cell_length_a 16.956483
_cell_length_b 18.828320
_cell_length_c 7.439046
_cell_angle_alpha 90.000000
_cell_angle_beta 90.000000
_cell_angle_gamma 90.000000
_cell_volume 2375.005359
_symmetry_space_group_name_H-M "P N N M"
_symmetry_group_IT_number 58
_symmetry_cell_setting 'orthorhombic'
loop_
_space_group_symop_operation_xyz
x,y,z
-x,-y,z
1/2+x,1/2-y,1/2-z
1/2-x,1/2+y,1/2-z
-x,-y,-z
x,y,-z
1/2-x,1/2+y,1/2+z
1/2+x,1/2-y,1/2+z
loop_
_atom_site_type_symbol
_atom_site_label
_atom_site_fract_x
_atom_site_fract_y
_atom_site_fract_z
Si Si1 0.494636 0.921121 0.291079
Si Si2 0.754673 0.054732 0.216625
Si Si3 0.641900 0.178264 0.710878
Si Si4 0.669395 0.911703 0.783127
Si Si5 0.412970 0.521519 0.719317
Si Si6 0.327486 0.664342 0.280408
O O1 0.472023 0.930838 0.500000
O O2 0.429428 0.868888 0.211126
O O3 0.583092 0.891775 0.282327
O O4 0.500000 0.000000 0.209005
O O5 0.719943 0.129895 0.274618
O O6 0.695615 0.991154 0.275098
O O7 0.842310 0.031615 0.275260
O O8 0.754910 0.054192 0.000000
O O9 0.624501 0.188388 0.500000
O O10 0.651693 0.257284 0.785154
O O11 0.739814 0.859966 0.726087
O O12 0.667315 0.912126 0.000000
O O13 0.500000 0.500000 0.780111
O O14 0.413533 0.520580 0.500000
O O15 0.386260 0.600792 0.773351
O O16 0.327380 0.664744 0.500000
#
# Coordination Sequence:
#
# PCOD9441557 Si02
#       6
#     8   8   8   8   8   8
#     4  10  19  30  46  72 100 124 156 190 229 285
#     4   9  17  29  48  73  94 117 156 198 234 275
#     4  10  19  32  48  67  98 132 155 187 236 288
#     4   9  17  31  50  68  90 124 161 193 227 276
#     4   8  14  28  50  72  92 117 157 204 237 268
#     4   8  16  31  48  66  91 126 161 189 232 285
#
# _framework density 20.210478999999999
#
# number of rings (size 3 to 8) (size 9 to 14) (size 15 to 20)
#    0.000    3.000    1.667    2.000    0.000    1.000 
#    3.000    0.833    0.000    1.500    0.000    0.000 
#    0.000    0.000    0.000    0.000    0.000    0.000 
#
# Total GULP energy -267728.364641 kJ/mol
# GULP energy per Si atom -5577.674263 kJ/mol
# Density = 2.016448 g / cm^3
# Si number density = 20.210479 Si / 1000 Ang^3
#
#
#
# Elastic Constant Matrix: (Units=GPa)
#
#
# Indices 1 2 3 4 5 6 
#
# 1 159.2767 97.5634 -4.9612 0.0000 0.0000 0.0000
# 2 97.5634 171.4044 0.9716 0.0000 0.0000 0.0000
# 3 -4.9612 0.9716 60.4388 0.0000 0.0000 0.0000
# 4 0.0000 0.0000 0.0000 5.3988 0.0000 0.0000
# 5 0.0000 0.0000 0.0000 0.0000 23.6390 0.0000
# 6 0.0000 0.0000 0.0000 0.0000 0.0000 24.3043
#
#
#
# Elastic Compliance Matrix: (Units=1/GPa)
#
#
# Indices 1 2 3 4 5 6 
#
# 1 0.009686 -0.005518 0.000884 0.000000 0.000000 0.000000
# 2 -0.005518 0.008979 -0.000597 0.000000 0.000000 0.000000
# 3 0.000884 -0.000597 0.016628 0.000000 0.000000 0.000000
# 4 0.000000 0.000000 0.000000 0.185226 0.000000 0.000000
# 5 0.000000 0.000000 0.000000 0.000000 0.042303 0.000000
# 6 0.000000 0.000000 0.000000 0.000000 0.000000 0.041145
#
#
# Mechanical properties :
#
#
# Convention : Reuss Voigt Hill
#
# Bulk Modulus (GPa) = 40.27580 64.25193 52.26386
# Shear Modulus (GPa) = 15.49393 30.50481 22.99937
#
# Velocity S-wave (km/s) = 2.77181 3.88926 3.37707
# Velocity P-wave (km/s) = 5.49685 7.21310 6.41265
#
# Compressibility (1/GPa) = 0.02482881
#
# Stress axis : x y z
#
# Youngs Moduli (GPa) = 103.24042 111.37605 60.14022
#
# Poissons Ratio (x) = 0.61461 -0.05315
# Poissons Ratio (y) = 0.56972 0.03592
# Poissons Ratio (z) = -0.09125 0.06653
#
# Static dielectric constant tensor:
#      x y z
#    x 1.708910 0.000000 0.000000 
#    y 0.000000 1.710090 0.000000 
#    z 0.000000 0.000000 1.768260 
# 
# From -- ./inp_files/6035.got.cif
#   From: 2010.05.17/outbox.cif.g08.bks.cpg/sg58_4_cif.got.tgz:6035.got - 2010.06.03 14:20:14.
