data_PCOD9441584
_publ_section_title
;
Structure prediction by ZEFSAII (Michael W. Deem and Ramdas Pophale) SiO2 
 PCOD9441584
Probable space group: P N N M
;
_chemical_formula_sum "Si O2"
_cell_formula_units_Z 40
_cell_length_a 36.501343
_cell_length_b 5.284618
_cell_length_c 12.483164
_cell_angle_alpha 90.000000
_cell_angle_beta 90.000000
_cell_angle_gamma 90.000000
_cell_volume 2407.948087
_symmetry_space_group_name_H-M "P N N M"
_symmetry_group_IT_number 58
_symmetry_cell_setting 'orthorhombic'
loop_
_space_group_symop_operation_xyz
x,y,z
-x,-y,z
1/2+x,1/2-y,1/2-z
1/2-x,1/2+y,1/2-z
-x,-y,-z
x,y,-z
1/2-x,1/2+y,1/2+z
1/2+x,1/2-y,1/2+z
loop_
_atom_site_type_symbol
_atom_site_label
_atom_site_fract_x
_atom_site_fract_y
_atom_site_fract_z
Si Si1 0.288876 0.323390 0.620913
Si Si2 0.830277 0.971344 0.309637
Si Si3 0.414252 0.474419 0.129701
Si Si4 0.211247 0.537375 0.670795
Si Si5 0.542040 0.025404 0.869644
O O1 0.298449 0.258404 0.500000
O O2 0.319183 0.485284 0.685139
O O3 0.250704 0.475677 0.623750
O O4 0.283133 0.085421 0.701088
O O5 0.873066 0.999792 0.328711
O O6 0.808001 0.202597 0.365166
O O7 0.814960 0.701712 0.346495
O O8 0.433681 0.214515 0.163534
O O9 0.438880 0.713503 0.163052
O O10 0.412501 0.474844 0.000000
O O11 0.500000 0.000000 0.833855
O O12 0.541318 0.024775 0.000000
#
# Coordination Sequence:
#
# PCOD9441584 Si02
#       5
#     8   8   8   8   8
#     4  10  21  37  55  70  99 135 171 217 261 292
#     4  10  20  35  48  72 103 127 169 212 247 303
#     4  10  19  30  48  72 104 137 161 203 251 290
#     4  10  20  37  48  74  96 127 176 215 243 305
#     4   9  17  30  48  71  99 135 170 194 235 302
#
# _framework density 16.611653
#
# number of rings (size 3 to 8) (size 9 to 14) (size 15 to 20)
#    1.200    1.000    2.000    1.800    0.000    4.800 
#    0.000    0.000    0.000    0.000    0.000    0.000 
#    0.000    4.800    0.000    0.000    0.000    0.000 
#
# Total GULP energy -222816.023233 kJ/mol
# GULP energy per Si atom -5570.400581 kJ/mol
# Density = 1.657384 g / cm^3
# Si number density = 16.611653 Si / 1000 Ang^3
#
#
#
# Elastic Constant Matrix: (Units=GPa)
#
#
# Indices 1 2 3 4 5 6 
#
# 1 74.4864 2.6854 3.1265 0.0000 0.0000 0.0000
# 2 2.6854 82.0161 1.7742 0.0000 0.0000 0.0000
# 3 3.1265 1.7742 43.4990 0.0000 0.0000 0.0000
# 4 0.0000 0.0000 0.0000 38.8436 0.0000 0.0000
# 5 0.0000 0.0000 0.0000 0.0000 -48.4427 0.0000
# 6 0.0000 0.0000 0.0000 0.0000 0.0000 29.5435
#
#
#
# Elastic Compliance Matrix: (Units=1/GPa)
#
#
# Indices 1 2 3 4 5 6 
#
# 1 0.013480 -0.000421 -0.000952 0.000000 0.000000 0.000000
# 2 -0.000421 0.012217 -0.000468 0.000000 0.000000 0.000000
# 3 -0.000952 -0.000468 0.023077 0.000000 0.000000 0.000000
# 4 0.000000 0.000000 0.000000 0.025744 0.000000 0.000000
# 5 0.000000 0.000000 0.000000 0.000000 -0.020643 0.000000
# 6 0.000000 0.000000 0.000000 0.000000 0.000000 0.033848
#
#
# Mechanical properties :
#
#
# Convention : Reuss Voigt Hill
#
# Bulk Modulus (GPa) = 22.17668 23.90819 23.04243
# Shear Modulus (GPa) = 46.97693 16.81657 31.89675
#
# Velocity S-wave (km/s) = 5.32362 3.18517 4.38670
# Velocity P-wave (km/s) = 7.15311 5.28685 6.28958
#
# Compressibility (1/GPa) = 0.04509242
#
# Stress axis : x y z
#
# Youngs Moduli (GPa) = 74.18185 81.85559 43.33406
#
# Poissons Ratio (x) = 0.03444 0.04124
# Poissons Ratio (y) = 0.03122 0.02028
# Poissons Ratio (z) = 0.07060 0.03831
#
# Static dielectric constant tensor:
#      x y z
#    x 1.534320 0.000000 0.000000 
#    y 0.000000 1.588530 0.000000 
#    z 0.000000 0.000000 1.566870 
# 
# From -- ./inp_files/23713.got.cif
#   From: 2010.05.17/outbox.cif.g08.bks.cpg/sg58_12_cif.got.tgz:23713.got - 2010.06.03 14:20:14.
