data_PCOD9441561
_publ_section_title
;
Structure prediction by ZEFSAII (Michael W. Deem and Ramdas Pophale) SiO2 
 PCOD9441561
Probable space group: P N N M
;
_chemical_formula_sum "Si O2"
_cell_formula_units_Z 40
_cell_length_a 14.054311
_cell_length_b 8.246108
_cell_length_c 18.663591
_cell_angle_alpha 90.000000
_cell_angle_beta 90.000000
_cell_angle_gamma 90.000000
_cell_volume 2162.986390
_symmetry_space_group_name_H-M "P N N M"
_symmetry_group_IT_number 58
_symmetry_cell_setting 'orthorhombic'
loop_
_space_group_symop_operation_xyz
x,y,z
-x,-y,z
1/2+x,1/2-y,1/2-z
1/2-x,1/2+y,1/2-z
-x,-y,-z
x,y,-z
1/2-x,1/2+y,1/2+z
1/2+x,1/2-y,1/2+z
loop_
_atom_site_type_symbol
_atom_site_label
_atom_site_fract_x
_atom_site_fract_y
_atom_site_fract_z
Si Si1 0.881727 0.362759 0.217468
Si Si2 0.131136 0.063416 0.136660
Si Si3 0.045841 0.160231 0.292769
Si Si4 0.707207 0.124960 0.812650
Si Si5 0.024522 0.737819 0.081564
O O1 0.793838 0.238046 0.212622
O O2 0.842607 0.529105 0.248201
O O3 0.928080 0.378972 0.139396
O O4 0.962639 0.281976 0.267293
O O5 0.096823 0.094253 0.219066
O O6 0.085755 0.215933 0.095727
O O7 0.241702 0.013116 0.139197
O O8 0.080113 0.906165 0.101511
O O9 0.124300 0.255235 0.338965
O O10 0.000000 0.000000 0.326662
O O11 0.040113 0.692456 0.000000
#
# Coordination Sequence:
#
# PCOD9441561 Si02
#       5
#     8   8   8   8   8
#     4  10  19  30  46  75  98 143 165 214 261 302
#     4   9  15  27  45  68  93 135 167 203 249 304
#     4  11  17  30  44  67 100 128 166 207 260 308
#     4  11  18  29  47  69 102 131 174 209 258 315
#     4   9  16  29  50  72 104 138 175 206 252 317
#
# _framework density 18.492948999999999
#
# number of rings (size 3 to 8) (size 9 to 14) (size 15 to 20)
#    0.000    2.000    8.000    1.800    0.000    0.000 
#    0.000    0.000    0.000   10.800    0.000    0.000 
#    0.000  146.400    0.000    0.000    0.000    1.200 
#
# Total GULP energy -222717.191561 kJ/mol
# GULP energy per Si atom -5567.929789 kJ/mol
# Density = 1.845086 g / cm^3
# Si number density = 18.492949 Si / 1000 Ang^3
#
#
#
# Elastic Constant Matrix: (Units=GPa)
#
#
# Indices 1 2 3 4 5 6 
#
# 1 130.8796 46.6101 30.0412 0.0000 0.0000 0.0000
# 2 46.6101 75.5668 24.3803 0.0000 0.0000 0.0000
# 3 30.0412 24.3803 45.0170 0.0000 0.0000 0.0000
# 4 0.0000 0.0000 0.0000 2.5212 0.0000 0.0000
# 5 0.0000 0.0000 0.0000 0.0000 4.3920 0.0000
# 6 0.0000 0.0000 0.0000 0.0000 0.0000 56.3176
#
#
#
# Elastic Compliance Matrix: (Units=1/GPa)
#
#
# Indices 1 2 3 4 5 6 
#
# 1 0.010409 -0.005064 -0.004204 0.000000 0.000000 0.000000
# 2 -0.005064 0.018499 -0.006639 0.000000 0.000000 0.000000
# 3 -0.004204 -0.006639 0.028615 0.000000 0.000000 0.000000
# 4 0.000000 0.000000 0.000000 0.396632 0.000000 0.000000
# 5 0.000000 0.000000 0.000000 0.000000 0.227688 0.000000
# 6 0.000000 0.000000 0.000000 0.000000 0.000000 0.017756
#
#
# Mechanical properties :
#
#
# Convention : Reuss Voigt Hill
#
# Bulk Modulus (GPa) = 38.89730 50.39185 44.64457
# Shear Modulus (GPa) = 6.75692 22.67494 14.71593
#
# Velocity S-wave (km/s) = 1.91356 3.50543 2.82398
# Velocity P-wave (km/s) = 5.09525 6.61002 5.90144
#
# Compressibility (1/GPa) = 0.02570872
#
# Stress axis : x y z
#
# Youngs Moduli (GPa) = 96.07124 54.05717 34.94707
#
# Poissons Ratio (x) = 0.27375 0.14690
# Poissons Ratio (y) = 0.48651 0.23202
# Poissons Ratio (z) = 0.40384 0.35890
#
# Static dielectric constant tensor:
#      x y z
#    x 1.702810 0.000000 0.000000 
#    y 0.000000 1.730790 0.000000 
#    z 0.000000 0.000000 1.606290 
# 
# From -- ./inp_files/29858.got.cif
#   From: 2010.05.17/outbox.cif.g08.bks.cpg/sg58_15_cif.got.tgz:29858.got - 2010.06.03 14:20:14.
