data_PCOD9441121
_publ_section_title
;
Structure prediction by ZEFSAII (Michael W. Deem and Ramdas Pophale) SiO2 
 PCOD9441121
Probable space group: P N N M
;
_chemical_formula_sum "Si O2"
_cell_formula_units_Z 56
_cell_length_a 29.953310
_cell_length_b 14.132783
_cell_length_c 8.671799
_cell_angle_alpha 90.000000
_cell_angle_beta 90.000000
_cell_angle_gamma 90.000000
_cell_volume 3670.977434
_symmetry_space_group_name_H-M "P N N M"
_symmetry_group_IT_number 58
_symmetry_cell_setting 'orthorhombic'
loop_
_space_group_symop_operation_xyz
x,y,z
-x,-y,z
1/2+x,1/2-y,1/2-z
1/2-x,1/2+y,1/2-z
-x,-y,-z
x,y,-z
1/2-x,1/2+y,1/2+z
1/2+x,1/2-y,1/2+z
loop_
_atom_site_type_symbol
_atom_site_label
_atom_site_fract_x
_atom_site_fract_y
_atom_site_fract_z
Si Si1 0.730012 0.387333 0.185977
Si Si2 0.819312 0.709836 0.814694
Si Si3 0.904575 0.390450 0.185795
Si Si4 0.003182 0.385359 0.822323
Si Si5 0.729660 0.601678 0.186785
Si Si6 0.181672 0.710130 0.685785
Si Si7 0.403515 0.897116 0.182492
O O1 0.694501 0.311988 0.249550
O O2 0.721177 0.494906 0.238029
O O3 0.778178 0.354355 0.249121
O O4 0.730637 0.383798 0.000000
O O5 0.778698 0.639494 0.767244
O O6 0.865429 0.669556 0.751706
O O7 0.820170 0.713313 0.000000
O O8 0.954106 0.354825 0.233011
O O9 0.864962 0.326409 0.249405
O O10 0.898565 0.497656 0.246166
O O11 0.903808 0.393290 0.000000
O O12 0.000000 0.500000 0.822310
O O13 0.046889 0.361086 0.725858
O O14 0.009719 0.355680 0.000000
O O15 0.694517 0.682555 0.233141
O O16 0.729552 0.600119 0.000000
O O17 0.181931 0.704717 0.500000
O O18 0.398741 0.903691 0.000000
#
# Coordination Sequence:
#
# PCOD9441121 Si02
#       7
#     8   8   8   8   8   8   8
#     4  10  18  31  48  66  90 121 156 191 226 265
#     4  10  19  32  47  66  93 123 153 185 226 271
#     4  10  19  31  46  66  93 124 153 185 228 272
#     4   8  16  30  45  62  89 122 150 180 225 274
#     4   8  17  31  46  63  88 120 150 185 225 263
#     4  10  19  31  46  67  92 121 156 189 226 270
#     4  11  20  29  45  69  93 120 154 188 223 269
#
# _framework density 15.254792999999999
#
# number of rings (size 3 to 8) (size 9 to 14) (size 15 to 20)
#    0.000    2.429    0.000    5.571    0.000    4.286 
#    0.000    7.857    0.000    0.000    0.000    1.000 
#    0.000    8.000    0.000    0.000    0.000    0.000 
#
# Total GULP energy -312189.222701 kJ/mol
# GULP energy per Si atom -5574.807548 kJ/mol
# Density = 1.522007 g / cm^3
# Si number density = 15.254793 Si / 1000 Ang^3
#
#
#
# Elastic Constant Matrix: (Units=GPa)
#
#
# Indices 1 2 3 4 5 6 
#
# 1 141.9389 72.3049 47.5295 0.0000 0.0000 0.0000
# 2 72.3049 109.1708 34.9914 0.0000 0.0000 0.0000
# 3 47.5295 34.9914 68.3966 0.0000 0.0000 0.0000
# 4 0.0000 0.0000 0.0000 19.7629 0.0000 0.0000
# 5 0.0000 0.0000 0.0000 0.0000 23.6601 0.0000
# 6 0.0000 0.0000 0.0000 0.0000 0.0000 23.8523
#
#
#
# Elastic Compliance Matrix: (Units=1/GPa)
#
#
# Indices 1 2 3 4 5 6 
#
# 1 0.011951 -0.006284 -0.005090 0.000000 0.000000 0.000000
# 2 -0.006284 0.014260 -0.002929 0.000000 0.000000 0.000000
# 3 -0.005090 -0.002929 0.019656 0.000000 0.000000 0.000000
# 4 0.000000 0.000000 0.000000 0.050600 0.000000 0.000000
# 5 0.000000 0.000000 0.000000 0.000000 0.042265 0.000000
# 6 0.000000 0.000000 0.000000 0.000000 0.000000 0.041925
#
#
# Mechanical properties :
#
#
# Convention : Reuss Voigt Hill
#
# Bulk Modulus (GPa) = 57.93056 69.90644 63.91850
# Shear Modulus (GPa) = 23.25405 24.43376 23.84390
#
# Velocity S-wave (km/s) = 3.90856 4.00648 3.95782
# Velocity P-wave (km/s) = 7.64375 8.20536 7.92953
#
# Compressibility (1/GPa) = 0.01726205
#
# Stress axis : x y z
#
# Youngs Moduli (GPa) = 83.67780 70.12404 50.87456
#
# Poissons Ratio (x) = 0.44063 0.25895
# Poissons Ratio (y) = 0.52579 0.14902
# Poissons Ratio (z) = 0.42592 0.20540
#
# Static dielectric constant tensor:
#      x y z
#    x 1.509340 0.000000 0.000000 
#    y 0.000000 1.493450 0.000000 
#    z 0.000000 0.000000 1.512620 
# 
# From -- ./inp_files/7125.got.cif
#   From: 2010.05.17/outbox.cif.g08.bks.cpg/sg58_4_cif.got.tgz:7125.got - 2010.06.03 14:20:14.
