data_PCOD9441312
_publ_section_title
;
Structure prediction by ZEFSAII (Michael W. Deem and Ramdas Pophale) SiO2 
 PCOD9441312
Probable space group: P N N M
;
_chemical_formula_sum "Si O2"
_cell_formula_units_Z 40
_cell_length_a 13.219190
_cell_length_b 8.865763
_cell_length_c 16.293388
_cell_angle_alpha 90.000000
_cell_angle_beta 90.000000
_cell_angle_gamma 90.000000
_cell_volume 1909.555837
_symmetry_space_group_name_H-M "P N N M"
_symmetry_group_IT_number 58
_symmetry_cell_setting 'orthorhombic'
loop_
_space_group_symop_operation_xyz
x,y,z
-x,-y,z
1/2+x,1/2-y,1/2-z
1/2-x,1/2+y,1/2-z
-x,-y,-z
x,y,-z
1/2-x,1/2+y,1/2+z
1/2+x,1/2-y,1/2+z
loop_
_atom_site_type_symbol
_atom_site_label
_atom_site_fract_x
_atom_site_fract_y
_atom_site_fract_z
Si Si1 0.450860 0.148142 0.661906
Si Si2 0.394094 0.073885 0.849736
Si Si3 0.287437 0.371576 0.681959
Si Si4 0.008314 0.178434 0.588697
Si Si5 0.625369 0.325148 0.256736
O O1 0.408895 0.089440 0.750979
O O2 0.357959 0.253514 0.632436
O O3 0.545130 0.257559 0.680207
O O4 0.500000 0.000000 0.620029
O O5 0.402872 0.237370 0.891115
O O6 0.500000 0.000000 0.879194
O O7 0.296132 0.972798 0.865489
O O8 0.355022 0.500013 0.725546
O O9 0.226804 0.274175 0.750262
O O10 0.046815 0.230556 0.500000
O O11 0.078525 0.202763 0.667077
O O12 0.000000 0.000000 0.584817
#
# Coordination Sequence:
#
# PCOD9441312 Si02
#       5
#     8   8   8   8   8
#     4  10  18  33  45  72 110 140 179 223 277 343
#     4  10  18  33  48  76 109 142 185 223 277 337
#     4  12  19  30  52  75 109 153 178 231 291 328
#     4  10  21  36  53  74 112 157 184 221 277 340
#     4  11  20  32  51  79 110 150 183 229 276 340
#
# _framework density 20.947279000000002
#
# number of rings (size 3 to 8) (size 9 to 14) (size 15 to 20)
#    0.000    1.400    8.000    3.000    0.000    0.400 
#    0.000    0.000    0.000    0.000    0.000    0.000 
#    0.000   32.800    0.400    0.000    0.000    0.000 
#
# Total GULP energy -222742.884012 kJ/mol
# GULP energy per Si atom -5568.572100 kJ/mol
# Density = 2.089960 g / cm^3
# Si number density = 20.947279 Si / 1000 Ang^3
#
#
#
# Elastic Constant Matrix: (Units=GPa)
#
#
# Indices 1 2 3 4 5 6 
#
# 1 120.3699 57.0238 4.5118 0.0000 0.0000 0.0000
# 2 57.0238 134.9539 6.9769 0.0000 0.0000 0.0000
# 3 4.5118 6.9769 25.5295 0.0000 0.0000 0.0000
# 4 0.0000 0.0000 0.0000 -2.4073 0.0000 0.0000
# 5 0.0000 0.0000 0.0000 0.0000 9.7333 0.0000
# 6 0.0000 0.0000 0.0000 0.0000 0.0000 72.2026
#
#
#
# Elastic Compliance Matrix: (Units=1/GPa)
#
#
# Indices 1 2 3 4 5 6 
#
# 1 0.010397 -0.004360 -0.000646 0.000000 0.000000 0.000000
# 2 -0.004360 0.009344 -0.001783 0.000000 0.000000 0.000000
# 3 -0.000646 -0.001783 0.039772 0.000000 0.000000 0.000000
# 4 0.000000 0.000000 0.000000 -0.415398 0.000000 0.000000
# 5 0.000000 0.000000 0.000000 0.000000 0.102741 0.000000
# 6 0.000000 0.000000 0.000000 0.000000 0.000000 0.013850
#
#
# Mechanical properties :
#
#
# Convention : Reuss Voigt Hill
#
# Bulk Modulus (GPa) = 21.76974 46.43094 34.10034
# Shear Modulus (GPa) = -23.76386 30.06177 3.14895
#
# Velocity S-wave (km/s) = -3.37183 3.79240 1.22741
# Velocity P-wave (km/s) = 2.17802 6.43352 4.28056
#
# Compressibility (1/GPa) = 0.04593532
#
# Stress axis : x y z
#
# Youngs Moduli (GPa) = 96.17777 107.01602 25.14345
#
# Poissons Ratio (x) = 0.46659 0.01624
# Poissons Ratio (y) = 0.41933 0.04483
# Poissons Ratio (z) = 0.06213 0.19083
#
# Static dielectric constant tensor:
#      x y z
#    x 1.860450 0.000000 0.000000 
#    y 0.000000 1.884790 0.000000 
#    z 0.000000 0.000000 1.724910 
# 
# From -- ./inp_files/25113.got.cif
#   From: 2010.05.17/outbox.cif.g08.bks.cpg/sg58_13_cif.got.tgz:25113.got - 2010.06.03 14:20:14.
