data_PCOD9441640
_publ_section_title
;
Structure prediction by ZEFSAII (Michael W. Deem and Ramdas Pophale) SiO2 
 PCOD9441640
Probable space group: P N N M
;
_chemical_formula_sum "Si O2"
_cell_formula_units_Z 64
_cell_length_a 29.259490
_cell_length_b 14.727445
_cell_length_c 7.731889
_cell_angle_alpha 90.000000
_cell_angle_beta 90.000000
_cell_angle_gamma 90.000000
_cell_volume 3331.806508
_symmetry_space_group_name_H-M "P N N M"
_symmetry_group_IT_number 58
_symmetry_cell_setting 'orthorhombic'
loop_
_space_group_symop_operation_xyz
x,y,z
-x,-y,z
1/2+x,1/2-y,1/2-z
1/2-x,1/2+y,1/2-z
-x,-y,-z
x,y,-z
1/2-x,1/2+y,1/2+z
1/2+x,1/2-y,1/2+z
loop_
_atom_site_type_symbol
_atom_site_label
_atom_site_fract_x
_atom_site_fract_y
_atom_site_fract_z
Si Si1 0.447830 0.500010 0.787809
Si Si2 0.800933 0.499982 0.287703
Si Si3 0.376895 0.351259 0.206685
Si Si4 0.196779 0.000039 0.793296
Si Si5 0.126833 0.647139 0.707005
Si Si6 0.876912 0.851217 0.293331
Si Si7 0.626838 0.147103 0.207006
Si Si8 0.051972 0.500017 0.206620
O O1 0.500000 0.500000 0.731521
O O2 0.419282 0.412026 0.729256
O O3 0.419290 0.588002 0.729236
O O4 0.447461 0.500013 0.000000
O O5 0.800805 0.499983 0.500000
O O6 0.748748 0.499969 0.228689
O O7 0.830235 0.412596 0.230064
O O8 0.830227 0.587378 0.230062
O O9 0.331836 0.411488 0.237951
O O10 0.374901 0.249281 0.277104
O O11 0.382587 0.344387 0.000000
O O12 0.168153 0.088555 0.737843
O O13 0.198076 0.000078 0.000000
O O14 0.132040 0.653165 0.500000
O O15 0.081428 0.587963 0.739665
O O16 0.882628 0.844321 0.500000
O O17 0.874905 0.749245 0.222888
O O18 0.581437 0.087917 0.239668
O O19 0.632045 0.153129 0.000000
O O20 0.000000 0.500000 0.274044
O O21 0.050069 0.500020 0.000000
#
# Coordination Sequence:
#
# PCOD9441640 Si02
#       8
#     8   8   8   8   8   8   8   8
#     4   8  14  26  44  67  94 119 147 190 240 284
#     4   8  16  31  48  69  96 125 161 206 248 286
#     4   9  18  32  50  72  96 123 161 207 246 283
#     4  10  19  31  48  69  98 133 161 192 246 308
#     4   9  18  34  54  72  94 127 168 210 244 281
#     4   9  18  32  50  72  96 123 161 207 246 283
#     4   9  18  34  54  72  94 127 168 210 244 281
#     4  10  21  35  50  73 106 135 159 196 244 292
#
# _framework density 19.2088
#
# number of rings (size 3 to 8) (size 9 to 14) (size 15 to 20)
#    0.000    3.000    0.000    2.250    0.000    4.000 
#    0.000    7.500    0.000    6.000    0.000    0.000 
#    0.000    0.000    0.000    0.000    0.000    0.000 
#
# Total GULP energy -356834.022968 kJ/mol
# GULP energy per Si atom -5575.531609 kJ/mol
# Density = 1.916508 g / cm^3
# Si number density = 19.208800 Si / 1000 Ang^3
#
#
#
# Elastic Constant Matrix: (Units=GPa)
#
#
# Indices 1 2 3 4 5 6 
#
# 1 205.8861 117.5681 -6.6830 0.0000 0.0000 0.0000
# 2 117.5681 222.6434 5.8103 0.0000 0.0000 0.0000
# 3 -6.6830 5.8103 23.6759 0.0000 0.0000 0.0000
# 4 0.0000 0.0000 0.0000 14.6329 0.0000 0.0000
# 5 0.0000 0.0000 0.0000 0.0000 21.1548 0.0000
# 6 0.0000 0.0000 0.0000 0.0000 0.0000 9.1447
#
#
#
# Elastic Compliance Matrix: (Units=1/GPa)
#
#
# Indices 1 2 3 4 5 6 
#
# 1 0.007155 -0.003856 0.002966 0.000000 0.000000 0.000000
# 2 -0.003856 0.006598 -0.002708 0.000000 0.000000 0.000000
# 3 0.002966 -0.002708 0.043739 0.000000 0.000000 0.000000
# 4 0.000000 0.000000 0.000000 0.068339 0.000000 0.000000
# 5 0.000000 0.000000 0.000000 0.000000 0.047271 0.000000
# 6 0.000000 0.000000 0.000000 0.000000 0.000000 0.109353
#
#
# Mechanical properties :
#
#
# Convention : Reuss Voigt Hill
#
# Bulk Modulus (GPa) = 19.88188 76.17737 48.02962
# Shear Modulus (GPa) = 16.31777 31.35382 23.83580
#
# Velocity S-wave (km/s) = 2.91777 4.04451 3.52643
# Velocity P-wave (km/s) = 4.66091 7.84566 6.45285
#
# Compressibility (1/GPa) = 0.05029706
#
# Stress axis : x y z
#
# Youngs Moduli (GPa) = 139.76156 151.55757 22.86308
#
# Poissons Ratio (x) = 0.58435 -0.06781
# Poissons Ratio (y) = 0.53887 0.06190
# Poissons Ratio (z) = -0.41451 0.41036
#
# Static dielectric constant tensor:
#      x y z
#    x 1.648650 0.000000 0.000000 
#    y 0.000000 1.672460 0.000000 
#    z 0.000000 0.000000 1.693350 
# 
# From -- ./inp_files/7185.got.cif
#   From: 2010.05.17/outbox.cif.g08.bks.cpg/sg58_4_cif.got.tgz:7185.got - 2010.06.03 14:20:14.
