data_PCOD9441984
_publ_section_title
;
Structure prediction by ZEFSAII (Michael W. Deem and Ramdas Pophale) SiO2 
 PCOD9441984
Probable space group: P N N M
;
_chemical_formula_sum "Si O2"
_cell_formula_units_Z 64
_cell_length_a 17.047157
_cell_length_b 20.253132
_cell_length_c 7.488926
_cell_angle_alpha 90.000000
_cell_angle_beta 90.000000
_cell_angle_gamma 90.000000
_cell_volume 2585.614016
_symmetry_space_group_name_H-M "P N N M"
_symmetry_group_IT_number 58
_symmetry_cell_setting 'orthorhombic'
loop_
_space_group_symop_operation_xyz
x,y,z
-x,-y,z
1/2+x,1/2-y,1/2-z
1/2-x,1/2+y,1/2-z
-x,-y,-z
x,y,-z
1/2-x,1/2+y,1/2+z
1/2+x,1/2-y,1/2+z
loop_
_atom_site_type_symbol
_atom_site_label
_atom_site_fract_x
_atom_site_fract_y
_atom_site_fract_z
Si Si1 0.337556 0.399861 0.704402
Si Si2 0.761344 0.720481 0.283382
Si Si3 0.579709 0.039114 0.216912
Si Si4 0.491124 0.572754 0.203517
Si Si5 0.504622 0.168593 0.210403
Si Si6 0.254938 0.025010 0.295777
Si Si7 0.671380 0.846394 0.285413
Si Si8 0.580506 0.295647 0.781359
O O1 0.352852 0.380456 0.500000
O O2 0.270003 0.350704 0.776333
O O3 0.420921 0.397782 0.799545
O O4 0.303583 0.473752 0.707732
O O5 0.769014 0.716296 0.500000
O O6 0.695020 0.773247 0.232050
O O7 0.841172 0.756509 0.225706
O O8 0.565837 0.114310 0.279113
O O9 0.500000 0.000000 0.262803
O O10 0.658083 0.006890 0.290641
O O11 0.586879 0.038060 0.000000
O O12 0.500000 0.500000 0.288072
O O13 0.436265 0.630234 0.282699
O O14 0.463512 0.561418 0.000000
O O15 0.417769 0.140899 0.234217
O O16 0.513786 0.243150 0.276342
O O17 0.520193 0.171957 0.000000
O O18 0.228622 0.031556 0.500000
O O19 0.269258 0.097690 0.217581
O O20 0.676076 0.849511 0.500000
O O21 0.581696 0.301063 0.000000
#
# Coordination Sequence:
#
# PCOD9441984 Si02
#       8
#     8   8   8   8   8   8   8   8
#     4  11  23  40  63  87 119 158 200 248 298 354
#     4   9  19  37  60  84 111 149 195 241 293 351
#     4  10  19  33  53  79 114 155 195 232 282 347
#     4  10  22  39  63  91 119 156 201 249 300 356
#     4  10  19  33  55  81 111 149 189 231 280 342
#     4  11  23  36  56  86 118 152 192 238 290 348
#     4  10  21  35  56  83 111 146 187 235 287 343
#     4   9  18  34  59  86 112 147 194 243 291 348
#
# _framework density 24.752341000000001
#
# number of rings (size 3 to 8) (size 9 to 14) (size 15 to 20)
#    0.000    2.000    1.250    2.250    1.750    3.500 
#    0.000    0.625    0.000    2.250    0.000    0.000 
#    0.000    0.000    0.000    0.000    0.000    0.000 
#
# Total GULP energy -357678.602904 kJ/mol
# GULP energy per Si atom -5588.728170 kJ/mol
# Density = 2.469600 g / cm^3
# Si number density = 24.752341 Si / 1000 Ang^3
#
#
#
# Elastic Constant Matrix: (Units=GPa)
#
#
# Indices 1 2 3 4 5 6 
#
# 1 82.0359 6.7573 -6.2031 0.0000 0.0000 0.0000
# 2 6.7573 131.7062 6.1619 0.0000 0.0000 0.0000
# 3 -6.2031 6.1619 67.6288 0.0000 0.0000 0.0000
# 4 0.0000 0.0000 0.0000 2.2989 0.0000 0.0000
# 5 0.0000 0.0000 0.0000 0.0000 -88.4646 0.0000
# 6 0.0000 0.0000 0.0000 0.0000 0.0000 39.2775
#
#
#
# Elastic Compliance Matrix: (Units=1/GPa)
#
#
# Indices 1 2 3 4 5 6 
#
# 1 0.012337 -0.000689 0.001194 0.000000 0.000000 0.000000
# 2 -0.000689 0.007664 -0.000761 0.000000 0.000000 0.000000
# 3 0.001194 -0.000761 0.014966 0.000000 0.000000 0.000000
# 4 0.000000 0.000000 0.000000 0.434985 0.000000 0.000000
# 5 0.000000 0.000000 0.000000 0.000000 -0.011304 0.000000
# 6 0.000000 0.000000 0.000000 0.000000 0.000000 0.025460
#
#
# Mechanical properties :
#
#
# Convention : Reuss Voigt Hill
#
# Bulk Modulus (GPa) = 29.02414 32.75592 30.89003
# Shear Modulus (GPa) = 10.07854 8.93267 9.50561
#
# Velocity S-wave (km/s) = 2.02005 1.90175 1.96179
# Velocity P-wave (km/s) = 4.14633 4.25258 4.19979
#
# Compressibility (1/GPa) = 0.03445408
#
# Stress axis : x y z
#
# Youngs Moduli (GPa) = 81.05808 130.48664 66.82024
#
# Poissons Ratio (x) = 0.08988 -0.07980
# Poissons Ratio (y) = 0.05584 0.05088
# Poissons Ratio (z) = -0.09681 0.09936
#
# Static dielectric constant tensor:
#      x y z
#    x 1.942400 0.000000 0.000000 
#    y 0.000000 1.988850 0.000000 
#    z 0.000000 0.000000 1.936520 
# 
# From -- ./inp_files/8307.got.cif
#   From: 2010.05.17/outbox.cif.g08.bks.cpg/sg58_5_cif.got.tgz:8307.got - 2010.06.03 14:20:14.
