data_PCOD9441751
_publ_section_title
;
Structure prediction by ZEFSAII (Michael W. Deem and Ramdas Pophale) SiO2 
 PCOD9441751
Probable space group: P N N M
;
_chemical_formula_sum "Si O2"
_cell_formula_units_Z 64
_cell_length_a 25.874001
_cell_length_b 14.961848
_cell_length_c 7.316500
_cell_angle_alpha 90.000000
_cell_angle_beta 90.000000
_cell_angle_gamma 90.000000
_cell_volume 2832.384479
_symmetry_space_group_name_H-M "P N N M"
_symmetry_group_IT_number 58
_symmetry_cell_setting 'orthorhombic'
loop_
_space_group_symop_operation_xyz
x,y,z
-x,-y,z
1/2+x,1/2-y,1/2-z
1/2-x,1/2+y,1/2-z
-x,-y,-z
x,y,-z
1/2-x,1/2+y,1/2+z
1/2+x,1/2-y,1/2+z
loop_
_atom_site_type_symbol
_atom_site_label
_atom_site_fract_x
_atom_site_fract_y
_atom_site_fract_z
Si Si1 0.059741 0.743734 0.278502
Si Si2 0.851015 0.136409 0.721571
Si Si3 0.264085 0.836893 0.719709
Si Si4 0.552818 0.961119 0.709142
Si Si5 0.168530 0.503341 0.223451
Si Si6 0.237451 0.126450 0.285787
Si Si7 0.017362 0.099520 0.277206
Si Si8 0.627556 0.441444 0.777668
O O1 0.058942 0.740298 0.500000
O O2 0.116356 0.778209 0.219676
O O3 0.048273 0.645683 0.209881
O O4 0.019400 0.819886 0.219583
O O5 0.849779 0.138778 0.500000
O O6 0.792346 0.132020 0.784194
O O7 0.879445 0.045134 0.771659
O O8 0.264497 0.841026 0.500000
O O9 0.307451 0.907429 0.779186
O O10 0.266538 0.732975 0.769179
O O11 0.554249 0.995053 0.500000
O O12 0.500000 0.000000 0.792602
O O13 0.609685 0.983194 0.787574
O O14 0.209988 0.579585 0.284040
O O15 0.166867 0.506983 0.000000
O O16 0.237173 0.102981 0.500000
O O17 0.183449 0.088991 0.210084
O O18 0.015297 0.098900 0.500000
O O19 0.076912 0.112096 0.220412
O O20 0.000000 0.000000 0.220394
O O21 0.628670 0.436887 0.000000
#
# Coordination Sequence:
#
# PCOD9441751 Si02
#       8
#     8   8   8   8   8   8   8   8
#     4  10  19  31  53  82 104 127 164 209 252 292
#     4   9  15  27  49  75  99 127 164 200 240 293
#     4  10  19  32  52  75  99 131 169 207 245 292
#     4  10  22  39  55  70  94 135 180 213 245 292
#     4   9  18  35  56  73  95 134 177 207 242 300
#     4  10  19  32  51  76 103 131 164 204 249 297
#     4   9  15  25  45  76 107 129 154 193 242 298
#     4   9  15  26  46  72 101 130 160 195 237 294
#
# _framework density 22.595803
#
# number of rings (size 3 to 8) (size 9 to 14) (size 15 to 20)
#    0.000    2.500    2.500    0.750    0.000    1.250 
#    0.000    1.250    0.000    1.125    0.000    0.000 
#    0.000    0.000    0.000    0.000    0.000    0.000 
#
# Total GULP energy -357318.695946 kJ/mol
# GULP energy per Si atom -5583.104624 kJ/mol
# Density = 2.254437 g / cm^3
# Si number density = 22.595803 Si / 1000 Ang^3
#
#
#
# Elastic Constant Matrix: (Units=GPa)
#
#
# Indices 1 2 3 4 5 6 
#
# 1 213.4684 87.5771 8.0909 0.0000 0.0000 0.0000
# 2 87.5771 86.2530 -13.1795 0.0000 0.0000 0.0000
# 3 8.0909 -13.1795 89.8741 0.0000 0.0000 0.0000
# 4 0.0000 0.0000 0.0000 -2.9497 0.0000 0.0000
# 5 0.0000 0.0000 0.0000 0.0000 -39.3563 0.0000
# 6 0.0000 0.0000 0.0000 0.0000 0.0000 41.5372
#
#
#
# Elastic Compliance Matrix: (Units=1/GPa)
#
#
# Indices 1 2 3 4 5 6 
#
# 1 0.008382 -0.008824 -0.002049 0.000000 0.000000 0.000000
# 2 -0.008824 0.021149 0.003896 0.000000 0.000000 0.000000
# 3 -0.002049 0.003896 0.011882 0.000000 0.000000 0.000000
# 4 0.000000 0.000000 0.000000 -0.339013 0.000000 0.000000
# 5 0.000000 0.000000 0.000000 0.000000 -0.025409 0.000000
# 6 0.000000 0.000000 0.000000 0.000000 0.000000 0.024075
#
#
# Mechanical properties :
#
#
# Convention : Reuss Voigt Hill
#
# Bulk Modulus (GPa) = 36.41746 61.61918 49.01832
# Shear Modulus (GPa) = -18.12728 20.32003 1.09637
#
# Velocity S-wave (km/s) = -2.83546 3.00206 0.69733
# Velocity P-wave (km/s) = 2.33069 6.27263 4.73170
#
# Compressibility (1/GPa) = 0.02745936
#
# Stress axis : x y z
#
# Youngs Moduli (GPa) = 119.29907 47.28462 84.15819
#
# Poissons Ratio (x) = 0.41724 0.17241
# Poissons Ratio (y) = 1.05270 -0.32785
# Poissons Ratio (z) = 0.24440 -0.18421
#
# Static dielectric constant tensor:
#      x y z
#    x 1.845430 0.000000 0.000000 
#    y 0.000000 1.809320 0.000000 
#    z 0.000000 0.000000 1.888340 
# 
# From -- ./inp_files/9989.got.cif
#   From: 2010.05.17/outbox.cif.g08.bks.cpg/sg58_5_cif.got.tgz:9989.got - 2010.06.03 14:20:14.
