data_PCOD9441499
_publ_section_title
;
Structure prediction by ZEFSAII (Michael W. Deem and Ramdas Pophale) SiO2 
 PCOD9441499
Probable space group: P N N M
;
_chemical_formula_sum "Si O2"
_cell_formula_units_Z 64
_cell_length_a 9.803034
_cell_length_b 32.431820
_cell_length_c 13.654921
_cell_angle_alpha 90.000000
_cell_angle_beta 90.000000
_cell_angle_gamma 90.000000
_cell_volume 4341.312231
_symmetry_space_group_name_H-M "P N N M"
_symmetry_group_IT_number 58
_symmetry_cell_setting 'orthorhombic'
loop_
_space_group_symop_operation_xyz
x,y,z
-x,-y,z
1/2+x,1/2-y,1/2-z
1/2-x,1/2+y,1/2-z
-x,-y,-z
x,y,-z
1/2-x,1/2+y,1/2+z
1/2+x,1/2-y,1/2+z
loop_
_atom_site_type_symbol
_atom_site_label
_atom_site_fract_x
_atom_site_fract_y
_atom_site_fract_z
Si Si1 0.999786 0.873695 0.881616
Si Si2 0.208723 0.245615 0.612212
Si Si3 0.486255 0.817064 0.192665
Si Si4 0.189069 0.389761 0.618308
Si Si5 0.100976 0.036314 0.118882
Si Si6 0.518941 0.230886 0.389312
Si Si7 0.353328 0.984974 0.119146
Si Si8 0.304213 0.697683 0.308652
O O1 0.945655 0.918705 0.850266
O O2 0.904700 0.839485 0.833965
O O3 0.160626 0.872043 0.858287
O O4 0.988302 0.870204 0.000000
O O5 0.185276 0.232703 0.500000
O O6 0.111068 0.284175 0.636457
O O7 0.371899 0.254134 0.621562
O O8 0.182927 0.211221 0.694913
O O9 0.426312 0.861688 0.167356
O O10 0.475411 0.804095 0.306655
O O11 0.646420 0.812153 0.167315
O O12 0.172773 0.387787 0.500000
O O13 0.181643 0.438007 0.647224
O O14 0.246836 0.019733 0.150787
O O15 0.098023 0.037473 0.000000
O O16 0.000000 0.000000 0.149402
O O17 0.525495 0.215238 0.500000
O O18 0.639397 0.263068 0.368527
O O19 0.500000 0.000000 0.151845
O O20 0.350592 0.984576 0.000000
#
# Coordination Sequence:
#
# PCOD9441499 Si02
#       8
#     8   8   8   8   8   8   8   8
#     4  10  19  29  43  61  88 123 151 176 209 255
#     4   9  18  34  50  61  84 119 145 174 220 264
#     4  10  20  30  44  68  90 109 143 186 218 250
#     4  10  19  30  42  60  90 124 149 173 214 260
#     4   9  15  27  42  57  80 115 153 176 200 250
#     4   9  18  34  50  61  83 118 148 174 215 264
#     4   9  17  27  40  59  84 115 147 178 213 250
#     4  10  20  30  44  69  89 108 147 186 212 251
#
# _framework density 14.742086
#
# number of rings (size 3 to 8) (size 9 to 14) (size 15 to 20)
#    0.000    2.500    1.250    1.500    1.750    5.000 
#    0.000    0.000    0.000    0.000    0.000    0.000 
#    0.000    2.000    0.000    0.125    0.000    0.000 
#
# Total GULP energy -356420.645964 kJ/mol
# GULP energy per Si atom -5569.072593 kJ/mol
# Density = 1.470853 g / cm^3
# Si number density = 14.742086 Si / 1000 Ang^3
#
#
#
# Elastic Constant Matrix: (Units=GPa)
#
#
# Indices 1 2 3 4 5 6 
#
# 1 85.1275 20.6263 22.9962 0.0000 0.0000 0.0000
# 2 20.6263 47.8258 11.5035 0.0000 0.0000 0.0000
# 3 22.9962 11.5035 50.2313 0.0000 0.0000 0.0000
# 4 0.0000 0.0000 0.0000 12.8301 0.0000 0.0000
# 5 0.0000 0.0000 0.0000 0.0000 15.8670 0.0000
# 6 0.0000 0.0000 0.0000 0.0000 0.0000 29.2323
#
#
#
# Elastic Compliance Matrix: (Units=1/GPa)
#
#
# Indices 1 2 3 4 5 6 
#
# 1 0.014414 -0.004899 -0.005477 0.000000 0.000000 0.000000
# 2 -0.004899 0.023793 -0.003206 0.000000 0.000000 0.000000
# 3 -0.005477 -0.003206 0.023149 0.000000 0.000000 0.000000
# 4 0.000000 0.000000 0.000000 0.077942 0.000000 0.000000
# 5 0.000000 0.000000 0.000000 0.000000 0.063024 0.000000
# 6 0.000000 0.000000 0.000000 0.000000 0.000000 0.034209
#
#
# Mechanical properties :
#
#
# Convention : Reuss Voigt Hill
#
# Bulk Modulus (GPa) = 29.24609 32.60407 30.92508
# Shear Modulus (GPa) = 18.17576 20.12312 19.14944
#
# Velocity S-wave (km/s) = 3.51510 3.69861 3.60802
# Velocity P-wave (km/s) = 6.02961 6.35641 6.19517
#
# Compressibility (1/GPa) = 0.03419260
#
# Stress axis : x y z
#
# Youngs Moduli (GPa) = 69.37900 42.02878 43.19765
#
# Poissons Ratio (x) = 0.20590 0.23658
# Poissons Ratio (y) = 0.33989 0.13850
# Poissons Ratio (z) = 0.37997 0.13475
#
# Static dielectric constant tensor:
#      x y z
#    x 1.584890 0.000000 0.000000 
#    y 0.000000 1.485440 0.000000 
#    z 0.000000 0.000000 1.469700 
# 
# From -- ./inp_files/20393.got.cif
#   From: 2010.05.17/outbox.cif.g08.bks.cpg/sg58_11_cif.got.tgz:20393.got - 2010.06.03 14:20:14.
