data_PCOD9441407
_publ_section_title
;
Structure prediction by ZEFSAII (Michael W. Deem and Ramdas Pophale) SiO2 
 PCOD9441407
Probable space group: P N N M
;
_chemical_formula_sum "Si O2"
_cell_formula_units_Z 64
_cell_length_a 18.074960
_cell_length_b 21.671828
_cell_length_c 8.485453
_cell_angle_alpha 90.000000
_cell_angle_beta 90.000000
_cell_angle_gamma 90.000000
_cell_volume 3323.899793
_symmetry_space_group_name_H-M "P N N M"
_symmetry_group_IT_number 58
_symmetry_cell_setting 'orthorhombic'
loop_
_space_group_symop_operation_xyz
x,y,z
-x,-y,z
1/2+x,1/2-y,1/2-z
1/2-x,1/2+y,1/2-z
-x,-y,-z
x,y,-z
1/2-x,1/2+y,1/2+z
1/2+x,1/2-y,1/2+z
loop_
_atom_site_type_symbol
_atom_site_label
_atom_site_fract_x
_atom_site_fract_y
_atom_site_fract_z
Si Si1 0.029144 0.706878 0.313816
Si Si2 0.456814 0.564307 0.186309
Si Si3 0.211434 0.041273 0.307936
Si Si4 0.153383 0.611848 0.190094
Si Si5 0.428726 0.340208 0.685326
Si Si6 0.917321 0.515516 0.190424
Si Si7 0.723660 0.602294 0.809441
Si Si8 0.877647 0.651412 0.809348
O O1 0.024870 0.701434 0.500000
O O2 0.093610 0.659892 0.255115
O O3 0.055434 0.774635 0.264472
O O4 0.946091 0.693057 0.248545
O O5 0.500000 0.500000 0.201383
O O6 0.372891 0.553507 0.238914
O O7 0.502033 0.615684 0.278439
O O8 0.456242 0.580755 0.000000
O O9 0.215279 0.039026 0.500000
O O10 0.260843 0.101507 0.262720
O O11 0.232788 0.970301 0.258933
O O12 0.127791 0.543477 0.239475
O O13 0.149547 0.618160 0.000000
O O14 0.419709 0.331221 0.500000
O O15 0.354787 0.372405 0.752033
O O16 0.898685 0.582731 0.247720
O O17 0.000000 0.500000 0.231896
O O18 0.910255 0.518564 0.000000
O O19 0.790428 0.649501 0.762821
O O20 0.723955 0.600666 0.000000
O O21 0.879556 0.655175 0.000000
#
# Coordination Sequence:
#
# PCOD9441407 Si02
#       8
#     8   8   8   8   8   8   8   8
#     4  12  26  43  60  82 120 169 217 258 307 367
#     4  10  19  37  67  96 124 155 194 248 309 368
#     4   9  17  32  62  99 126 154 193 240 300 368
#     4  10  18  34  60  89 122 160 203 246 296 362
#     4  12  26  44  64  86 118 163 213 259 311 367
#     4   9  14  24  52  87 116 150 192 234 283 350
#     4  10  19  37  66  97 124 154 193 244 306 370
#     4  10  19  35  63  93 121 156 201 248 300 368
#
# _framework density 19.254490000000001
#
# number of rings (size 3 to 8) (size 9 to 14) (size 15 to 20)
#    0.000    1.750    3.750    2.250    0.000    0.750 
#    2.250    2.500    0.000    0.000    0.000    0.000 
#    0.000    0.000    0.000    0.000    0.000    0.000 
#
# Total GULP energy -356418.174580 kJ/mol
# GULP energy per Si atom -5569.033978 kJ/mol
# Density = 1.921067 g / cm^3
# Si number density = 19.254490 Si / 1000 Ang^3
#
#
#
# Elastic Constant Matrix: (Units=GPa)
#
#
# Indices 1 2 3 4 5 6 
#
# 1 143.4310 37.7527 36.1878 0.0000 0.0000 0.0000
# 2 37.7527 70.1724 16.9317 0.0000 0.0000 0.0000
# 3 36.1878 16.9317 41.5860 0.0000 0.0000 0.0000
# 4 0.0000 0.0000 0.0000 28.7281 0.0000 0.0000
# 5 0.0000 0.0000 0.0000 0.0000 5.4562 0.0000
# 6 0.0000 0.0000 0.0000 0.0000 0.0000 22.4735
#
#
#
# Elastic Compliance Matrix: (Units=1/GPa)
#
#
# Indices 1 2 3 4 5 6 
#
# 1 0.009656 -0.003512 -0.006972 0.000000 0.000000 0.000000
# 2 -0.003512 0.017081 -0.003898 0.000000 0.000000 0.000000
# 3 -0.006972 -0.003898 0.031701 0.000000 0.000000 0.000000
# 4 0.000000 0.000000 0.000000 0.034809 0.000000 0.000000
# 5 0.000000 0.000000 0.000000 0.000000 0.183278 0.000000
# 6 0.000000 0.000000 0.000000 0.000000 0.000000 0.044497
#
#
# Mechanical properties :
#
#
# Convention : Reuss Voigt Hill
#
# Bulk Modulus (GPa) = 33.70171 48.54819 41.12495
# Shear Modulus (GPa) = 13.90139 22.28605 18.09372
#
# Velocity S-wave (km/s) = 2.68989 3.40582 3.06880
# Velocity P-wave (km/s) = 5.21427 6.38238 5.82767
#
# Compressibility (1/GPa) = 0.02967209
#
# Stress axis : x y z
#
# Youngs Moduli (GPa) = 103.56714 58.54521 31.54506
#
# Poissons Ratio (x) = 0.20563 0.21994
# Poissons Ratio (y) = 0.36377 0.12296
# Poissons Ratio (z) = 0.72208 0.22821
#
# Static dielectric constant tensor:
#      x y z
#    x 1.657860 0.000000 0.000000 
#    y 0.000000 1.640910 0.000000 
#    z 0.000000 0.000000 1.670650 
# 
# From -- ./inp_files/8374.got.cif
#   From: 2010.05.17/outbox.cif.g08.bks.cpg/sg58_5_cif.got.tgz:8374.got - 2010.06.03 14:20:14.
