data_PCOD9441341
_publ_section_title
;
Structure prediction by ZEFSAII (Michael W. Deem and Ramdas Pophale) SiO2 
 PCOD9441341
Probable space group: P N N M
;
_chemical_formula_sum "Si O2"
_cell_formula_units_Z 56
_cell_length_a 21.925774
_cell_length_b 14.687198
_cell_length_c 7.511582
_cell_angle_alpha 90.000000
_cell_angle_beta 90.000000
_cell_angle_gamma 90.000000
_cell_volume 2418.941111
_symmetry_space_group_name_H-M "P N N M"
_symmetry_group_IT_number 58
_symmetry_cell_setting 'orthorhombic'
loop_
_space_group_symop_operation_xyz
x,y,z
-x,-y,z
1/2+x,1/2-y,1/2-z
1/2-x,1/2+y,1/2-z
-x,-y,-z
x,y,-z
1/2-x,1/2+y,1/2+z
1/2+x,1/2-y,1/2+z
loop_
_atom_site_type_symbol
_atom_site_label
_atom_site_fract_x
_atom_site_fract_y
_atom_site_fract_z
Si Si1 0.311206 0.995456 0.289492
Si Si2 0.554576 0.936117 0.213848
Si Si3 0.761897 0.827499 0.717925
Si Si4 0.715275 0.640056 0.296659
Si Si5 0.593128 0.555669 0.796641
Si Si6 0.523988 0.734656 0.217450
Si Si7 0.400213 0.647755 0.217324
O O1 0.302410 0.987121 0.500000
O O2 0.381014 0.017887 0.254232
O O3 0.270994 0.080625 0.224676
O O4 0.281633 0.905961 0.207209
O O5 0.549061 0.831960 0.279874
O O6 0.500000 0.000000 0.280628
O O7 0.548990 0.931488 0.000000
O O8 0.761443 0.824704 0.500000
O O9 0.723419 0.740561 0.779617
O O10 0.832227 0.826217 0.775173
O O11 0.694429 0.646367 0.500000
O O12 0.665225 0.577760 0.202669
O O13 0.560921 0.645398 0.719866
O O14 0.584176 0.455021 0.719424
O O15 0.570814 0.549581 0.000000
O O16 0.453594 0.717122 0.266699
O O17 0.527815 0.735402 0.000000
O O18 0.398744 0.644250 0.000000
#
# Coordination Sequence:
#
# PCOD9441341 Si02
#       7
#     8   8   8   8   8   8   8
#     4  11  22  40  61  84 114 150 189 234 284 335
#     4  10  22  38  57  83 115 151 191 232 278 333
#     4   9  19  34  55  82 112 148 188 230 282 341
#     4  11  22  35  57  85 112 147 188 230 282 339
#     4  10  18  33  56  84 113 142 185 235 284 335
#     4   9  18  31  54  84 111 145 189 237 279 326
#     4   9  16  30  54  82 109 140 184 232 279 331
#
# _framework density 23.150625999999999
#
# number of rings (size 3 to 8) (size 9 to 14) (size 15 to 20)
#    0.000    2.143    1.429    2.143    2.000    2.000 
#    0.000    2.143    0.000    2.571    0.000    0.000 
#    0.000    0.000    0.000    0.000    0.000    0.000 
#
# Total GULP energy -313035.375356 kJ/mol
# GULP energy per Si atom -5589.917417 kJ/mol
# Density = 2.309793 g / cm^3
# Si number density = 23.150626 Si / 1000 Ang^3
#
#
#
# Elastic Constant Matrix: (Units=GPa)
#
#
# Indices 1 2 3 4 5 6 
#
# 1 95.3227 -19.5769 -6.2819 0.0000 0.0000 0.0000
# 2 -19.5769 39.7772 4.0485 0.0000 0.0000 0.0000
# 3 -6.2819 4.0485 64.6443 0.0000 0.0000 0.0000
# 4 0.0000 0.0000 0.0000 -2.9770 0.0000 0.0000
# 5 0.0000 0.0000 0.0000 0.0000 -64.5009 0.0000
# 6 0.0000 0.0000 0.0000 0.0000 0.0000 35.2145
#
#
#
# Elastic Compliance Matrix: (Units=1/GPa)
#
#
# Indices 1 2 3 4 5 6 
#
# 1 0.011709 0.005683 0.000782 0.000000 0.000000 0.000000
# 2 0.005683 0.028060 -0.001205 0.000000 0.000000 0.000000
# 3 0.000782 -0.001205 0.015621 0.000000 0.000000 0.000000
# 4 0.000000 0.000000 0.000000 -0.335908 0.000000 0.000000
# 5 0.000000 0.000000 0.000000 0.000000 -0.015504 0.000000
# 6 0.000000 0.000000 0.000000 0.000000 0.000000 0.028397
#
#
# Mechanical properties :
#
#
# Convention : Reuss Voigt Hill
#
# Bulk Modulus (GPa) = 15.17209 17.34708 16.25958
# Shear Modulus (GPa) = -19.51791 8.31762 -5.60014
#
# Velocity S-wave (km/s) = -2.90674 1.89753 -1.55700
# Velocity P-wave (km/s) = 2.16741 3.50859 1.95097
#
# Compressibility (1/GPa) = 0.06591052
#
# Stress axis : x y z
#
# Youngs Moduli (GPa) = 85.40122 35.63817 64.01753
#
# Poissons Ratio (x) = -0.20254 -0.05006
# Poissons Ratio (y) = -0.48537 0.07714
# Poissons Ratio (z) = -0.06678 0.04295
#
# Static dielectric constant tensor:
#      x y z
#    x 1.842460 0.000000 0.000000 
#    y 0.000000 1.856100 0.000000 
#    z 0.000000 0.000000 1.898490 
# 
# From -- ./inp_files/8998.got.cif
#   From: 2010.05.17/outbox.cif.g08.bks.cpg/sg58_5_cif.got.tgz:8998.got - 2010.06.03 14:20:14.
