data_PCOD9441249
_publ_section_title
;
Structure prediction by ZEFSAII (Michael W. Deem and Ramdas Pophale) SiO2 
 PCOD9441249
Probable space group: P N N M
;
_chemical_formula_sum "Si O2"
_cell_formula_units_Z 56
_cell_length_a 22.460616
_cell_length_b 16.092387
_cell_length_c 8.986459
_cell_angle_alpha 90.000000
_cell_angle_beta 90.000000
_cell_angle_gamma 90.000000
_cell_volume 3248.109999
_symmetry_space_group_name_H-M "P N N M"
_symmetry_group_IT_number 58
_symmetry_cell_setting 'orthorhombic'
loop_
_space_group_symop_operation_xyz
x,y,z
-x,-y,z
1/2+x,1/2-y,1/2-z
1/2-x,1/2+y,1/2-z
-x,-y,-z
x,y,-z
1/2-x,1/2+y,1/2+z
1/2+x,1/2-y,1/2+z
loop_
_atom_site_type_symbol
_atom_site_label
_atom_site_fract_x
_atom_site_fract_y
_atom_site_fract_z
Si Si1 0.052388 0.566003 0.830690
Si Si2 0.310145 0.046784 0.675466
Si Si3 0.984413 0.868800 0.178826
Si Si4 0.318230 0.237487 0.320249
Si Si5 0.553371 0.767464 0.826613
Si Si6 0.222416 0.915727 0.179969
Si Si7 0.903928 0.011803 0.820202
O O1 0.119022 0.531711 0.808411
O O2 0.042587 0.636789 0.710422
O O3 0.000000 0.500000 0.823631
O O4 0.052417 0.602336 0.000000
O O5 0.295787 0.043335 0.500000
O O6 0.299548 0.143445 0.725673
O O7 0.273149 0.975972 0.758042
O O8 0.998710 0.784019 0.259802
O O9 0.042149 0.925770 0.214874
O O10 0.926467 0.920759 0.227214
O O11 0.982729 0.858153 0.000000
O O12 0.322002 0.236662 0.500000
O O13 0.384584 0.252845 0.257365
O O14 0.278583 0.317687 0.277028
O O15 0.560385 0.751193 0.000000
O O16 0.159274 0.955002 0.232168
O O17 0.224017 0.918062 0.000000
O O18 0.901183 0.009685 0.000000
#
# Coordination Sequence:
#
# PCOD9441249 Si02
#       7
#     8   8   8   8   8   8   8
#     4   9  19  38  60  75  93 130 175 213 251 303
#     4   9  19  34  53  79 104 128 165 214 263 305
#     4   9  15  29  49  70  98 133 172 208 238 283
#     4   9  18  35  55  71  96 139 184 213 241 304
#     4  11  20  29  48  79 108 131 162 210 263 306
#     4  10  18  32  54  77 101 136 177 212 252 301
#     4   8  15  27  49  73  94 130 177 210 232 279
#
# _framework density 17.240794999999999
#
# number of rings (size 3 to 8) (size 9 to 14) (size 15 to 20)
#    0.000    2.714    1.429    3.000    0.000    3.143 
#    0.000    3.571    0.000    5.143    0.000    0.000 
#    0.000    0.000    0.000    0.000    0.000    0.000 
#
# Total GULP energy -311778.297828 kJ/mol
# GULP energy per Si atom -5567.469604 kJ/mol
# Density = 1.720155 g / cm^3
# Si number density = 17.240795 Si / 1000 Ang^3
#
#
#
# Elastic Constant Matrix: (Units=GPa)
#
#
# Indices 1 2 3 4 5 6 
#
# 1 58.7678 51.3440 14.8182 0.0000 0.0000 0.0000
# 2 51.3440 99.7597 24.3458 0.0000 0.0000 0.0000
# 3 14.8182 24.3458 19.2238 0.0000 0.0000 0.0000
# 4 0.0000 0.0000 0.0000 18.2690 0.0000 0.0000
# 5 0.0000 0.0000 0.0000 0.0000 13.1515 0.0000
# 6 0.0000 0.0000 0.0000 0.0000 0.0000 33.7868
#
#
#
# Elastic Compliance Matrix: (Units=1/GPa)
#
#
# Indices 1 2 3 4 5 6 
#
# 1 0.031301 -0.014794 -0.005392 0.000000 0.000000 0.000000
# 2 -0.014794 0.021500 -0.015825 0.000000 0.000000 0.000000
# 3 -0.005392 -0.015825 0.076217 0.000000 0.000000 0.000000
# 4 0.000000 0.000000 0.000000 0.054738 0.000000 0.000000
# 5 0.000000 0.000000 0.000000 0.000000 0.076037 0.000000
# 6 0.000000 0.000000 0.000000 0.000000 0.000000 0.029597
#
#
# Mechanical properties :
#
#
# Convention : Reuss Voigt Hill
#
# Bulk Modulus (GPa) = 17.54513 39.86303 28.70408
# Shear Modulus (GPa) = 13.14369 18.85766 16.00067
#
# Velocity S-wave (km/s) = 2.76408 3.31082 3.04973
# Velocity P-wave (km/s) = 4.51503 6.14711 5.39316
#
# Compressibility (1/GPa) = 0.05699587
#
# Stress axis : x y z
#
# Youngs Moduli (GPa) = 31.94804 46.51107 13.12043
#
# Poissons Ratio (x) = 0.68808 0.07074
# Poissons Ratio (y) = 0.47264 0.20763
# Poissons Ratio (z) = 0.17226 0.73605
#
# Static dielectric constant tensor:
#      x y z
#    x 1.568160 0.000000 0.000000 
#    y 0.000000 1.636180 0.000000 
#    z 0.000000 0.000000 1.586000 
# 
# From -- ./inp_files/9187.got.cif
#   From: 2010.05.17/outbox.cif.g08.bks.cpg/sg58_5_cif.got.tgz:9187.got - 2010.06.03 14:20:14.
