data_PCOD9441927
_publ_section_title
;
Structure prediction by ZEFSAII (Michael W. Deem and Ramdas Pophale) SiO2 
 PCOD9441927
Probable space group: P N N M
;
_chemical_formula_sum "Si O2"
_cell_formula_units_Z 44
_cell_length_a 9.713631
_cell_length_b 14.885195
_cell_length_c 12.942482
_cell_angle_alpha 90.000000
_cell_angle_beta 90.000000
_cell_angle_gamma 90.000000
_cell_volume 1871.344304
_symmetry_space_group_name_H-M "P N N M"
_symmetry_group_IT_number 58
_symmetry_cell_setting 'orthorhombic'
loop_
_space_group_symop_operation_xyz
x,y,z
-x,-y,z
1/2+x,1/2-y,1/2-z
1/2-x,1/2+y,1/2-z
-x,-y,-z
x,y,-z
1/2-x,1/2+y,1/2+z
1/2+x,1/2-y,1/2+z
loop_
_atom_site_type_symbol
_atom_site_label
_atom_site_fract_x
_atom_site_fract_y
_atom_site_fract_z
Si Si1 0.434454 0.284096 0.113039
Si Si2 0.475679 0.139355 0.388474
Si Si3 0.171841 0.068219 0.386584
Si Si4 0.139876 0.833282 0.161684
Si Si5 0.000000 0.000000 0.791891
Si Si6 0.561409 0.098548 0.163604
O O1 0.578868 0.340544 0.119688
O O2 0.352407 0.311556 0.215061
O O3 0.464785 0.178431 0.121749
O O4 0.374520 0.303796 0.000000
O O5 0.541071 0.121454 0.500000
O O6 0.331819 0.086695 0.381424
O O7 0.421888 0.242179 0.383935
O O8 0.559306 0.112218 0.287828
O O9 0.142697 0.028388 0.500000
O O10 0.125634 0.012064 0.288162
O O11 0.285699 0.873658 0.126492
O O12 0.027734 0.911018 0.145805
O O13 0.500000 0.000000 0.139041
#
# Coordination Sequence:
#
# PCOD9441927 Si02
#       6
#     8   8   8   8   4   8
#     4   9  19  36  58  82 111 151 192 229 278 340
#     4  10  21  38  58  79 113 157 188 226 284 342
#     4   9  16  31  55  79 106 142 184 227 276 330
#     4  10  21  37  58  82 115 151 191 231 277 336
#     4  10  19  32  55  86 110 140 184 234 274 320
#     4  11  22  36  57  88 118 148 186 240 292 335
#
# _framework density 23.512508
#
# number of rings (size 3 to 8) (size 9 to 14) (size 15 to 20)
#    0.000    2.182    1.818    1.364    0.000    2.182 
#    0.000    0.455    0.000    0.000    0.000    0.000 
#    0.000    0.000    0.000    0.000    0.000    0.000 
#
# Total GULP energy -245844.493902 kJ/mol
# GULP energy per Si atom -5587.374861 kJ/mol
# Density = 2.345899 g / cm^3
# Si number density = 23.512508 Si / 1000 Ang^3
#
#
#
# Elastic Constant Matrix: (Units=GPa)
#
#
# Indices 1 2 3 4 5 6 
#
# 1 51.0724 13.7546 0.2354 0.0000 0.0000 0.0000
# 2 13.7546 140.9569 0.0995 0.0000 0.0000 0.0000
# 3 0.2354 0.0995 85.2406 0.0000 0.0000 0.0000
# 4 0.0000 0.0000 0.0000 84.7023 0.0000 0.0000
# 5 0.0000 0.0000 0.0000 0.0000 7.6136 0.0000
# 6 0.0000 0.0000 0.0000 0.0000 0.0000 17.5129
#
#
#
# Elastic Compliance Matrix: (Units=1/GPa)
#
#
# Indices 1 2 3 4 5 6 
#
# 1 0.020109 -0.001962 -0.000053 0.000000 0.000000 0.000000
# 2 -0.001962 0.007286 -0.000003 0.000000 0.000000 0.000000
# 3 -0.000053 -0.000003 0.011732 0.000000 0.000000 0.000000
# 4 0.000000 0.000000 0.000000 0.011806 0.000000 0.000000
# 5 0.000000 0.000000 0.000000 0.000000 0.131343 0.000000
# 6 0.000000 0.000000 0.000000 0.000000 0.000000 0.057101
#
#
# Mechanical properties :
#
#
# Convention : Reuss Voigt Hill
#
# Bulk Modulus (GPa) = 28.49878 33.93877 31.21877
# Shear Modulus (GPa) = 19.59940 39.51112 29.55526
#
# Velocity S-wave (km/s) = 2.89030 4.10375 3.54927
# Velocity P-wave (km/s) = 4.82550 6.07619 5.48660
#
# Compressibility (1/GPa) = 0.03508922
#
# Stress axis : x y z
#
# Youngs Moduli (GPa) = 49.72960 137.25252 85.23955
#
# Poissons Ratio (x) = 0.26931 0.00454
# Poissons Ratio (y) = 0.09758 0.00026
# Poissons Ratio (z) = 0.00265 0.00042
#
# Static dielectric constant tensor:
#      x y z
#    x 1.854160 0.000000 0.000000 
#    y 0.000000 1.907220 0.000000 
#    z 0.000000 0.000000 1.899010 
# 
# From -- ./inp_files/21087.got.cif
#   From: 2010.05.17/outbox.cif.g08.bks.cpg/sg58_11_cif.got.tgz:21087.got - 2010.06.03 14:20:14.
