data_PCOD9441269
_publ_section_title
;
Structure prediction by ZEFSAII (Michael W. Deem and Ramdas Pophale) SiO2 
 PCOD9441269
Probable space group: P N N M
;
_chemical_formula_sum "Si O2"
_cell_formula_units_Z 64
_cell_length_a 20.314573
_cell_length_b 21.312362
_cell_length_c 8.195029
_cell_angle_alpha 90.000000
_cell_angle_beta 90.000000
_cell_angle_gamma 90.000000
_cell_volume 3548.050374
_symmetry_space_group_name_H-M "P N N M"
_symmetry_group_IT_number 58
_symmetry_cell_setting 'orthorhombic'
loop_
_space_group_symop_operation_xyz
x,y,z
-x,-y,z
1/2+x,1/2-y,1/2-z
1/2-x,1/2+y,1/2-z
-x,-y,-z
x,y,-z
1/2-x,1/2+y,1/2+z
1/2+x,1/2-y,1/2+z
loop_
_atom_site_type_symbol
_atom_site_label
_atom_site_fract_x
_atom_site_fract_y
_atom_site_fract_z
Si Si1 0.795543 0.812014 0.195564
Si Si2 0.299511 0.930104 0.699973
Si Si3 0.060416 0.381368 0.803183
Si Si4 0.282026 0.067465 0.309774
Si Si5 0.915764 0.380336 0.690088
Si Si6 0.420889 0.263410 0.304396
Si Si7 0.933822 0.765847 0.802047
Si Si8 0.215006 0.809984 0.302646
O O1 0.761146 0.877475 0.233295
O O2 0.870135 0.803196 0.257997
O O3 0.751699 0.753365 0.255921
O O4 0.797855 0.805732 0.000000
O O5 0.299968 0.930341 0.500000
O O6 0.375327 0.919328 0.750226
O O7 0.255104 0.871255 0.751276
O O8 0.273255 0.997249 0.757020
O O9 0.072354 0.308013 0.760457
O O10 0.989956 0.400774 0.732681
O O11 0.055499 0.384524 0.000000
O O12 0.265848 0.066554 0.500000
O O13 0.358787 0.084942 0.288359
O O14 0.902475 0.389467 0.500000
O O15 0.911305 0.306165 0.730889
O O16 0.421734 0.256423 0.500000
O O17 0.493217 0.286424 0.249687
O O18 0.360077 0.306237 0.254009
O O19 0.933179 0.768947 0.000000
O O20 0.215868 0.809419 0.500000
#
# Coordination Sequence:
#
# PCOD9441269 Si02
#       8
#     8   8   8   8   8   8   8   8
#     4  10  18  32  55  78 101 132 171 214 262 307
#     4   9  19  35  55  76 102 141 180 212 254 312
#     4   9  16  32  54  74  97 132 177 215 249 298
#     4  11  22  35  51  75 106 139 178 216 253 304
#     4  11  21  33  48  72 106 142 174 207 255 307
#     4  10  19  32  53  80 105 131 169 214 258 304
#     4   8  15  29  52  77 100 129 166 209 253 304
#     4  10  18  32  56  80 103 134 173 212 259 307
#
# _framework density 18.038076
#
# number of rings (size 3 to 8) (size 9 to 14) (size 15 to 20)
#    0.000    2.250    2.500    2.625    0.000    0.500 
#    0.000    8.750    0.000    0.750    0.000    5.250 
#    0.000    0.000    0.000    0.000    0.000    0.000 
#
# Total GULP energy -357030.211316 kJ/mol
# GULP energy per Si atom -5578.597052 kJ/mol
# Density = 1.799702 g / cm^3
# Si number density = 18.038076 Si / 1000 Ang^3
#
#
#
# Elastic Constant Matrix: (Units=GPa)
#
#
# Indices 1 2 3 4 5 6 
#
# 1 107.4069 42.1904 -4.3376 0.0000 0.0000 0.0000
# 2 42.1904 75.3711 -4.5239 0.0000 0.0000 0.0000
# 3 -4.3376 -4.5239 9.1811 0.0000 0.0000 0.0000
# 4 0.0000 0.0000 0.0000 20.8245 0.0000 0.0000
# 5 0.0000 0.0000 0.0000 0.0000 -205.0112 0.0000
# 6 0.0000 0.0000 0.0000 0.0000 0.0000 20.6824
#
#
#
# Elastic Compliance Matrix: (Units=1/GPa)
#
#
# Indices 1 2 3 4 5 6 
#
# 1 0.011987 -0.006564 0.002429 0.000000 0.000000 0.000000
# 2 -0.006564 0.017267 0.005407 0.000000 0.000000 0.000000
# 3 0.002429 0.005407 0.112731 0.000000 0.000000 0.000000
# 4 0.000000 0.000000 0.000000 0.048020 0.000000 0.000000
# 5 0.000000 0.000000 0.000000 0.000000 -0.004878 0.000000
# 6 0.000000 0.000000 0.000000 0.000000 0.000000 0.048350
#
#
# Mechanical properties :
#
#
# Convention : Reuss Voigt Hill
#
# Bulk Modulus (GPa) = 6.91911 28.73521 17.82716
# Shear Modulus (GPa) = 17.91406 -22.12553 -2.10573
#
# Velocity S-wave (km/s) = 3.15481 -3.50609 -1.08163
# Velocity P-wave (km/s) = 4.13698 0.65215 2.88871
#
# Compressibility (1/GPa) = 0.14452733
#
# Stress axis : x y z
#
# Youngs Moduli (GPa) = 83.42431 57.91534 8.87068
#
# Poissons Ratio (x) = 0.38016 -0.02155
# Poissons Ratio (y) = 0.54761 -0.04796
# Poissons Ratio (z) = -0.20262 -0.31313
#
# Static dielectric constant tensor:
#      x y z
#    x 1.631030 0.000000 0.000000 
#    y 0.000000 1.608330 0.000000 
#    z 0.000000 0.000000 1.636950 
# 
# From -- ./inp_files/8427.got.cif
#   From: 2010.05.17/outbox.cif.g08.bks.cpg/sg58_5_cif.got.tgz:8427.got - 2010.06.03 14:20:14.
