data_PCOD9441997
_publ_section_title
;
Structure prediction by ZEFSAII (Michael W. Deem and Ramdas Pophale) SiO2 
 PCOD9441997
Probable space group: P N N M
;
_chemical_formula_sum "Si O2"
_cell_formula_units_Z 64
_cell_length_a 29.075200
_cell_length_b 13.104888
_cell_length_c 7.677528
_cell_angle_alpha 90.000000
_cell_angle_beta 90.000000
_cell_angle_gamma 90.000000
_cell_volume 2925.347301
_symmetry_space_group_name_H-M "P N N M"
_symmetry_group_IT_number 58
_symmetry_cell_setting 'orthorhombic'
loop_
_space_group_symop_operation_xyz
x,y,z
-x,-y,z
1/2+x,1/2-y,1/2-z
1/2-x,1/2+y,1/2-z
-x,-y,-z
x,y,-z
1/2-x,1/2+y,1/2+z
1/2+x,1/2-y,1/2+z
loop_
_atom_site_type_symbol
_atom_site_label
_atom_site_fract_x
_atom_site_fract_y
_atom_site_fract_z
Si Si1 0.564796 0.405691 0.293070
Si Si2 0.881805 0.543350 0.710378
Si Si3 0.290385 0.855022 0.707671
Si Si4 0.332549 0.645809 0.710283
Si Si5 0.560754 0.847537 0.786340
Si Si6 0.408623 0.376505 0.790623
Si Si7 0.461533 0.811549 0.794525
Si Si8 0.693729 0.570831 0.207100
O O1 0.563767 0.397782 0.500000
O O2 0.616004 0.377316 0.224840
O O3 0.559472 0.525444 0.251817
O O4 0.535001 0.310734 0.227158
O O5 0.881561 0.544196 0.500000
O O6 0.829368 0.559873 0.765256
O O7 0.905425 0.438000 0.768190
O O8 0.914862 0.636373 0.775224
O O9 0.285232 0.842638 0.500000
O O10 0.312246 0.750853 0.778128
O O11 0.239725 0.877598 0.778799
O O12 0.335119 0.649889 0.500000
O O13 0.302192 0.549655 0.762384
O O14 0.575568 0.734355 0.729321
O O15 0.508205 0.862497 0.727238
O O16 0.560790 0.848051 0.000000
O O17 0.356604 0.397616 0.723096
O O18 0.407001 0.372920 0.000000
O O19 0.460441 0.831438 0.000000
O O20 0.691951 0.590073 0.000000
#
# Coordination Sequence:
#
# PCOD9441997 Si02
#       8
#     8   8   8   8   8   8   8   8
#     4  10  19  33  54  78 105 138 177 220 264 315
#     4  10  20  34  55  81 107 138 180 224 262 315
#     4  10  20  35  53  77 107 139 173 215 269 320
#     4   9  18  33  52  72 101 137 170 211 262 313
#     4   9  19  35  55  79 108 141 177 221 272 318
#     4   9  18  35  55  75 103 141 180 219 267 322
#     4  10  19  33  55  81 107 138 178 224 269 315
#     4   9  19  33  52  76 101 132 173 217 261 312
#
# _framework density 21.877744
#
# number of rings (size 3 to 8) (size 9 to 14) (size 15 to 20)
#    0.000    2.500    1.250    0.750    0.000    4.500 
#    0.000    6.875    0.000    4.500    0.000    0.000 
#    0.000    0.000    0.000    0.000    0.000    0.000 
#
# Total GULP energy -357138.875004 kJ/mol
# GULP energy per Si atom -5580.294922 kJ/mol
# Density = 2.182795 g / cm^3
# Si number density = 21.877744 Si / 1000 Ang^3
#
#
#
# Elastic Constant Matrix: (Units=GPa)
#
#
# Indices 1 2 3 4 5 6 
#
# 1 55.2194 13.1028 -3.1147 0.0000 0.0000 0.0000
# 2 13.1028 75.2039 -12.9473 0.0000 0.0000 0.0000
# 3 -3.1147 -12.9473 34.8736 0.0000 0.0000 0.0000
# 4 0.0000 0.0000 0.0000 13.9606 0.0000 0.0000
# 5 0.0000 0.0000 0.0000 0.0000 12.9421 0.0000
# 6 0.0000 0.0000 0.0000 0.0000 0.0000 26.3561
#
#
#
# Elastic Compliance Matrix: (Units=1/GPa)
#
#
# Indices 1 2 3 4 5 6 
#
# 1 0.018899 -0.003207 0.000497 0.000000 0.000000 0.000000
# 2 -0.003207 0.014749 0.005189 0.000000 0.000000 0.000000
# 3 0.000497 0.005189 0.030646 0.000000 0.000000 0.000000
# 4 0.000000 0.000000 0.000000 0.071630 0.000000 0.000000
# 5 0.000000 0.000000 0.000000 0.000000 0.077267 0.000000
# 6 0.000000 0.000000 0.000000 0.000000 0.000000 0.037942
#
#
# Mechanical properties :
#
#
# Convention : Reuss Voigt Hill
#
# Bulk Modulus (GPa) = 14.43975 17.70873 16.07424
# Shear Modulus (GPa) = 18.56951 21.86883 20.21917
#
# Velocity S-wave (km/s) = 2.91655 3.16506 3.04335
# Velocity P-wave (km/s) = 4.23748 4.63344 4.43988
#
# Compressibility (1/GPa) = 0.06925327
#
# Stress axis : x y z
#
# Youngs Moduli (GPa) = 52.91390 67.79944 32.63061
#
# Poissons Ratio (x) = 0.21744 -0.01623
# Poissons Ratio (y) = 0.16970 -0.16934
# Poissons Ratio (z) = -0.02631 -0.35184
#
# Static dielectric constant tensor:
#      x y z
#    x 1.814060 0.000000 0.000000 
#    y 0.000000 1.809440 0.000000 
#    z 0.000000 0.000000 1.814410 
# 
# From -- ./inp_files/4741.got.cif
#   From: 2010.05.17/outbox.cif.g08.bks.cpg/sg58_3_cif.got.tgz:4741.got - 2010.06.03 14:20:14.
