data_PCOD9441810
_publ_section_title
;
Structure prediction by ZEFSAII (Michael W. Deem and Ramdas Pophale) SiO2 
 PCOD9441810
Probable space group: P N N M
;
_chemical_formula_sum "Si O2"
_cell_formula_units_Z 64
_cell_length_a 25.874441
_cell_length_b 14.769906
_cell_length_c 8.808832
_cell_angle_alpha 90.000000
_cell_angle_beta 90.000000
_cell_angle_gamma 90.000000
_cell_volume 3366.410204
_symmetry_space_group_name_H-M "P N N M"
_symmetry_group_IT_number 58
_symmetry_cell_setting 'orthorhombic'
loop_
_space_group_symop_operation_xyz
x,y,z
-x,-y,z
1/2+x,1/2-y,1/2-z
1/2-x,1/2+y,1/2-z
-x,-y,-z
x,y,-z
1/2-x,1/2+y,1/2+z
1/2+x,1/2-y,1/2+z
loop_
_atom_site_type_symbol
_atom_site_label
_atom_site_fract_x
_atom_site_fract_y
_atom_site_fract_z
Si Si1 0.300300 0.938887 0.317863
Si Si2 0.015503 0.230664 0.821896
Si Si3 0.196784 0.828956 0.316936
Si Si4 0.162575 0.115575 0.328106
Si Si5 0.226293 0.622941 0.318510
Si Si6 0.579558 0.646896 0.179491
Si Si7 0.569585 0.464736 0.673163
Si Si8 0.387047 0.815573 0.173803
O O1 0.297846 0.948643 0.500000
O O2 0.246538 0.888458 0.266115
O O3 0.349488 0.878470 0.271953
O O4 0.305250 0.036097 0.237792
O O5 0.040117 0.129756 0.804166
O O6 0.055734 0.297647 0.739815
O O7 0.958203 0.220657 0.754552
O O8 0.013927 0.251029 0.000000
O O9 0.196546 0.838908 0.500000
O O10 0.204767 0.722728 0.283614
O O11 0.138962 0.852990 0.263379
O O12 0.157330 0.078797 0.500000
O O13 0.220560 0.115353 0.273125
O O14 0.128473 0.059973 0.210595
O O15 0.140644 0.217258 0.327891
O O16 0.234459 0.618375 0.500000
O O17 0.557052 0.547802 0.218224
O O18 0.579748 0.661434 0.000000
O O19 0.562020 0.494502 0.500000
O O20 0.389777 0.847859 0.000000
#
# Coordination Sequence:
#
# PCOD9441810 Si02
#       8
#     8   8   8   8   8   8   8   8
#     4  11  21  37  59  85 115 149 187 234 286 336
#     4  10  21  36  54  78 110 149 189 233 286 340
#     4   9  21  38  56  79 115 154 186 224 280 340
#     4  10  19  32  51  78 110 142 182 229 274 325
#     4  11  21  36  56  80 111 151 191 228 279 340
#     4  11  21  35  54  78 110 149 191 235 282 336
#     4  10  20  33  51  77 110 149 188 228 279 340
#     4  10  20  35  56  82 109 142 186 231 275 332
#
# _framework density 19.011348999999999
#
# number of rings (size 3 to 8) (size 9 to 14) (size 15 to 20)
#    0.000    1.750    1.250    3.750    0.000    5.000 
#    0.000    4.375    0.000    0.750    0.000    5.250 
#    0.000    0.000    0.000    0.000    0.000    0.000 
#
# Total GULP energy -357156.803123 kJ/mol
# GULP energy per Si atom -5580.575049 kJ/mol
# Density = 1.896808 g / cm^3
# Si number density = 19.011349 Si / 1000 Ang^3
#
#
#
# Elastic Constant Matrix: (Units=GPa)
#
#
# Indices 1 2 3 4 5 6 
#
# 1 40.9659 1.5550 4.7914 0.0000 0.0000 0.0000
# 2 1.5550 56.5789 11.1927 0.0000 0.0000 0.0000
# 3 4.7914 11.1927 43.2060 0.0000 0.0000 0.0000
# 4 0.0000 0.0000 0.0000 21.2544 0.0000 0.0000
# 5 0.0000 0.0000 0.0000 0.0000 26.8509 0.0000
# 6 0.0000 0.0000 0.0000 0.0000 0.0000 15.4556
#
#
#
# Elastic Compliance Matrix: (Units=1/GPa)
#
#
# Indices 1 2 3 4 5 6 
#
# 1 0.024732 -0.000145 -0.002705 0.000000 0.000000 0.000000
# 2 -0.000145 0.018630 -0.004810 0.000000 0.000000 0.000000
# 3 -0.002705 -0.004810 0.024691 0.000000 0.000000 0.000000
# 4 0.000000 0.000000 0.000000 0.047049 0.000000 0.000000
# 5 0.000000 0.000000 0.000000 0.000000 0.037243 0.000000
# 6 0.000000 0.000000 0.000000 0.000000 0.000000 0.064701
#
#
# Mechanical properties :
#
#
# Convention : Reuss Voigt Hill
#
# Bulk Modulus (GPa) = 18.96330 19.53655 19.24993
# Shear Modulus (GPa) = 20.00445 20.92630 20.46538
#
# Velocity S-wave (km/s) = 3.24734 3.32132 3.28454
# Velocity P-wave (km/s) = 4.90476 5.00068 4.95295
#
# Compressibility (1/GPa) = 0.05273345
#
# Stress axis : x y z
#
# Youngs Moduli (GPa) = 40.43269 53.67691 40.50051
#
# Poissons Ratio (x) = 0.00776 0.10957
# Poissons Ratio (y) = 0.00584 0.19481
# Poissons Ratio (z) = 0.10938 0.25819
#
# Static dielectric constant tensor:
#      x y z
#    x 1.676990 0.000000 0.000000 
#    y 0.000000 1.668560 0.000000 
#    z 0.000000 0.000000 1.640710 
# 
# From -- ./inp_files/6842.got.cif
#   From: 2010.05.17/outbox.cif.g08.bks.cpg/sg58_4_cif.got.tgz:6842.got - 2010.06.03 14:20:14.
