data_PCOD9441639
_publ_section_title
;
Structure prediction by ZEFSAII (Michael W. Deem and Ramdas Pophale) SiO2 
 PCOD9441639
Probable space group: P N N M
;
_chemical_formula_sum "Si O2"
_cell_formula_units_Z 48
_cell_length_a 18.067787
_cell_length_b 5.033114
_cell_length_c 24.500074
_cell_angle_alpha 90.000000
_cell_angle_beta 90.000000
_cell_angle_gamma 90.000000
_cell_volume 2227.968906
_symmetry_space_group_name_H-M "P N N M"
_symmetry_group_IT_number 58
_symmetry_cell_setting 'orthorhombic'
loop_
_space_group_symop_operation_xyz
x,y,z
-x,-y,z
1/2+x,1/2-y,1/2-z
1/2-x,1/2+y,1/2-z
-x,-y,-z
x,y,-z
1/2-x,1/2+y,1/2+z
1/2+x,1/2-y,1/2+z
loop_
_atom_site_type_symbol
_atom_site_label
_atom_site_fract_x
_atom_site_fract_y
_atom_site_fract_z
Si Si1 0.770852 0.097828 0.218962
Si Si2 0.787409 0.348134 0.937683
Si Si3 0.687651 0.826924 0.938126
Si Si4 0.625834 0.010339 0.836911
Si Si5 0.549954 0.738791 0.435375
Si Si6 0.918193 0.008261 0.265774
O O1 0.763056 0.408768 0.232921
O O2 0.714988 0.035138 0.170884
O O3 0.855089 0.004621 0.219523
O O4 0.731321 0.569750 0.914402
O O5 0.868224 0.299843 0.911869
O O6 0.745313 0.069965 0.941745
O O7 0.801457 0.448900 0.000000
O O8 0.620810 0.924950 0.899531
O O9 0.662995 0.763696 0.000000
O O10 0.595770 0.776913 0.799061
O O11 0.593124 0.275780 0.810523
O O12 0.500000 0.500000 0.412272
O O13 0.563059 0.671970 0.500000
O O14 0.500000 0.000000 0.432714
O O15 0.000000 0.000000 0.243012
#
# Coordination Sequence:
#
# PCOD9441639 Si02
#       6
#     8   8   8   8   8   8
#     4   8  16  30  50  76 102 128 160 202 254 309
#     4   9  17  28  42  63  88 121 170 219 257 290
#     4  10  19  31  48  69  97 134 176 219 252 288
#     4  10  19  33  53  78 106 137 172 210 255 308
#     4   9  15  23  37  56  78 106 144 197 256 302
#     4  10  19  33  55  81 106 131 164 209 263 320
#
# _framework density 21.544288999999999
#
# number of rings (size 3 to 8) (size 9 to 14) (size 15 to 20)
#    0.000    2.667    0.000    2.500    0.000    4.000 
#    0.000    0.000    0.000    6.000    0.000    4.667 
#    0.000    0.000    0.000    0.000    0.000    0.000 
#
# Total GULP energy -267496.098724 kJ/mol
# GULP energy per Si atom -5572.835390 kJ/mol
# Density = 2.149525 g / cm^3
# Si number density = 21.544289 Si / 1000 Ang^3
#
#
#
# Elastic Constant Matrix: (Units=GPa)
#
#
# Indices 1 2 3 4 5 6 
#
# 1 86.2505 -10.9111 -5.7689 0.0000 0.0000 0.0000
# 2 -10.9111 179.4691 10.4666 0.0000 0.0000 0.0000
# 3 -5.7689 10.4666 36.0847 0.0000 0.0000 0.0000
# 4 0.0000 0.0000 0.0000 9.7864 0.0000 0.0000
# 5 0.0000 0.0000 0.0000 0.0000 3.9436 0.0000
# 6 0.0000 0.0000 0.0000 0.0000 0.0000 29.6117
#
#
#
# Elastic Compliance Matrix: (Units=1/GPa)
#
#
# Indices 1 2 3 4 5 6 
#
# 1 0.011786 0.000617 0.001705 0.000000 0.000000 0.000000
# 2 0.000617 0.005700 -0.001555 0.000000 0.000000 0.000000
# 3 0.001705 -0.001555 0.028436 0.000000 0.000000 0.000000
# 4 0.000000 0.000000 0.000000 0.102183 0.000000 0.000000
# 5 0.000000 0.000000 0.000000 0.000000 0.253578 0.000000
# 6 0.000000 0.000000 0.000000 0.000000 0.000000 0.033770
#
#
# Mechanical properties :
#
#
# Convention : Reuss Voigt Hill
#
# Bulk Modulus (GPa) = 21.07129 32.15307 26.61218
# Shear Modulus (GPa) = 11.11760 29.20285 20.16022
#
# Velocity S-wave (km/s) = 2.27410 3.68568 3.06233
# Velocity P-wave (km/s) = 4.08621 5.75055 4.98828
#
# Compressibility (1/GPa) = 0.04745793
#
# Stress axis : x y z
#
# Youngs Moduli (GPa) = 84.84454 175.43313 35.16650
#
# Poissons Ratio (x) = -0.10826 -0.05997
# Poissons Ratio (y) = -0.05236 0.05467
# Poissons Ratio (z) = -0.14468 0.27275
#
# Static dielectric constant tensor:
#      x y z
#    x 1.825020 0.000000 0.000000 
#    y 0.000000 1.777360 0.000000 
#    z 0.000000 0.000000 1.837080 
# 
# From -- ./inp_files/32783.got.cif
#   From: 2010.05.17/outbox.cif.g08.bks.cpg/sg58_17_cif.got.tgz:32783.got - 2010.06.03 14:20:14.
