data_PCOD9441701
_publ_section_title
;
Structure prediction by ZEFSAII (Michael W. Deem and Ramdas Pophale) SiO2 
 PCOD9441701
Probable space group: P N N M
;
_chemical_formula_sum "Si O2"
_cell_formula_units_Z 64
_cell_length_a 23.119359
_cell_length_b 14.327392
_cell_length_c 9.417751
_cell_angle_alpha 90.000000
_cell_angle_beta 90.000000
_cell_angle_gamma 90.000000
_cell_volume 3119.536964
_symmetry_space_group_name_H-M "P N N M"
_symmetry_group_IT_number 58
_symmetry_cell_setting 'orthorhombic'
loop_
_space_group_symop_operation_xyz
x,y,z
-x,-y,z
1/2+x,1/2-y,1/2-z
1/2-x,1/2+y,1/2-z
-x,-y,-z
x,y,-z
1/2-x,1/2+y,1/2+z
1/2+x,1/2-y,1/2+z
loop_
_atom_site_type_symbol
_atom_site_label
_atom_site_fract_x
_atom_site_fract_y
_atom_site_fract_z
Si Si1 0.184772 0.369808 0.836175
Si Si2 0.426947 0.133430 0.664009
Si Si3 0.716888 0.337882 0.333486
Si Si4 0.327216 0.044791 0.163649
Si Si5 0.858381 0.988499 0.335844
Si Si6 0.527651 0.365691 0.836463
Si Si7 0.554030 0.186673 0.336542
Si Si8 0.411542 0.355317 0.333185
O O1 0.206798 0.268544 0.787344
O O2 0.201854 0.457290 0.742295
O O3 0.114769 0.365026 0.830981
O O4 0.202310 0.382737 0.000000
O O5 0.416420 0.107110 0.500000
O O6 0.387106 0.072865 0.764330
O O7 0.495773 0.128350 0.690726
O O8 0.409814 0.242927 0.681551
O O9 0.698428 0.343217 0.500000
O O10 0.783323 0.368569 0.325363
O O11 0.681029 0.412400 0.242796
O O12 0.335672 0.021240 0.000000
O O13 0.841428 0.001465 0.500000
O O14 0.922610 0.942816 0.334012
O O15 0.863742 0.085910 0.252039
O O16 0.554966 0.270531 0.775227
O O17 0.473411 0.382607 0.734479
O O18 0.507881 0.355168 0.000000
O O19 0.547458 0.223079 0.500000
O O20 0.409088 0.377832 0.500000
#
# Coordination Sequence:
#
# PCOD9441701 Si02
#       8
#     8   8   8   8   8   8   8   8
#     4  10  21  41  68  91 116 155 202 251 300 357
#     4   9  20  39  60  86 119 157 203 250 297 353
#     4  10  23  43  64  86 116 157 206 251 294 358
#     4  11  25  42  62  91 123 156 197 245 302 364
#     4  11  22  34  54  86 120 156 199 250 306 355
#     4  10  19  31  50  83 124 158 195 245 302 357
#     4   9  18  35  62  90 116 156 206 249 298 361
#     4  10  21  35  55  83 119 164 206 242 291 356
#
# _framework density 20.515865000000002
#
# number of rings (size 3 to 8) (size 9 to 14) (size 15 to 20)
#    0.000    2.000    1.250    2.625    0.000    9.000 
#    0.000    5.000    0.000    0.000    0.000    0.000 
#    0.000    0.000    0.000    0.000    0.000    0.000 
#
# Total GULP energy -357533.480665 kJ/mol
# GULP energy per Si atom -5586.460635 kJ/mol
# Density = 2.046917 g / cm^3
# Si number density = 20.515865 Si / 1000 Ang^3
#
#
#
# Elastic Constant Matrix: (Units=GPa)
#
#
# Indices 1 2 3 4 5 6 
#
# 1 26.1099 26.6663 16.3969 0.0000 0.0000 0.0000
# 2 26.6663 67.2193 38.1385 0.0000 0.0000 0.0000
# 3 16.3969 38.1385 80.6650 0.0000 0.0000 0.0000
# 4 0.0000 0.0000 0.0000 19.0673 0.0000 0.0000
# 5 0.0000 0.0000 0.0000 0.0000 14.6113 0.0000
# 6 0.0000 0.0000 0.0000 0.0000 0.0000 22.9113
#
#
#
# Elastic Compliance Matrix: (Units=1/GPa)
#
#
# Indices 1 2 3 4 5 6 
#
# 1 0.064499 -0.024802 -0.001385 0.000000 0.000000 0.000000
# 2 -0.024802 0.029867 -0.009080 0.000000 0.000000 0.000000
# 3 -0.001385 -0.009080 0.016971 0.000000 0.000000 0.000000
# 4 0.000000 0.000000 0.000000 0.052446 0.000000 0.000000
# 5 0.000000 0.000000 0.000000 0.000000 0.068440 0.000000
# 6 0.000000 0.000000 0.000000 0.000000 0.000000 0.043647
#
#
# Mechanical properties :
#
#
# Convention : Reuss Voigt Hill
#
# Bulk Modulus (GPa) = 24.50632 37.37752 30.94192
# Shear Modulus (GPa) = 13.88868 17.50413 15.69641
#
# Velocity S-wave (km/s) = 2.60469 2.92413 2.76902
# Velocity P-wave (km/s) = 4.58442 5.44602 5.03368
#
# Compressibility (1/GPa) = 0.04080580
#
# Stress axis : x y z
#
# Youngs Moduli (GPa) = 15.50400 33.48136 58.92278
#
# Poissons Ratio (x) = 0.83040 0.08158
# Poissons Ratio (y) = 0.38453 0.53501
# Poissons Ratio (z) = 0.02147 0.30401
#
# Static dielectric constant tensor:
#      x y z
#    x 1.738540 0.000000 0.000000 
#    y 0.000000 1.730300 0.000000 
#    z 0.000000 0.000000 1.702300 
# 
# From -- ./inp_files/9982.got.cif
#   From: 2010.05.17/outbox.cif.g08.bks.cpg/sg58_5_cif.got.tgz:9982.got - 2010.06.03 14:20:14.
