data_PCOD9441418
_publ_section_title
;
Structure prediction by ZEFSAII (Michael W. Deem and Ramdas Pophale) SiO2 
 PCOD9441418
Probable space group: P N N M
;
_chemical_formula_sum "Si O2"
_cell_formula_units_Z 64
_cell_length_a 14.238876
_cell_length_b 17.219029
_cell_length_c 15.374172
_cell_angle_alpha 90.000000
_cell_angle_beta 90.000000
_cell_angle_gamma 90.000000
_cell_volume 3769.433630
_symmetry_space_group_name_H-M "P N N M"
_symmetry_group_IT_number 58
_symmetry_cell_setting 'orthorhombic'
loop_
_space_group_symop_operation_xyz
x,y,z
-x,-y,z
1/2+x,1/2-y,1/2-z
1/2-x,1/2+y,1/2-z
-x,-y,-z
x,y,-z
1/2-x,1/2+y,1/2+z
1/2+x,1/2-y,1/2+z
loop_
_atom_site_type_symbol
_atom_site_label
_atom_site_fract_x
_atom_site_fract_y
_atom_site_fract_z
Si Si1 0.382076 0.651111 0.694209
Si Si2 0.890386 0.518155 0.102003
Si Si3 0.744124 0.405023 0.148559
Si Si4 0.867037 0.263343 0.902272
Si Si5 0.914732 0.694525 0.101010
Si Si6 0.886767 0.996964 0.906117
Si Si7 0.398251 0.462646 0.901495
Si Si8 0.395602 0.372807 0.729695
O O1 0.311586 0.628374 0.769866
O O2 0.374902 0.738776 0.662105
O O3 0.362547 0.591158 0.616249
O O4 0.490649 0.635946 0.722355
O O5 0.832181 0.462047 0.163918
O O6 0.878367 0.608808 0.121412
O O7 0.000000 0.500000 0.107371
O O8 0.863163 0.504122 0.000000
O O9 0.789493 0.330793 0.101272
O O10 0.672476 0.464408 0.102489
O O11 0.857094 0.202181 0.822924
O O12 0.971262 0.300913 0.892830
O O13 0.865971 0.226998 0.000000
O O14 0.892581 0.710871 0.000000
O O15 0.862014 0.053796 0.827701
O O16 0.849527 0.021316 0.000000
O O17 0.000000 0.000000 0.910170
O O18 0.500000 0.500000 0.880682
O O19 0.374693 0.397590 0.828965
O O20 0.399623 0.431603 0.000000
#
# Coordination Sequence:
#
# PCOD9441418 Si02
#       8
#     8   8   8   8   8   8   8   8
#     4  10  19  31  49  77 116 143 177 227 274 333
#     4  10  19  34  55  79 109 142 185 234 280 333
#     4  12  21  34  53  81 113 147 184 226 277 334
#     4  10  20  33  55  83 110 141 181 237 291 334
#     4   9  18  34  55  79 108 143 183 229 289 335
#     4   9  15  27  50  75 105 142 176 216 272 329
#     4  11  21  35  54  78 113 155 190 223 267 332
#     4  10  18  35  51  76 108 144 187 223 275 333
#
# _framework density 16.978679
#
# number of rings (size 3 to 8) (size 9 to 14) (size 15 to 20)
#    0.000    1.875    3.750    2.250    0.000    4.000 
#    0.000    0.000    0.000    0.750    0.000    0.000 
#    0.000    2.000    0.000    1.500    0.000    0.000 
#
# Total GULP energy -356533.405326 kJ/mol
# GULP energy per Si atom -5570.834458 kJ/mol
# Density = 1.694003 g / cm^3
# Si number density = 16.978679 Si / 1000 Ang^3
#
#
#
# Elastic Constant Matrix: (Units=GPa)
#
#
# Indices 1 2 3 4 5 6 
#
# 1 55.1169 28.4364 16.7999 0.0000 0.0000 0.0000
# 2 28.4364 103.0917 52.2601 0.0000 0.0000 0.0000
# 3 16.7999 52.2601 96.8505 0.0000 0.0000 0.0000
# 4 0.0000 0.0000 0.0000 14.3910 0.0000 0.0000
# 5 0.0000 0.0000 0.0000 0.0000 15.2013 0.0000
# 6 0.0000 0.0000 0.0000 0.0000 0.0000 26.7002
#
#
#
# Elastic Compliance Matrix: (Units=1/GPa)
#
#
# Indices 1 2 3 4 5 6 
#
# 1 0.021190 -0.005481 -0.000718 0.000000 0.000000 0.000000
# 2 -0.005481 0.014770 -0.007019 0.000000 0.000000 0.000000
# 3 -0.000718 -0.007019 0.014237 0.000000 0.000000 0.000000
# 4 0.000000 0.000000 0.000000 0.069488 0.000000 0.000000
# 5 0.000000 0.000000 0.000000 0.000000 0.065784 0.000000
# 6 0.000000 0.000000 0.000000 0.000000 0.000000 0.037453
#
#
# Mechanical properties :
#
#
# Convention : Reuss Voigt Hill
#
# Bulk Modulus (GPa) = 42.08603 50.00576 46.04590
# Shear Modulus (GPa) = 19.43420 21.76270 20.59845
#
# Velocity S-wave (km/s) = 3.38690 3.58406 3.48687
# Velocity P-wave (km/s) = 6.33531 6.82959 6.58709
#
# Compressibility (1/GPa) = 0.02376085
#
# Stress axis : x y z
#
# Youngs Moduli (GPa) = 47.19231 67.70411 70.23800
#
# Poissons Ratio (x) = 0.37108 0.05044
# Poissons Ratio (y) = 0.25865 0.49301
# Poissons Ratio (z) = 0.03389 0.47523
#
# Static dielectric constant tensor:
#      x y z
#    x 1.596900 0.000000 0.000000 
#    y 0.000000 1.586370 0.000000 
#    z 0.000000 0.000000 1.590020 
# 
# From -- ./inp_files/22457.got.cif
#   From: 2010.05.17/outbox.cif.g08.bks.cpg/sg58_12_cif.got.tgz:22457.got - 2010.06.03 14:20:14.
