data_PCOD9441722
_publ_section_title
;
Structure prediction by ZEFSAII (Michael W. Deem and Ramdas Pophale) SiO2 
 PCOD9441722
Probable space group: P N N M
;
_chemical_formula_sum "Si O2"
_cell_formula_units_Z 56
_cell_length_a 7.502498
_cell_length_b 19.185893
_cell_length_c 22.384101
_cell_angle_alpha 90.000000
_cell_angle_beta 90.000000
_cell_angle_gamma 90.000000
_cell_volume 3222.015039
_symmetry_space_group_name_H-M "P N N M"
_symmetry_group_IT_number 58
_symmetry_cell_setting 'orthorhombic'
loop_
_space_group_symop_operation_xyz
x,y,z
-x,-y,z
1/2+x,1/2-y,1/2-z
1/2-x,1/2+y,1/2-z
-x,-y,-z
x,y,-z
1/2-x,1/2+y,1/2+z
1/2+x,1/2-y,1/2+z
loop_
_atom_site_type_symbol
_atom_site_label
_atom_site_fract_x
_atom_site_fract_y
_atom_site_fract_z
Si Si1 0.398250 0.338420 0.567219
Si Si2 0.308525 0.782916 0.433013
Si Si3 0.513888 0.702353 0.760696
Si Si4 0.459407 0.419565 0.682513
Si Si5 0.959983 0.580858 0.705790
Si Si6 0.592326 0.170728 0.311301
Si Si7 0.029652 0.291103 0.627319
O O1 0.379993 0.366883 0.500000
O O2 0.537408 0.275191 0.565379
O O3 0.478271 0.392598 0.615035
O O4 0.205178 0.311166 0.589962
O O5 0.285224 0.811138 0.500000
O O6 0.375955 0.835706 0.381633
O O7 0.126175 0.745400 0.410867
O O8 0.443950 0.631721 0.729845
O O9 0.513275 0.759688 0.708106
O O10 0.710975 0.687050 0.785084
O O11 0.422684 0.738590 0.817923
O O12 0.500000 0.500000 0.690149
O O13 0.250130 0.411368 0.694816
O O14 0.990044 0.607537 0.773476
O O15 0.041165 0.638057 0.660117
O O16 0.000000 0.500000 0.696137
#
# Coordination Sequence:
#
# PCOD9441722 Si02
#       7
#     8   8   8   8   8   8   8
#     4  10  20  34  49  71 101 131 168 201 233 288
#     4  10  19  31  52  75  96 129 166 198 242 289
#     4   9  17  30  48  72  92 125 159 199 255 286
#     4  10  20  31  47  70 103 129 163 204 240 292
#     4   9  19  32  48  73  96 128 162 200 254 293
#     4   9  17  30  49  69  97 120 160 205 242 294
#     4   9  19  34  53  70  99 127 161 210 244 283
#
# _framework density 17.380427999999998
#
# number of rings (size 3 to 8) (size 9 to 14) (size 15 to 20)
#    0.000    2.571    1.429    1.286    2.000    1.429 
#    0.000    0.000    0.000    2.571    0.000    0.000 
#    0.000    7.429    0.000    0.000    0.000    0.000 
#
# Total GULP energy -311742.808556 kJ/mol
# GULP energy per Si atom -5566.835867 kJ/mol
# Density = 1.734087 g / cm^3
# Si number density = 17.380428 Si / 1000 Ang^3
#
#
#
# Elastic Constant Matrix: (Units=GPa)
#
#
# Indices 1 2 3 4 5 6 
#
# 1 35.6976 -3.7132 15.4842 0.0000 0.0000 0.0000
# 2 -3.7132 60.3087 33.3462 0.0000 0.0000 0.0000
# 3 15.4842 33.3462 137.4364 0.0000 0.0000 0.0000
# 4 0.0000 0.0000 0.0000 17.7206 0.0000 0.0000
# 5 0.0000 0.0000 0.0000 0.0000 20.2983 0.0000
# 6 0.0000 0.0000 0.0000 0.0000 0.0000 15.8928
#
#
#
# Elastic Compliance Matrix: (Units=1/GPa)
#
#
# Indices 1 2 3 4 5 6 
#
# 1 0.030410 0.004350 -0.004482 0.000000 0.000000 0.000000
# 2 0.004350 0.019773 -0.005288 0.000000 0.000000 0.000000
# 3 -0.004482 -0.005288 0.009064 0.000000 0.000000 0.000000
# 4 0.000000 0.000000 0.000000 0.056432 0.000000 0.000000
# 5 0.000000 0.000000 0.000000 0.000000 0.049265 0.000000
# 6 0.000000 0.000000 0.000000 0.000000 0.000000 0.062922
#
#
# Mechanical properties :
#
#
# Convention : Reuss Voigt Hill
#
# Bulk Modulus (GPa) = 20.65753 35.96412 28.31083
# Shear Modulus (GPa) = 19.62026 23.33737 21.47881
#
# Velocity S-wave (km/s) = 3.36351 3.66831 3.51921
# Velocity P-wave (km/s) = 5.19573 6.21927 5.73040
#
# Compressibility (1/GPa) = 0.04840849
#
# Stress axis : x y z
#
# Youngs Moduli (GPa) = 32.88445 50.57440 110.32728
#
# Poissons Ratio (x) = -0.22001 0.49444
# Poissons Ratio (y) = -0.14306 0.58337
# Poissons Ratio (z) = 0.14737 0.26742
#
# Static dielectric constant tensor:
#      x y z
#    x 1.625190 0.000000 0.000000 
#    y 0.000000 1.612190 0.000000 
#    z 0.000000 0.000000 1.645080 
# 
# From -- ./inp_files/29065.got.cif
#   From: 2010.05.17/outbox.cif.g08.bks.cpg/sg58_15_cif.got.tgz:29065.got - 2010.06.03 14:20:14.
