data_PCOD9441756
_publ_section_title
;
Structure prediction by ZEFSAII (Michael W. Deem and Ramdas Pophale) SiO2 
 PCOD9441756
Probable space group: P N N M
;
_chemical_formula_sum "Si O2"
_cell_formula_units_Z 64
_cell_length_a 14.816515
_cell_length_b 24.474405
_cell_length_c 8.995288
_cell_angle_alpha 90.000000
_cell_angle_beta 90.000000
_cell_angle_gamma 90.000000
_cell_volume 3261.919808
_symmetry_space_group_name_H-M "P N N M"
_symmetry_group_IT_number 58
_symmetry_cell_setting 'orthorhombic'
loop_
_space_group_symop_operation_xyz
x,y,z
-x,-y,z
1/2+x,1/2-y,1/2-z
1/2-x,1/2+y,1/2-z
-x,-y,-z
x,y,-z
1/2-x,1/2+y,1/2+z
1/2+x,1/2-y,1/2+z
loop_
_atom_site_type_symbol
_atom_site_label
_atom_site_fract_x
_atom_site_fract_y
_atom_site_fract_z
Si Si1 0.753619 0.087158 0.669312
Si Si2 0.327503 0.306427 0.675821
Si Si3 0.765799 0.973750 0.176352
Si Si4 0.646291 0.248670 0.176693
Si Si5 0.050552 0.056508 0.322469
Si Si6 0.939408 0.642418 0.828891
Si Si7 0.440816 0.053669 0.178931
Si Si8 0.521670 0.331857 0.324628
O O1 0.780568 0.073238 0.500000
O O2 0.802353 0.141288 0.726373
O O3 0.771276 0.037168 0.777811
O O4 0.647952 0.102593 0.671157
O O5 0.316880 0.320111 0.500000
O O6 0.252280 0.261135 0.709554
O O7 0.432429 0.294857 0.700527
O O8 0.846836 0.945316 0.263994
O O9 0.664463 0.954752 0.216229
O O10 0.778140 0.966782 0.000000
O O11 0.592657 0.196237 0.241411
O O12 0.606001 0.302249 0.250793
O O13 0.634532 0.250857 0.000000
O O14 0.047956 0.061689 0.500000
O O15 0.005882 0.109044 0.246857
O O16 0.000000 0.000000 0.281717
O O17 0.018284 0.607516 0.754053
O O18 0.959923 0.656745 0.000000
O O19 0.500000 0.000000 0.222355
O O20 0.448483 0.058376 0.000000
O O21 0.535052 0.337781 0.500000
#
# Coordination Sequence:
#
# PCOD9441756 Si02
#       8
#     8   8   8   8   8   8   8   8
#     4  10  19  31  53  85 119 153 197 246 291 347
#     4   9  20  38  62  88 115 152 196 243 298 354
#     4  11  22  36  57  85 119 160 202 245 300 358
#     4  10  21  40  64  89 119 156 200 250 302 358
#     4  11  25  44  65  91 123 159 201 252 310 371
#     4  10  20  34  55  84 118 158 202 250 299 352
#     4  10  20  35  55  83 121 163 205 250 300 362
#     4  11  23  42  66  93 123 157 202 253 307 367
#
# _framework density 19.620346999999999
#
# number of rings (size 3 to 8) (size 9 to 14) (size 15 to 20)
#    0.000    1.750    1.250    3.000    0.000    6.750 
#    2.250    0.000    0.000    0.000    0.000    0.000 
#    0.000    0.000    0.000    0.000    0.000    0.000 
#
# Total GULP energy -357494.758944 kJ/mol
# GULP energy per Si atom -5585.855609 kJ/mol
# Density = 1.957569 g / cm^3
# Si number density = 19.620347 Si / 1000 Ang^3
#
#
#
# Elastic Constant Matrix: (Units=GPa)
#
#
# Indices 1 2 3 4 5 6 
#
# 1 108.5543 30.3108 48.8976 0.0000 0.0000 0.0000
# 2 30.3108 64.5383 30.9745 0.0000 0.0000 0.0000
# 3 48.8976 30.9745 60.4691 0.0000 0.0000 0.0000
# 4 0.0000 0.0000 0.0000 26.0740 0.0000 0.0000
# 5 0.0000 0.0000 0.0000 0.0000 15.4761 0.0000
# 6 0.0000 0.0000 0.0000 0.0000 0.0000 23.7628
#
#
#
# Elastic Compliance Matrix: (Units=1/GPa)
#
#
# Indices 1 2 3 4 5 6 
#
# 1 0.014610 -0.001580 -0.011005 0.000000 0.000000 0.000000
# 2 -0.001580 0.020717 -0.009334 0.000000 0.000000 0.000000
# 3 -0.011005 -0.009334 0.030218 0.000000 0.000000 0.000000
# 4 0.000000 0.000000 0.000000 0.038352 0.000000 0.000000
# 5 0.000000 0.000000 0.000000 0.000000 0.064616 0.000000
# 6 0.000000 0.000000 0.000000 0.000000 0.000000 0.042083
#
#
# Mechanical properties :
#
#
# Convention : Reuss Voigt Hill
#
# Bulk Modulus (GPa) = 46.06984 50.43639 48.25312
# Shear Modulus (GPa) = 19.10807 21.28782 20.19794
#
# Velocity S-wave (km/s) = 3.12411 3.29749 3.21197
# Velocity P-wave (km/s) = 6.04525 6.34507 6.19697
#
# Compressibility (1/GPa) = 0.02170617
#
# Stress axis : x y z
#
# Youngs Moduli (GPa) = 68.44453 48.27054 33.09303
#
# Poissons Ratio (x) = 0.07627 0.36419
# Poissons Ratio (y) = 0.10814 0.30889
# Poissons Ratio (z) = 0.75324 0.45056
#
# Static dielectric constant tensor:
#      x y z
#    x 1.704600 0.000000 0.000000 
#    y 0.000000 1.670590 0.000000 
#    z 0.000000 0.000000 1.654960 
# 
# From -- ./inp_files/6869.got.cif
#   From: 2010.05.17/outbox.cif.g08.bks.cpg/sg58_4_cif.got.tgz:6869.got - 2010.06.03 14:20:14.
