data_PCOD9441629
_publ_section_title
;
Structure prediction by ZEFSAII (Michael W. Deem and Ramdas Pophale) SiO2 
 PCOD9441629
Probable space group: P N N M
;
_chemical_formula_sum "Si O2"
_cell_formula_units_Z 40
_cell_length_a 26.739697
_cell_length_b 10.003907
_cell_length_c 7.879219
_cell_angle_alpha 90.000000
_cell_angle_beta 90.000000
_cell_angle_gamma 90.000000
_cell_volume 2107.702444
_symmetry_space_group_name_H-M "P N N M"
_symmetry_group_IT_number 58
_symmetry_cell_setting 'orthorhombic'
loop_
_space_group_symop_operation_xyz
x,y,z
-x,-y,z
1/2+x,1/2-y,1/2-z
1/2-x,1/2+y,1/2-z
-x,-y,-z
x,y,-z
1/2-x,1/2+y,1/2+z
1/2+x,1/2-y,1/2+z
loop_
_atom_site_type_symbol
_atom_site_label
_atom_site_fract_x
_atom_site_fract_y
_atom_site_fract_z
Si Si1 0.136240 0.298468 0.297751
Si Si2 0.832505 0.993469 0.795134
Si Si3 0.444004 0.009643 0.702066
Si Si4 0.718349 0.992343 0.204576
Si Si5 0.863343 0.280260 0.795630
O O1 0.135063 0.311253 0.500000
O O2 0.141058 0.144246 0.251969
O O3 0.087797 0.375031 0.228740
O O4 0.184992 0.381711 0.235142
O O5 0.775045 0.991772 0.732096
O O6 0.859164 0.128690 0.733489
O O7 0.830830 0.000037 0.000000
O O8 0.448246 0.031854 0.500000
O O9 0.500000 0.000000 0.772436
O O10 0.409335 0.130156 0.771230
O O11 0.687336 0.860893 0.254451
O O12 0.720190 0.998260 0.000000
O O13 0.867479 0.276743 0.000000
#
# Coordination Sequence:
#
# PCOD9441629 Si02
#       5
#     8   8   8   8   8
#     4  10  20  33  50  74 101 129 163 201 242 288
#     4  10  19  31  47  70 101 131 158 193 237 284
#     4   9  18  35  57  75  92 122 165 208 250 296
#     4   9  18  31  47  69  98 131 163 193 230 282
#     4   9  18  32  50  72  97 126 162 202 241 285
#
# _framework density 18.978012
#
# number of rings (size 3 to 8) (size 9 to 14) (size 15 to 20)
#    0.000    2.600    0.000    1.800    0.000    4.400 
#    0.000    1.000    0.000    6.000    0.000    0.000 
#    0.000    0.000    0.000    0.000    0.000    0.000 
#
# Total GULP energy -223163.360393 kJ/mol
# GULP energy per Si atom -5579.084010 kJ/mol
# Density = 1.893482 g / cm^3
# Si number density = 18.978012 Si / 1000 Ang^3
#
#
#
# Elastic Constant Matrix: (Units=GPa)
#
#
# Indices 1 2 3 4 5 6 
#
# 1 144.7314 68.3005 -0.2396 0.0000 0.0000 0.0000
# 2 68.3005 148.6775 -13.5390 0.0000 0.0000 0.0000
# 3 -0.2396 -13.5390 12.1838 0.0000 0.0000 0.0000
# 4 0.0000 0.0000 0.0000 4.0560 0.0000 0.0000
# 5 0.0000 0.0000 0.0000 0.0000 15.3286 0.0000
# 6 0.0000 0.0000 0.0000 0.0000 0.0000 3.9446
#
#
#
# Elastic Compliance Matrix: (Units=1/GPa)
#
#
# Indices 1 2 3 4 5 6 
#
# 1 0.009084 -0.004625 -0.004960 0.000000 0.000000 0.000000
# 2 -0.004625 0.009838 0.010841 0.000000 0.000000 0.000000
# 3 -0.004960 0.010841 0.094025 0.000000 0.000000 0.000000
# 4 0.000000 0.000000 0.000000 0.246546 0.000000 0.000000
# 5 0.000000 0.000000 0.000000 0.000000 0.065238 0.000000
# 6 0.000000 0.000000 0.000000 0.000000 0.000000 0.253509
#
#
# Mechanical properties :
#
#
# Convention : Reuss Voigt Hill
#
# Bulk Modulus (GPa) = 8.66113 46.07071 27.36592
# Shear Modulus (GPa) = 7.00072 21.40391 14.20231
#
# Velocity S-wave (km/s) = 1.92272 3.36196 2.73858
# Velocity P-wave (km/s) = 3.08267 6.27685 4.94478
#
# Compressibility (1/GPa) = 0.11545842
#
# Stress axis : x y z
#
# Youngs Moduli (GPa) = 110.08944 101.65046 10.63545
#
# Poissons Ratio (x) = 0.47009 0.05276
# Poissons Ratio (y) = 0.50911 -0.11530
# Poissons Ratio (z) = 0.54608 -1.10198
#
# Static dielectric constant tensor:
#      x y z
#    x 1.654550 0.000000 0.000000 
#    y 0.000000 1.656510 0.000000 
#    z 0.000000 0.000000 1.679500 
# 
# From -- ./inp_files/2400.got.cif
#   From: 2010.05.17/outbox.cif.g08.bks.cpg/sg58_2_cif.got.tgz:2400.got - 2010.06.03 14:20:14.
