data_PCOD9441152
_publ_section_title
;
Structure prediction by ZEFSAII (Michael W. Deem and Ramdas Pophale) SiO2 
 PCOD9441152
Probable space group: P N N M
;
_chemical_formula_sum "Si O2"
_cell_formula_units_Z 40
_cell_length_a 13.985755
_cell_length_b 19.040974
_cell_length_c 7.767990
_cell_angle_alpha 90.000000
_cell_angle_beta 90.000000
_cell_angle_gamma 90.000000
_cell_volume 2068.634359
_symmetry_space_group_name_H-M "P N N M"
_symmetry_group_IT_number 58
_symmetry_cell_setting 'orthorhombic'
loop_
_space_group_symop_operation_xyz
x,y,z
-x,-y,z
1/2+x,1/2-y,1/2-z
1/2-x,1/2+y,1/2-z
-x,-y,-z
x,y,-z
1/2-x,1/2+y,1/2+z
1/2+x,1/2-y,1/2+z
loop_
_atom_site_type_symbol
_atom_site_label
_atom_site_fract_x
_atom_site_fract_y
_atom_site_fract_z
Si Si1 0.093903 0.715069 0.289137
Si Si2 0.379689 0.791411 0.795533
Si Si3 0.606257 0.492150 0.298522
Si Si4 0.314754 0.360624 0.799800
Si Si5 0.786292 0.855600 0.791553
O O1 0.093483 0.716280 0.500000
O O2 0.125288 0.793459 0.232711
O O3 0.178504 0.662818 0.233630
O O4 0.987400 0.696387 0.232059
O O5 0.295934 0.838719 0.716953
O O6 0.351149 0.710701 0.759848
O O7 0.377537 0.803073 0.000000
O O8 0.500000 0.500000 0.222025
O O9 0.593185 0.474493 0.500000
O O10 0.659360 0.566326 0.286635
O O11 0.668360 0.427863 0.225850
O O12 0.338616 0.368750 0.000000
O O13 0.782552 0.857131 0.000000
#
# Coordination Sequence:
#
# PCOD9441152 Si02
#       5
#     8   8   8   8   8
#     4   8  16  31  50  70  93 127 164 197 238 291
#     4  10  18  31  52  74  95 123 165 206 240 285
#     4  10  20  33  51  76 103 130 163 205 250 293
#     4  10  20  34  51  73 102 132 164 201 246 297
#     4   9  18  33  50  71 101 130 159 198 246 296
#
# _framework density 19.336428999999999
#
# number of rings (size 3 to 8) (size 9 to 14) (size 15 to 20)
#    0.000    2.600    0.000    3.600    0.000    1.200 
#    0.000   10.000    0.000    6.000    0.000    0.000 
#    0.000    0.000    0.000    0.000    0.000    0.000 
#
# Total GULP energy -223135.012683 kJ/mol
# GULP energy per Si atom -5578.375317 kJ/mol
# Density = 1.929242 g / cm^3
# Si number density = 19.336429 Si / 1000 Ang^3
#
#
#
# Elastic Constant Matrix: (Units=GPa)
#
#
# Indices 1 2 3 4 5 6 
#
# 1 128.2976 53.0716 -7.6270 0.0000 0.0000 0.0000
# 2 53.0716 107.7743 -11.3311 0.0000 0.0000 0.0000
# 3 -7.6270 -11.3311 21.5347 0.0000 0.0000 0.0000
# 4 0.0000 0.0000 0.0000 14.2988 0.0000 0.0000
# 5 0.0000 0.0000 0.0000 0.0000 16.7762 0.0000
# 6 0.0000 0.0000 0.0000 0.0000 0.0000 11.8524
#
#
#
# Elastic Compliance Matrix: (Units=1/GPa)
#
#
# Indices 1 2 3 4 5 6 
#
# 1 0.009808 -0.004726 0.000987 0.000000 0.000000 0.000000
# 2 -0.004726 0.012099 0.004693 0.000000 0.000000 0.000000
# 3 0.000987 0.004693 0.049255 0.000000 0.000000 0.000000
# 4 0.000000 0.000000 0.000000 0.069936 0.000000 0.000000
# 5 0.000000 0.000000 0.000000 0.000000 0.059608 0.000000
# 6 0.000000 0.000000 0.000000 0.000000 0.000000 0.084371
#
#
# Mechanical properties :
#
#
# Convention : Reuss Voigt Hill
#
# Bulk Modulus (GPa) = 13.68555 36.20375 24.94465
# Shear Modulus (GPa) = 16.25869 23.48500 19.87184
#
# Velocity S-wave (km/s) = 2.90286 3.48882 3.20924
# Velocity P-wave (km/s) = 4.28117 5.91547 5.16339
#
# Compressibility (1/GPa) = 0.07306978
#
# Stress axis : x y z
#
# Youngs Moduli (GPa) = 101.95738 82.64964 20.30232
#
# Poissons Ratio (x) = 0.39060 -0.02004
# Poissons Ratio (y) = 0.48185 -0.09527
# Poissons Ratio (z) = -0.10063 -0.38784
#
# Static dielectric constant tensor:
#      x y z
#    x 1.687130 0.000000 0.000000 
#    y 0.000000 1.641570 0.000000 
#    z 0.000000 0.000000 1.698630 
# 
# From -- ./inp_files/3760.got.cif
#   From: 2010.05.17/outbox.cif.g08.bks.cpg/sg58_2_cif.got.tgz:3760.got - 2010.06.03 14:20:14.
