data_PCOD9441430
_publ_section_title
;
Structure prediction by ZEFSAII (Michael W. Deem and Ramdas Pophale) SiO2 
 PCOD9441430
Probable space group: P N N M
;
_chemical_formula_sum "Si O2"
_cell_formula_units_Z 56
_cell_length_a 21.496384
_cell_length_b 15.414831
_cell_length_c 8.294454
_cell_angle_alpha 90.000000
_cell_angle_beta 90.000000
_cell_angle_gamma 90.000000
_cell_volume 2748.476210
_symmetry_space_group_name_H-M "P N N M"
_symmetry_group_IT_number 58
_symmetry_cell_setting 'orthorhombic'
loop_
_space_group_symop_operation_xyz
x,y,z
-x,-y,z
1/2+x,1/2-y,1/2-z
1/2-x,1/2+y,1/2-z
-x,-y,-z
x,y,-z
1/2-x,1/2+y,1/2+z
1/2+x,1/2-y,1/2+z
loop_
_atom_site_type_symbol
_atom_site_label
_atom_site_fract_x
_atom_site_fract_y
_atom_site_fract_z
Si Si1 0.392555 0.735724 0.303837
Si Si2 0.544392 0.581100 0.813609
Si Si3 0.867086 0.955421 0.812802
Si Si4 0.225218 0.510736 0.311365
Si Si5 0.659270 0.822135 0.808909
Si Si6 0.026973 0.732705 0.186332
Si Si7 0.762187 0.684966 0.307501
O O1 0.390186 0.736149 0.500000
O O2 0.395827 0.634728 0.252944
O O3 0.456389 0.783317 0.253066
O O4 0.328426 0.772942 0.237613
O O5 0.500000 0.500000 0.773508
O O6 0.611568 0.538385 0.786892
O O7 0.534942 0.663471 0.702701
O O8 0.535083 0.605997 0.000000
O O9 0.793284 0.946499 0.808074
O O10 0.885241 0.969333 0.000000
O O11 0.207313 0.498354 0.500000
O O12 0.180171 0.583988 0.239663
O O13 0.233264 0.414000 0.242456
O O14 0.586970 0.805596 0.773511
O O15 0.704759 0.744814 0.750008
O O16 0.668657 0.825427 0.000000
O O17 0.029740 0.706901 0.000000
O O18 0.755284 0.680210 0.500000
#
# Coordination Sequence:
#
# PCOD9441430 Si02
#       7
#     8   8   8   8   8   8   8
#     4  10  21  38  60  84 116 160 199 242 298 356
#     4  11  22  33  50  83 120 151 191 240 294 355
#     4  10  18  35  59  80 111 156 196 236 297 363
#     4   9  20  38  60  85 115 151 195 243 298 359
#     4  11  22  41  64  88 121 159 200 249 305 359
#     4  11  23  39  58  84 119 160 204 246 304 363
#     4  11  22  38  63  93 121 155 201 251 299 359
#
# _framework density 20.374927
#
# number of rings (size 3 to 8) (size 9 to 14) (size 15 to 20)
#    0.000    1.571    2.857    2.571    0.000    3.429 
#    0.000    4.286    0.000    4.286    0.000    0.000 
#    0.000    0.000    0.000    0.000    0.000    0.000 
#
# Total GULP energy -312469.792661 kJ/mol
# GULP energy per Si atom -5579.817726 kJ/mol
# Density = 2.032855 g / cm^3
# Si number density = 20.374927 Si / 1000 Ang^3
#
#
#
# Elastic Constant Matrix: (Units=GPa)
#
#
# Indices 1 2 3 4 5 6 
#
# 1 72.2673 10.9946 5.1327 0.0000 0.0000 0.0000
# 2 10.9946 60.6358 2.6319 0.0000 0.0000 0.0000
# 3 5.1327 2.6319 24.8646 0.0000 0.0000 0.0000
# 4 0.0000 0.0000 0.0000 10.1131 0.0000 0.0000
# 5 0.0000 0.0000 0.0000 0.0000 28.0697 0.0000
# 6 0.0000 0.0000 0.0000 0.0000 0.0000 28.9717
#
#
#
# Elastic Compliance Matrix: (Units=1/GPa)
#
#
# Indices 1 2 3 4 5 6 
#
# 1 0.014410 -0.002495 -0.002710 0.000000 0.000000 0.000000
# 2 -0.002495 0.017000 -0.001284 0.000000 0.000000 0.000000
# 3 -0.002710 -0.001284 0.040913 0.000000 0.000000 0.000000
# 4 0.000000 0.000000 0.000000 0.098882 0.000000 0.000000
# 5 0.000000 0.000000 0.000000 0.000000 0.035626 0.000000
# 6 0.000000 0.000000 0.000000 0.000000 0.000000 0.034516
#
#
# Mechanical properties :
#
#
# Convention : Reuss Voigt Hill
#
# Bulk Modulus (GPa) = 16.85117 21.69846 19.27481
# Shear Modulus (GPa) = 18.24101 22.69813 20.46957
#
# Velocity S-wave (km/s) = 2.99535 3.34132 3.17305
# Velocity P-wave (km/s) = 4.50015 5.05555 4.78591
#
# Compressibility (1/GPa) = 0.05934306
#
# Stress axis : x y z
#
# Youngs Moduli (GPa) = 69.39809 58.82326 24.44197
#
# Poissons Ratio (x) = 0.14677 0.06625
# Poissons Ratio (y) = 0.17316 0.03139
# Poissons Ratio (z) = 0.18810 0.07555
#
# Static dielectric constant tensor:
#      x y z
#    x 1.769810 0.000000 0.000000 
#    y 0.000000 1.740440 0.000000 
#    z 0.000000 0.000000 1.721540 
# 
# From -- ./inp_files/6260.got.cif
#   From: 2010.05.17/outbox.cif.g08.bks.cpg/sg58_4_cif.got.tgz:6260.got - 2010.06.03 14:20:14.
