data_PCOD9441369
_publ_section_title
;
Structure prediction by ZEFSAII (Michael W. Deem and Ramdas Pophale) SiO2 
 PCOD9441369
Probable space group: P N N M
;
_chemical_formula_sum "Si O2"
_cell_formula_units_Z 64
_cell_length_a 9.299783
_cell_length_b 19.715033
_cell_length_c 14.281185
_cell_angle_alpha 90.000000
_cell_angle_beta 90.000000
_cell_angle_gamma 90.000000
_cell_volume 2618.391415
_symmetry_space_group_name_H-M "P N N M"
_symmetry_group_IT_number 58
_symmetry_cell_setting 'orthorhombic'
loop_
_space_group_symop_operation_xyz
x,y,z
-x,-y,z
1/2+x,1/2-y,1/2-z
1/2-x,1/2+y,1/2-z
-x,-y,-z
x,y,-z
1/2-x,1/2+y,1/2+z
1/2+x,1/2-y,1/2+z
loop_
_atom_site_type_symbol
_atom_site_label
_atom_site_fract_x
_atom_site_fract_y
_atom_site_fract_z
Si Si1 0.758280 0.590017 0.901768
Si Si2 0.167385 0.623372 0.109053
Si Si3 0.567777 0.225582 0.637884
Si Si4 0.093726 0.847318 0.858748
Si Si5 0.411534 0.066211 0.201439
Si Si6 0.844672 0.017021 0.779586
Si Si7 0.410445 0.803067 0.147397
Si Si8 0.509873 0.339194 0.855097
O O1 0.757593 0.550318 0.802064
O O2 0.592496 0.609958 0.907648
O O3 0.837169 0.663533 0.900804
O O4 0.803044 0.555192 0.000000
O O5 0.092121 0.695849 0.123735
O O6 0.084560 0.578567 0.185821
O O7 0.330541 0.631131 0.141709
O O8 0.158035 0.605067 0.000000
O O9 0.540346 0.302484 0.603166
O O10 0.613404 0.223381 0.745975
O O11 0.113383 0.928464 0.859510
O O12 0.252864 0.822658 0.888259
O O13 0.064265 0.835858 0.747325
O O14 0.482700 0.132667 0.155025
O O15 0.500000 0.000000 0.173171
O O16 0.245595 0.046574 0.182266
O O17 0.000000 0.000000 0.737026
O O18 0.481916 0.736609 0.103858
#
# Coordination Sequence:
#
# PCOD9441369 Si02
#       8
#     8   8   8   8   8   8   8   8
#     4  11  22  37  53  77 115 151 185 223 263 321
#     4  11  22  34  49  76 108 145 187 224 260 318
#     4  10  19  33  55  75  99 137 182 233 288 316
#     4  10  18  34  55  74 103 135 180 237 285 318
#     4  11  21  34  54  76 109 152 187 219 263 322
#     4  11  22  36  51  80 115 152 190 220 263 322
#     4  10  18  34  55  76 102 134 183 237 284 319
#     4  10  20  33  54  76  98 136 182 231 289 319
#
# _framework density 24.442488000000001
#
# number of rings (size 3 to 8) (size 9 to 14) (size 15 to 20)
#    0.000    1.500    5.000    3.000    0.000    2.000 
#    0.000    0.000    0.000    0.000    0.000    0.000 
#    0.000   20.000    0.000    0.000    0.000    0.000 
#
# Total GULP energy -356520.333218 kJ/mol
# GULP energy per Si atom -5570.630207 kJ/mol
# Density = 2.438686 g / cm^3
# Si number density = 24.442488 Si / 1000 Ang^3
#
#
#
# Elastic Constant Matrix: (Units=GPa)
#
#
# Indices 1 2 3 4 5 6 
#
# 1 124.7845 17.1693 -2.5690 0.0000 0.0000 0.0000
# 2 17.1693 91.1903 -3.9562 0.0000 0.0000 0.0000
# 3 -2.5690 -3.9562 54.7593 0.0000 0.0000 0.0000
# 4 0.0000 0.0000 0.0000 -15.7421 0.0000 0.0000
# 5 0.0000 0.0000 0.0000 0.0000 13.7738 0.0000
# 6 0.0000 0.0000 0.0000 0.0000 0.0000 50.0990
#
#
#
# Elastic Compliance Matrix: (Units=1/GPa)
#
#
# Indices 1 2 3 4 5 6 
#
# 1 0.008231 -0.001538 0.000275 0.000000 0.000000 0.000000
# 2 -0.001538 0.011288 0.000743 0.000000 0.000000 0.000000
# 3 0.000275 0.000743 0.018328 0.000000 0.000000 0.000000
# 4 0.000000 0.000000 0.000000 -0.063524 0.000000 0.000000
# 5 0.000000 0.000000 0.000000 0.000000 0.072602 0.000000
# 6 0.000000 0.000000 0.000000 0.000000 0.000000 0.019960
#
#
# Mechanical properties :
#
#
# Convention : Reuss Voigt Hill
#
# Bulk Modulus (GPa) = 27.16764 32.44694 29.80729
# Shear Modulus (GPa) = 62.34878 26.96546 44.65712
#
# Velocity S-wave (km/s) = 5.05606 3.32508 4.27901
# Velocity P-wave (km/s) = 6.72488 5.29577 6.05265
#
# Compressibility (1/GPa) = 0.03680850
#
# Stress axis : x y z
#
# Youngs Moduli (GPa) = 121.49089 88.59073 54.56025
#
# Poissons Ratio (x) = 0.13624 -0.01501
# Poissons Ratio (y) = 0.18683 -0.04056
# Poissons Ratio (z) = -0.03342 -0.06586
#
# Static dielectric constant tensor:
#      x y z
#    x 1.963480 0.000000 0.000000 
#    y 0.000000 2.048350 0.000000 
#    z 0.000000 0.000000 1.713750 
# 
# From -- ./inp_files/29133.got.cif
#   From: 2010.05.17/outbox.cif.g08.bks.cpg/sg58_15_cif.got.tgz:29133.got - 2010.06.03 14:20:14.
