data_PCOD9441363
_publ_section_title
;
Structure prediction by ZEFSAII (Michael W. Deem and Ramdas Pophale) SiO2 
 PCOD9441363
Probable space group: P N N M
;
_chemical_formula_sum "Si O2"
_cell_formula_units_Z 64
_cell_length_a 12.010090
_cell_length_b 17.361291
_cell_length_c 17.719155
_cell_angle_alpha 90.000000
_cell_angle_beta 90.000000
_cell_angle_gamma 90.000000
_cell_volume 3694.632835
_symmetry_space_group_name_H-M "P N N M"
_symmetry_group_IT_number 58
_symmetry_cell_setting 'orthorhombic'
loop_
_space_group_symop_operation_xyz
x,y,z
-x,-y,z
1/2+x,1/2-y,1/2-z
1/2-x,1/2+y,1/2-z
-x,-y,-z
x,y,-z
1/2-x,1/2+y,1/2+z
1/2+x,1/2-y,1/2+z
loop_
_atom_site_type_symbol
_atom_site_label
_atom_site_fract_x
_atom_site_fract_y
_atom_site_fract_z
Si Si1 0.556507 0.415951 0.418395
Si Si2 0.177926 0.925030 0.721037
Si Si3 0.121261 0.683949 0.781131
Si Si4 0.408934 0.832454 0.083930
Si Si5 0.434675 0.920364 0.242405
Si Si6 0.846410 0.900227 0.755978
Si Si7 0.654930 0.672262 0.375914
Si Si8 0.971878 0.196809 0.664855
O O1 0.500000 0.500000 0.410753
O O2 0.614594 0.413413 0.500000
O O3 0.632113 0.401672 0.345642
O O4 0.454519 0.356006 0.418003
O O5 0.311961 0.926350 0.722565
O O6 0.153123 0.881553 0.800522
O O7 0.114786 0.874828 0.656883
O O8 0.136951 0.012921 0.725867
O O9 0.222987 0.628008 0.763254
O O10 0.145904 0.739986 0.849801
O O11 0.100177 0.740312 0.710328
O O12 0.007741 0.638156 0.791229
O O13 0.434585 0.886017 0.156842
O O14 0.274271 0.833745 0.084970
O O15 0.463666 0.748286 0.102411
O O16 0.446314 0.857085 0.000000
O O17 0.500000 0.000000 0.240803
O O18 0.931886 0.840705 0.717348
#
# Coordination Sequence:
#
# PCOD9441363 Si02
#       8
#     8   8   8   8   8   8   8   8
#     4  11  21  32  51  82 116 147 176 215 268 327
#     4  10  19  31  56  79 105 138 178 227 270 309
#     4  10  20  31  54  76 104 141 182 229 261 314
#     4  10  21  35  52  77 110 149 182 217 267 329
#     4  10  20  35  51  81 111 140 180 220 266 325
#     4  12  18  34  53  78 108 139 180 222 271 319
#     4  10  18  34  51  78 107 147 181 223 266 316
#     4  10  20  33  54  77 103 139 181 228 269 309
#
# _framework density 17.322424999999999
#
# number of rings (size 3 to 8) (size 9 to 14) (size 15 to 20)
#    0.000    1.625    6.250    0.750    1.750    0.250 
#    0.000    2.500    0.000    1.500    0.000    0.000 
#    0.000    3.500    0.000    0.000    0.000    0.000 
#
# Total GULP energy -356308.190386 kJ/mol
# GULP energy per Si atom -5567.315475 kJ/mol
# Density = 1.728300 g / cm^3
# Si number density = 17.322425 Si / 1000 Ang^3
#
#
#
# Elastic Constant Matrix: (Units=GPa)
#
#
# Indices 1 2 3 4 5 6 
#
# 1 54.0220 2.6472 -5.1428 0.0000 0.0000 0.0000
# 2 2.6472 65.0639 -3.7301 0.0000 0.0000 0.0000
# 3 -5.1428 -3.7301 11.5903 0.0000 0.0000 0.0000
# 4 0.0000 0.0000 0.0000 15.2194 0.0000 0.0000
# 5 0.0000 0.0000 0.0000 0.0000 11.7120 0.0000
# 6 0.0000 0.0000 0.0000 0.0000 0.0000 35.0856
#
#
#
# Elastic Compliance Matrix: (Units=1/GPa)
#
#
# Indices 1 2 3 4 5 6 
#
# 1 0.019333 -0.000300 0.008482 0.000000 0.000000 0.000000
# 2 -0.000300 0.015663 0.004908 0.000000 0.000000 0.000000
# 3 0.008482 0.004908 0.091622 0.000000 0.000000 0.000000
# 4 0.000000 0.000000 0.000000 0.065706 0.000000 0.000000
# 5 0.000000 0.000000 0.000000 0.000000 0.085383 0.000000
# 6 0.000000 0.000000 0.000000 0.000000 0.000000 0.028502
#
#
# Mechanical properties :
#
#
# Convention : Reuss Voigt Hill
#
# Bulk Modulus (GPa) = 6.54465 13.13610 9.84037
# Shear Modulus (GPa) = 15.10744 21.53018 18.31881
#
# Velocity S-wave (km/s) = 2.95639 3.52931 3.25548
# Velocity P-wave (km/s) = 3.92938 4.92015 4.45241
#
# Compressibility (1/GPa) = 0.15279667
#
# Stress axis : x y z
#
# Youngs Moduli (GPa) = 51.72466 63.84445 10.91437
#
# Poissons Ratio (x) = 0.01918 -0.09257
# Poissons Ratio (y) = 0.01554 -0.05356
# Poissons Ratio (z) = -0.43872 -0.31332
#
# Static dielectric constant tensor:
#      x y z
#    x 1.606330 0.000000 0.000000 
#    y 0.000000 1.605210 0.000000 
#    z 0.000000 0.000000 1.589550 
# 
# From -- ./inp_files/26468.got.cif
#   From: 2010.05.17/outbox.cif.g08.bks.cpg/sg58_14_cif.got.tgz:26468.got - 2010.06.03 14:20:14.
