data_PCOD9441193
_publ_section_title
;
Structure prediction by ZEFSAII (Michael W. Deem and Ramdas Pophale) SiO2 
 PCOD9441193
Probable space group: P N N M
;
_chemical_formula_sum "Si O2"
_cell_formula_units_Z 56
_cell_length_a 15.669312
_cell_length_b 8.777168
_cell_length_c 20.555746
_cell_angle_alpha 90.000000
_cell_angle_beta 90.000000
_cell_angle_gamma 90.000000
_cell_volume 2827.076638
_symmetry_space_group_name_H-M "P N N M"
_symmetry_group_IT_number 58
_symmetry_cell_setting 'orthorhombic'
loop_
_space_group_symop_operation_xyz
x,y,z
-x,-y,z
1/2+x,1/2-y,1/2-z
1/2-x,1/2+y,1/2-z
-x,-y,-z
x,y,-z
1/2-x,1/2+y,1/2+z
1/2+x,1/2-y,1/2+z
loop_
_atom_site_type_symbol
_atom_site_label
_atom_site_fract_x
_atom_site_fract_y
_atom_site_fract_z
Si Si1 0.773190 0.393874 0.074309
Si Si2 0.010301 0.319313 0.748012
Si Si3 0.062502 0.138200 0.125688
Si Si4 0.261504 0.742570 0.577222
Si Si5 0.049336 0.639196 0.072233
Si Si6 0.173039 0.166866 0.697308
Si Si7 0.324129 0.303804 0.212161
O O1 0.787696 0.577227 0.077336
O O2 0.860580 0.322026 0.102383
O O3 0.701568 0.339686 0.122709
O O4 0.755060 0.350665 0.000000
O O5 0.050278 0.255258 0.815065
O O6 0.082628 0.251955 0.700525
O O7 0.000000 0.500000 0.745512
O O8 0.915738 0.255169 0.735925
O O9 0.160298 0.135702 0.102535
O O10 0.011879 0.219913 0.068155
O O11 0.000000 0.000000 0.143484
O O12 0.240524 0.709215 0.500000
O O13 0.193676 0.746111 0.637350
O O14 0.000000 0.500000 0.103382
O O15 0.073748 0.585528 0.000000
O O16 0.244845 0.245973 0.743286
O O17 0.170712 0.987842 0.716646
#
# Coordination Sequence:
#
# PCOD9441193 Si02
#       7
#     8   8   8   8   8   8   8
#     4   9  19  36  61  90 122 165 211 260 310 386
#     4  12  26  43  64  90 126 171 221 275 334 384
#     4  12  23  36  58  92 128 164 212 267 329 393
#     4  10  21  39  62  93 133 171 210 259 330 394
#     4  10  18  31  54  84 123 166 204 240 303 390
#     4  11  22  41  65  98 127 165 219 267 326 386
#     4  11  23  40  68  95 130 173 215 275 320 392
#
# _framework density 19.808447999999999
#
# number of rings (size 3 to 8) (size 9 to 14) (size 15 to 20)
#    0.000    1.286    2.857    3.857    2.000    1.143 
#    2.571    0.714    0.000    4.286    0.000    0.000 
#    0.000    0.000    0.000    0.000    0.000    0.000 
#
# Total GULP energy -311833.930407 kJ/mol
# GULP energy per Si atom -5568.463043 kJ/mol
# Density = 1.976336 g / cm^3
# Si number density = 19.808448 Si / 1000 Ang^3
#
#
#
# Elastic Constant Matrix: (Units=GPa)
#
#
# Indices 1 2 3 4 5 6 
#
# 1 97.0370 27.8385 29.4046 0.0000 0.0000 0.0000
# 2 27.8385 80.6756 16.3729 0.0000 0.0000 0.0000
# 3 29.4046 16.3729 89.2118 0.0000 0.0000 0.0000
# 4 0.0000 0.0000 0.0000 29.0554 0.0000 0.0000
# 5 0.0000 0.0000 0.0000 0.0000 8.7893 0.0000
# 6 0.0000 0.0000 0.0000 0.0000 0.0000 28.4412
#
#
#
# Elastic Compliance Matrix: (Units=1/GPa)
#
#
# Indices 1 2 3 4 5 6 
#
# 1 0.012367 -0.003573 -0.003420 0.000000 0.000000 0.000000
# 2 -0.003573 0.013907 -0.001375 0.000000 0.000000 0.000000
# 3 -0.003420 -0.001375 0.012589 0.000000 0.000000 0.000000
# 4 0.000000 0.000000 0.000000 0.034417 0.000000 0.000000
# 5 0.000000 0.000000 0.000000 0.000000 0.113775 0.000000
# 6 0.000000 0.000000 0.000000 0.000000 0.000000 0.035160
#
#
# Mechanical properties :
#
#
# Convention : Reuss Voigt Hill
#
# Bulk Modulus (GPa) = 45.19443 46.01737 45.60590
# Shear Modulus (GPa) = 20.29817 26.14440 23.22128
#
# Velocity S-wave (km/s) = 3.20460 3.63693 3.42759
# Velocity P-wave (km/s) = 6.04631 6.39672 6.22398
#
# Compressibility (1/GPa) = 0.02212662
#
# Stress axis : x y z
#
# Youngs Moduli (GPa) = 80.86077 71.90456 79.43478
#
# Poissons Ratio (x) = 0.25693 0.27170
# Poissons Ratio (y) = 0.28894 0.10919
# Poissons Ratio (z) = 0.27658 0.09884
#
# Static dielectric constant tensor:
#      x y z
#    x 1.786550 0.000000 0.000000 
#    y 0.000000 1.740080 0.000000 
#    z 0.000000 0.000000 1.790010 
# 
# From -- ./inp_files/30025.got.cif
#   From: 2010.05.17/outbox.cif.g08.bks.cpg/sg58_16_cif.got.tgz:30025.got - 2010.06.03 14:20:14.
