data_PCOD9441103
_publ_section_title
;
Structure prediction by ZEFSAII (Michael W. Deem and Ramdas Pophale) SiO2 
 PCOD9441103
Probable space group: P N N M
;
_chemical_formula_sum "Si O2"
_cell_formula_units_Z 56
_cell_length_a 14.228724
_cell_length_b 19.867375
_cell_length_c 7.395256
_cell_angle_alpha 90.000000
_cell_angle_beta 90.000000
_cell_angle_gamma 90.000000
_cell_volume 2090.545658
_symmetry_space_group_name_H-M "P N N M"
_symmetry_group_IT_number 58
_symmetry_cell_setting 'orthorhombic'
loop_
_space_group_symop_operation_xyz
x,y,z
-x,-y,z
1/2+x,1/2-y,1/2-z
1/2-x,1/2+y,1/2-z
-x,-y,-z
x,y,-z
1/2-x,1/2+y,1/2+z
1/2+x,1/2-y,1/2+z
loop_
_atom_site_type_symbol
_atom_site_label
_atom_site_fract_x
_atom_site_fract_y
_atom_site_fract_z
Si Si1 0.536058 0.569685 0.288235
Si Si2 0.714429 0.495760 0.781793
Si Si3 0.267617 0.796503 0.709308
Si Si4 0.050604 0.786779 0.793256
Si Si5 0.612311 0.073971 0.720473
Si Si6 0.714522 0.351373 0.782827
Si Si7 0.932347 0.359299 0.778526
O O1 0.500000 0.500000 0.203501
O O2 0.511638 0.570744 0.500000
O O3 0.647800 0.556160 0.277359
O O4 0.515411 0.643213 0.209105
O O5 0.819990 0.513472 0.721958
O O6 0.674029 0.423362 0.720731
O O7 0.715346 0.494211 0.000000
O O8 0.247570 0.810739 0.500000
O O9 0.164969 0.790662 0.798129
O O10 0.333235 0.857101 0.772425
O O11 0.315127 0.722488 0.720249
O O12 0.029742 0.713665 0.715681
O O13 0.017438 0.786006 0.000000
O O14 0.609414 0.070680 0.500000
O O15 0.505047 0.083500 0.779008
O O16 0.823881 0.360755 0.726505
O O17 0.709668 0.349292 0.000000
O O18 0.931483 0.359147 0.000000
#
# Coordination Sequence:
#
# PCOD9441103 Si02
#       7
#     8   8   8   8   8   8   8
#     4  10  21  35  53  78 106 140 179 217 264 320
#     4  10  20  35  53  77 108 140 175 216 267 320
#     4  10  18  30  52  76 100 133 173 219 262 309
#     4   9  17  32  52  72  99 133 169 213 263 314
#     4   9  17  29  50  79 104 131 172 217 260 306
#     4   9  19  34  52  74 105 141 174 213 262 315
#     4   8  15  29  49  74 100 130 170 213 255 299
#
# _framework density 26.787264
#
# number of rings (size 3 to 8) (size 9 to 14) (size 15 to 20)
#    0.000    2.714    1.429    1.286    0.000    2.571 
#    0.000    5.714    0.000   12.000    0.000    5.000 
#    0.000    0.000    0.000    0.000    0.000    0.000 
#
# Total GULP energy -313021.549550 kJ/mol
# GULP energy per Si atom -5589.670528 kJ/mol
# Density = 2.672629 g / cm^3
# Si number density = 26.787264 Si / 1000 Ang^3
#
#
#
# Elastic Constant Matrix: (Units=GPa)
#
#
# Indices 1 2 3 4 5 6 
#
# 1 68.6876 -1.5449 4.7139 0.0000 0.0000 0.0000
# 2 -1.5449 135.5221 0.6950 0.0000 0.0000 0.0000
# 3 4.7139 0.6950 103.4488 0.0000 0.0000 0.0000
# 4 0.0000 0.0000 0.0000 7.3262 0.0000 0.0000
# 5 0.0000 0.0000 0.0000 0.0000 15.9661 0.0000
# 6 0.0000 0.0000 0.0000 0.0000 0.0000 48.4122
#
#
#
# Elastic Compliance Matrix: (Units=1/GPa)
#
#
# Indices 1 2 3 4 5 6 
#
# 1 0.014608 0.000170 -0.000667 0.000000 0.000000 0.000000
# 2 0.000170 0.007381 -0.000057 0.000000 0.000000 0.000000
# 3 -0.000667 -0.000057 0.009697 0.000000 0.000000 0.000000
# 4 0.000000 0.000000 0.000000 0.136497 0.000000 0.000000
# 5 0.000000 0.000000 0.000000 0.000000 0.062633 0.000000
# 6 0.000000 0.000000 0.000000 0.000000 0.000000 0.020656
#
#
# Mechanical properties :
#
#
# Convention : Reuss Voigt Hill
#
# Bulk Modulus (GPa) = 32.70285 35.04293 33.87289
# Shear Modulus (GPa) = 19.02782 34.59387 26.81084
#
# Velocity S-wave (km/s) = 2.66809 3.59755 3.16710
# Velocity P-wave (km/s) = 4.66117 5.51061 5.10359
#
# Compressibility (1/GPa) = 0.03057838
#
# Stress axis : x y z
#
# Youngs Moduli (GPa) = 68.45448 135.48114 103.12052
#
# Poissons Ratio (x) = -0.02302 0.06876
# Poissons Ratio (y) = -0.01163 0.00591
# Poissons Ratio (z) = 0.04565 0.00777
#
# Static dielectric constant tensor:
#      x y z
#    x 2.160120 0.000000 0.000000 
#    y 0.000000 2.095950 0.000000 
#    z 0.000000 0.000000 2.016580 
# 
# From -- ./inp_files/6343.got.cif
#   From: 2010.05.17/outbox.cif.g08.bks.cpg/sg58_4_cif.got.tgz:6343.got - 2010.06.03 14:20:14.
