data_PCOD9441114
_publ_section_title
;
Structure prediction by ZEFSAII (Michael W. Deem and Ramdas Pophale) SiO2 
 PCOD9441114
Probable space group: P N N M
;
_chemical_formula_sum "Si O2"
_cell_formula_units_Z 44
_cell_length_a 7.966557
_cell_length_b 14.814255
_cell_length_c 14.676964
_cell_angle_alpha 90.000000
_cell_angle_beta 90.000000
_cell_angle_gamma 90.000000
_cell_volume 1732.154844
_symmetry_space_group_name_H-M "P N N M"
_symmetry_group_IT_number 58
_symmetry_cell_setting 'orthorhombic'
loop_
_space_group_symop_operation_xyz
x,y,z
-x,-y,z
1/2+x,1/2-y,1/2-z
1/2-x,1/2+y,1/2-z
-x,-y,-z
x,y,-z
1/2-x,1/2+y,1/2+z
1/2+x,1/2-y,1/2+z
loop_
_atom_site_type_symbol
_atom_site_label
_atom_site_fract_x
_atom_site_fract_y
_atom_site_fract_z
Si Si1 0.898214 0.707608 0.367706
Si Si2 0.105938 0.328468 0.844168
Si Si3 0.696539 0.934615 0.899730
Si Si4 0.453172 0.355789 0.364824
Si Si5 0.500000 0.000000 0.737984
Si Si6 0.536258 0.605540 0.853567
O O1 0.864488 0.707428 0.259060
O O2 0.736907 0.651307 0.400745
O O3 0.918361 0.813373 0.391446
O O4 0.072530 0.653362 0.386597
O O5 0.018313 0.244820 0.888642
O O6 0.277185 0.365905 0.884805
O O7 0.989860 0.413942 0.825306
O O8 0.893095 0.915156 0.899627
O O9 0.652106 0.993011 0.810118
O O10 0.659127 0.970291 0.000000
O O11 0.457856 0.379518 0.256448
O O12 0.500000 0.500000 0.872935
#
# Coordination Sequence:
#
# PCOD9441114 Si02
#       6
#     8   8   8   8   4   8
#     4   9  20  34  51  80 111 145 191 234 284 337
#     4   9  18  31  53  81 119 141 180 238 295 344
#     4  11  22  39  57  78 118 161 197 225 273 352
#     4  10  20  35  54  82 113 151 190 234 287 341
#     4  10  21  34  58  92 117 154 186 242 294 340
#     4  10  18  30  53  84 114 138 178 241 299 340
#
# _framework density 25.401885
#
# number of rings (size 3 to 8) (size 9 to 14) (size 15 to 20)
#    0.000    2.182    1.818    1.364   10.182    0.727 
#    0.000    0.000    0.000   12.000    0.000    1.909 
#    0.000    0.000    0.000    0.000    0.000    0.000 
#
# Total GULP energy -245501.746613 kJ/mol
# GULP energy per Si atom -5579.585150 kJ/mol
# Density = 2.534407 g / cm^3
# Si number density = 25.401885 Si / 1000 Ang^3
#
#
#
# Elastic Constant Matrix: (Units=GPa)
#
#
# Indices 1 2 3 4 5 6 
#
# 1 164.0709 70.8884 17.4129 0.0000 0.0000 0.0000
# 2 70.8884 166.1588 -11.6357 0.0000 0.0000 0.0000
# 3 17.4129 -11.6357 61.0446 0.0000 0.0000 0.0000
# 4 0.0000 0.0000 0.0000 -16.0168 0.0000 0.0000
# 5 0.0000 0.0000 0.0000 0.0000 -185.0238 0.0000
# 6 0.0000 0.0000 0.0000 0.0000 0.0000 49.1643
#
#
#
# Elastic Compliance Matrix: (Units=1/GPa)
#
#
# Indices 1 2 3 4 5 6 
#
# 1 0.007967 -0.003606 -0.002960 0.000000 0.000000 0.000000
# 2 -0.003606 0.007732 0.002503 0.000000 0.000000 0.000000
# 3 -0.002960 0.002503 0.017703 0.000000 0.000000 0.000000
# 4 0.000000 0.000000 0.000000 -0.062434 0.000000 0.000000
# 5 0.000000 0.000000 0.000000 0.000000 -0.005405 0.000000
# 6 0.000000 0.000000 0.000000 0.000000 0.000000 0.020340
#
#
# Mechanical properties :
#
#
# Convention : Reuss Voigt Hill
#
# Bulk Modulus (GPa) = 39.56556 60.51172 50.03864
# Shear Modulus (GPa) = 2036.07248 -9.40135 1013.33557
#
# Velocity S-wave (km/s) = 28.34226 -1.92590 19.99468
# Velocity P-wave (km/s) = 32.96445 4.35063 23.51152
#
# Compressibility (1/GPa) = 0.02527450
#
# Stress axis : x y z
#
# Youngs Moduli (GPa) = 125.51396 129.32987 56.48810
#
# Poissons Ratio (x) = 0.46641 0.16721
# Poissons Ratio (y) = 0.45265 -0.14136
# Poissons Ratio (z) = 0.37153 -0.32365
#
# Static dielectric constant tensor:
#      x y z
#    x 2.060240 0.000000 0.000000 
#    y 0.000000 2.055020 0.000000 
#    z 0.000000 0.000000 1.980030 
# 
# From -- ./inp_files/25209.got.cif
#   From: 2010.05.17/outbox.cif.g08.bks.cpg/sg58_13_cif.got.tgz:25209.got - 2010.06.03 14:20:14.
