data_PCOD9441164
_publ_section_title
;
Structure prediction by ZEFSAII (Michael W. Deem and Ramdas Pophale) SiO2 
 PCOD9441164
Probable space group: P N N M
;
_chemical_formula_sum "Si O2"
_cell_formula_units_Z 64
_cell_length_a 11.757271
_cell_length_b 23.182258
_cell_length_c 13.260736
_cell_angle_alpha 90.000000
_cell_angle_beta 90.000000
_cell_angle_gamma 90.000000
_cell_volume 3614.347394
_symmetry_space_group_name_H-M "P N N M"
_symmetry_group_IT_number 58
_symmetry_cell_setting 'orthorhombic'
loop_
_space_group_symop_operation_xyz
x,y,z
-x,-y,z
1/2+x,1/2-y,1/2-z
1/2-x,1/2+y,1/2-z
-x,-y,-z
x,y,-z
1/2-x,1/2+y,1/2+z
1/2+x,1/2-y,1/2+z
loop_
_atom_site_type_symbol
_atom_site_label
_atom_site_fract_x
_atom_site_fract_y
_atom_site_fract_z
Si Si1 0.941362 0.678504 0.380525
Si Si2 0.409053 0.717210 0.729682
Si Si3 0.887993 0.233301 0.111280
Si Si4 0.253029 0.573645 0.885541
Si Si5 0.774431 0.107240 0.115114
Si Si6 0.501182 0.364507 0.109650
Si Si7 0.380431 0.467591 0.790951
Si Si8 0.828409 0.334574 0.263458
O O1 0.936440 0.694858 0.500000
O O2 0.069884 0.665538 0.344102
O O3 0.893004 0.727895 0.304285
O O4 0.857531 0.623949 0.368269
O O5 0.477000 0.732417 0.629337
O O6 0.495554 0.679436 0.798408
O O7 0.299343 0.679726 0.700554
O O8 0.838391 0.169109 0.123204
O O9 0.847879 0.279943 0.190913
O O10 0.854994 0.253146 0.000000
O O11 0.370858 0.610135 0.892070
O O12 0.294311 0.512516 0.841941
O O13 0.175682 0.608442 0.806361
O O14 0.207819 0.569535 0.000000
O O15 0.825249 0.062583 0.194197
O O16 0.788922 0.086969 0.000000
O O17 0.416777 0.416876 0.132439
O O18 0.477134 0.338331 0.000000
O O19 0.500000 0.500000 0.766417
#
# Coordination Sequence:
#
# PCOD9441164 Si02
#       8
#     8   8   8   8   8   8   8   8
#     4  10  21  36  54  78 110 147 183 222 270 331
#     4  10  18  31  52  82 110 139 172 218 272 324
#     4  10  19  32  53  79 108 141 177 222 276 326
#     4   9  18  32  53  79 107 141 180 223 272 328
#     4  10  20  36  56  78 108 145 185 227 276 332
#     4   9  16  27  48  80 112 138 168 213 268 327
#     4  10  19  33  54  81 113 142 182 232 281 325
#     4  10  20  34  56  80 109 144 184 225 267 330
#
# _framework density 17.707208000000001
#
# number of rings (size 3 to 8) (size 9 to 14) (size 15 to 20)
#    0.000    2.250    2.500    1.125    0.000    3.250 
#    0.000    1.250    0.000    9.750    0.000    0.000 
#    0.000    0.000    0.000    0.000    0.000    0.000 
#
# Total GULP energy -356367.237570 kJ/mol
# GULP energy per Si atom -5568.238087 kJ/mol
# Density = 1.766691 g / cm^3
# Si number density = 17.707208 Si / 1000 Ang^3
#
#
#
# Elastic Constant Matrix: (Units=GPa)
#
#
# Indices 1 2 3 4 5 6 
#
# 1 65.1950 4.2886 21.4859 0.0000 0.0000 0.0000
# 2 4.2886 38.6633 3.9700 0.0000 0.0000 0.0000
# 3 21.4859 3.9700 49.9697 0.0000 0.0000 0.0000
# 4 0.0000 0.0000 0.0000 23.6787 0.0000 0.0000
# 5 0.0000 0.0000 0.0000 0.0000 8.2118 0.0000
# 6 0.0000 0.0000 0.0000 0.0000 0.0000 19.2540
#
#
#
# Elastic Compliance Matrix: (Units=1/GPa)
#
#
# Indices 1 2 3 4 5 6 
#
# 1 0.017927 -0.001207 -0.007612 0.000000 0.000000 0.000000
# 2 -0.001207 0.026158 -0.001559 0.000000 0.000000 0.000000
# 3 -0.007612 -0.001559 0.023409 0.000000 0.000000 0.000000
# 4 0.000000 0.000000 0.000000 0.042232 0.000000 0.000000
# 5 0.000000 0.000000 0.000000 0.000000 0.121775 0.000000
# 6 0.000000 0.000000 0.000000 0.000000 0.000000 0.051937
#
#
# Mechanical properties :
#
#
# Convention : Reuss Voigt Hill
#
# Bulk Modulus (GPa) = 21.39617 23.70191 22.54904
# Shear Modulus (GPa) = 15.63601 18.50115 17.06858
#
# Velocity S-wave (km/s) = 2.97481 3.23590 3.10810
# Velocity P-wave (km/s) = 4.88967 5.23220 5.06383
#
# Compressibility (1/GPa) = 0.04673734
#
# Stress axis : x y z
#
# Youngs Moduli (GPa) = 55.78275 38.22879 42.71844
#
# Poissons Ratio (x) = 0.04614 0.32518
# Poissons Ratio (y) = 0.06732 0.06661
# Poissons Ratio (z) = 0.42463 0.05961
#
# Static dielectric constant tensor:
#      x y z
#    x 1.633590 0.000000 0.000000 
#    y 0.000000 1.606700 0.000000 
#    z 0.000000 0.000000 1.610450 
# 
# From -- ./inp_files/14848.got.cif
#   From: 2010.05.17/outbox.cif.g08.bks.cpg/sg58_8_cif.got.tgz:14848.got - 2010.06.03 14:20:14.
