data_PCOD9441505
_publ_section_title
;
Structure prediction by ZEFSAII (Michael W. Deem and Ramdas Pophale) SiO2 
 PCOD9441505
Probable space group: P N N M
;
_chemical_formula_sum "Si O2"
_cell_formula_units_Z 56
_cell_length_a 29.055969
_cell_length_b 11.840541
_cell_length_c 7.321039
_cell_angle_alpha 90.000000
_cell_angle_beta 90.000000
_cell_angle_gamma 90.000000
_cell_volume 2518.718487
_symmetry_space_group_name_H-M "P N N M"
_symmetry_group_IT_number 58
_symmetry_cell_setting 'orthorhombic'
loop_
_space_group_symop_operation_xyz
x,y,z
-x,-y,z
1/2+x,1/2-y,1/2-z
1/2-x,1/2+y,1/2-z
-x,-y,-z
x,y,-z
1/2-x,1/2+y,1/2+z
1/2+x,1/2-y,1/2+z
loop_
_atom_site_type_symbol
_atom_site_label
_atom_site_fract_x
_atom_site_fract_y
_atom_site_fract_z
Si Si1 0.611589 0.504670 0.277018
Si Si2 0.690097 0.916979 0.283692
Si Si3 0.111396 0.739832 0.777231
Si Si4 0.019267 0.621572 0.222692
Si Si5 0.562003 0.280709 0.278064
Si Si6 0.345171 0.843838 0.277220
Si Si7 0.703330 0.379644 0.281786
O O1 0.610788 0.504843 0.500000
O O2 0.602842 0.632055 0.216318
O O3 0.575687 0.407193 0.219458
O O4 0.662585 0.462968 0.219291
O O5 0.682087 0.919473 0.500000
O O6 0.660360 0.810751 0.216744
O O7 0.744569 0.910416 0.259445
O O8 0.669589 0.033958 0.210741
O O9 0.070753 0.654627 0.722216
O O10 0.110845 0.744120 0.000000
O O11 0.000000 0.500000 0.282592
O O12 0.985040 0.722251 0.280132
O O13 0.019039 0.618385 0.000000
O O14 0.561139 0.283431 0.500000
O O15 0.604261 0.198967 0.224983
O O16 0.344949 0.846318 0.500000
O O17 0.309922 0.746046 0.218548
O O18 0.699407 0.378595 0.500000
#
# Coordination Sequence:
#
# PCOD9441505 Si02
#       7
#     8   8   8   8   8   8   8
#     4   8  15  27  40  56  81 112 145 180 223 266
#     4  10  19  29  44  64  88 116 146 183 226 264
#     4   9  17  26  37  59  88 112 139 183 228 261
#     4   9  15  22  35  56  83 115 147 177 215 266
#     4   8  13  23  39  55  78 115 148 172 209 267
#     4   8  15  28  42  59  83 113 147 179 216 262
#     4   9  18  31  46  61  83 118 152 182 218 265
#
# _framework density 22.233530999999999
#
# number of rings (size 3 to 8) (size 9 to 14) (size 15 to 20)
#    0.000    3.286    0.000    2.571    2.000    4.000 
#    0.000    2.857    0.000    0.000    0.000    0.000 
#    0.000    9.714    0.000    6.429    0.000    7.143 
#
# Total GULP energy -312555.625741 kJ/mol
# GULP energy per Si atom -5581.350460 kJ/mol
# Density = 2.218293 g / cm^3
# Si number density = 22.233531 Si / 1000 Ang^3
#
#
#
# Elastic Constant Matrix: (Units=GPa)
#
#
# Indices 1 2 3 4 5 6 
#
# 1 79.4087 37.2648 -3.9677 0.0000 0.0000 0.0000
# 2 37.2648 116.6012 5.1725 0.0000 0.0000 0.0000
# 3 -3.9677 5.1725 85.4952 0.0000 0.0000 0.0000
# 4 0.0000 0.0000 0.0000 -17.5027 0.0000 0.0000
# 5 0.0000 0.0000 0.0000 0.0000 5.6074 0.0000
# 6 0.0000 0.0000 0.0000 0.0000 0.0000 19.9711
#
#
#
# Elastic Compliance Matrix: (Units=1/GPa)
#
#
# Indices 1 2 3 4 5 6 
#
# 1 0.014897 -0.004804 0.000982 0.000000 0.000000 0.000000
# 2 -0.004804 0.010149 -0.000837 0.000000 0.000000 0.000000
# 3 0.000982 -0.000837 0.011793 0.000000 0.000000 0.000000
# 4 0.000000 0.000000 0.000000 -0.057134 0.000000 0.000000
# 5 0.000000 0.000000 0.000000 0.000000 0.178335 0.000000
# 6 0.000000 0.000000 0.000000 0.000000 0.000000 0.050072
#
#
# Mechanical properties :
#
#
# Convention : Reuss Voigt Hill
#
# Bulk Modulus (GPa) = 36.33779 39.82712 38.08246
# Shear Modulus (GPa) = 22.06498 17.81755 19.94126
#
# Velocity S-wave (km/s) = 3.15369 2.83394 2.99808
# Velocity P-wave (km/s) = 5.44428 5.35353 5.39909
#
# Compressibility (1/GPa) = 0.02751956
#
# Stress axis : x y z
#
# Youngs Moduli (GPa) = 67.12862 98.53355 84.79771
#
# Poissons Ratio (x) = 0.47340 -0.08327
# Poissons Ratio (y) = 0.32252 0.07097
# Poissons Ratio (z) = -0.06592 0.08247
#
# Static dielectric constant tensor:
#      x y z
#    x 1.788260 0.000000 0.000000 
#    y 0.000000 1.790530 0.000000 
#    z 0.000000 0.000000 1.789340 
# 
# From -- ./inp_files/14862.got.cif
#   From: 2010.05.17/outbox.cif.g08.bks.cpg/sg58_8_cif.got.tgz:14862.got - 2010.06.03 14:20:14.
