data_PCOD9441658
_publ_section_title
;
Structure prediction by ZEFSAII (Michael W. Deem and Ramdas Pophale) SiO2 
 PCOD9441658
Probable space group: P N N M
;
_chemical_formula_sum "Si O2"
_cell_formula_units_Z 40
_cell_length_a 12.899892
_cell_length_b 5.155666
_cell_length_c 25.451016
_cell_angle_alpha 90.000000
_cell_angle_beta 90.000000
_cell_angle_gamma 90.000000
_cell_volume 1692.684327
_symmetry_space_group_name_H-M "P N N M"
_symmetry_group_IT_number 58
_symmetry_cell_setting 'orthorhombic'
loop_
_space_group_symop_operation_xyz
x,y,z
-x,-y,z
1/2+x,1/2-y,1/2-z
1/2-x,1/2+y,1/2-z
-x,-y,-z
x,y,-z
1/2-x,1/2+y,1/2+z
1/2+x,1/2-y,1/2+z
loop_
_atom_site_type_symbol
_atom_site_label
_atom_site_fract_x
_atom_site_fract_y
_atom_site_fract_z
Si Si1 0.668988 0.976574 0.938255
Si Si2 0.319922 0.520507 0.753142
Si Si3 0.596443 0.317218 0.446564
Si Si4 0.898000 0.629442 0.833634
Si Si5 0.835129 0.974486 0.633158
O O1 0.794273 0.963780 0.941056
O O2 0.639508 0.727239 0.902262
O O3 0.642910 0.231360 0.904489
O O4 0.633353 0.972280 0.000000
O O5 0.274893 0.231615 0.748408
O O6 0.378119 0.614672 0.701090
O O7 0.381362 0.547330 0.808053
O O8 0.500000 0.500000 0.452672
O O9 0.608309 0.150556 0.500000
O O10 0.572776 0.188738 0.392506
O O11 0.786024 0.496880 0.847467
O O12 0.000000 0.500000 0.808599
#
# Coordination Sequence:
#
# PCOD9441658 Si02
#       5
#     8   8   8   8   8
#     4  10  19  31  49  71  95 126 166 205 240 290
#     4  10  20  35  52  70  97 134 170 206 253 298
#     4   9  17  28  42  64  97 134 167 200 238 276
#     4  10  20  31  48  73  99 132 175 210 241 288
#     4  10  19  33  49  69 100 132 162 203 251 293
#
# _framework density 23.631105999999999
#
# number of rings (size 3 to 8) (size 9 to 14) (size 15 to 20)
#    0.000    2.200    0.000    5.400    0.000    2.800 
#    0.000    0.000    0.000    0.000    0.000    0.000 
#    0.000    4.800    0.000    1.400    0.000    1.600 
#
# Total GULP energy -222715.178688 kJ/mol
# GULP energy per Si atom -5567.879467 kJ/mol
# Density = 2.357732 g / cm^3
# Si number density = 23.631106 Si / 1000 Ang^3
#
#
#
# Elastic Constant Matrix: (Units=GPa)
#
#
# Indices 1 2 3 4 5 6 
#
# 1 50.9259 -5.3861 -2.8559 0.0000 0.0000 0.0000
# 2 -5.3861 92.4727 56.3011 0.0000 0.0000 0.0000
# 3 -2.8559 56.3011 225.6054 0.0000 0.0000 0.0000
# 4 0.0000 0.0000 0.0000 38.9293 0.0000 0.0000
# 5 0.0000 0.0000 0.0000 0.0000 119.3871 0.0000
# 6 0.0000 0.0000 0.0000 0.0000 0.0000 10.4213
#
#
#
# Elastic Compliance Matrix: (Units=1/GPa)
#
#
# Indices 1 2 3 4 5 6 
#
# 1 0.019758 0.001177 -0.000044 0.000000 0.000000 0.000000
# 2 0.001177 0.012822 -0.003185 0.000000 0.000000 0.000000
# 3 -0.000044 -0.003185 0.005227 0.000000 0.000000 0.000000
# 4 0.000000 0.000000 0.000000 0.025688 0.000000 0.000000
# 5 0.000000 0.000000 0.000000 0.000000 0.008376 0.000000
# 6 0.000000 0.000000 0.000000 0.000000 0.000000 0.095957
#
#
# Mechanical properties :
#
#
# Convention : Reuss Voigt Hill
#
# Bulk Modulus (GPa) = 29.66947 51.68024 40.67486
# Shear Modulus (GPa) = 27.29785 55.14389 41.22087
#
# Velocity S-wave (km/s) = 3.40246 4.83590 4.18107
# Velocity P-wave (km/s) = 5.29322 7.28686 6.36854
#
# Compressibility (1/GPa) = 0.03370468
#
# Stress axis : x y z
#
# Youngs Moduli (GPa) = 50.61123 77.99328 191.32344
#
# Poissons Ratio (x) = -0.09183 0.00836
# Poissons Ratio (y) = -0.05959 0.60933
# Poissons Ratio (z) = 0.00221 0.24839
#
# Static dielectric constant tensor:
#      x y z
#    x 0.000000 0.000000 0.000000 
#    y 0.000000 0.000000 0.000000 
#    z 0.000000 0.000000 0.000000 
# 
# From -- ./inp_files/32127.got.cif
#   From: 2010.05.17/outbox.cif.g08.bks.cpg/sg58_17_cif.got.tgz:32127.got - 2010.06.03 14:20:14.
