data_PCOD9441949
_publ_section_title
;
Structure prediction by ZEFSAII (Michael W. Deem and Ramdas Pophale) SiO2 
 PCOD9441949
Probable space group: P N N M
;
_chemical_formula_sum "Si O2"
_cell_formula_units_Z 40
_cell_length_a 5.009997
_cell_length_b 24.559879
_cell_length_c 15.278053
_cell_angle_alpha 90.000000
_cell_angle_beta 90.000000
_cell_angle_gamma 90.000000
_cell_volume 1879.886811
_symmetry_space_group_name_H-M "P N N M"
_symmetry_group_IT_number 58
_symmetry_cell_setting 'orthorhombic'
loop_
_space_group_symop_operation_xyz
x,y,z
-x,-y,z
1/2+x,1/2-y,1/2-z
1/2-x,1/2+y,1/2-z
-x,-y,-z
x,y,-z
1/2-x,1/2+y,1/2+z
1/2+x,1/2-y,1/2+z
loop_
_atom_site_type_symbol
_atom_site_label
_atom_site_fract_x
_atom_site_fract_y
_atom_site_fract_z
Si Si1 0.100145 0.062063 0.898328
Si Si2 0.210525 0.388985 0.897744
Si Si3 0.480287 0.773624 0.210249
Si Si4 0.188656 0.181915 0.403346
Si Si5 0.898860 0.597690 0.710176
O O1 0.878017 0.093595 0.842142
O O2 0.377725 0.067544 0.846981
O O3 0.123589 0.080394 0.000000
O O4 0.000000 0.000000 0.899802
O O5 0.982374 0.342708 0.902989
O O6 0.122439 0.423195 0.811386
O O7 0.485802 0.362029 0.862558
O O8 0.231852 0.411037 0.000000
O O9 0.280410 0.749033 0.283745
O O10 0.342799 0.742512 0.130292
O O11 0.477243 0.838192 0.212058
O O12 0.079965 0.182446 0.500000
#
# Coordination Sequence:
#
# PCOD9441949 Si02
#       5
#     8   8   8   8   8
#     4  11  26  47  68  93 124 160 214 281 340 384
#     4  10  20  35  58  88 122 163 203 238 290 369
#     4  12  21  35  55  88 131 162 204 258 302 362
#     4  10  19  33  50  78 122 168 204 238 288 353
#     4  12  22  39  70  92 123 172 213 257 328 389
#
# _framework density 21.277875000000002
#
# number of rings (size 3 to 8) (size 9 to 14) (size 15 to 20)
#    0.000    1.000    4.000    3.600    0.000    3.200 
#    0.000    2.000    0.000    3.600    0.000    0.000 
#    0.000    0.000    0.000    0.000    0.000    0.000 
#
# Total GULP energy -222759.953097 kJ/mol
# GULP energy per Si atom -5568.998827 kJ/mol
# Density = 2.122945 g / cm^3
# Si number density = 21.277875 Si / 1000 Ang^3
#
#
#
# Elastic Constant Matrix: (Units=GPa)
#
#
# Indices 1 2 3 4 5 6 
#
# 1 97.0498 -1.3859 14.1286 0.0000 0.0000 0.0000
# 2 -1.3859 28.4523 14.7527 0.0000 0.0000 0.0000
# 3 14.1286 14.7527 146.6747 0.0000 0.0000 0.0000
# 4 0.0000 0.0000 0.0000 19.5671 0.0000 0.0000
# 5 0.0000 0.0000 0.0000 0.0000 25.6135 0.0000
# 6 0.0000 0.0000 0.0000 0.0000 0.0000 20.5389
#
#
#
# Elastic Compliance Matrix: (Units=1/GPa)
#
#
# Indices 1 2 3 4 5 6 
#
# 1 0.010483 0.001091 -0.001119 0.000000 0.000000 0.000000
# 2 0.001091 0.037194 -0.003846 0.000000 0.000000 0.000000
# 3 -0.001119 -0.003846 0.007312 0.000000 0.000000 0.000000
# 4 0.000000 0.000000 0.000000 0.051106 0.000000 0.000000
# 5 0.000000 0.000000 0.000000 0.000000 0.039042 0.000000
# 6 0.000000 0.000000 0.000000 0.000000 0.000000 0.048688
#
#
# Mechanical properties :
#
#
# Convention : Reuss Voigt Hill
#
# Bulk Modulus (GPa) = 21.16855 36.35197 28.76026
# Shear Modulus (GPa) = 23.00744 29.45598 26.23171
#
# Velocity S-wave (km/s) = 3.29186 3.72472 3.51496
# Velocity P-wave (km/s) = 4.94152 5.96821 5.47897
#
# Compressibility (1/GPa) = 0.04723988
#
# Stress axis : x y z
#
# Youngs Moduli (GPa) = 95.39667 26.88610 136.75234
#
# Poissons Ratio (x) = -0.02933 0.15309
# Poissons Ratio (y) = -0.10408 0.52596
# Poissons Ratio (z) = 0.10679 0.10341
#
# Static dielectric constant tensor:
#      x y z
#    x 1.858860 0.000000 0.000000 
#    y 0.000000 1.848960 0.000000 
#    z 0.000000 0.000000 1.909310 
# 
# From -- ./inp_files/18479.got.cif
#   From: 2010.05.17/outbox.cif.g08.bks.cpg/sg58_10_cif.got.tgz:18479.got - 2010.06.03 14:20:14.
