data_PCOD9441098
_publ_section_title
;
Structure prediction by ZEFSAII (Michael W. Deem and Ramdas Pophale) SiO2 
 PCOD9441098
Probable space group: P N N M
;
_chemical_formula_sum "Si O2"
_cell_formula_units_Z 40
_cell_length_a 11.769299
_cell_length_b 7.977840
_cell_length_c 17.490257
_cell_angle_alpha 90.000000
_cell_angle_beta 90.000000
_cell_angle_gamma 90.000000
_cell_volume 1642.222921
_symmetry_space_group_name_H-M "P N N M"
_symmetry_group_IT_number 58
_symmetry_cell_setting 'orthorhombic'
loop_
_space_group_symop_operation_xyz
x,y,z
-x,-y,z
1/2+x,1/2-y,1/2-z
1/2-x,1/2+y,1/2-z
-x,-y,-z
x,y,-z
1/2-x,1/2+y,1/2+z
1/2+x,1/2-y,1/2+z
loop_
_atom_site_type_symbol
_atom_site_label
_atom_site_fract_x
_atom_site_fract_y
_atom_site_fract_z
Si Si1 0.372194 0.396307 0.587316
Si Si2 0.643123 0.283110 0.912098
Si Si3 0.207892 0.891739 0.662103
Si Si4 0.680257 0.976690 0.815531
Si Si5 0.062049 0.337636 0.089841
O O1 0.378207 0.460363 0.500000
O O2 0.280993 0.242109 0.584320
O O3 0.301655 0.518411 0.640736
O O4 0.489893 0.323064 0.617369
O O5 0.629632 0.458006 0.868389
O O6 0.609897 0.117379 0.862947
O O7 0.600834 0.281313 0.000000
O O8 0.284819 0.953602 0.733206
O O9 0.145531 0.717681 0.683538
O O10 0.304048 0.851985 0.599455
O O11 0.000000 0.500000 0.124460
O O12 0.035877 0.335017 0.000000
#
# Coordination Sequence:
#
# PCOD9441098 Si02
#       5
#     8   8   8   8   8
#     4   8  16  32  48  70 105 131 163 211 249 304
#     4   9  18  33  49  70  99 129 170 214 247 303
#     4  12  20  31  51  71 104 149 174 210 261 304
#     4  10  20  33  48  71 105 143 178 216 253 302
#     4  10  18  30  51  78 106 139 171 206 259 320
#
# _framework density 24.357227999999999
#
# number of rings (size 3 to 8) (size 9 to 14) (size 15 to 20)
#    1.200    1.000    4.000    0.600    0.000    4.000 
#    0.000    2.000    0.000    0.000    0.000    0.000 
#    0.000   11.200    0.000    0.000    0.000    0.000 
#
# Total GULP energy -222962.904911 kJ/mol
# GULP energy per Si atom -5574.072623 kJ/mol
# Density = 2.430179 g / cm^3
# Si number density = 24.357228 Si / 1000 Ang^3
#
#
#
# Elastic Constant Matrix: (Units=GPa)
#
#
# Indices 1 2 3 4 5 6 
#
# 1 63.8579 -3.4932 -14.2261 0.0000 0.0000 0.0000
# 2 -3.4932 207.5331 47.5843 0.0000 0.0000 0.0000
# 3 -14.2261 47.5843 89.0957 0.0000 0.0000 0.0000
# 4 0.0000 0.0000 0.0000 25.9859 0.0000 0.0000
# 5 0.0000 0.0000 0.0000 0.0000 13.7992 0.0000
# 6 0.0000 0.0000 0.0000 0.0000 0.0000 12.0158
#
#
#
# Elastic Compliance Matrix: (Units=1/GPa)
#
#
# Indices 1 2 3 4 5 6 
#
# 1 0.016262 -0.000367 0.002792 0.000000 0.000000 0.000000
# 2 -0.000367 0.005499 -0.002996 0.000000 0.000000 0.000000
# 3 0.002792 -0.002996 0.013270 0.000000 0.000000 0.000000
# 4 0.000000 0.000000 0.000000 0.038482 0.000000 0.000000
# 5 0.000000 0.000000 0.000000 0.000000 0.072468 0.000000
# 6 0.000000 0.000000 0.000000 0.000000 0.000000 0.083224
#
#
# Mechanical properties :
#
#
# Convention : Reuss Voigt Hill
#
# Bulk Modulus (GPa) = 29.50633 46.69076 38.09854
# Shear Modulus (GPa) = 20.69186 32.40163 26.54675
#
# Velocity S-wave (km/s) = 2.91781 3.65124 3.30493
# Velocity P-wave (km/s) = 4.84683 6.08163 5.49900
#
# Compressibility (1/GPa) = 0.03389104
#
# Stress axis : x y z
#
# Youngs Moduli (GPa) = 61.49391 181.84569 75.36034
#
# Poissons Ratio (x) = 0.06665 -0.21043
# Poissons Ratio (y) = 0.02254 0.22574
# Poissons Ratio (z) = -0.17171 0.54472
#
# Static dielectric constant tensor:
#      x y z
#    x 1.936280 0.000000 0.000000 
#    y 0.000000 2.125210 0.000000 
#    z 0.000000 0.000000 1.928320 
# 
# From -- ./inp_files/27195.got.cif
#   From: 2010.05.17/outbox.cif.g08.bks.cpg/sg58_14_cif.got.tgz:27195.got - 2010.06.03 14:20:14.
