data_PCOD9441700
_publ_section_title
;
Structure prediction by ZEFSAII (Michael W. Deem and Ramdas Pophale) SiO2 
 PCOD9441700
Probable space group: P N N M
;
_chemical_formula_sum "Si O2"
_cell_formula_units_Z 64
_cell_length_a 29.932022
_cell_length_b 12.275947
_cell_length_c 8.725537
_cell_angle_alpha 90.000000
_cell_angle_beta 90.000000
_cell_angle_gamma 90.000000
_cell_volume 3206.145482
_symmetry_space_group_name_H-M "P N N M"
_symmetry_group_IT_number 58
_symmetry_cell_setting 'orthorhombic'
loop_
_space_group_symop_operation_xyz
x,y,z
-x,-y,z
1/2+x,1/2-y,1/2-z
1/2-x,1/2+y,1/2-z
-x,-y,-z
x,y,-z
1/2-x,1/2+y,1/2+z
1/2+x,1/2-y,1/2+z
loop_
_atom_site_type_symbol
_atom_site_label
_atom_site_fract_x
_atom_site_fract_y
_atom_site_fract_z
Si Si1 0.936175 0.552696 0.178640
Si Si2 0.613788 0.371130 0.316831
Si Si3 0.725585 0.978003 0.182606
Si Si4 0.161062 0.353812 0.821150
Si Si5 0.972276 0.772522 0.680852
Si Si6 0.937690 0.317994 0.685447
Si Si7 0.681512 0.533994 0.816765
Si Si8 0.835675 0.277225 0.686440
O O1 0.882652 0.569136 0.189426
O O2 0.956448 0.649721 0.278960
O O3 0.948547 0.434110 0.238527
O O4 0.948453 0.567870 0.000000
O O5 0.615259 0.375930 0.500000
O O6 0.643162 0.264360 0.269736
O O7 0.563042 0.349635 0.264930
O O8 0.637345 0.474806 0.244043
O O9 0.774560 0.975368 0.253628
O O10 0.694917 0.877452 0.238561
O O11 0.700469 0.089315 0.229312
O O12 0.729105 0.971439 0.000000
O O13 0.174121 0.345491 0.000000
O O14 0.968823 0.792024 0.500000
O O15 0.024431 0.770447 0.726225
O O16 0.938897 0.330520 0.500000
O O17 0.887435 0.288333 0.732267
O O18 0.682317 0.659778 0.765505
O O19 0.681605 0.531132 0.000000
O O20 0.835326 0.280164 0.500000
#
# Coordination Sequence:
#
# PCOD9441700 Si02
#       8
#     8   8   8   8   8   8   8   8
#     4  10  19  31  50  81 122 159 191 238 298 353
#     4  10  22  41  61  84 120 157 197 246 297 351
#     4  11  22  38  62  89 117 152 192 239 299 355
#     4   9  19  35  55  82 115 152 189 234 287 344
#     4  10  20  33  56  86 116 154 202 248 295 357
#     4  10  19  35  57  83 115 156 204 249 296 355
#     4  11  24  42  63  86 116 155 200 245 295 354
#     4   9  21  41  62  85 118 157 195 245 297 346
#
# _framework density 19.961665
#
# number of rings (size 3 to 8) (size 9 to 14) (size 15 to 20)
#    0.000    2.000    1.250    3.000    1.750    5.000 
#    0.000    3.750    0.000    3.750    0.000    0.000 
#    0.000    0.000    0.000    0.000    0.000    0.000 
#
# Total GULP energy -357398.369217 kJ/mol
# GULP energy per Si atom -5584.349519 kJ/mol
# Density = 1.991623 g / cm^3
# Si number density = 19.961665 Si / 1000 Ang^3
#
#
#
# Elastic Constant Matrix: (Units=GPa)
#
#
# Indices 1 2 3 4 5 6 
#
# 1 88.1691 16.5823 11.7638 0.0000 0.0000 0.0000
# 2 16.5823 43.4527 6.1950 0.0000 0.0000 0.0000
# 3 11.7638 6.1950 30.2742 0.0000 0.0000 0.0000
# 4 0.0000 0.0000 0.0000 18.0941 0.0000 0.0000
# 5 0.0000 0.0000 0.0000 0.0000 28.4344 0.0000
# 6 0.0000 0.0000 0.0000 0.0000 0.0000 15.0355
#
#
#
# Elastic Compliance Matrix: (Units=1/GPa)
#
#
# Indices 1 2 3 4 5 6 
#
# 1 0.012685 -0.004262 -0.004057 0.000000 0.000000 0.000000
# 2 -0.004262 0.025137 -0.003488 0.000000 0.000000 0.000000
# 3 -0.004057 -0.003488 0.035321 0.000000 0.000000 0.000000
# 4 0.000000 0.000000 0.000000 0.055267 0.000000 0.000000
# 5 0.000000 0.000000 0.000000 0.000000 0.035169 0.000000
# 6 0.000000 0.000000 0.000000 0.000000 0.000000 0.066509
#
#
# Mechanical properties :
#
#
# Convention : Reuss Voigt Hill
#
# Bulk Modulus (GPa) = 20.18977 25.66425 22.92701
# Shear Modulus (GPa) = 18.50401 20.80312 19.65357
#
# Velocity S-wave (km/s) = 3.04793 3.23174 3.14118
# Velocity P-wave (km/s) = 4.74581 5.17786 4.96654
#
# Compressibility (1/GPa) = 0.04953004
#
# Stress axis : x y z
#
# Youngs Moduli (GPa) = 78.83488 39.78149 28.31141
#
# Poissons Ratio (x) = 0.16956 0.11485
# Poissons Ratio (y) = 0.33602 0.09874
# Poissons Ratio (z) = 0.31981 0.13874
#
# Static dielectric constant tensor:
#      x y z
#    x 1.725950 0.000000 0.000000 
#    y 0.000000 1.686930 0.000000 
#    z 0.000000 0.000000 1.669970 
# 
# From -- ./inp_files/4728.got.cif
#   From: 2010.05.17/outbox.cif.g08.bks.cpg/sg58_3_cif.got.tgz:4728.got - 2010.06.03 14:20:14.
