data_PCOD9441894
_publ_section_title
;
Structure prediction by ZEFSAII (Michael W. Deem and Ramdas Pophale) SiO2 
 PCOD9441894
Probable space group: P N N M
;
_chemical_formula_sum "Si O2"
_cell_formula_units_Z 64
_cell_length_a 21.241856
_cell_length_b 17.678721
_cell_length_c 7.524647
_cell_angle_alpha 90.000000
_cell_angle_beta 90.000000
_cell_angle_gamma 90.000000
_cell_volume 2825.722003
_symmetry_space_group_name_H-M "P N N M"
_symmetry_group_IT_number 58
_symmetry_cell_setting 'orthorhombic'
loop_
_space_group_symop_operation_xyz
x,y,z
-x,-y,z
1/2+x,1/2-y,1/2-z
1/2-x,1/2+y,1/2-z
-x,-y,-z
x,y,-z
1/2-x,1/2+y,1/2+z
1/2+x,1/2-y,1/2+z
loop_
_atom_site_type_symbol
_atom_site_label
_atom_site_fract_x
_atom_site_fract_y
_atom_site_fract_z
Si Si1 0.489702 0.216267 0.713588
Si Si2 0.755224 0.416263 0.794231
Si Si3 0.208771 0.423946 0.700817
Si Si4 0.626955 0.210970 0.793957
Si Si5 0.881298 0.885319 0.281996
Si Si6 0.845954 0.118460 0.706305
Si Si7 0.482625 0.393612 0.793827
Si Si8 0.147547 0.705498 0.783740
O O1 0.492983 0.220644 0.500000
O O2 0.555068 0.182752 0.780733
O O3 0.487213 0.302075 0.786062
O O4 0.423277 0.178697 0.762424
O O5 0.793895 0.493708 0.785815
O O6 0.683791 0.424148 0.724577
O O7 0.797346 0.348889 0.717208
O O8 0.745993 0.396288 0.000000
O O9 0.184986 0.431943 0.500000
O O10 0.172592 0.352631 0.784842
O O11 0.282620 0.405573 0.699851
O O12 0.626649 0.297121 0.723982
O O13 0.645974 0.219731 0.000000
O O14 0.886378 0.887001 0.500000
O O15 0.949144 0.917262 0.219673
O O16 0.841193 0.093676 0.500000
O O17 0.913169 0.090374 0.781022
O O18 0.846482 0.209495 0.714531
O O19 0.479492 0.416718 0.000000
O O20 0.150458 0.709353 0.000000
#
# Coordination Sequence:
#
# PCOD9441894 Si02
#       8
#     8   8   8   8   8   8   8   8
#     4   9  16  27  48  78 105 127 158 205 254 296
#     4  10  20  35  53  72  99 136 174 209 248 299
#     4  11  23  37  51  70 101 137 172 214 260 303
#     4   9  18  34  54  73  96 130 168 205 251 306
#     4   8  14  29  54  76  93 122 165 205 241 289
#     4  10  19  32  54  80 103 131 169 211 251 299
#     4   8  15  29  49  75 104 131 163 202 245 298
#     4   9  18  33  53  78 107 136 165 203 254 305
#
# _framework density 22.649077999999999
#
# number of rings (size 3 to 8) (size 9 to 14) (size 15 to 20)
#    0.000    2.750    0.000    2.625    0.000    4.500 
#    0.000    3.750    0.000    7.500    0.000    0.000 
#    0.000    0.000    0.000    0.000    0.000    0.000 
#
# Total GULP energy -356936.978558 kJ/mol
# GULP energy per Si atom -5577.140290 kJ/mol
# Density = 2.259753 g / cm^3
# Si number density = 22.649078 Si / 1000 Ang^3
#
#
#
# Elastic Constant Matrix: (Units=GPa)
#
#
# Indices 1 2 3 4 5 6 
#
# 1 85.8623 16.6944 -6.4713 0.0000 0.0000 0.0000
# 2 16.6944 40.8066 -9.5479 0.0000 0.0000 0.0000
# 3 -6.4713 -9.5479 56.5228 0.0000 0.0000 0.0000
# 4 0.0000 0.0000 0.0000 15.5254 0.0000 0.0000
# 5 0.0000 0.0000 0.0000 0.0000 13.8046 0.0000
# 6 0.0000 0.0000 0.0000 0.0000 0.0000 -21.0038
#
#
#
# Elastic Compliance Matrix: (Units=1/GPa)
#
#
# Indices 1 2 3 4 5 6 
#
# 1 0.012672 -0.005044 0.000599 0.000000 0.000000 0.000000
# 2 -0.005044 0.027522 0.004072 0.000000 0.000000 0.000000
# 3 0.000599 0.004072 0.018448 0.000000 0.000000 0.000000
# 4 0.000000 0.000000 0.000000 0.064410 0.000000 0.000000
# 5 0.000000 0.000000 0.000000 0.000000 0.072440 0.000000
# 6 0.000000 0.000000 0.000000 0.000000 0.000000 -0.047611
#
#
# Mechanical properties :
#
#
# Convention : Reuss Voigt Hill
#
# Bulk Modulus (GPa) = 17.27268 20.50468 18.88868
# Shear Modulus (GPa) = 29.77455 13.83303 21.80379
#
# Velocity S-wave (km/s) = 3.62968 2.47403 3.10607
# Velocity P-wave (km/s) = 5.02084 4.15138 4.60667
#
# Compressibility (1/GPa) = 0.05789489
#
# Stress axis : x y z
#
# Youngs Moduli (GPa) = 78.91117 36.33434 54.20558
#
# Poissons Ratio (x) = 0.18328 -0.03246
# Poissons Ratio (y) = 0.39806 -0.22070
# Poissons Ratio (z) = -0.04725 -0.14794
#
# Static dielectric constant tensor:
#      x y z
#    x 1.886630 0.000000 0.000000 
#    y 0.000000 1.822120 0.000000 
#    z 0.000000 0.000000 1.857320 
# 
# From -- ./inp_files/8395.got.cif
#   From: 2010.05.17/outbox.cif.g08.bks.cpg/sg58_5_cif.got.tgz:8395.got - 2010.06.03 14:20:14.
