data_PCOD9441611
_publ_section_title
;
Structure prediction by ZEFSAII (Michael W. Deem and Ramdas Pophale) SiO2 
 PCOD9441611
Probable space group: P N N M
;
_chemical_formula_sum "Si O2"
_cell_formula_units_Z 58
_cell_length_a 16.733933
_cell_length_b 18.177620
_cell_length_c 7.642865
_cell_angle_alpha 90.000000
_cell_angle_beta 90.000000
_cell_angle_gamma 90.000000
_cell_volume 2324.830179
_symmetry_space_group_name_H-M "P N N M"
_symmetry_group_IT_number 58
_symmetry_cell_setting 'orthorhombic'
loop_
_space_group_symop_operation_xyz
x,y,z
-x,-y,z
1/2+x,1/2-y,1/2-z
1/2-x,1/2+y,1/2-z
-x,-y,-z
x,y,-z
1/2-x,1/2+y,1/2+z
1/2+x,1/2-y,1/2+z
loop_
_atom_site_type_symbol
_atom_site_label
_atom_site_fract_x
_atom_site_fract_y
_atom_site_fract_z
Si Si1 0.810375 0.063726 0.803029
Si Si2 0.000000 0.000000 0.500000
Si Si3 0.612106 0.950427 0.295023
Si Si4 0.364042 0.288999 0.200924
Si Si5 0.855409 0.609600 0.301516
Si Si6 0.993420 0.316558 0.202405
Si Si7 0.752220 0.842683 0.210426
Si Si8 0.408977 0.577969 0.286386
O O1 0.862965 0.136383 0.806912
O O2 0.729491 0.092401 0.714347
O O3 0.856757 0.994576 0.731287
O O4 0.787580 0.040334 0.000000
O O5 0.018142 0.063435 0.343909
O O6 0.596015 0.963666 0.500000
O O7 0.550636 0.889519 0.226617
O O8 0.698444 0.911479 0.275189
O O9 0.606343 0.028384 0.203268
O O10 0.450331 0.251005 0.208643
O O11 0.296399 0.230476 0.267168
O O12 0.345675 0.305821 0.000000
O O13 0.842975 0.634406 0.500000
O O14 0.913243 0.668676 0.216297
O O15 0.971121 0.310364 0.000000
O O16 0.845722 0.856052 0.251556
O O17 0.746993 0.843780 0.000000
O O18 0.425237 0.576560 0.500000
#
# Coordination Sequence:
#
# PCOD9441611 Si02
#       8
#     8   2   8   8   8   8   8   8
#     4  10  22  40  62  88 121 165 205 258 317 372
#     4  12  26  40  68 102 120 170 218 270 344 378
#     4  10  19  30  52  85 120 153 192 238 293 359
#     4  10  21  37  62  89 119 160 210 250 310 387
#     4  11  21  34  55  84 117 156 199 243 297 361
#     4  10  21  36  52  81 122 160 193 243 302 360
#     4   9  18  36  60  88 120 159 198 253 314 370
#     4  10  22  43  67  94 131 162 212 274 326 384
#
# _framework density 24.948058
#
# number of rings (size 3 to 8) (size 9 to 14) (size 15 to 20)
#    0.000    1.931    1.379    2.276    1.931    4.966 
#    0.000    1.379    3.034    3.310    0.000    0.000 
#    0.000    0.000    0.000    0.000    0.000    0.000 
#
# Total GULP energy -323525.212708 kJ/mol
# GULP energy per Si atom -5578.020909 kJ/mol
# Density = 2.489127 g / cm^3
# Si number density = 24.948058 Si / 1000 Ang^3
#
#
#
# Elastic Constant Matrix: (Units=GPa)
#
#
# Indices 1 2 3 4 5 6 
#
# 1 57.3504 1.7479 7.5079 0.0000 0.0000 0.0000
# 2 1.7479 65.2344 1.6597 0.0000 0.0000 0.0000
# 3 7.5079 1.6597 82.7794 0.0000 0.0000 0.0000
# 4 0.0000 0.0000 0.0000 -2.8557 0.0000 0.0000
# 5 0.0000 0.0000 0.0000 0.0000 24.0613 0.0000
# 6 0.0000 0.0000 0.0000 0.0000 0.0000 -3.0657
#
#
#
# Elastic Compliance Matrix: (Units=1/GPa)
#
#
# Indices 1 2 3 4 5 6 
#
# 1 0.017658 -0.000433 -0.001593 0.000000 0.000000 0.000000
# 2 -0.000433 0.015348 -0.000268 0.000000 0.000000 0.000000
# 3 -0.001593 -0.000268 0.012230 0.000000 0.000000 0.000000
# 4 0.000000 0.000000 0.000000 -0.350181 0.000000 0.000000
# 5 0.000000 0.000000 0.000000 0.000000 0.041560 0.000000
# 6 0.000000 0.000000 0.000000 0.000000 0.000000 -0.326192
#
#
# Mechanical properties :
#
#
# Convention : Reuss Voigt Hill
#
# Bulk Modulus (GPa) = 24.60125 25.24390 24.92257
# Shear Modulus (GPa) = -8.74985 16.59124 3.92069
#
# Velocity S-wave (km/s) = -1.87479 2.58162 1.25497
# Velocity P-wave (km/s) = 2.27946 4.36198 3.48015
#
# Compressibility (1/GPa) = 0.04064833
#
# Stress axis : x y z
#
# Youngs Moduli (GPa) = 56.63034 65.15607 81.76506
#
# Poissons Ratio (x) = 0.02819 0.13024
# Poissons Ratio (y) = 0.02450 0.02195
# Poissons Ratio (z) = 0.09021 0.01749
#
# Static dielectric constant tensor:
#      x y z
#    x 2.133030 0.000000 0.000000 
#    y 0.000000 1.959770 0.000000 
#    z 0.000000 0.000000 1.932980 
# 
# From -- ./inp_files/8034.got.cif
#   From: 2010.05.17/outbox.cif.g08.bks.cpg/sg58_5_cif.got.tgz:8034.got - 2010.06.03 14:20:14.
