data_PCOD9441394
_publ_section_title
;
Structure prediction by ZEFSAII (Michael W. Deem and Ramdas Pophale) SiO2 
 PCOD9441394
Probable space group: P N N M
;
_chemical_formula_sum "Si O2"
_cell_formula_units_Z 64
_cell_length_a 19.274565
_cell_length_b 13.048276
_cell_length_c 13.813621
_cell_angle_alpha 90.000000
_cell_angle_beta 90.000000
_cell_angle_gamma 90.000000
_cell_volume 3474.123525
_symmetry_space_group_name_H-M "P N N M"
_symmetry_group_IT_number 58
_symmetry_cell_setting 'orthorhombic'
loop_
_space_group_symop_operation_xyz
x,y,z
-x,-y,z
1/2+x,1/2-y,1/2-z
1/2-x,1/2+y,1/2-z
-x,-y,-z
x,y,-z
1/2-x,1/2+y,1/2+z
1/2+x,1/2-y,1/2+z
loop_
_atom_site_type_symbol
_atom_site_label
_atom_site_fract_x
_atom_site_fract_y
_atom_site_fract_z
Si Si1 0.075724 0.530126 0.725782
Si Si2 0.425544 0.446707 0.886678
Si Si3 0.340561 0.917453 0.384146
Si Si4 0.222688 0.783120 0.115936
Si Si5 0.717050 0.001404 0.115611
Si Si6 0.211433 0.068935 0.616740
Si Si7 0.115588 0.759543 0.266475
Si Si8 0.757057 0.781572 0.116736
O O1 0.097366 0.464371 0.820724
O O2 0.139069 0.511510 0.652526
O O3 0.077300 0.651829 0.740887
O O4 0.000000 0.500000 0.690529
O O5 0.500000 0.500000 0.884077
O O6 0.362295 0.521081 0.853897
O O7 0.426670 0.349086 0.816918
O O8 0.411744 0.417766 0.000000
O O9 0.353291 0.923719 0.500000
O O10 0.316770 0.801133 0.360129
O O11 0.274286 0.990886 0.361273
O O12 0.265978 0.682835 0.149154
O O13 0.146548 0.780431 0.160944
O O14 0.255520 0.889488 0.149996
O O15 0.220604 0.781090 0.000000
O O16 0.763299 0.902148 0.143211
O O17 0.716709 0.004176 0.000000
O O18 0.207769 0.075117 0.500000
O O19 0.185007 0.750838 0.333270
O O20 0.748567 0.775559 0.000000
#
# Coordination Sequence:
#
# PCOD9441394 Si02
#       8
#     8   8   8   8   8   8   8   8
#     4  11  24  37  51  79 114 148 187 222 273 337
#     4  10  21  36  57  87 116 143 182 229 281 336
#     4  10  18  34  59  83 106 135 183 237 277 310
#     4  10  20  34  55  83 111 141 186 235 275 322
#     4   9  20  36  53  80 113 146 183 222 273 333
#     4   9  17  32  56  83 106 135 179 229 273 314
#     4  11  20  34  56  76 108 147 178 225 283 332
#     4   9  17  31  55  83 106 135 178 226 273 323
#
# _framework density 18.421913
#
# number of rings (size 3 to 8) (size 9 to 14) (size 15 to 20)
#    0.000    2.125    2.500    1.125    0.000    2.000 
#    0.000    2.500    0.000    0.375    0.000    0.000 
#    0.000    0.000    0.000    0.000    0.000    0.000 
#
# Total GULP energy -356943.250619 kJ/mol
# GULP energy per Si atom -5577.238291 kJ/mol
# Density = 1.837998 g / cm^3
# Si number density = 18.421913 Si / 1000 Ang^3
#
#
#
# Elastic Constant Matrix: (Units=GPa)
#
#
# Indices 1 2 3 4 5 6 
#
# 1 40.3316 41.2102 -0.5021 0.0000 0.0000 0.0000
# 2 41.2102 149.9172 32.5401 0.0000 0.0000 0.0000
# 3 -0.5021 32.5401 47.6907 0.0000 0.0000 0.0000
# 4 0.0000 0.0000 0.0000 22.2154 0.0000 0.0000
# 5 0.0000 0.0000 0.0000 0.0000 20.2408 0.0000
# 6 0.0000 0.0000 0.0000 0.0000 0.0000 21.1570
#
#
#
# Elastic Compliance Matrix: (Units=1/GPa)
#
#
# Indices 1 2 3 4 5 6 
#
# 1 0.037304 -0.012137 0.008674 0.000000 0.000000 0.000000
# 2 -0.012137 0.011779 -0.008165 0.000000 0.000000 0.000000
# 3 0.008674 -0.008165 0.026631 0.000000 0.000000 0.000000
# 4 0.000000 0.000000 0.000000 0.045014 0.000000 0.000000
# 5 0.000000 0.000000 0.000000 0.000000 0.049405 0.000000
# 6 0.000000 0.000000 0.000000 0.000000 0.000000 0.047266
#
#
# Mechanical properties :
#
#
# Convention : Reuss Voigt Hill
#
# Bulk Modulus (GPa) = 19.06284 42.71510 30.88897
# Shear Modulus (GPa) = 19.36937 23.70206 21.53571
#
# Velocity S-wave (km/s) = 3.24610 3.59084 3.42281
# Velocity P-wave (km/s) = 4.94165 6.35843 5.69428
#
# Compressibility (1/GPa) = 0.05245809
#
# Stress axis : x y z
#
# Youngs Moduli (GPa) = 26.80677 84.89789 37.55071
#
# Poissons Ratio (x) = 1.03042 -0.32572
# Poissons Ratio (y) = 0.32536 0.30659
# Poissons Ratio (z) = -0.23252 0.69316
#
# Static dielectric constant tensor:
#      x y z
#    x 1.585790 0.000000 0.000000 
#    y 0.000000 1.701690 0.000000 
#    z 0.000000 0.000000 1.676040 
# 
# From -- ./inp_files/21503.got.cif
#   From: 2010.05.17/outbox.cif.g08.bks.cpg/sg58_11_cif.got.tgz:21503.got - 2010.06.03 14:20:14.
