data_PCOD9441236
_publ_section_title
;
Structure prediction by ZEFSAII (Michael W. Deem and Ramdas Pophale) SiO2 
 PCOD9441236
Probable space group: P N N M
;
_chemical_formula_sum "Si O2"
_cell_formula_units_Z 64
_cell_length_a 17.359732
_cell_length_b 21.136278
_cell_length_c 7.475191
_cell_angle_alpha 90.000000
_cell_angle_beta 90.000000
_cell_angle_gamma 90.000000
_cell_volume 2742.797990
_symmetry_space_group_name_H-M "P N N M"
_symmetry_group_IT_number 58
_symmetry_cell_setting 'orthorhombic'
loop_
_space_group_symop_operation_xyz
x,y,z
-x,-y,z
1/2+x,1/2-y,1/2-z
1/2-x,1/2+y,1/2-z
-x,-y,-z
x,y,-z
1/2-x,1/2+y,1/2+z
1/2+x,1/2-y,1/2+z
loop_
_atom_site_type_symbol
_atom_site_label
_atom_site_fract_x
_atom_site_fract_y
_atom_site_fract_z
Si Si1 0.468418 0.611074 0.782720
Si Si2 0.153712 0.220727 0.285226
Si Si3 0.923174 0.327468 0.290693
Si Si4 0.094895 0.358078 0.797868
Si Si5 0.229034 0.618992 0.707117
Si Si6 0.849721 0.985011 0.297369
Si Si7 0.613413 0.686958 0.218243
Si Si8 0.746985 0.602559 0.780169
O O1 0.412742 0.670005 0.738581
O O2 0.425436 0.547975 0.716509
O O3 0.552675 0.632708 0.724834
O O4 0.468949 0.606191 0.000000
O O5 0.155226 0.227006 0.500000
O O6 0.130556 0.287499 0.205100
O O7 0.232199 0.188424 0.220553
O O8 0.903798 0.322224 0.500000
O O9 0.856946 0.373677 0.218259
O O10 0.913692 0.256001 0.218163
O O11 0.009830 0.352360 0.280109
O O12 0.165071 0.398068 0.715653
O O13 0.083427 0.379922 0.000000
O O14 0.228745 0.598829 0.500000
O O15 0.286461 0.571174 0.804063
O O16 0.870931 0.004572 0.500000
O O17 0.804398 0.043852 0.217670
O O18 0.698696 0.665039 0.270608
O O19 0.610485 0.687489 0.000000
O O20 0.750495 0.600996 0.000000
#
# Coordination Sequence:
#
# PCOD9441236 Si02
#       8
#     8   8   8   8   8   8   8   8
#     4   8  14  25  48  78 102 130 166 209 255 306
#     4  10  18  32  53  79 109 140 175 214 266 324
#     4  10  20  35  54  77 107 139 174 223 278 330
#     4  11  21  33  51  77 108 142 181 223 271 322
#     4  10  20  34  55  80 104 138 180 222 271 321
#     4   9  18  34  53  76 106 140 181 221 261 314
#     4   9  15  28  51  78 107 132 166 215 265 317
#     4   9  19  33  50  75 107 142 178 219 263 317
#
# _framework density 23.333836000000002
#
# number of rings (size 3 to 8) (size 9 to 14) (size 15 to 20)
#    0.000    2.500    1.250    2.625    0.000    3.500 
#    0.000    4.375    0.000    4.500    0.000    1.750 
#    0.000    0.000    0.000    0.000    0.000    0.000 
#
# Total GULP energy -357314.779359 kJ/mol
# GULP energy per Si atom -5583.043427 kJ/mol
# Density = 2.328073 g / cm^3
# Si number density = 23.333836 Si / 1000 Ang^3
#
#
#
# Elastic Constant Matrix: (Units=GPa)
#
#
# Indices 1 2 3 4 5 6 
#
# 1 141.4911 15.0382 -1.1054 0.0000 0.0000 0.0000
# 2 15.0382 42.6463 -4.7241 0.0000 0.0000 0.0000
# 3 -1.1054 -4.7241 69.9199 0.0000 0.0000 0.0000
# 4 0.0000 0.0000 0.0000 7.7833 0.0000 0.0000
# 5 0.0000 0.0000 0.0000 0.0000 12.5267 0.0000
# 6 0.0000 0.0000 0.0000 0.0000 0.0000 30.4622
#
#
#
# Elastic Compliance Matrix: (Units=1/GPa)
#
#
# Indices 1 2 3 4 5 6 
#
# 1 0.007343 -0.002596 -0.000059 0.000000 0.000000 0.000000
# 2 -0.002596 0.024543 0.001617 0.000000 0.000000 0.000000
# 3 -0.000059 0.001617 0.014410 0.000000 0.000000 0.000000
# 4 0.000000 0.000000 0.000000 0.128480 0.000000 0.000000
# 5 0.000000 0.000000 0.000000 0.000000 0.079829 0.000000
# 6 0.000000 0.000000 0.000000 0.000000 0.000000 0.032828
#
#
# Mechanical properties :
#
#
# Convention : Reuss Voigt Hill
#
# Bulk Modulus (GPa) = 22.61389 30.27496 26.44443
# Shear Modulus (GPa) = 16.43386 26.47769 21.45578
#
# Velocity S-wave (km/s) = 2.65673 3.37224 3.03564
# Velocity P-wave (km/s) = 4.37304 5.30712 4.86256
#
# Compressibility (1/GPa) = 0.04422062
#
# Stress axis : x y z
#
# Youngs Moduli (GPa) = 136.18372 40.74448 69.39430
#
# Poissons Ratio (x) = 0.10577 0.00412
# Poissons Ratio (y) = 0.35352 -0.11222
# Poissons Ratio (z) = 0.00808 -0.06589
#
# Static dielectric constant tensor:
#      x y z
#    x 1.884290 0.000000 0.000000 
#    y 0.000000 1.880560 0.000000 
#    z 0.000000 0.000000 1.894190 
# 
# From -- ./inp_files/8424.got.cif
#   From: 2010.05.17/outbox.cif.g08.bks.cpg/sg58_5_cif.got.tgz:8424.got - 2010.06.03 14:20:14.
