data_PCOD9441491
_publ_section_title
;
Structure prediction by ZEFSAII (Michael W. Deem and Ramdas Pophale) SiO2 
 PCOD9441491
Probable space group: P N N M
;
_chemical_formula_sum "Si O2"
_cell_formula_units_Z 64
_cell_length_a 17.985068
_cell_length_b 23.561822
_cell_length_c 7.784657
_cell_angle_alpha 90.000000
_cell_angle_beta 90.000000
_cell_angle_gamma 90.000000
_cell_volume 3298.833808
_symmetry_space_group_name_H-M "P N N M"
_symmetry_group_IT_number 58
_symmetry_cell_setting 'orthorhombic'
loop_
_space_group_symop_operation_xyz
x,y,z
-x,-y,z
1/2+x,1/2-y,1/2-z
1/2-x,1/2+y,1/2-z
-x,-y,-z
x,y,-z
1/2-x,1/2+y,1/2+z
1/2+x,1/2-y,1/2+z
loop_
_atom_site_type_symbol
_atom_site_label
_atom_site_fract_x
_atom_site_fract_y
_atom_site_fract_z
Si Si1 0.585638 0.223153 0.709141
Si Si2 0.790899 0.390528 0.295649
Si Si3 0.552166 0.848345 0.298914
Si Si4 0.071248 0.033917 0.793285
Si Si5 0.370834 0.651917 0.289676
Si Si6 0.318261 0.882590 0.694895
Si Si7 0.766011 0.012246 0.705037
Si Si8 0.956637 0.552095 0.304886
O O1 0.591183 0.222587 0.500000
O O2 0.500541 0.204889 0.749217
O O3 0.604857 0.286056 0.769287
O O4 0.645108 0.175054 0.771027
O O5 0.794048 0.385724 0.500000
O O6 0.860011 0.354664 0.224452
O O7 0.712767 0.364052 0.235297
O O8 0.785757 0.458240 0.256447
O O9 0.536677 0.858846 0.500000
O O10 0.516926 0.898534 0.189661
O O11 0.078096 0.099153 0.733417
O O12 0.149952 0.004203 0.753562
O O13 0.065278 0.035830 0.000000
O O14 0.000000 0.000000 0.725811
O O15 0.371300 0.652466 0.500000
O O16 0.295081 0.868522 0.500000
O O17 0.388883 0.924679 0.696667
O O18 0.257417 0.925362 0.775189
O O19 0.760780 0.016187 0.500000
O O20 0.931947 0.538198 0.500000
O O21 0.000000 0.500000 0.226356
#
# Coordination Sequence:
#
# PCOD9441491 Si02
#       8
#     8   8   8   8   8   8   8   8
#     4   8  15  30  49  67  90 125 166 198 231 283
#     4  10  19  31  49  72  96 124 161 201 243 291
#     4  10  19  30  46  67  93 124 158 198 237 280
#     4   9  18  33  53  76  99 124 159 202 248 296
#     4   8  15  30  52  71  89 122 162 198 237 283
#     4   9  18  30  45  66  92 124 158 191 230 280
#     4  10  19  31  49  73 100 127 157 197 244 290
#     4  10  19  28  41  63  91 123 156 190 227 269
#
# _framework density 19.400796
#
# number of rings (size 3 to 8) (size 9 to 14) (size 15 to 20)
#    0.000    2.750    0.000    3.750    0.000    4.250 
#    0.000    1.250    0.000   18.750    0.000    0.000 
#    0.000    0.000    0.000    0.000    0.000    0.000 
#
# Total GULP energy -356297.593456 kJ/mol
# GULP energy per Si atom -5567.149898 kJ/mol
# Density = 1.935664 g / cm^3
# Si number density = 19.400796 Si / 1000 Ang^3
#
#
#
# Elastic Constant Matrix: (Units=GPa)
#
#
# Indices 1 2 3 4 5 6 
#
# 1 94.9492 81.8905 -0.2730 0.0000 0.0000 0.0000
# 2 81.8905 156.6253 5.0760 0.0000 0.0000 0.0000
# 3 -0.2730 5.0760 36.4063 0.0000 0.0000 0.0000
# 4 0.0000 0.0000 0.0000 20.2735 0.0000 0.0000
# 5 0.0000 0.0000 0.0000 0.0000 10.5072 0.0000
# 6 0.0000 0.0000 0.0000 0.0000 0.0000 25.7506
#
#
#
# Elastic Compliance Matrix: (Units=1/GPa)
#
#
# Indices 1 2 3 4 5 6 
#
# 1 0.019269 -0.010125 0.001556 0.000000 0.000000 0.000000
# 2 -0.010125 0.011734 -0.001712 0.000000 0.000000 0.000000
# 3 0.001556 -0.001712 0.027718 0.000000 0.000000 0.000000
# 4 0.000000 0.000000 0.000000 0.049326 0.000000 0.000000
# 5 0.000000 0.000000 0.000000 0.000000 0.095173 0.000000
# 6 0.000000 0.000000 0.000000 0.000000 0.000000 0.038834
#
#
# Mechanical properties :
#
#
# Convention : Reuss Voigt Hill
#
# Bulk Modulus (GPa) = 26.20585 51.26309 38.73447
# Shear Modulus (GPa) = 18.15968 24.72540 21.44254
#
# Velocity S-wave (km/s) = 3.06278 3.57382 3.32812
# Velocity P-wave (km/s) = 5.10337 6.59622 5.89723
#
# Compressibility (1/GPa) = 0.03815941
#
# Stress axis : x y z
#
# Youngs Moduli (GPa) = 51.89692 85.22262 36.07746
#
# Poissons Ratio (x) = 0.86289 -0.05614
# Poissons Ratio (y) = 0.52546 0.06176
# Poissons Ratio (z) = -0.08076 0.14590
#
# Static dielectric constant tensor:
#      x y z
#    x 1.734830 0.000000 0.000000 
#    y 0.000000 1.709960 0.000000 
#    z 0.000000 0.000000 1.707640 
# 
# From -- ./inp_files/8511.got.cif
#   From: 2010.05.17/outbox.cif.g08.bks.cpg/sg58_5_cif.got.tgz:8511.got - 2010.06.03 14:20:14.
