data_PCOD9441951
_publ_section_title
;
Structure prediction by ZEFSAII (Michael W. Deem and Ramdas Pophale) SiO2 
 PCOD9441951
Probable space group: P N N M
;
_chemical_formula_sum "Si O2"
_cell_formula_units_Z 64
_cell_length_a 19.639133
_cell_length_b 23.871947
_cell_length_c 8.598873
_cell_angle_alpha 90.000000
_cell_angle_beta 90.000000
_cell_angle_gamma 90.000000
_cell_volume 4031.360977
_symmetry_space_group_name_H-M "P N N M"
_symmetry_group_IT_number 58
_symmetry_cell_setting 'orthorhombic'
loop_
_space_group_symop_operation_xyz
x,y,z
-x,-y,z
1/2+x,1/2-y,1/2-z
1/2-x,1/2+y,1/2-z
-x,-y,-z
x,y,-z
1/2-x,1/2+y,1/2+z
1/2+x,1/2-y,1/2+z
loop_
_atom_site_type_symbol
_atom_site_label
_atom_site_fract_x
_atom_site_fract_y
_atom_site_fract_z
Si Si1 0.849278 0.774917 0.812673
Si Si2 0.230249 0.338031 0.188483
Si Si3 0.001851 0.256707 0.814099
Si Si4 0.858378 0.435026 0.314080
Si Si5 0.495161 0.882832 0.186148
Si Si6 0.859558 0.559542 0.813300
Si Si7 0.277194 0.166407 0.316028
Si Si8 0.640492 0.727784 0.813735
O O1 0.819263 0.713647 0.768490
O O2 0.928546 0.775138 0.770700
O O3 0.799879 0.819814 0.734271
O O4 0.842833 0.780026 0.000000
O O5 0.198141 0.396282 0.241134
O O6 0.305936 0.320001 0.237967
O O7 0.230836 0.339318 0.000000
O O8 0.002562 0.318245 0.737855
O O9 0.933375 0.225908 0.762015
O O10 0.002238 0.264178 0.000000
O O11 0.852538 0.431280 0.500000
O O12 0.851306 0.498640 0.259767
O O13 0.803665 0.393804 0.237264
O O14 0.933577 0.412192 0.270581
O O15 0.431882 0.913942 0.265023
O O16 0.487628 0.886146 0.000000
O O17 0.856747 0.555340 0.000000
O O18 0.284899 0.172846 0.500000
O O19 0.323988 0.213412 0.232563
O O20 0.634100 0.726187 0.000000
#
# Coordination Sequence:
#
# PCOD9441951 Si02
#       8
#     8   8   8   8   8   8   8   8
#     4   9  18  34  52  71 101 134 161 204 260 303
#     4   8  16  32  50  69  96 132 165 200 253 299
#     4  11  20  32  52  77 103 134 172 208 249 302
#     4  11  23  37  50  69 101 140 174 211 256 301
#     4  11  22  34  48  69 102 140 175 208 248 298
#     4  11  21  35  53  73  98 134 178 218 248 294
#     4  11  21  33  51  75  98 129 173 214 247 298
#     4  10  19  33  51  72 102 135 164 205 257 304
#
# _framework density 15.875531000000001
#
# number of rings (size 3 to 8) (size 9 to 14) (size 15 to 20)
#    0.000    1.750    2.500    4.125    0.000    4.000 
#    0.000    1.875    0.000    0.000    0.000    0.875 
#    0.000    7.000    0.000    0.000    0.000    0.000 
#
# Total GULP energy -357262.710232 kJ/mol
# GULP energy per Si atom -5582.229847 kJ/mol
# Density = 1.583940 g / cm^3
# Si number density = 15.875531 Si / 1000 Ang^3
#
#
#
# Elastic Constant Matrix: (Units=GPa)
#
#
# Indices 1 2 3 4 5 6 
#
# 1 115.1219 48.0757 9.6576 0.0000 0.0000 0.0000
# 2 48.0757 76.5829 7.3091 0.0000 0.0000 0.0000
# 3 9.6576 7.3091 21.6837 0.0000 0.0000 0.0000
# 4 0.0000 0.0000 0.0000 9.4616 0.0000 0.0000
# 5 0.0000 0.0000 0.0000 0.0000 103.1364 0.0000
# 6 0.0000 0.0000 0.0000 0.0000 0.0000 17.3984
#
#
#
# Elastic Compliance Matrix: (Units=1/GPa)
#
#
# Indices 1 2 3 4 5 6 
#
# 1 0.011945 -0.007223 -0.002885 0.000000 0.000000 0.000000
# 2 -0.007223 0.017860 -0.002803 0.000000 0.000000 0.000000
# 3 -0.002885 -0.002803 0.048347 0.000000 0.000000 0.000000
# 4 0.000000 0.000000 0.000000 0.105690 0.000000 0.000000
# 5 0.000000 0.000000 0.000000 0.000000 0.009696 0.000000
# 6 0.000000 0.000000 0.000000 0.000000 0.000000 0.057477
#
#
# Mechanical properties :
#
#
# Convention : Reuss Voigt Hill
#
# Bulk Modulus (GPa) = 19.10984 38.16368 28.63676
# Shear Modulus (GPa) = 16.99059 35.88903 26.43981
#
# Velocity S-wave (km/s) = 3.27500 4.75979 4.08541
# Velocity P-wave (km/s) = 5.13461 7.36878 6.35072
#
# Compressibility (1/GPa) = 0.05232905
#
# Stress axis : x y z
#
# Youngs Moduli (GPa) = 83.71743 55.99202 20.68363
#
# Poissons Ratio (x) = 0.40444 0.05968
# Poissons Ratio (y) = 0.60471 0.05798
# Poissons Ratio (z) = 0.24155 0.15695
#
# Static dielectric constant tensor:
#      x y z
#    x 1.539410 0.000000 0.000000 
#    y 0.000000 1.503860 0.000000 
#    z 0.000000 0.000000 1.535300 
# 
# From -- ./inp_files/9428.got.cif
#   From: 2010.05.17/outbox.cif.g08.bks.cpg/sg58_5_cif.got.tgz:9428.got - 2010.06.03 14:20:14.
