data_PCOD9441706
_publ_section_title
;
Structure prediction by ZEFSAII (Michael W. Deem and Ramdas Pophale) SiO2 
 PCOD9441706
Probable space group: P N N M
;
_chemical_formula_sum "Si O2"
_cell_formula_units_Z 56
_cell_length_a 18.794854
_cell_length_b 19.938710
_cell_length_c 7.872023
_cell_angle_alpha 90.000000
_cell_angle_beta 90.000000
_cell_angle_gamma 90.000000
_cell_volume 2950.002388
_symmetry_space_group_name_H-M "P N N M"
_symmetry_group_IT_number 58
_symmetry_cell_setting 'orthorhombic'
loop_
_space_group_symop_operation_xyz
x,y,z
-x,-y,z
1/2+x,1/2-y,1/2-z
1/2-x,1/2+y,1/2-z
-x,-y,-z
x,y,-z
1/2-x,1/2+y,1/2+z
1/2+x,1/2-y,1/2+z
loop_
_atom_site_type_symbol
_atom_site_label
_atom_site_fract_x
_atom_site_fract_y
_atom_site_fract_z
Si Si1 0.931168 0.460578 0.197003
Si Si2 0.989845 0.321620 0.697451
Si Si3 0.276258 0.392959 0.291708
Si Si4 0.621377 0.719286 0.697145
Si Si5 0.728666 0.965819 0.199157
Si Si6 0.851130 0.705651 0.705701
Si Si7 0.247719 0.683424 0.701532
O O1 0.948918 0.381860 0.210779
O O2 0.856355 0.475414 0.284979
O O3 0.000000 0.500000 0.266645
O O4 0.922993 0.479682 0.000000
O O5 0.993598 0.341279 0.500000
O O6 0.944995 0.253514 0.712660
O O7 0.069660 0.311745 0.763650
O O8 0.277214 0.392908 0.500000
O O9 0.344722 0.350007 0.236248
O O10 0.267957 0.468791 0.229786
O O11 0.205995 0.350840 0.242073
O O12 0.602894 0.710783 0.500000
O O13 0.686352 0.772324 0.711992
O O14 0.747261 0.892401 0.269287
O O15 0.746823 0.963381 0.000000
O O16 0.851777 0.708080 0.500000
O O17 0.820474 0.776212 0.770307
O O18 0.231008 0.681872 0.500000
#
# Coordination Sequence:
#
# PCOD9441706 Si02
#       7
#     8   8   8   8   8   8   8
#     4  11  23  34  47  74 110 142 170 205 258 315
#     4  11  21  34  53  76 101 136 178 214 258 311
#     4   8  16  32  52  73  97 132 172 208 252 303
#     4  10  19  33  53  74 102 136 172 214 258 307
#     4  10  19  33  53  75 101 135 174 211 252 308
#     4   9  19  34  52  72  99 135 172 213 258 306
#     4  10  19  31  51  77 101 130 172 216 255 307
#
# _framework density 18.983035000000001
#
# number of rings (size 3 to 8) (size 9 to 14) (size 15 to 20)
#    0.000    2.143    1.429    3.429    0.000    4.000 
#    0.000    5.000    0.000    0.857    0.000    6.000 
#    0.000    0.000    0.000    0.000    0.000    0.000 
#
# Total GULP energy -312506.871054 kJ/mol
# GULP energy per Si atom -5580.479840 kJ/mol
# Density = 1.893983 g / cm^3
# Si number density = 18.983035 Si / 1000 Ang^3
#
#
#
# Elastic Constant Matrix: (Units=GPa)
#
#
# Indices 1 2 3 4 5 6 
#
# 1 13.5863 -13.2656 -6.1996 0.0000 0.0000 0.0000
# 2 -13.2656 89.2116 -3.2917 0.0000 0.0000 0.0000
# 3 -6.1996 -3.2917 23.3180 0.0000 0.0000 0.0000
# 4 0.0000 0.0000 0.0000 9.3940 0.0000 0.0000
# 5 0.0000 0.0000 0.0000 0.0000 19.0138 0.0000
# 6 0.0000 0.0000 0.0000 0.0000 0.0000 29.8865
#
#
#
# Elastic Compliance Matrix: (Units=1/GPa)
#
#
# Indices 1 2 3 4 5 6 
#
# 1 0.103254 0.016452 0.029775 0.000000 0.000000 0.000000
# 2 0.016452 0.013889 0.006335 0.000000 0.000000 0.000000
# 3 0.029775 0.006335 0.051696 0.000000 0.000000 0.000000
# 4 0.000000 0.000000 0.000000 0.106451 0.000000 0.000000
# 5 0.000000 0.000000 0.000000 0.000000 0.052593 0.000000
# 6 0.000000 0.000000 0.000000 0.000000 0.000000 0.033460
#
#
# Mechanical properties :
#
#
# Convention : Reuss Voigt Hill
#
# Bulk Modulus (GPa) = 3.65011 8.95578 6.30295
# Shear Modulus (GPa) = 14.38681 21.58374 17.98527
#
# Velocity S-wave (km/s) = 2.75594 3.37560 3.08139
# Velocity P-wave (km/s) = 3.47188 4.46329 3.99843
#
# Compressibility (1/GPa) = 0.27396453
#
# Stress axis : x y z
#
# Youngs Moduli (GPa) = 9.68481 71.99685 19.34390
#
# Poissons Ratio (x) = -1.18452 -0.57596
# Poissons Ratio (y) = -0.15934 -0.12254
# Poissons Ratio (z) = -0.28837 -0.45610
#
# Static dielectric constant tensor:
#      x y z
#    x 1.641840 0.000000 0.000000 
#    y 0.000000 1.687440 0.000000 
#    z 0.000000 0.000000 1.684060 
# 
# From -- ./inp_files/8112.got.cif
#   From: 2010.05.17/outbox.cif.g08.bks.cpg/sg58_5_cif.got.tgz:8112.got - 2010.06.03 14:20:14.
