data_PCOD9441493
_publ_section_title
;
Structure prediction by ZEFSAII (Michael W. Deem and Ramdas Pophale) SiO2 
 PCOD9441493
Probable space group: P N N M
;
_chemical_formula_sum "Si O2"
_cell_formula_units_Z 48
_cell_length_a 4.808995
_cell_length_b 23.425761
_cell_length_c 22.494507
_cell_angle_alpha 90.000000
_cell_angle_beta 90.000000
_cell_angle_gamma 90.000000
_cell_volume 2534.104459
_symmetry_space_group_name_H-M "P N N M"
_symmetry_group_IT_number 58
_symmetry_cell_setting 'orthorhombic'
loop_
_space_group_symop_operation_xyz
x,y,z
-x,-y,z
1/2+x,1/2-y,1/2-z
1/2-x,1/2+y,1/2-z
-x,-y,-z
x,y,-z
1/2-x,1/2+y,1/2+z
1/2+x,1/2-y,1/2+z
loop_
_atom_site_type_symbol
_atom_site_label
_atom_site_fract_x
_atom_site_fract_y
_atom_site_fract_z
Si Si1 0.845061 0.119426 0.622770
Si Si2 0.450921 0.692298 0.305981
Si Si3 0.946972 0.675436 0.770993
Si Si4 0.681121 0.296809 0.566027
Si Si5 0.323214 0.717651 0.934671
Si Si6 0.153307 0.558974 0.069219
O O1 0.683626 0.129494 0.684501
O O2 0.587037 0.106839 0.578402
O O3 0.036623 0.175203 0.611329
O O4 0.078295 0.071457 0.609791
O O5 0.763162 0.678717 0.288301
O O6 0.420385 0.761459 0.300637
O O7 0.380609 0.672175 0.372220
O O8 0.256468 0.667635 0.253564
O O9 0.625772 0.321642 0.500000
O O10 0.489658 0.239498 0.569868
O O11 0.996726 0.275417 0.567563
O O12 0.365045 0.691303 0.000000
O O13 0.000000 0.500000 0.084397
O O14 0.238838 0.556797 0.000000
#
# Coordination Sequence:
#
# PCOD9441493 Si02
#       6
#     8   8   8   8   8   8
#     4  12  21  35  53  71  93 123 174 207 256 311
#     4  10  19  33  44  65  98 124 159 199 243 288
#     4  10  21  30  49  66  91 128 159 199 246 290
#     4  10  19  30  45  65  93 124 160 197 241 276
#     4  10  19  28  43  67  89 115 155 207 244 274
#     4  11  24  39  54  72  97 128 163 217 280 319
#
# _framework density 18.941602
#
# number of rings (size 3 to 8) (size 9 to 14) (size 15 to 20)
#    0.000    1.500    1.667    5.000    4.667    2.667 
#    0.000    0.000    0.000    0.000    0.000    0.000 
#    0.000    0.000    0.000    0.000    0.000   58.333 
#
# Total GULP energy -267721.943478 kJ/mol
# GULP energy per Si atom -5577.540489 kJ/mol
# Density = 1.889849 g / cm^3
# Si number density = 18.941602 Si / 1000 Ang^3
#
#
#
# Elastic Constant Matrix: (Units=GPa)
#
#
# Indices 1 2 3 4 5 6 
#
# 1 65.9385 5.2764 0.0495 0.0000 0.0000 0.0000
# 2 5.2764 15.2125 2.7482 0.0000 0.0000 0.0000
# 3 0.0495 2.7482 103.4375 0.0000 0.0000 0.0000
# 4 0.0000 0.0000 0.0000 14.5342 0.0000 0.0000
# 5 0.0000 0.0000 0.0000 0.0000 22.5897 0.0000
# 6 0.0000 0.0000 0.0000 0.0000 0.0000 16.1921
#
#
#
# Elastic Compliance Matrix: (Units=1/GPa)
#
#
# Indices 1 2 3 4 5 6 
#
# 1 0.015601 -0.005436 0.000137 0.000000 0.000000 0.000000
# 2 -0.005436 0.067946 -0.001803 0.000000 0.000000 0.000000
# 3 0.000137 -0.001803 0.009716 0.000000 0.000000 0.000000
# 4 0.000000 0.000000 0.000000 0.068803 0.000000 0.000000
# 5 0.000000 0.000000 0.000000 0.000000 0.044268 0.000000
# 6 0.000000 0.000000 0.000000 0.000000 0.000000 0.061758
#
#
# Mechanical properties :
#
#
# Convention : Reuss Voigt Hill
#
# Bulk Modulus (GPa) = 12.64872 22.30411 17.47641
# Shear Modulus (GPa) = 16.19967 22.43081 19.31524
#
# Velocity S-wave (km/s) = 2.92763 3.44497 3.19678
# Velocity P-wave (km/s) = 4.25679 5.25590 4.78251
#
# Compressibility (1/GPa) = 0.07905941
#
# Stress axis : x y z
#
# Youngs Moduli (GPa) = 64.10046 14.71750 102.92823
#
# Poissons Ratio (x) = 0.08000 -0.01410
# Poissons Ratio (y) = 0.34843 0.18555
# Poissons Ratio (z) = -0.00878 0.02653
#
# Static dielectric constant tensor:
#      x y z
#    x 1.678970 0.000000 0.000000 
#    y 0.000000 1.668140 0.000000 
#    z 0.000000 0.000000 1.734250 
# 
# From -- ./inp_files/28147.got.cif
#   From: 2010.05.17/outbox.cif.g08.bks.cpg/sg58_15_cif.got.tgz:28147.got - 2010.06.03 14:20:14.
