data_PCOD9441677
_publ_section_title
;
Structure prediction by ZEFSAII (Michael W. Deem and Ramdas Pophale) SiO2 
 PCOD9441677
Probable space group: P N N M
;
_chemical_formula_sum "Si O2"
_cell_formula_units_Z 64
_cell_length_a 12.725312
_cell_length_b 19.907116
_cell_length_c 14.182197
_cell_angle_alpha 90.000000
_cell_angle_beta 90.000000
_cell_angle_gamma 90.000000
_cell_volume 3592.694590
_symmetry_space_group_name_H-M "P N N M"
_symmetry_group_IT_number 58
_symmetry_cell_setting 'orthorhombic'
loop_
_space_group_symop_operation_xyz
x,y,z
-x,-y,z
1/2+x,1/2-y,1/2-z
1/2-x,1/2+y,1/2-z
-x,-y,-z
x,y,-z
1/2-x,1/2+y,1/2+z
1/2+x,1/2-y,1/2+z
loop_
_atom_site_type_symbol
_atom_site_label
_atom_site_fract_x
_atom_site_fract_y
_atom_site_fract_z
Si Si1 0.269447 0.200985 0.891152
Si Si2 0.714513 0.169962 0.894125
Si Si3 0.932374 0.408590 0.391719
Si Si4 0.739248 0.016552 0.162318
Si Si5 0.572023 0.056753 0.291897
Si Si6 0.596240 0.418373 0.609216
Si Si7 0.952644 0.195544 0.887770
Si Si8 0.386231 0.796431 0.703322
O O1 0.376484 0.162078 0.865729
O O2 0.180908 0.142469 0.884948
O O3 0.221367 0.262951 0.834849
O O4 0.278762 0.220508 0.000000
O O5 0.735311 0.089894 0.883978
O O6 0.828585 0.202829 0.877664
O O7 0.634418 0.194200 0.814550
O O8 0.679564 0.184885 0.000000
O O9 0.972913 0.406569 0.500000
O O10 0.840002 0.464791 0.389928
O O11 0.012334 0.428064 0.308846
O O12 0.684834 0.026556 0.263886
O O13 0.851951 0.980664 0.162613
O O14 0.589434 0.129340 0.336736
O O15 0.500000 0.000000 0.339432
O O16 0.587325 0.439080 0.500000
O O17 0.490386 0.380080 0.638327
O O18 0.019470 0.248021 0.827460
O O19 0.978487 0.203321 0.000000
#
# Coordination Sequence:
#
# PCOD9441677 Si02
#       8
#     8   8   8   8   8   8   8   8
#     4   8  15  28  46  67  86 117 160 197 232 274
#     4  10  20  31  46  70 101 130 160 194 238 291
#     4   9  16  26  43  65  93 125 158 187 230 293
#     4   9  16  27  42  65  98 131 152 182 230 285
#     4   9  19  28  39  65  96 127 157 193 239 291
#     4   8  13  24  43  64  89 119 152 181 218 279
#     4   9  19  34  50  71  95 128 169 203 240 287
#     4  10  19  31  50  64  95 130 160 203 242 283
#
# _framework density 17.813927
#
# number of rings (size 3 to 8) (size 9 to 14) (size 15 to 20)
#    0.000    3.000    0.000    3.000    1.750    5.250 
#    0.000    1.875    0.000    1.500    0.000    0.000 
#    0.000    0.000    0.000   23.125    0.000    1.625 
#
# Total GULP energy -356357.868040 kJ/mol
# GULP energy per Si atom -5568.091688 kJ/mol
# Density = 1.777338 g / cm^3
# Si number density = 17.813927 Si / 1000 Ang^3
#
#
#
# Elastic Constant Matrix: (Units=GPa)
#
#
# Indices 1 2 3 4 5 6 
#
# 1 56.8305 33.0944 21.9600 0.0000 0.0000 0.0000
# 2 33.0944 108.2875 33.2771 0.0000 0.0000 0.0000
# 3 21.9600 33.2771 37.6776 0.0000 0.0000 0.0000
# 4 0.0000 0.0000 0.0000 11.0995 0.0000 0.0000
# 5 0.0000 0.0000 0.0000 0.0000 17.5170 0.0000
# 6 0.0000 0.0000 0.0000 0.0000 0.0000 36.7146
#
#
#
# Elastic Compliance Matrix: (Units=1/GPa)
#
#
# Indices 1 2 3 4 5 6 
#
# 1 0.024008 -0.004169 -0.010311 0.000000 0.000000 0.000000
# 2 -0.004169 0.013399 -0.009404 0.000000 0.000000 0.000000
# 3 -0.010311 -0.009404 0.040856 0.000000 0.000000 0.000000
# 4 0.000000 0.000000 0.000000 0.090094 0.000000 0.000000
# 5 0.000000 0.000000 0.000000 0.000000 0.057087 0.000000
# 6 0.000000 0.000000 0.000000 0.000000 0.000000 0.027237
#
#
# Mechanical properties :
#
#
# Convention : Reuss Voigt Hill
#
# Bulk Modulus (GPa) = 32.79176 42.16207 37.47691
# Shear Modulus (GPa) = 16.09713 20.69718 18.39715
#
# Velocity S-wave (km/s) = 3.00930 3.41230 3.21711
# Velocity P-wave (km/s) = 5.52471 6.26454 5.90622
#
# Compressibility (1/GPa) = 0.03049547
#
# Stress axis : x y z
#
# Youngs Moduli (GPa) = 41.65272 74.63482 24.47597
#
# Poissons Ratio (x) = 0.31112 0.25237
# Poissons Ratio (y) = 0.17363 0.23017
# Poissons Ratio (z) = 0.42949 0.70187
#
# Static dielectric constant tensor:
#      x y z
#    x 1.684410 0.000000 0.000000 
#    y 0.000000 1.652090 0.000000 
#    z 0.000000 0.000000 1.598400 
# 
# From -- ./inp_files/22439.got.cif
#   From: 2010.05.17/outbox.cif.g08.bks.cpg/sg58_12_cif.got.tgz:22439.got - 2010.06.03 14:20:14.
