data_PCOD9441666
_publ_section_title
;
Structure prediction by ZEFSAII (Michael W. Deem and Ramdas Pophale) SiO2 
 PCOD9441666
Probable space group: P N N M
;
_chemical_formula_sum "Si O2"
_cell_formula_units_Z 48
_cell_length_a 18.236856
_cell_length_b 12.939173
_cell_length_c 11.005633
_cell_angle_alpha 90.000000
_cell_angle_beta 90.000000
_cell_angle_gamma 90.000000
_cell_volume 2596.997400
_symmetry_space_group_name_H-M "P N N M"
_symmetry_group_IT_number 58
_symmetry_cell_setting 'orthorhombic'
loop_
_space_group_symop_operation_xyz
x,y,z
-x,-y,z
1/2+x,1/2-y,1/2-z
1/2-x,1/2+y,1/2-z
-x,-y,-z
x,y,-z
1/2-x,1/2+y,1/2+z
1/2+x,1/2-y,1/2+z
loop_
_atom_site_type_symbol
_atom_site_label
_atom_site_fract_x
_atom_site_fract_y
_atom_site_fract_z
Si Si1 0.671352 0.614304 0.199120
Si Si2 0.015498 0.824228 0.355646
Si Si3 0.246064 0.178891 0.862481
Si Si4 0.649437 0.384513 0.864308
Si Si5 0.700567 0.046848 0.858999
Si Si6 0.456635 0.898537 0.851882
O O1 0.585443 0.635298 0.216515
O O2 0.706953 0.716293 0.140440
O O3 0.675277 0.503501 0.132651
O O4 0.723757 0.593347 0.312711
O O5 0.035288 0.828563 0.500000
O O6 0.938197 0.882901 0.343295
O O7 0.996929 0.706902 0.319695
O O8 0.189806 0.170963 0.748786
O O9 0.296967 0.077422 0.844130
O O10 0.213855 0.168938 0.000000
O O11 0.661731 0.337969 0.000000
O O12 0.626495 0.094079 0.803868
O O13 0.696339 0.067697 0.000000
O O14 0.500000 0.000000 0.812753
O O15 0.454965 0.899430 0.000000
#
# Coordination Sequence:
#
# PCOD9441666 Si02
#       6
#     8   8   8   8   8   8
#     4  11  20  32  53  77 104 139 176 215 260 312
#     4  10  19  31  49  74 102 132 172 219 260 303
#     4  10  20  34  53  77 105 137 173 214 261 316
#     4  10  21  36  54  77 106 139 175 218 265 311
#     4   9  19  34  50  74 107 138 171 214 265 316
#     4   9  16  28  49  74 100 131 168 216 268 309
#
# _framework density 18.482883000000001
#
# number of rings (size 3 to 8) (size 9 to 14) (size 15 to 20)
#    0.000    2.167    0.000    4.000    0.000    6.000 
#    0.000    0.833    0.000    4.000    0.000    0.000 
#    0.000   17.333    0.000    0.000    0.000    0.000 
#
# Total GULP energy -267368.298881 kJ/mol
# GULP energy per Si atom -5570.172893 kJ/mol
# Density = 1.844082 g / cm^3
# Si number density = 18.482883 Si / 1000 Ang^3
#
#
#
# Elastic Constant Matrix: (Units=GPa)
#
#
# Indices 1 2 3 4 5 6 
#
# 1 87.9680 31.7366 32.8316 0.0000 0.0000 0.0000
# 2 31.7366 98.2464 26.3397 0.0000 0.0000 0.0000
# 3 32.8316 26.3397 48.4753 0.0000 0.0000 0.0000
# 4 0.0000 0.0000 0.0000 -25.4229 0.0000 0.0000
# 5 0.0000 0.0000 0.0000 0.0000 24.4907 0.0000
# 6 0.0000 0.0000 0.0000 0.0000 0.0000 29.3204
#
#
#
# Elastic Compliance Matrix: (Units=1/GPa)
#
#
# Indices 1 2 3 4 5 6 
#
# 1 0.015765 -0.002610 -0.009259 0.000000 0.000000 0.000000
# 2 -0.002610 0.012346 -0.004941 0.000000 0.000000 0.000000
# 3 -0.009259 -0.004941 0.029585 0.000000 0.000000 0.000000
# 4 0.000000 0.000000 0.000000 -0.039335 0.000000 0.000000
# 5 0.000000 0.000000 0.000000 0.000000 0.040832 0.000000
# 6 0.000000 0.000000 0.000000 0.000000 0.000000 0.034106
#
#
# Mechanical properties :
#
#
# Convention : Reuss Voigt Hill
#
# Bulk Modulus (GPa) = 41.53512 46.27839 43.90675
# Shear Modulus (GPa) = 37.05214 15.26308 26.15761
#
# Velocity S-wave (km/s) = 4.48221 2.87678 3.76604
# Velocity P-wave (km/s) = 7.02196 6.01061 6.53588
#
# Compressibility (1/GPa) = 0.02407601
#
# Stress axis : x y z
#
# Youngs Moduli (GPa) = 63.43069 80.99624 33.80126
#
# Poissons Ratio (x) = 0.21142 0.31297
# Poissons Ratio (y) = 0.16557 0.16700
# Poissons Ratio (z) = 0.58732 0.40017
#
# Static dielectric constant tensor:
#      x y z
#    x 1.635010 0.000000 0.000000 
#    y 0.000000 1.688680 0.000000 
#    z 0.000000 0.000000 1.636150 
# 
# From -- ./inp_files/14357.got.cif
#   From: 2010.05.17/outbox.cif.g08.bks.cpg/sg58_8_cif.got.tgz:14357.got - 2010.06.03 14:20:14.
