data_PCOD9441674
_publ_section_title
;
Structure prediction by ZEFSAII (Michael W. Deem and Ramdas Pophale) SiO2 
 PCOD9441674
Probable space group: P N N M
;
_chemical_formula_sum "Si O2"
_cell_formula_units_Z 56
_cell_length_a 23.592612
_cell_length_b 14.284310
_cell_length_c 8.913427
_cell_angle_alpha 90.000000
_cell_angle_beta 90.000000
_cell_angle_gamma 90.000000
_cell_volume 3003.862188
_symmetry_space_group_name_H-M "P N N M"
_symmetry_group_IT_number 58
_symmetry_cell_setting 'orthorhombic'
loop_
_space_group_symop_operation_xyz
x,y,z
-x,-y,z
1/2+x,1/2-y,1/2-z
1/2-x,1/2+y,1/2-z
-x,-y,-z
x,y,-z
1/2-x,1/2+y,1/2+z
1/2+x,1/2-y,1/2+z
loop_
_atom_site_type_symbol
_atom_site_label
_atom_site_fract_x
_atom_site_fract_y
_atom_site_fract_z
Si Si1 0.264840 0.639239 0.169590
Si Si2 0.850465 0.405727 0.322850
Si Si3 0.768939 0.141738 0.830470
Si Si4 0.502423 0.392443 0.682733
Si Si5 0.611873 0.711555 0.318233
Si Si6 0.622412 0.305793 0.680783
Si Si7 0.844396 0.593893 0.822904
O O1 0.215504 0.599412 0.273649
O O2 0.248774 0.749189 0.159389
O O3 0.326881 0.636975 0.241498
O O4 0.262784 0.601055 0.000000
O O5 0.855830 0.400767 0.500000
O O6 0.879329 0.314834 0.248597
O O7 0.871401 0.505467 0.260845
O O8 0.833965 0.146323 0.777844
O O9 0.721931 0.098986 0.722827
O O10 0.765409 0.101919 0.000000
O O11 0.500000 0.500000 0.732897
O O12 0.501590 0.393072 0.500000
O O13 0.446819 0.335246 0.729546
O O14 0.561208 0.343901 0.726810
O O15 0.613560 0.719061 0.500000
O O16 0.628399 0.314221 0.500000
O O17 0.629851 0.195497 0.717599
O O18 0.849986 0.580840 0.000000
#
# Coordination Sequence:
#
# PCOD9441674 Si02
#       7
#     8   8   8   8   8   8   8
#     4   9  17  31  51  75 105 138 169 208 260 310
#     4  11  21  33  52  77 105 139 179 220 264 316
#     4   8  15  28  47  72 101 135 171 205 249 303
#     4   9  18  34  57  82 105 134 175 218 259 309
#     4   9  18  34  54  77 109 144 177 216 261 309
#     4   9  18  33  54  80 108 140 178 217 257 307
#     4  10  19  31  49  76 109 140 172 213 262 315
#
# _framework density 18.642665000000001
#
# number of rings (size 3 to 8) (size 9 to 14) (size 15 to 20)
#    0.000    2.714    0.000    3.000    0.000    5.143 
#    0.000    4.286    0.000    6.000    0.000    0.000 
#    0.000    0.000    0.000    0.000    0.000    0.000 
#
# Total GULP energy -312249.666086 kJ/mol
# GULP energy per Si atom -5575.886894 kJ/mol
# Density = 1.860023 g / cm^3
# Si number density = 18.642665 Si / 1000 Ang^3
#
#
#
# Elastic Constant Matrix: (Units=GPa)
#
#
# Indices 1 2 3 4 5 6 
#
# 1 137.8681 47.7999 20.1190 0.0000 0.0000 0.0000
# 2 47.7999 91.4278 30.5295 0.0000 0.0000 0.0000
# 3 20.1190 30.5295 43.2467 0.0000 0.0000 0.0000
# 4 0.0000 0.0000 0.0000 12.1956 0.0000 0.0000
# 5 0.0000 0.0000 0.0000 0.0000 20.8033 0.0000
# 6 0.0000 0.0000 0.0000 0.0000 0.0000 17.5138
#
#
#
# Elastic Compliance Matrix: (Units=1/GPa)
#
#
# Indices 1 2 3 4 5 6 
#
# 1 0.008900 -0.004279 -0.001120 0.000000 0.000000 0.000000
# 2 -0.004279 0.016369 -0.009564 0.000000 0.000000 0.000000
# 3 -0.001120 -0.009564 0.030396 0.000000 0.000000 0.000000
# 4 0.000000 0.000000 0.000000 0.081997 0.000000 0.000000
# 5 0.000000 0.000000 0.000000 0.000000 0.048069 0.000000
# 6 0.000000 0.000000 0.000000 0.000000 0.000000 0.057098
#
#
# Mechanical properties :
#
#
# Convention : Reuss Voigt Hill
#
# Bulk Modulus (GPa) = 38.85293 52.15995 45.50644
# Shear Modulus (GPa) = 17.77241 21.70883 19.74062
#
# Velocity S-wave (km/s) = 3.09094 3.41614 3.25760
# Velocity P-wave (km/s) = 5.79867 6.60299 6.21386
#
# Compressibility (1/GPa) = 0.02573809
#
# Stress axis : x y z
#
# Youngs Moduli (GPa) = 112.35454 61.09221 32.89916
#
# Poissons Ratio (x) = 0.26144 0.03683
# Poissons Ratio (y) = 0.48081 0.31466
# Poissons Ratio (z) = 0.12579 0.58431
#
# Static dielectric constant tensor:
#      x y z
#    x 1.634360 0.000000 0.000000 
#    y 0.000000 1.674680 0.000000 
#    z 0.000000 0.000000 1.639510 
# 
# From -- ./inp_files/9085.got.cif
#   From: 2010.05.17/outbox.cif.g08.bks.cpg/sg58_5_cif.got.tgz:9085.got - 2010.06.03 14:20:14.
