data_PCOD9441081
_publ_section_title
;
Structure prediction by ZEFSAII (Michael W. Deem and Ramdas Pophale) SiO2 
 PCOD9441081
Probable space group: P N N M
;
_chemical_formula_sum "Si O2"
_cell_formula_units_Z 56
_cell_length_a 14.932221
_cell_length_b 22.240921
_cell_length_c 7.595381
_cell_angle_alpha 90.000000
_cell_angle_beta 90.000000
_cell_angle_gamma 90.000000
_cell_volume 2522.474243
_symmetry_space_group_name_H-M "P N N M"
_symmetry_group_IT_number 58
_symmetry_cell_setting 'orthorhombic'
loop_
_space_group_symop_operation_xyz
x,y,z
-x,-y,z
1/2+x,1/2-y,1/2-z
1/2-x,1/2+y,1/2-z
-x,-y,-z
x,y,-z
1/2-x,1/2+y,1/2+z
1/2+x,1/2-y,1/2+z
loop_
_atom_site_type_symbol
_atom_site_label
_atom_site_fract_x
_atom_site_fract_y
_atom_site_fract_z
Si Si1 0.327934 0.844244 0.283590
Si Si2 0.055440 0.135768 0.786300
Si Si3 0.746747 0.394559 0.289539
Si Si4 0.417936 0.454641 0.711297
Si Si5 0.302485 0.236689 0.206362
Si Si6 0.717291 0.024978 0.696339
Si Si7 0.989982 0.734424 0.788070
O O1 0.322641 0.845690 0.500000
O O2 0.253251 0.794610 0.224591
O O3 0.313821 0.912300 0.217210
O O4 0.426219 0.820000 0.233151
O O5 0.143670 0.100999 0.726241
O O6 0.062386 0.204897 0.738301
O O7 0.961191 0.108227 0.729686
O O8 0.053661 0.131167 0.000000
O O9 0.743527 0.389558 0.500000
O O10 0.780627 0.330144 0.219966
O O11 0.798824 0.456608 0.257717
O O12 0.500000 0.500000 0.743685
O O13 0.401187 0.455901 0.500000
O O14 0.324865 0.468209 0.800093
O O15 0.409409 0.241002 0.221443
O O16 0.277840 0.234659 0.000000
O O17 0.680917 0.026498 0.500000
O O18 0.995893 0.732784 0.000000
#
# Coordination Sequence:
#
# PCOD9441081 Si02
#       7
#     8   8   8   8   8   8   8
#     4   9  19  37  58  80 112 151 181 217 279 343
#     4   9  16  30  54  78  99 136 183 220 257 321
#     4  10  19  36  58  77 104 146 187 219 265 326
#     4  10  18  30  50  75 105 140 178 214 263 332
#     4  10  20  37  61  84 109 143 186 233 277 320
#     4  11  22  34  51  79 114 145 179 225 278 326
#     4  10  19  35  59  82 106 141 186 228 272 330
#
# _framework density 22.200426
#
# number of rings (size 3 to 8) (size 9 to 14) (size 15 to 20)
#    0.000    2.143    2.857    1.286    0.000    0.857 
#    0.000    4.286    0.000    4.286    0.000    0.000 
#    0.000    0.000    0.000    0.000    0.000    0.000 
#
# Total GULP energy -312211.337052 kJ/mol
# GULP energy per Si atom -5575.202447 kJ/mol
# Density = 2.214990 g / cm^3
# Si number density = 22.200426 Si / 1000 Ang^3
#
#
#
# Elastic Constant Matrix: (Units=GPa)
#
#
# Indices 1 2 3 4 5 6 
#
# 1 33.7279 10.9059 -6.8589 0.0000 0.0000 0.0000
# 2 10.9059 129.3604 8.8067 0.0000 0.0000 0.0000
# 3 -6.8589 8.8067 39.2164 0.0000 0.0000 0.0000
# 4 0.0000 0.0000 0.0000 14.6611 0.0000 0.0000
# 5 0.0000 0.0000 0.0000 0.0000 84.3212 0.0000
# 6 0.0000 0.0000 0.0000 0.0000 0.0000 36.1740
#
#
#
# Elastic Compliance Matrix: (Units=1/GPa)
#
#
# Indices 1 2 3 4 5 6 
#
# 1 0.031936 -0.003120 0.006286 0.000000 0.000000 0.000000
# 2 -0.003120 0.008155 -0.002377 0.000000 0.000000 0.000000
# 3 0.006286 -0.002377 0.027133 0.000000 0.000000 0.000000
# 4 0.000000 0.000000 0.000000 0.068208 0.000000 0.000000
# 5 0.000000 0.000000 0.000000 0.000000 0.011859 0.000000
# 6 0.000000 0.000000 0.000000 0.000000 0.000000 0.027644
#
#
# Mechanical properties :
#
#
# Convention : Reuss Voigt Hill
#
# Bulk Modulus (GPa) = 14.53443 25.33467 19.93455
# Shear Modulus (GPa) = 25.47220 39.66132 32.56676
#
# Velocity S-wave (km/s) = 3.39097 4.23130 3.83422
# Velocity P-wave (km/s) = 4.67896 5.94209 5.34795
#
# Compressibility (1/GPa) = 0.06880213
#
# Stress axis : x y z
#
# Youngs Moduli (GPa) = 31.31218 122.62046 36.85575
#
# Poissons Ratio (x) = 0.38263 -0.23169
# Poissons Ratio (y) = 0.09771 0.08761
# Poissons Ratio (z) = -0.19684 0.29149
#
# Static dielectric constant tensor:
#      x y z
#    x 1.786460 0.000000 0.000000 
#    y 0.000000 1.903470 0.000000 
#    z 0.000000 0.000000 1.858640 
# 
# From -- ./inp_files/6365.got.cif
#   From: 2010.05.17/outbox.cif.g08.bks.cpg/sg58_4_cif.got.tgz:6365.got - 2010.06.03 14:20:14.
