data_PCOD9441373
_publ_section_title
;
Structure prediction by ZEFSAII (Michael W. Deem and Ramdas Pophale) SiO2 
 PCOD9441373
Probable space group: P N N M
;
_chemical_formula_sum "Si O2"
_cell_formula_units_Z 56
_cell_length_a 15.534816
_cell_length_b 11.206984
_cell_length_c 17.395941
_cell_angle_alpha 90.000000
_cell_angle_beta 90.000000
_cell_angle_gamma 90.000000
_cell_volume 3028.606092
_symmetry_space_group_name_H-M "P N N M"
_symmetry_group_IT_number 58
_symmetry_cell_setting 'orthorhombic'
loop_
_space_group_symop_operation_xyz
x,y,z
-x,-y,z
1/2+x,1/2-y,1/2-z
1/2-x,1/2+y,1/2-z
-x,-y,-z
x,y,-z
1/2-x,1/2+y,1/2+z
1/2+x,1/2-y,1/2+z
loop_
_atom_site_type_symbol
_atom_site_label
_atom_site_fract_x
_atom_site_fract_y
_atom_site_fract_z
Si Si1 0.915235 0.916666 0.913193
Si Si2 0.401695 0.816603 0.680632
Si Si3 0.080458 0.681345 0.747773
Si Si4 0.724692 0.980048 0.323589
Si Si5 0.174884 0.901036 0.190885
Si Si6 0.996134 0.355229 0.588263
Si Si7 0.829165 0.755610 0.347080
O O1 0.925092 0.784337 0.880582
O O2 0.852691 0.985745 0.856719
O O3 0.883051 0.912318 0.000000
O O4 0.000000 0.000000 0.912742
O O5 0.490900 0.864613 0.716436
O O6 0.341418 0.919883 0.644365
O O7 0.355862 0.755903 0.756100
O O8 0.161034 0.599486 0.770331
O O9 0.100075 0.808122 0.787742
O O10 0.066897 0.688275 0.656300
O O11 0.787592 0.056013 0.271045
O O12 0.786873 0.884652 0.365979
O O13 0.249817 0.834483 0.144562
O O14 0.971249 0.329534 0.500000
O O15 0.000000 0.500000 0.596259
O O16 0.087987 0.291512 0.606620
#
# Coordination Sequence:
#
# PCOD9441373 Si02
#       7
#     8   8   8   8   8   8   8
#     4  11  22  36  53  79 111 141 185 237 289 336
#     4  10  18  34  56  82 110 145 187 232 278 332
#     4  10  19  34  58  84 111 145 190 238 275 334
#     4  10  19  33  57  85 112 141 195 232 278 333
#     4  10  19  33  55  82 111 146 184 234 284 328
#     4  10  20  36  57  85 117 148 185 233 289 345
#     4   9  19  33  57  83 111 146 188 232 276 337
#
# _framework density 18.490354
#
# number of rings (size 3 to 8) (size 9 to 14) (size 15 to 20)
#    0.000    2.000    2.857    3.000    0.000    0.571 
#    0.000    1.429    0.000    4.286    0.000    0.000 
#    0.000    0.000    0.000    0.000    0.000    0.000 
#
# Total GULP energy -311769.493327 kJ/mol
# GULP energy per Si atom -5567.312381 kJ/mol
# Density = 1.844827 g / cm^3
# Si number density = 18.490354 Si / 1000 Ang^3
#
#
#
# Elastic Constant Matrix: (Units=GPa)
#
#
# Indices 1 2 3 4 5 6 
#
# 1 67.2897 30.4195 11.0536 0.0000 0.0000 0.0000
# 2 30.4195 94.7571 19.9135 0.0000 0.0000 0.0000
# 3 11.0536 19.9135 51.5413 0.0000 0.0000 0.0000
# 4 0.0000 0.0000 0.0000 12.3067 0.0000 0.0000
# 5 0.0000 0.0000 0.0000 0.0000 18.0910 0.0000
# 6 0.0000 0.0000 0.0000 0.0000 0.0000 36.5783
#
#
#
# Elastic Compliance Matrix: (Units=1/GPa)
#
#
# Indices 1 2 3 4 5 6 
#
# 1 0.017524 -0.005263 -0.001725 0.000000 0.000000 0.000000
# 2 -0.005263 0.013067 -0.003920 0.000000 0.000000 0.000000
# 3 -0.001725 -0.003920 0.021286 0.000000 0.000000 0.000000
# 4 0.000000 0.000000 0.000000 0.081256 0.000000 0.000000
# 5 0.000000 0.000000 0.000000 0.000000 0.055276 0.000000
# 6 0.000000 0.000000 0.000000 0.000000 0.000000 0.027339
#
#
# Mechanical properties :
#
#
# Convention : Reuss Voigt Hill
#
# Bulk Modulus (GPa) = 33.26511 37.37347 35.31929
# Shear Modulus (GPa) = 20.19523 23.54197 21.86860
#
# Velocity S-wave (km/s) = 3.30844 3.57207 3.44278
# Velocity P-wave (km/s) = 5.71173 6.10485 5.91156
#
# Compressibility (1/GPa) = 0.03006153
#
# Stress axis : x y z
#
# Youngs Moduli (GPa) = 57.06556 76.53084 46.97883
#
# Poissons Ratio (x) = 0.40279 0.08103
# Poissons Ratio (y) = 0.30034 0.18414
# Poissons Ratio (z) = 0.09842 0.29998
#
# Static dielectric constant tensor:
#      x y z
#    x 1.658140 0.000000 0.000000 
#    y 0.000000 1.665650 0.000000 
#    z 0.000000 0.000000 1.608980 
# 
# From -- ./inp_files/22202.got.cif
#   From: 2010.05.17/outbox.cif.g08.bks.cpg/sg58_12_cif.got.tgz:22202.got - 2010.06.03 14:20:14.
