data_PCOD9441089
_publ_section_title
;
Structure prediction by ZEFSAII (Michael W. Deem and Ramdas Pophale) SiO2 
 PCOD9441089
Probable space group: P N N M
;
_chemical_formula_sum "Si O2"
_cell_formula_units_Z 64
_cell_length_a 22.305800
_cell_length_b 19.047811
_cell_length_c 8.696917
_cell_angle_alpha 90.000000
_cell_angle_beta 90.000000
_cell_angle_gamma 90.000000
_cell_volume 3695.117070
_symmetry_space_group_name_H-M "P N N M"
_symmetry_group_IT_number 58
_symmetry_cell_setting 'orthorhombic'
loop_
_space_group_symop_operation_xyz
x,y,z
-x,-y,z
1/2+x,1/2-y,1/2-z
1/2-x,1/2+y,1/2-z
-x,-y,-z
x,y,-z
1/2-x,1/2+y,1/2+z
1/2+x,1/2-y,1/2+z
loop_
_atom_site_type_symbol
_atom_site_label
_atom_site_fract_x
_atom_site_fract_y
_atom_site_fract_z
Si Si1 0.268710 0.619559 0.682816
Si Si2 0.349699 0.074130 0.683525
Si Si3 0.113896 0.166727 0.315856
Si Si4 0.190808 0.415684 0.184417
Si Si5 0.020277 0.579206 0.314621
Si Si6 0.912012 0.678909 0.314893
Si Si7 0.432006 0.519222 0.684261
Si Si8 0.685441 0.529169 0.815113
O O1 0.272229 0.624288 0.500000
O O2 0.200745 0.623015 0.740261
O O3 0.317065 0.670300 0.760353
O O4 0.290982 0.543163 0.740622
O O5 0.343974 0.077870 0.500000
O O6 0.415861 0.092682 0.738315
O O7 0.335398 0.992790 0.728935
O O8 0.112422 0.159244 0.500000
O O9 0.083585 0.239824 0.269119
O O10 0.084260 0.097415 0.243135
O O11 0.148986 0.356952 0.256976
O O12 0.261775 0.415816 0.224677
O O13 0.186669 0.410704 0.000000
O O14 0.026334 0.583661 0.500000
O O15 0.000000 0.500000 0.276952
O O16 0.968464 0.632476 0.263019
O O17 0.911082 0.676593 0.500000
O O18 0.500000 0.500000 0.726900
O O19 0.426454 0.517869 0.500000
O O20 0.382320 0.466172 0.754652
O O21 0.684716 0.521876 0.000000
#
# Coordination Sequence:
#
# PCOD9441089 Si02
#       8
#     8   8   8   8   8   8   8   8
#     4  10  18  30  51  75  98 128 165 209 258 304
#     4  10  19  31  49  75 104 134 173 217 259 301
#     4  10  20  35  54  77 105 135 173 216 264 322
#     4   9  18  30  47  73 103 133 169 212 254 302
#     4  10  19  32  50  75 107 142 183 221 257 305
#     4  10  21  34  51  75 104 141 178 215 261 315
#     4  10  20  34  55  82 106 132 173 220 265 318
#     4   9  17  30  49  77 105 129 162 206 255 305
#
# _framework density 17.320155
#
# number of rings (size 3 to 8) (size 9 to 14) (size 15 to 20)
#    0.000    2.250    1.250    4.875    0.000    5.250 
#    0.000    0.000    2.750    0.000    0.000    0.000 
#    0.000    0.000    0.000    0.000    0.000    0.000 
#
# Total GULP energy -356749.447305 kJ/mol
# GULP energy per Si atom -5574.210114 kJ/mol
# Density = 1.728073 g / cm^3
# Si number density = 17.320155 Si / 1000 Ang^3
#
#
#
# Elastic Constant Matrix: (Units=GPa)
#
#
# Indices 1 2 3 4 5 6 
#
# 1 140.5389 42.9429 25.0131 0.0000 0.0000 0.0000
# 2 42.9429 61.0965 17.0497 0.0000 0.0000 0.0000
# 3 25.0131 17.0497 31.9453 0.0000 0.0000 0.0000
# 4 0.0000 0.0000 0.0000 -5.7841 0.0000 0.0000
# 5 0.0000 0.0000 0.0000 0.0000 -4.9870 0.0000
# 6 0.0000 0.0000 0.0000 0.0000 0.0000 22.4658
#
#
#
# Elastic Compliance Matrix: (Units=1/GPa)
#
#
# Indices 1 2 3 4 5 6 
#
# 1 0.009605 -0.005467 -0.004603 0.000000 0.000000 0.000000
# 2 -0.005467 0.022343 -0.007645 0.000000 0.000000 0.000000
# 3 -0.004603 -0.007645 0.038988 0.000000 0.000000 0.000000
# 4 0.000000 0.000000 0.000000 -0.172888 0.000000 0.000000
# 5 0.000000 0.000000 0.000000 0.000000 -0.200520 0.000000
# 6 0.000000 0.000000 0.000000 0.000000 0.000000 0.044512
#
#
# Mechanical properties :
#
#
# Convention : Reuss Voigt Hill
#
# Bulk Modulus (GPa) = 28.16313 44.84356 36.50335
# Shear Modulus (GPa) = -23.73099 12.24392 -5.74353
#
# Velocity S-wave (km/s) = -3.70555 2.66168 -1.82299
# Velocity P-wave (km/s) = 1.41864 5.94922 4.08538
#
# Compressibility (1/GPa) = 0.03550742
#
# Stress axis : x y z
#
# Youngs Moduli (GPa) = 104.11138 44.75647 25.64900
#
# Poissons Ratio (x) = 0.24466 0.11807
# Poissons Ratio (y) = 0.56913 0.19608
# Poissons Ratio (z) = 0.47924 0.34215
#
# Static dielectric constant tensor:
#      x y z
#    x 1.626090 0.000000 0.000000 
#    y 0.000000 1.596130 0.000000 
#    z 0.000000 0.000000 1.580900 
# 
# From -- ./inp_files/9468.got.cif
#   From: 2010.05.17/outbox.cif.g08.bks.cpg/sg58_5_cif.got.tgz:9468.got - 2010.06.03 14:20:14.
