data_PCOD9441731
_publ_section_title
;
Structure prediction by ZEFSAII (Michael W. Deem and Ramdas Pophale) SiO2 
 PCOD9441731
Probable space group: P N N M
;
_chemical_formula_sum "Si O2"
_cell_formula_units_Z 64
_cell_length_a 8.577199
_cell_length_b 27.798513
_cell_length_c 13.259318
_cell_angle_alpha 90.000000
_cell_angle_beta 90.000000
_cell_angle_gamma 90.000000
_cell_volume 3161.463979
_symmetry_space_group_name_H-M "P N N M"
_symmetry_group_IT_number 58
_symmetry_cell_setting 'orthorhombic'
loop_
_space_group_symop_operation_xyz
x,y,z
-x,-y,z
1/2+x,1/2-y,1/2-z
1/2-x,1/2+y,1/2-z
-x,-y,-z
x,y,-z
1/2-x,1/2+y,1/2+z
1/2+x,1/2-y,1/2+z
loop_
_atom_site_type_symbol
_atom_site_label
_atom_site_fract_x
_atom_site_fract_y
_atom_site_fract_z
Si Si1 0.894923 0.806023 0.752170
Si Si2 0.289377 0.964547 0.608980
Si Si3 0.589192 0.603331 0.215037
Si Si4 0.166692 0.758359 0.122760
Si Si5 0.774559 0.943123 0.732018
Si Si6 0.866929 0.650284 0.693875
Si Si7 0.455847 0.115219 0.385386
Si Si8 0.684828 0.876023 0.111631
O O1 0.771179 0.784056 0.672864
O O2 0.794018 0.838047 0.829909
O O3 0.015810 0.843764 0.701376
O O4 0.003085 0.768415 0.816550
O O5 0.280330 0.988524 0.500000
O O6 0.161757 0.922430 0.618386
O O7 0.449408 0.935408 0.617711
O O8 0.259482 0.004407 0.692048
O O9 0.454381 0.567984 0.250996
O O10 0.733757 0.609975 0.291261
O O11 0.273721 0.803942 0.154166
O O12 0.148374 0.754822 0.000000
O O13 0.712481 0.902618 0.652085
O O14 0.686795 0.927009 0.832015
O O15 0.955775 0.649141 0.804059
O O16 0.007503 0.640945 0.618604
O O17 0.457754 0.133461 0.500000
O O18 0.744061 0.880014 0.000000
#
# Coordination Sequence:
#
# PCOD9441731 Si02
#       8
#     8   8   8   8   8   8   8   8
#     4  10  22  40  61  91 119 148 192 237 285 353
#     4  10  19  32  53  81 114 154 195 237 289 344
#     4   9  20  35  51  76 116 151 184 230 280 334
#     4  11  22  39  62  87 119 153 188 237 294 347
#     4  10  19  31  52  80 111 146 190 240 285 341
#     4   9  19  36  57  81 112 150 193 235 282 348
#     4   9  18  33  53  80 116 155 194 242 298 348
#     4  10  20  38  61  82 109 147 190 237 291 346
#
# _framework density 20.243787999999999
#
# number of rings (size 3 to 8) (size 9 to 14) (size 15 to 20)
#    0.000    2.250    0.000    2.625    0.000    3.000 
#    0.000   15.000    0.000   26.250    0.000    0.000 
#    0.000    0.000    0.000    0.000    0.000    0.000 
#
# Total GULP energy -356499.050651 kJ/mol
# GULP energy per Si atom -5570.297666 kJ/mol
# Density = 2.019771 g / cm^3
# Si number density = 20.243788 Si / 1000 Ang^3
#
#
#
# Elastic Constant Matrix: (Units=GPa)
#
#
# Indices 1 2 3 4 5 6 
#
# 1 91.1667 24.7635 13.8206 0.0000 0.0000 0.0000
# 2 24.7635 80.2783 44.1940 0.0000 0.0000 0.0000
# 3 13.8206 44.1940 118.5232 0.0000 0.0000 0.0000
# 4 0.0000 0.0000 0.0000 15.7264 0.0000 0.0000
# 5 0.0000 0.0000 0.0000 0.0000 -1.1704 0.0000
# 6 0.0000 0.0000 0.0000 0.0000 0.0000 27.4379
#
#
#
# Elastic Compliance Matrix: (Units=1/GPa)
#
#
# Indices 1 2 3 4 5 6 
#
# 1 0.011972 -0.003680 -0.000024 0.000000 0.000000 0.000000
# 2 -0.003680 0.016805 -0.005837 0.000000 0.000000 0.000000
# 3 -0.000024 -0.005837 0.010616 0.000000 0.000000 0.000000
# 4 0.000000 0.000000 0.000000 0.063588 0.000000 0.000000
# 5 0.000000 0.000000 0.000000 0.000000 -0.854407 0.000000
# 6 0.000000 0.000000 0.000000 0.000000 0.000000 0.036446
#
#
# Mechanical properties :
#
#
# Convention : Reuss Voigt Hill
#
# Bulk Modulus (GPa) = 49.23201 50.61380 49.92290
# Shear Modulus (GPa) = -7.25556 22.21143 7.47794
#
# Velocity S-wave (km/s) = -1.89522 3.31599 1.92405
# Velocity P-wave (km/s) = 4.42529 6.30218 5.44521
#
# Compressibility (1/GPa) = 0.02031199
#
# Stress axis : x y z
#
# Youngs Moduli (GPa) = 83.52751 59.50544 94.19349
#
# Poissons Ratio (x) = 0.21897 0.00225
# Poissons Ratio (y) = 0.30737 0.54982
# Poissons Ratio (z) = 0.00200 0.34734
#
# Static dielectric constant tensor:
#      x y z
#    x 1.796670 0.000000 0.000000 
#    y 0.000000 1.767600 0.000000 
#    z 0.000000 0.000000 1.722850 
# 
# From -- ./inp_files/13408.got.cif
#   From: 2010.05.17/outbox.cif.g08.bks.cpg/sg58_7_cif.got.tgz:13408.got - 2010.06.03 14:20:14.
