data_PCOD9441917
_publ_section_title
;
Structure prediction by ZEFSAII (Michael W. Deem and Ramdas Pophale) SiO2 
 PCOD9441917
Probable space group: P N N M
;
_chemical_formula_sum "Si O2"
_cell_formula_units_Z 64
_cell_length_a 18.929324
_cell_length_b 5.400027
_cell_length_c 31.788144
_cell_angle_alpha 90.000000
_cell_angle_beta 90.000000
_cell_angle_gamma 90.000000
_cell_volume 3249.347863
_symmetry_space_group_name_H-M "P N N M"
_symmetry_group_IT_number 58
_symmetry_cell_setting 'orthorhombic'
loop_
_space_group_symop_operation_xyz
x,y,z
-x,-y,z
1/2+x,1/2-y,1/2-z
1/2-x,1/2+y,1/2-z
-x,-y,-z
x,y,-z
1/2-x,1/2+y,1/2+z
1/2+x,1/2-y,1/2+z
loop_
_atom_site_type_symbol
_atom_site_label
_atom_site_fract_x
_atom_site_fract_y
_atom_site_fract_z
Si Si1 0.456973 0.250000 0.764692
Si Si2 0.713299 0.250029 0.353447
Si Si3 0.039182 0.750000 0.366266
Si Si4 0.783925 0.750031 0.545900
Si Si5 0.211608 0.749991 0.266332
Si Si6 0.827006 0.250031 0.576613
Si Si7 0.164013 0.749972 0.117712
Si Si8 0.954087 0.250000 0.952812
O O1 0.500000 0.500000 0.751381
O O2 0.457358 0.250002 0.815705
O O3 0.372303 0.249997 0.755175
O O4 0.500000 0.000000 0.751381
O O5 0.770510 0.250016 0.316197
O O6 0.753235 0.250036 0.398091
O O7 0.669032 0.503587 0.354010
O O8 0.669028 0.996481 0.354013
O O9 0.114219 0.749994 0.387968
O O10 0.000000 0.500000 0.379235
O O11 0.000000 0.000000 0.379235
O O12 0.748755 0.750016 0.500000
O O13 0.828914 0.500984 0.550427
O O14 0.730204 0.750035 0.585168
O O15 0.828909 0.999089 0.550424
O O16 0.249999 0.499992 0.249999
O O17 0.098565 0.749991 0.086227
O O18 0.000000 0.500000 0.950401
O O19 0.921155 0.249994 0.000000
O O20 0.000000 0.000000 0.950399
#
# Coordination Sequence:
#
# PCOD9441917 Si02
#       8
#     8   8   8   8   8   8   8   8
#     4  10  21  38  62  90 120 151 193 248 298 351
#     4  10  21  37  56  85 111 142 189 228 289 350
#     4  10  19  32  55  81 106 137 177 230 277 319
#     4  10  20  32  52  77 104 144 180 223 282 327
#     4  12  24  40  65  93 126 159 194 248 312 374
#     4  10  19  34  53  76 110 136 178 234 264 323
#     4  10  20  35  58  78 113 146 182 245 283 347
#     4  10  20  34  55  84 116 151 198 250 295 343
#
# _framework density 19.696259000000001
#
# number of rings (size 3 to 8) (size 9 to 14) (size 15 to 20)
#    0.000    1.750    1.250    3.750    0.000    0.000 
#    0.000    3.750    0.000   22.500    0.000    0.000 
#    0.000    0.000    0.000    0.000    0.000    0.000 
#
# Total GULP energy -356694.418782 kJ/mol
# GULP energy per Si atom -5573.350293 kJ/mol
# Density = 1.965143 g / cm^3
# Si number density = 19.696259 Si / 1000 Ang^3
#
#
#
# Elastic Constant Matrix: (Units=GPa)
#
#
# Indices 1 2 3 4 5 6 
#
# 1 96.0871 71.7470 3.8774 0.0000 0.0000 0.0000
# 2 71.7470 219.8745 31.3559 0.0000 0.0000 0.0000
# 3 3.8774 31.3559 38.6907 0.0000 0.0000 0.0000
# 4 0.0000 0.0000 0.0000 38.5338 0.0000 0.0000
# 5 0.0000 0.0000 0.0000 0.0000 67.5540 0.0000
# 6 0.0000 0.0000 0.0000 0.0000 0.0000 15.2977
#
#
#
# Elastic Compliance Matrix: (Units=1/GPa)
#
#
# Indices 1 2 3 4 5 6 
#
# 1 0.013987 -0.004934 0.002597 0.000000 0.000000 0.000000
# 2 -0.004934 0.006883 -0.005084 0.000000 0.000000 0.000000
# 3 0.002597 -0.005084 0.029706 0.000000 0.000000 0.000000
# 4 0.000000 0.000000 0.000000 0.025951 0.000000 0.000000
# 5 0.000000 0.000000 0.000000 0.000000 0.014803 0.000000
# 6 0.000000 0.000000 0.000000 0.000000 0.000000 0.065369
#
#
# Mechanical properties :
#
#
# Convention : Reuss Voigt Hill
#
# Bulk Modulus (GPa) = 27.98459 63.17920 45.58189
# Shear Modulus (GPa) = 27.25500 40.78857 34.02179
#
# Velocity S-wave (km/s) = 3.72394 4.55563 4.16062
# Velocity P-wave (km/s) = 5.72094 7.73421 6.80247
#
# Compressibility (1/GPa) = 0.03573396
#
# Stress axis : x y z
#
# Youngs Moduli (GPa) = 71.49546 145.28139 33.66347
#
# Poissons Ratio (x) = 0.71688 -0.08743
# Poissons Ratio (y) = 0.35279 0.17114
# Poissons Ratio (z) = -0.18569 0.73858
#
# Static dielectric constant tensor:
#      x y z
#    x 1.674540 0.000000 0.000000 
#    y 0.000000 1.713110 0.000000 
#    z 0.000000 0.000000 1.684230 
# 
# From -- ./inp_files/35149.got.cif
#   From: 2010.05.17/outbox.cif.g08.bks.cpg/sg58_18_cif.got.tgz:35149.got - 2010.06.03 14:20:14.
