data_PCOD9441436
_publ_section_title
;
Structure prediction by ZEFSAII (Michael W. Deem and Ramdas Pophale) SiO2 
 PCOD9441436
Probable space group: P N N M
;
_chemical_formula_sum "Si O2"
_cell_formula_units_Z 64
_cell_length_a 12.412506
_cell_length_b 31.151370
_cell_length_c 7.461123
_cell_angle_alpha 90.000000
_cell_angle_beta 90.000000
_cell_angle_gamma 90.000000
_cell_volume 2884.966817
_symmetry_space_group_name_H-M "P N N M"
_symmetry_group_IT_number 58
_symmetry_cell_setting 'orthorhombic'
loop_
_space_group_symop_operation_xyz
x,y,z
-x,-y,z
1/2+x,1/2-y,1/2-z
1/2-x,1/2+y,1/2-z
-x,-y,-z
x,y,-z
1/2-x,1/2+y,1/2+z
1/2+x,1/2-y,1/2+z
loop_
_atom_site_type_symbol
_atom_site_label
_atom_site_fract_x
_atom_site_fract_y
_atom_site_fract_z
Si Si1 0.047340 0.789202 0.717044
Si Si2 0.718008 0.073930 0.285074
Si Si3 0.080721 0.125782 0.719337
Si Si4 0.265798 0.828686 0.716938
Si Si5 0.001683 0.691003 0.210179
Si Si6 0.825822 0.376078 0.208581
Si Si7 0.518747 0.952997 0.795775
Si Si8 0.440892 0.456814 0.219158
O O1 0.046073 0.789278 0.500000
O O2 0.167885 0.799919 0.780788
O O3 0.018676 0.741593 0.776293
O O4 0.969517 0.828291 0.773722
O O5 0.705014 0.069860 0.500000
O O6 0.758210 0.121827 0.246775
O O7 0.599917 0.067587 0.207320
O O8 0.815690 0.043856 0.224960
O O9 0.078474 0.124871 0.500000
O O10 0.204516 0.120860 0.781337
O O11 0.006466 0.085634 0.776007
O O12 0.268332 0.823860 0.500000
O O13 0.384200 0.818824 0.787674
O O14 0.097768 0.661568 0.286506
O O15 0.995818 0.678803 0.000000
O O16 0.894398 0.420106 0.217128
O O17 0.809518 0.365342 0.000000
O O18 0.500000 0.000000 0.711454
O O19 0.554622 0.959953 0.000000
O O20 0.500000 0.500000 0.276007
O O21 0.439629 0.456065 0.000000
#
# Coordination Sequence:
#
# PCOD9441436 Si02
#       8
#     8   8   8   8   8   8   8   8
#     4  10  20  35  56  80 109 148 185 219 276 338
#     4  10  18  35  62  84 107 145 190 232 275 324
#     4   9  18  33  53  82 117 144 177 229 278 325
#     4   9  17  34  56  77 106 143 182 229 275 319
#     4  10  21  36  53  79 113 143 183 235 274 313
#     4  10  21  38  60  83 110 146 187 230 275 325
#     4  11  25  41  56  80 116 150 182 227 279 329
#     4   9  17  29  52  89 118 137 176 235 283 319
#
# _framework density 22.183964
#
# number of rings (size 3 to 8) (size 9 to 14) (size 15 to 20)
#    0.000    2.250    2.500    0.375    3.500    1.500 
#    0.000    1.250    0.000    1.125    0.000    0.000 
#    0.000    0.000    0.000    0.000    0.000    0.000 
#
# Total GULP energy -357351.071324 kJ/mol
# GULP energy per Si atom -5583.610489 kJ/mol
# Density = 2.213347 g / cm^3
# Si number density = 22.183964 Si / 1000 Ang^3
#
#
#
# Elastic Constant Matrix: (Units=GPa)
#
#
# Indices 1 2 3 4 5 6 
#
# 1 130.8056 23.6847 -0.9631 0.0000 0.0000 0.0000
# 2 23.6847 82.2858 -7.3700 0.0000 0.0000 0.0000
# 3 -0.9631 -7.3700 59.1267 0.0000 0.0000 0.0000
# 4 0.0000 0.0000 0.0000 11.8006 0.0000 0.0000
# 5 0.0000 0.0000 0.0000 0.0000 -21.0964 0.0000
# 6 0.0000 0.0000 0.0000 0.0000 0.0000 39.4222
#
#
#
# Elastic Compliance Matrix: (Units=1/GPa)
#
#
# Indices 1 2 3 4 5 6 
#
# 1 0.008067 -0.002336 -0.000160 0.000000 0.000000 0.000000
# 2 -0.002336 0.012967 0.001578 0.000000 0.000000 0.000000
# 3 -0.000160 0.001578 0.017107 0.000000 0.000000 0.000000
# 4 0.000000 0.000000 0.000000 0.084741 0.000000 0.000000
# 5 0.000000 0.000000 0.000000 0.000000 -0.047401 0.000000
# 6 0.000000 0.000000 0.000000 0.000000 0.000000 0.025366
#
#
# Mechanical properties :
#
#
# Convention : Reuss Voigt Hill
#
# Bulk Modulus (GPa) = 27.54470 33.65794 30.60132
# Shear Modulus (GPa) = 43.56020 23.14972 33.35496
#
# Velocity S-wave (km/s) = 4.43605 3.23388 3.88179
# Velocity P-wave (km/s) = 6.21944 5.39899 5.82368
#
# Compressibility (1/GPa) = 0.03630462
#
# Stress axis : x y z
#
# Youngs Moduli (GPa) = 123.96540 77.12150 58.45581
#
# Poissons Ratio (x) = 0.18017 0.00934
# Poissons Ratio (y) = 0.28961 -0.09226
# Poissons Ratio (z) = 0.01981 -0.12171
#
# Static dielectric constant tensor:
#      x y z
#    x 1.806390 0.000000 0.000000 
#    y 0.000000 1.793560 0.000000 
#    z 0.000000 0.000000 1.854290 
# 
# From -- ./inp_files/4744.got.cif
#   From: 2010.05.17/outbox.cif.g08.bks.cpg/sg58_3_cif.got.tgz:4744.got - 2010.06.03 14:20:14.
