data_PCOD9441105
_publ_section_title
;
Structure prediction by ZEFSAII (Michael W. Deem and Ramdas Pophale) SiO2 
 PCOD9441105
Probable space group: P N N M
;
_chemical_formula_sum "Si O2"
_cell_formula_units_Z 56
_cell_length_a 10.885490
_cell_length_b 12.381328
_cell_length_c 25.566028
_cell_angle_alpha 90.000000
_cell_angle_beta 90.000000
_cell_angle_gamma 90.000000
_cell_volume 3445.708008
_symmetry_space_group_name_H-M "P N N M"
_symmetry_group_IT_number 58
_symmetry_cell_setting 'orthorhombic'
loop_
_space_group_symop_operation_xyz
x,y,z
-x,-y,z
1/2+x,1/2-y,1/2-z
1/2-x,1/2+y,1/2-z
-x,-y,-z
x,y,-z
1/2-x,1/2+y,1/2+z
1/2+x,1/2-y,1/2+z
loop_
_atom_site_type_symbol
_atom_site_label
_atom_site_fract_x
_atom_site_fract_y
_atom_site_fract_z
Si Si1 0.255412 0.353452 0.673941
Si Si2 0.146107 0.530411 0.500000
Si Si3 0.712292 0.287083 0.329661
Si Si4 0.364342 0.047928 0.883499
Si Si5 0.514835 0.631129 0.387820
Si Si6 0.889986 0.845054 0.285687
Si Si7 0.173307 0.915000 0.288997
Si Si8 0.599618 0.597985 0.500000
O O1 0.217285 0.445108 0.632766
O O2 0.390127 0.321413 0.654345
O O3 0.161815 0.254235 0.680232
O O4 0.270380 0.406515 0.730863
O O5 0.161021 0.584459 0.556855
O O6 0.258455 0.442712 0.500000
O O7 0.000000 0.500000 0.500000
O O8 0.832433 0.357407 0.343432
O O9 0.615733 0.318041 0.374299
O O10 0.656372 0.323333 0.273709
O O11 0.746663 0.162208 0.325512
O O12 0.500000 0.000000 0.879410
O O13 0.500000 0.500000 0.381347
O O14 0.566955 0.654905 0.445450
O O15 0.036309 0.863608 0.286364
O O16 0.835506 0.960117 0.303795
O O17 0.500000 0.500000 0.500000
#
# Coordination Sequence:
#
# PCOD9441105 Si02
#       8
#     8   4   8   8   8   8   8   4
#     4  11  19  31  51  72 101 138 170 207 258 306
#     4  10  20  32  48  76 112 139 170 221 276 320
#     4  11  20  32  51  75 103 139 172 216 258 308
#     4  11  20  32  49  76 107 134 171 217 263 312
#     4  11  18  32  53  76 107 137 168 212 262 313
#     4  10  20  34  51  71  99 143 176 209 250 313
#     4  10  20  35  50  70 102 139 178 210 254 303
#     4  10  18  30  52  78 103 142 178 209 267 330
#
# _framework density 16.252102000000001
#
# number of rings (size 3 to 8) (size 9 to 14) (size 15 to 20)
#    0.000    1.429    5.714    1.714    0.000    0.000 
#    0.000    0.714    0.000    0.000    0.000    5.000 
#    0.000   12.571    0.000    0.000    0.000    0.000 
#
# Total GULP energy -311866.810989 kJ/mol
# GULP energy per Si atom -5569.050196 kJ/mol
# Density = 1.621511 g / cm^3
# Si number density = 16.252102 Si / 1000 Ang^3
#
#
#
# Elastic Constant Matrix: (Units=GPa)
#
#
# Indices 1 2 3 4 5 6 
#
# 1 58.4743 10.2529 7.1590 0.0000 0.0000 0.0000
# 2 10.2529 56.9895 5.9291 0.0000 0.0000 0.0000
# 3 7.1590 5.9291 51.2636 0.0000 0.0000 0.0000
# 4 0.0000 0.0000 0.0000 11.2769 0.0000 0.0000
# 5 0.0000 0.0000 0.0000 0.0000 19.5262 0.0000
# 6 0.0000 0.0000 0.0000 0.0000 0.0000 27.2064
#
#
#
# Elastic Compliance Matrix: (Units=1/GPa)
#
#
# Indices 1 2 3 4 5 6 
#
# 1 0.017890 -0.002995 -0.002152 0.000000 0.000000 0.000000
# 2 -0.002995 0.018262 -0.001694 0.000000 0.000000 0.000000
# 3 -0.002152 -0.001694 0.020003 0.000000 0.000000 0.000000
# 4 0.000000 0.000000 0.000000 0.088676 0.000000 0.000000
# 5 0.000000 0.000000 0.000000 0.000000 0.051213 0.000000
# 6 0.000000 0.000000 0.000000 0.000000 0.000000 0.036756
#
#
# Mechanical properties :
#
#
# Convention : Reuss Voigt Hill
#
# Bulk Modulus (GPa) = 23.54361 23.71214 23.62788
# Shear Modulus (GPa) = 19.18349 21.16101 20.17225
#
# Velocity S-wave (km/s) = 3.43938 3.61230 3.52690
# Velocity P-wave (km/s) = 5.50367 5.65864 5.58169
#
# Compressibility (1/GPa) = 0.04247437
#
# Stress axis : x y z
#
# Youngs Moduli (GPa) = 55.89691 54.75820 49.99137
#
# Poissons Ratio (x) = 0.16398 0.10758
# Poissons Ratio (y) = 0.16739 0.08468
# Poissons Ratio (z) = 0.12029 0.09276
#
# Static dielectric constant tensor:
#      x y z
#    x 1.679940 0.000000 0.000000 
#    y 0.000000 1.530270 0.000000 
#    z 0.000000 0.000000 1.556060 
# 
# From -- ./inp_files/32045.got.cif
#   From: 2010.05.17/outbox.cif.g08.bks.cpg/sg58_17_cif.got.tgz:32045.got - 2010.06.03 14:20:14.
