data_PCOD9441717
_publ_section_title
;
Structure prediction by ZEFSAII (Michael W. Deem and Ramdas Pophale) SiO2 
 PCOD9441717
Probable space group: P N N M
;
_chemical_formula_sum "Si O2"
_cell_formula_units_Z 56
_cell_length_a 15.068791
_cell_length_b 22.711444
_cell_length_c 7.780179
_cell_angle_alpha 90.000000
_cell_angle_beta 90.000000
_cell_angle_gamma 90.000000
_cell_volume 2662.641803
_symmetry_space_group_name_H-M "P N N M"
_symmetry_group_IT_number 58
_symmetry_cell_setting 'orthorhombic'
loop_
_space_group_symop_operation_xyz
x,y,z
-x,-y,z
1/2+x,1/2-y,1/2-z
1/2-x,1/2+y,1/2-z
-x,-y,-z
x,y,-z
1/2-x,1/2+y,1/2+z
1/2+x,1/2-y,1/2+z
loop_
_atom_site_type_symbol
_atom_site_label
_atom_site_fract_x
_atom_site_fract_y
_atom_site_fract_z
Si Si1 0.100710 0.500069 0.793589
Si Si2 0.712282 0.114715 0.792465
Si Si3 0.897242 0.726178 0.702766
Si Si4 0.710240 0.888685 0.703363
Si Si5 0.098467 0.855220 0.789706
Si Si6 0.403808 0.219565 0.291599
Si Si7 0.096940 0.138830 0.198420
O O1 0.151315 0.439535 0.758368
O O2 0.158175 0.554984 0.725364
O O3 0.000000 0.500000 0.726568
O O4 0.095329 0.506267 0.000000
O O5 0.669847 0.176484 0.732340
O O6 0.814405 0.109629 0.734742
O O7 0.712689 0.117542 0.000000
O O8 0.880785 0.735551 0.500000
O O9 0.892016 0.790282 0.787468
O O10 0.997446 0.703330 0.730467
O O11 0.693503 0.887613 0.500000
O O12 0.667819 0.827729 0.770739
O O13 0.815534 0.890066 0.725570
O O14 0.112446 0.786929 0.738280
O O15 0.000986 0.874297 0.727276
O O16 0.094950 0.856153 0.000000
O O17 0.404281 0.220036 0.500000
O O18 0.095343 0.121910 0.000000
#
# Coordination Sequence:
#
# PCOD9441717 Si02
#       7
#     8   8   8   8   8   8   8
#     4  10  22  39  57  78 105 137 173 214 263 317
#     4  10  20  35  55  76 102 139 179 218 260 307
#     4  10  19  31  51  81 112 139 171 215 266 315
#     4  10  20  35  55  77 105 141 177 218 267 313
#     4   8  16  32  52  75 102 133 171 212 255 305
#     4   9  17  32  54  77 105 141 175 210 260 320
#     4  10  20  34  54  79 107 140 177 216 261 317
#
# _framework density 21.031742000000001
#
# number of rings (size 3 to 8) (size 9 to 14) (size 15 to 20)
#    0.000    2.429    0.000    3.429    0.000    6.000 
#    0.000    4.286    0.000    4.286    0.000    0.000 
#    0.000    0.000    0.000    0.000    0.000    0.000 
#
# Total GULP energy -312576.631613 kJ/mol
# GULP energy per Si atom -5581.725565 kJ/mol
# Density = 2.098387 g / cm^3
# Si number density = 21.031742 Si / 1000 Ang^3
#
#
#
# Elastic Constant Matrix: (Units=GPa)
#
#
# Indices 1 2 3 4 5 6 
#
# 1 192.2302 65.4275 -4.1964 0.0000 0.0000 0.0000
# 2 65.4275 42.4170 -4.0900 0.0000 0.0000 0.0000
# 3 -4.1964 -4.0900 23.1578 0.0000 0.0000 0.0000
# 4 0.0000 0.0000 0.0000 16.9132 0.0000 0.0000
# 5 0.0000 0.0000 0.0000 0.0000 18.6771 0.0000
# 6 0.0000 0.0000 0.0000 0.0000 0.0000 33.2767
#
#
#
# Elastic Compliance Matrix: (Units=1/GPa)
#
#
# Indices 1 2 3 4 5 6 
#
# 1 0.010975 -0.017027 -0.001018 0.000000 0.000000 0.000000
# 2 -0.017027 0.050401 0.005816 0.000000 0.000000 0.000000
# 3 -0.001018 0.005816 0.044025 0.000000 0.000000 0.000000
# 4 0.000000 0.000000 0.000000 0.059125 0.000000 0.000000
# 5 0.000000 0.000000 0.000000 0.000000 0.053541 0.000000
# 6 0.000000 0.000000 0.000000 0.000000 0.000000 0.030051
#
#
# Mechanical properties :
#
#
# Convention : Reuss Voigt Hill
#
# Bulk Modulus (GPa) = 12.35468 41.34300 26.84884
# Shear Modulus (GPa) = 16.69121 27.15100 21.92110
#
# Velocity S-wave (km/s) = 2.82018 3.59688 3.23195
# Velocity P-wave (km/s) = 4.06099 6.07867 5.16923
#
# Compressibility (1/GPa) = 0.08094099
#
# Stress axis : x y z
#
# Youngs Moduli (GPa) = 91.11335 19.84092 22.71456
#
# Poissons Ratio (x) = 0.33784 0.02313
# Poissons Ratio (y) = 1.55143 -0.13211
# Poissons Ratio (z) = 0.09280 -0.11540
#
# Static dielectric constant tensor:
#      x y z
#    x 1.775600 0.000000 0.000000 
#    y 0.000000 1.726570 0.000000 
#    z 0.000000 0.000000 1.773010 
# 
# From -- ./inp_files/6425.got.cif
#   From: 2010.05.17/outbox.cif.g08.bks.cpg/sg58_4_cif.got.tgz:6425.got - 2010.06.03 14:20:14.
