data_PCOD9441841
_publ_section_title
;
Structure prediction by ZEFSAII (Michael W. Deem and Ramdas Pophale) SiO2 
 PCOD9441841
Probable space group: P N N M
;
_chemical_formula_sum "Si O2"
_cell_formula_units_Z 64
_cell_length_a 20.123407
_cell_length_b 16.751988
_cell_length_c 7.433072
_cell_angle_alpha 90.000000
_cell_angle_beta 90.000000
_cell_angle_gamma 90.000000
_cell_volume 2505.741142
_symmetry_space_group_name_H-M "P N N M"
_symmetry_group_IT_number 58
_symmetry_cell_setting 'orthorhombic'
loop_
_space_group_symop_operation_xyz
x,y,z
-x,-y,z
1/2+x,1/2-y,1/2-z
1/2-x,1/2+y,1/2-z
-x,-y,-z
x,y,-z
1/2-x,1/2+y,1/2+z
1/2+x,1/2-y,1/2+z
loop_
_atom_site_type_symbol
_atom_site_label
_atom_site_fract_x
_atom_site_fract_y
_atom_site_fract_z
Si Si1 0.866090 0.965354 0.282242
Si Si2 0.103766 0.262557 0.209359
Si Si3 0.490479 0.619768 0.795818
Si Si4 0.772102 0.111910 0.283688
Si Si5 0.630420 0.886596 0.220018
Si Si6 0.729269 0.321294 0.294472
Si Si7 0.611319 0.715314 0.219719
Si Si8 0.877501 0.563279 0.295050
O O1 0.867075 0.957940 0.500000
O O2 0.940961 0.947164 0.220359
O O3 0.821541 0.895061 0.205776
O O4 0.827501 0.045511 0.240757
O O5 0.054044 0.201124 0.301870
O O6 0.179401 0.246855 0.279650
O O7 0.089703 0.356448 0.219645
O O8 0.103665 0.240476 0.000000
O O9 0.558273 0.651301 0.710996
O O10 0.507337 0.595217 0.000000
O O11 0.762455 0.114864 0.500000
O O12 0.812844 0.191949 0.228680
O O13 0.701907 0.081275 0.210586
O O14 0.704497 0.861614 0.282464
O O15 0.591539 0.805677 0.269372
O O16 0.611366 0.974854 0.284745
O O17 0.631213 0.891740 0.000000
O O18 0.745965 0.298372 0.500000
O O19 0.609776 0.711538 0.000000
O O20 0.900183 0.559758 0.500000
#
# Coordination Sequence:
#
# PCOD9441841 Si02
#       8
#     8   8   8   8   8   8   8   8
#     4   9  17  28  47  78 109 134 164 210 259 304
#     4  10  20  34  55  77 101 135 173 214 262 315
#     4   9  18  34  54  76 104 138 180 220 254 300
#     4  10  19  32  52  79 111 139 169 209 262 321
#     4   9  17  30  49  73  99 130 171 214 255 302
#     4   9  16  30  51  72  97 132 169 204 252 313
#     4   9  18  33  53  75 102 140 181 217 253 307
#     4  11  21  33  52  78 106 132 168 219 265 311
#
# _framework density 25.541345
#
# number of rings (size 3 to 8) (size 9 to 14) (size 15 to 20)
#    0.000    2.500    1.250    1.500    0.000    3.000 
#    0.000    3.750    0.000    6.750    0.000    4.375 
#    0.000    0.000    0.000    0.000    0.000    0.000 
#
# Total GULP energy -357255.499878 kJ/mol
# GULP energy per Si atom -5582.117186 kJ/mol
# Density = 2.548321 g / cm^3
# Si number density = 25.541345 Si / 1000 Ang^3
#
#
#
# Elastic Constant Matrix: (Units=GPa)
#
#
# Indices 1 2 3 4 5 6 
#
# 1 38.8556 -35.3624 -5.9750 0.0000 0.0000 0.0000
# 2 -35.3624 106.3425 4.6358 0.0000 0.0000 0.0000
# 3 -5.9750 4.6358 77.3563 0.0000 0.0000 0.0000
# 4 0.0000 0.0000 0.0000 -7.9970 0.0000 0.0000
# 5 0.0000 0.0000 0.0000 0.0000 4.9578 0.0000
# 6 0.0000 0.0000 0.0000 0.0000 0.0000 36.3050
#
#
#
# Elastic Compliance Matrix: (Units=1/GPa)
#
#
# Indices 1 2 3 4 5 6 
#
# 1 0.037256 0.012295 0.002141 0.000000 0.000000 0.000000
# 2 0.012295 0.013486 0.000141 0.000000 0.000000 0.000000
# 3 0.002141 0.000141 0.013084 0.000000 0.000000 0.000000
# 4 0.000000 0.000000 0.000000 -0.125047 0.000000 0.000000
# 5 0.000000 0.000000 0.000000 0.000000 0.201703 0.000000
# 6 0.000000 0.000000 0.000000 0.000000 0.000000 0.027544
#
#
# Mechanical properties :
#
#
# Convention : Reuss Voigt Hill
#
# Bulk Modulus (GPa) = 10.75489 16.57236 13.66363
# Shear Modulus (GPa) = 29.43522 23.93689 26.68605
#
# Velocity S-wave (km/s) = 3.39846 3.06466 3.23587
# Velocity P-wave (km/s) = 4.42937 4.36181 4.39572
#
# Compressibility (1/GPa) = 0.09298094
#
# Stress axis : x y z
#
# Youngs Moduli (GPa) = 26.84163 74.15081 76.42883
#
# Poissons Ratio (x) = -0.91171 -0.16362
# Poissons Ratio (y) = -0.33003 -0.01081
# Poissons Ratio (z) = -0.05746 -0.01049
#
# Static dielectric constant tensor:
#      x y z
#    x 2.025160 0.000000 0.000000 
#    y 0.000000 2.059970 0.000000 
#    z 0.000000 0.000000 2.117760 
# 
# From -- ./inp_files/8484.got.cif
#   From: 2010.05.17/outbox.cif.g08.bks.cpg/sg58_5_cif.got.tgz:8484.got - 2010.06.03 14:20:14.
