data_PCOD9441679
_publ_section_title
;
Structure prediction by ZEFSAII (Michael W. Deem and Ramdas Pophale) SiO2 
 PCOD9441679
Probable space group: P N N M
;
_chemical_formula_sum "Si O2"
_cell_formula_units_Z 56
_cell_length_a 18.909228
_cell_length_b 6.991195
_cell_length_c 22.797762
_cell_angle_alpha 90.000000
_cell_angle_beta 90.000000
_cell_angle_gamma 90.000000
_cell_volume 3013.820826
_symmetry_space_group_name_H-M "P N N M"
_symmetry_group_IT_number 58
_symmetry_cell_setting 'orthorhombic'
loop_
_space_group_symop_operation_xyz
x,y,z
-x,-y,z
1/2+x,1/2-y,1/2-z
1/2-x,1/2+y,1/2-z
-x,-y,-z
x,y,-z
1/2-x,1/2+y,1/2+z
1/2+x,1/2-y,1/2+z
loop_
_atom_site_type_symbol
_atom_site_label
_atom_site_fract_x
_atom_site_fract_y
_atom_site_fract_z
Si Si1 0.981353 0.228331 0.310551
Si Si2 0.663516 0.639768 0.758778
Si Si3 0.287319 0.802693 0.353980
Si Si4 0.441310 0.333839 0.065000
Si Si5 0.705751 0.439572 0.931769
Si Si6 0.126075 0.313117 0.252828
Si Si7 0.758356 0.612959 0.343462
O O1 0.910022 0.239251 0.273238
O O2 0.963216 0.285933 0.377656
O O3 0.047909 0.325059 0.279264
O O4 0.000000 0.000000 0.313751
O O5 0.722213 0.660773 0.808908
O O6 0.648385 0.411964 0.756677
O O7 0.697718 0.705136 0.697581
O O8 0.356457 0.851487 0.315403
O O9 0.276275 0.579337 0.368524
O O10 0.270918 0.931333 0.409790
O O11 0.500000 0.500000 0.060565
O O12 0.366387 0.438427 0.077351
O O13 0.437246 0.240540 0.000000
O O14 0.709190 0.251695 0.891755
O O15 0.709203 0.392367 0.000000
O O16 0.179705 0.423900 0.295896
#
# Coordination Sequence:
#
# PCOD9441679 Si02
#       7
#     8   8   8   8   8   8   8
#     4   9  14  26  47  70 102 131 167 201 246 298
#     4   9  16  29  49  72 100 131 162 206 258 297
#     4  10  19  32  49  74 100 131 168 210 253 297
#     4   9  16  26  47  72  96 135 176 198 230 295
#     4  11  21  35  53  71 100 139 173 206 251 300
#     4   9  17  29  50  74 102 132 165 207 256 297
#     4  10  19  31  50  72  98 129 165 208 252 299
#
# _framework density 18.581064000000001
#
# number of rings (size 3 to 8) (size 9 to 14) (size 15 to 20)
#    0.000    2.429    2.857    1.714    2.000    0.571 
#    0.000    0.714    0.000    0.000    0.000    8.000 
#    0.000    5.714    0.000    0.000    0.000    0.000 
#
# Total GULP energy -312348.416959 kJ/mol
# GULP energy per Si atom -5577.650303 kJ/mol
# Density = 1.853877 g / cm^3
# Si number density = 18.581064 Si / 1000 Ang^3
#
#
#
# Elastic Constant Matrix: (Units=GPa)
#
#
# Indices 1 2 3 4 5 6 
#
# 1 86.8488 3.4512 51.7550 0.0000 0.0000 0.0000
# 2 3.4512 41.8161 8.6937 0.0000 0.0000 0.0000
# 3 51.7550 8.6937 84.1210 0.0000 0.0000 0.0000
# 4 0.0000 0.0000 0.0000 20.0014 0.0000 0.0000
# 5 0.0000 0.0000 0.0000 0.0000 -18.1003 0.0000
# 6 0.0000 0.0000 0.0000 0.0000 0.0000 18.1149
#
#
#
# Elastic Compliance Matrix: (Units=1/GPa)
#
#
# Indices 1 2 3 4 5 6 
#
# 1 0.018209 0.000844 -0.011290 0.000000 0.000000 0.000000
# 2 0.000844 0.024479 -0.003049 0.000000 0.000000 0.000000
# 3 -0.011290 -0.003049 0.019149 0.000000 0.000000 0.000000
# 4 0.000000 0.000000 0.000000 0.049997 0.000000 0.000000
# 5 0.000000 0.000000 0.000000 0.000000 -0.055248 0.000000
# 6 0.000000 0.000000 0.000000 0.000000 0.000000 0.055203
#
#
# Mechanical properties :
#
#
# Convention : Reuss Voigt Hill
#
# Bulk Modulus (GPa) = 28.69754 37.84287 33.27021
# Shear Modulus (GPa) = 33.24610 13.92893 23.58751
#
# Velocity S-wave (km/s) = 4.23454 2.74091 3.56678
# Velocity P-wave (km/s) = 6.27586 5.51610 5.90821
#
# Compressibility (1/GPa) = 0.03484619
#
# Stress axis : x y z
#
# Youngs Moduli (GPa) = 54.91882 40.85217 52.22218
#
# Poissons Ratio (x) = -0.03450 0.58959
# Poissons Ratio (y) = -0.04638 0.15924
# Poissons Ratio (z) = 0.62004 0.12457
#
# Static dielectric constant tensor:
#      x y z
#    x 1.639940 0.000000 0.000000 
#    y 0.000000 1.735570 0.000000 
#    z 0.000000 0.000000 1.651880 
# 
# From -- ./inp_files/30426.got.cif
#   From: 2010.05.17/outbox.cif.g08.bks.cpg/sg58_16_cif.got.tgz:30426.got - 2010.06.03 14:20:14.
