data_PCOD9441538
_publ_section_title
;
Structure prediction by ZEFSAII (Michael W. Deem and Ramdas Pophale) SiO2 
 PCOD9441538
Probable space group: P N N M
;
_chemical_formula_sum "Si O2"
_cell_formula_units_Z 56
_cell_length_a 13.830619
_cell_length_b 33.541844
_cell_length_c 7.878737
_cell_angle_alpha 90.000000
_cell_angle_beta 90.000000
_cell_angle_gamma 90.000000
_cell_volume 3654.981272
_symmetry_space_group_name_H-M "P N N M"
_symmetry_group_IT_number 58
_symmetry_cell_setting 'orthorhombic'
loop_
_space_group_symop_operation_xyz
x,y,z
-x,-y,z
1/2+x,1/2-y,1/2-z
1/2-x,1/2+y,1/2-z
-x,-y,-z
x,y,-z
1/2-x,1/2+y,1/2+z
1/2+x,1/2-y,1/2+z
loop_
_atom_site_type_symbol
_atom_site_label
_atom_site_fract_x
_atom_site_fract_y
_atom_site_fract_z
Si Si1 0.627794 0.102370 0.800193
Si Si2 0.303855 0.190633 0.197394
Si Si3 0.122299 0.456719 0.000000
Si Si4 0.782179 0.686187 0.706726
Si Si5 0.604608 0.893375 0.800475
Si Si6 0.904611 0.231223 0.197889
Si Si7 0.114275 0.234347 0.302796
Si Si8 0.612166 0.952345 0.500000
O O1 0.652371 0.067035 0.669835
O O2 0.681208 0.142846 0.743204
O O3 0.512093 0.109692 0.789888
O O4 0.649555 0.094157 0.000000
O O5 0.348608 0.148732 0.252827
O O6 0.380825 0.226424 0.216969
O O7 0.205786 0.205247 0.285743
O O8 0.280158 0.186676 0.000000
O O9 0.152214 0.502855 0.000000
O O10 0.004917 0.455785 0.000000
O O11 0.786016 0.686230 0.500000
O O12 0.673852 0.698829 0.759197
O O13 0.850468 0.722595 0.765943
O O14 0.636986 0.927466 0.669428
O O15 0.627271 0.901225 0.000000
O O16 0.015683 0.219992 0.219072
O O17 0.883687 0.237528 0.000000
O O18 0.091759 0.239600 0.500000
#
# Coordination Sequence:
#
# PCOD9441538 Si02
#       8
#     8   8   4   8   8   8   8   4
#     4   9  16  30  46  63  91 121 150 187 224 265
#     4  10  19  31  45  64  88 117 158 193 224 269
#     4   9  18  30  42  72  87 119 153 187 224 280
#     4   8  16  30  44  59  85 120 153 186 223 265
#     4   9  18  29  46  67  89 122 154 183 224 274
#     4  10  19  30  44  63  89 121 154 189 231 265
#     4  10  19  31  44  62  90 121 155 191 229 265
#     4   9  18  30  46  62  99 115 149 191 228 268
#
# _framework density 15.321555
#
# number of rings (size 3 to 8) (size 9 to 14) (size 15 to 20)
#    0.000    2.714    0.000    3.000    2.000    2.857 
#   10.286    2.857    0.000    0.000    0.000    0.000 
#    0.000    2.286    0.000    8.429    0.000    0.286 
#
# Total GULP energy -311931.759778 kJ/mol
# GULP energy per Si atom -5570.209996 kJ/mol
# Density = 1.528668 g / cm^3
# Si number density = 15.321555 Si / 1000 Ang^3
#
#
#
# Elastic Constant Matrix: (Units=GPa)
#
#
# Indices 1 2 3 4 5 6 
#
# 1 52.4452 29.1578 16.3524 0.0000 0.0000 0.0000
# 2 29.1578 125.5166 50.4593 0.0000 0.0000 0.0000
# 3 16.3524 50.4593 55.4214 0.0000 0.0000 0.0000
# 4 0.0000 0.0000 0.0000 22.3941 0.0000 0.0000
# 5 0.0000 0.0000 0.0000 0.0000 33.4508 0.0000
# 6 0.0000 0.0000 0.0000 0.0000 0.0000 17.4211
#
#
#
# Elastic Compliance Matrix: (Units=1/GPa)
#
#
# Indices 1 2 3 4 5 6 
#
# 1 0.022192 -0.003979 -0.002925 0.000000 0.000000 0.000000
# 2 -0.003979 0.013280 -0.010917 0.000000 0.000000 0.000000
# 3 -0.002925 -0.010917 0.028846 0.000000 0.000000 0.000000
# 4 0.000000 0.000000 0.000000 0.044655 0.000000 0.000000
# 5 0.000000 0.000000 0.000000 0.000000 0.029895 0.000000
# 6 0.000000 0.000000 0.000000 0.000000 0.000000 0.057402
#
#
# Mechanical properties :
#
#
# Convention : Reuss Voigt Hill
#
# Bulk Modulus (GPa) = 34.87255 47.25803 41.06529
# Shear Modulus (GPa) = 20.70646 23.81412 22.26029
#
# Velocity S-wave (km/s) = 3.68021 3.94672 3.81579
# Velocity P-wave (km/s) = 6.39284 7.18888 6.80251
#
# Compressibility (1/GPa) = 0.02867585
#
# Stress axis : x y z
#
# Youngs Moduli (GPa) = 45.06148 75.29924 34.66662
#
# Poissons Ratio (x) = 0.29965 0.10139
# Poissons Ratio (y) = 0.17932 0.37846
# Poissons Ratio (z) = 0.13179 0.82205
#
# Static dielectric constant tensor:
#      x y z
#    x 1.502510 0.000000 0.000000 
#    y 0.000000 1.500150 0.000000 
#    z 0.000000 0.000000 1.558930 
# 
# From -- ./inp_files/7133.got.cif
#   From: 2010.05.17/outbox.cif.g08.bks.cpg/sg58_4_cif.got.tgz:7133.got - 2010.06.03 14:20:14.
