data_PCOD9441276
_publ_section_title
;
Structure prediction by ZEFSAII (Michael W. Deem and Ramdas Pophale) SiO2 
 PCOD9441276
Probable space group: P N N M
;
_chemical_formula_sum "Si O2"
_cell_formula_units_Z 64
_cell_length_a 30.597610
_cell_length_b 11.582818
_cell_length_c 7.636774
_cell_angle_alpha 90.000000
_cell_angle_beta 90.000000
_cell_angle_gamma 90.000000
_cell_volume 2706.522710
_symmetry_space_group_name_H-M "P N N M"
_symmetry_group_IT_number 58
_symmetry_cell_setting 'orthorhombic'
loop_
_space_group_symop_operation_xyz
x,y,z
-x,-y,z
1/2+x,1/2-y,1/2-z
1/2-x,1/2+y,1/2-z
-x,-y,-z
x,y,-z
1/2-x,1/2+y,1/2+z
1/2+x,1/2-y,1/2+z
loop_
_atom_site_type_symbol
_atom_site_label
_atom_site_fract_x
_atom_site_fract_y
_atom_site_fract_z
Si Si1 0.279860 0.517349 0.215012
Si Si2 0.684680 0.952466 0.294728
Si Si3 0.664081 0.701315 0.212514
Si Si4 0.478775 0.795326 0.709109
Si Si5 0.567936 0.436611 0.708377
Si Si6 0.897112 0.579489 0.800185
Si Si7 0.348934 0.690324 0.798107
Si Si8 0.934710 0.194876 0.292980
O O1 0.230341 0.500328 0.276794
O O2 0.309979 0.411302 0.270541
O O3 0.303891 0.636097 0.269949
O O4 0.279540 0.520702 0.000000
O O5 0.683063 0.985261 0.500000
O O6 0.687475 0.816015 0.276264
O O7 0.638516 0.994669 0.216043
O O8 0.614196 0.706988 0.278624
O O9 0.663532 0.701003 0.000000
O O10 0.473119 0.797885 0.500000
O O11 0.461313 0.670332 0.773529
O O12 0.444749 0.890951 0.779015
O O13 0.530282 0.791533 0.740294
O O14 0.572105 0.425170 0.500000
O O15 0.615501 0.413426 0.790298
O O16 0.551030 0.564645 0.743593
O O17 0.871293 0.702655 0.799411
O O18 0.904835 0.540106 0.000000
O O19 0.343669 0.725794 0.000000
O O20 0.932008 0.198959 0.500000
#
# Coordination Sequence:
#
# PCOD9441276 Si02
#       8
#     8   8   8   8   8   8   8   8
#     4   9  19  37  58  82 116 148 179 232 288 334
#     4  10  22  40  62  84 110 150 196 236 280 340
#     4  10  22  41  59  82 118 151 184 235 291 334
#     4   9  19  34  52  78 112 148 187 234 286 335
#     4  10  19  32  51  79 116 151 184 230 281 332
#     4   9  20  38  57  81 115 149 187 237 285 330
#     4  10  18  32  55  82 114 150 184 225 279 336
#     4  11  21  34  54  80 112 152 191 232 287 342
#
# _framework density 23.646577000000001
#
# number of rings (size 3 to 8) (size 9 to 14) (size 15 to 20)
#    0.000    2.250    1.250    2.250    1.750    5.500 
#    0.000    1.875    0.000    3.750    0.000    0.000 
#    0.000    0.000    0.000    0.000    0.000    0.000 
#
# Total GULP energy -357341.079263 kJ/mol
# GULP energy per Si atom -5583.454363 kJ/mol
# Density = 2.359276 g / cm^3
# Si number density = 23.646577 Si / 1000 Ang^3
#
#
#
# Elastic Constant Matrix: (Units=GPa)
#
#
# Indices 1 2 3 4 5 6 
#
# 1 92.7974 -5.9419 5.5549 0.0000 0.0000 0.0000
# 2 -5.9419 28.6525 -13.9703 0.0000 0.0000 0.0000
# 3 5.5549 -13.9703 38.9880 0.0000 0.0000 0.0000
# 4 0.0000 0.0000 0.0000 3.8577 0.0000 0.0000
# 5 0.0000 0.0000 0.0000 0.0000 5.4554 0.0000
# 6 0.0000 0.0000 0.0000 0.0000 0.0000 15.5403
#
#
#
# Elastic Compliance Matrix: (Units=1/GPa)
#
#
# Indices 1 2 3 4 5 6 
#
# 1 0.010947 0.001829 -0.000904 0.000000 0.000000 0.000000
# 2 0.001829 0.042595 0.015002 0.000000 0.000000 0.000000
# 3 -0.000904 0.015002 0.031153 0.000000 0.000000 0.000000
# 4 0.000000 0.000000 0.000000 0.259223 0.000000 0.000000
# 5 0.000000 0.000000 0.000000 0.000000 0.183305 0.000000
# 6 0.000000 0.000000 0.000000 0.000000 0.000000 0.064349
#
#
# Mechanical properties :
#
#
# Convention : Reuss Voigt Hill
#
# Bulk Modulus (GPa) = 8.58000 14.63593 11.60796
# Shear Modulus (GPa) = 8.35328 16.62370 12.48849
#
# Velocity S-wave (km/s) = 1.88155 2.65430 2.30060
# Velocity P-wave (km/s) = 2.89078 3.94926 3.46073
#
# Compressibility (1/GPa) = 0.11655018
#
# Stress axis : x y z
#
# Youngs Moduli (GPa) = 91.34568 23.47692 32.09931
#
# Poissons Ratio (x) = -0.04295 0.02903
# Poissons Ratio (y) = -0.16710 -0.48156
# Poissons Ratio (z) = 0.08260 -0.35220
#
# Static dielectric constant tensor:
#      x y z
#    x 1.968260 0.000000 0.000000 
#    y 0.000000 1.880990 0.000000 
#    z 0.000000 0.000000 1.875140 
# 
# From -- ./inp_files/10980.got.cif
#   From: 2010.05.17/outbox.cif.g08.bks.cpg/sg58_6_cif.got.tgz:10980.got - 2010.06.03 14:20:14.
