data_PCOD9441195
_publ_section_title
;
Structure prediction by ZEFSAII (Michael W. Deem and Ramdas Pophale) SiO2 
 PCOD9441195
Probable space group: P N N M
;
_chemical_formula_sum "Si O2"
_cell_formula_units_Z 64
_cell_length_a 20.789256
_cell_length_b 16.900700
_cell_length_c 9.299731
_cell_angle_alpha 90.000000
_cell_angle_beta 90.000000
_cell_angle_gamma 90.000000
_cell_volume 3267.488190
_symmetry_space_group_name_H-M "P N N M"
_symmetry_group_IT_number 58
_symmetry_cell_setting 'orthorhombic'
loop_
_space_group_symop_operation_xyz
x,y,z
-x,-y,z
1/2+x,1/2-y,1/2-z
1/2-x,1/2+y,1/2-z
-x,-y,-z
x,y,-z
1/2-x,1/2+y,1/2+z
1/2+x,1/2-y,1/2+z
loop_
_atom_site_type_symbol
_atom_site_label
_atom_site_fract_x
_atom_site_fract_y
_atom_site_fract_z
Si Si1 0.297358 0.597862 0.672241
Si Si2 0.606797 0.540412 0.663045
Si Si3 0.837786 0.433293 0.171216
Si Si4 0.982831 0.151749 0.667513
Si Si5 0.101913 0.224366 0.830332
Si Si6 0.340747 0.885385 0.329294
Si Si7 0.783208 0.175306 0.836069
Si Si8 0.125471 0.712795 0.331735
O O1 0.285502 0.588304 0.500000
O O2 0.354383 0.536645 0.712946
O O3 0.233023 0.578894 0.759115
O O4 0.328796 0.683688 0.697215
O O5 0.584020 0.526297 0.500000
O O6 0.550255 0.576093 0.758624
O O7 0.661456 0.608420 0.658925
O O8 0.858815 0.523804 0.197492
O O9 0.882989 0.368820 0.246996
O O10 0.835031 0.420201 0.000000
O O11 0.992777 0.136479 0.500000
O O12 0.047615 0.179501 0.743026
O O13 0.932915 0.225399 0.682294
O O14 0.107126 0.317463 0.797586
O O15 0.088758 0.214265 0.000000
O O16 0.325177 0.878362 0.500000
O O17 0.278517 0.863493 0.236609
O O18 0.813130 0.244746 0.740296
O O19 0.770393 0.201180 0.000000
O O20 0.137053 0.698280 0.500000
#
# Coordination Sequence:
#
# PCOD9441195 Si02
#       8
#     8   8   8   8   8   8   8   8
#     4  10  20  36  58  86 118 152 187 223 278 343
#     4   9  18  33  55  83 114 149 185 221 268 333
#     4  11  22  35  56  87 118 146 185 234 282 335
#     4  10  22  39  58  80 108 145 192 239 282 328
#     4  10  22  39  58  78 108 151 190 228 276 336
#     4  10  21  36  54  81 116 151 184 225 284 341
#     4  10  18  31  55  84 112 144 183 225 275 332
#     4  10  21  37  57  79 108 146 187 232 285 338
#
# _framework density 19.586911000000001
#
# number of rings (size 3 to 8) (size 9 to 14) (size 15 to 20)
#    0.000    2.000    1.250    2.250    0.000    5.500 
#    0.000    3.125    0.000    3.750    0.000    0.000 
#    0.000    0.000    0.000    0.000    0.000    0.000 
#
# Total GULP energy -357464.256452 kJ/mol
# GULP energy per Si atom -5585.379007 kJ/mol
# Density = 1.954233 g / cm^3
# Si number density = 19.586911 Si / 1000 Ang^3
#
#
#
# Elastic Constant Matrix: (Units=GPa)
#
#
# Indices 1 2 3 4 5 6 
#
# 1 33.7221 -2.0400 15.6192 0.0000 0.0000 0.0000
# 2 -2.0400 84.4084 19.0793 0.0000 0.0000 0.0000
# 3 15.6192 19.0793 49.4954 0.0000 0.0000 0.0000
# 4 0.0000 0.0000 0.0000 24.3416 0.0000 0.0000
# 5 0.0000 0.0000 0.0000 0.0000 25.2870 0.0000
# 6 0.0000 0.0000 0.0000 0.0000 0.0000 19.8342
#
#
#
# Elastic Compliance Matrix: (Units=1/GPa)
#
#
# Indices 1 2 3 4 5 6 
#
# 1 0.035778 0.003743 -0.012733 0.000000 0.000000 0.000000
# 2 0.003743 0.013369 -0.006335 0.000000 0.000000 0.000000
# 3 -0.012733 -0.006335 0.026664 0.000000 0.000000 0.000000
# 4 0.000000 0.000000 0.000000 0.041082 0.000000 0.000000
# 5 0.000000 0.000000 0.000000 0.000000 0.039546 0.000000
# 6 0.000000 0.000000 0.000000 0.000000 0.000000 0.050418
#
#
# Mechanical properties :
#
#
# Convention : Reuss Voigt Hill
#
# Bulk Modulus (GPa) = 22.14279 25.88257 24.01268
# Shear Modulus (GPa) = 19.79711 22.89037 21.34374
#
# Velocity S-wave (km/s) = 3.18265 3.42227 3.30463
# Velocity P-wave (km/s) = 4.98348 5.37204 5.18141
#
# Compressibility (1/GPa) = 0.04516142
#
# Stress axis : x y z
#
# Youngs Moduli (GPa) = 27.94988 74.79715 37.50371
#
# Poissons Ratio (x) = -0.27996 0.47755
# Poissons Ratio (y) = -0.10461 0.23758
# Poissons Ratio (z) = 0.35590 0.47382
#
# Static dielectric constant tensor:
#      x y z
#    x 1.665310 0.000000 0.000000 
#    y 0.000000 1.724550 0.000000 
#    z 0.000000 0.000000 1.661130 
# 
# From -- ./inp_files/8325.got.cif
#   From: 2010.05.17/outbox.cif.g08.bks.cpg/sg58_5_cif.got.tgz:8325.got - 2010.06.03 14:20:14.
