data_PCOD9441651
_publ_section_title
;
Structure prediction by ZEFSAII (Michael W. Deem and Ramdas Pophale) SiO2 
 PCOD9441651
Probable space group: P N N M
;
_chemical_formula_sum "Si O2"
_cell_formula_units_Z 64
_cell_length_a 21.174364
_cell_length_b 17.139549
_cell_length_c 7.415799
_cell_angle_alpha 90.000000
_cell_angle_beta 90.000000
_cell_angle_gamma 90.000000
_cell_volume 2691.334723
_symmetry_space_group_name_H-M "P N N M"
_symmetry_group_IT_number 58
_symmetry_cell_setting 'orthorhombic'
loop_
_space_group_symop_operation_xyz
x,y,z
-x,-y,z
1/2+x,1/2-y,1/2-z
1/2-x,1/2+y,1/2-z
-x,-y,-z
x,y,-z
1/2-x,1/2+y,1/2+z
1/2+x,1/2-y,1/2+z
loop_
_atom_site_type_symbol
_atom_site_label
_atom_site_fract_x
_atom_site_fract_y
_atom_site_fract_z
Si Si1 0.288222 0.099242 0.720610
Si Si2 0.648693 0.448053 0.783975
Si Si3 0.620759 0.037071 0.289852
Si Si4 0.983272 0.648199 0.778753
Si Si5 0.218349 0.318110 0.788933
Si Si6 0.389775 0.715726 0.714465
Si Si7 0.851156 0.121159 0.285257
Si Si8 0.112446 0.714701 0.215385
O O1 0.285574 0.096757 0.500000
O O2 0.218601 0.076372 0.784058
O O3 0.319922 0.180890 0.777209
O O4 0.339325 0.034895 0.782311
O O5 0.602935 0.375806 0.744469
O O6 0.632116 0.534876 0.717502
O O7 0.652349 0.451671 0.000000
O O8 0.608366 0.017260 0.500000
O O9 0.555467 0.072257 0.216738
O O10 0.668966 0.110077 0.283333
O O11 0.943797 0.725257 0.722369
O O12 0.054641 0.661682 0.719388
O O13 0.982934 0.645432 0.000000
O O14 0.178071 0.246094 0.711043
O O15 0.283733 0.349028 0.709391
O O16 0.230391 0.301855 0.000000
O O17 0.386958 0.727531 0.500000
O O18 0.843441 0.112697 0.500000
O O19 0.896730 0.194428 0.256946
O O20 0.112714 0.708228 0.000000
#
# Coordination Sequence:
#
# PCOD9441651 Si02
#       8
#     8   8   8   8   8   8   8   8
#     4   9  16  27  46  74 104 125 147 190 247 289
#     4  10  19  31  48  73  99 121 153 198 242 282
#     4   8  12  23  45  71  97 125 152 185 229 280
#     4   8  16  30  47  69  98 128 161 193 226 278
#     4   8  13  25  46  69  91 119 155 188 224 278
#     4   9  17  30  50  71  91 122 161 195 229 275
#     4  10  19  32  49  67  92 128 162 190 231 287
#     4  10  20  32  47  72 101 125 153 197 242 276
#
# _framework density 23.780021000000001
#
# number of rings (size 3 to 8) (size 9 to 14) (size 15 to 20)
#    0.000    3.000    1.250    2.250    0.000    1.000 
#    0.000    3.750    0.000    3.750    0.000    3.500 
#    0.000    0.000    0.000    0.000    0.000    0.000 
#
# Total GULP energy -357116.342751 kJ/mol
# GULP energy per Si atom -5579.942855 kJ/mol
# Density = 2.372590 g / cm^3
# Si number density = 23.780021 Si / 1000 Ang^3
#
#
#
# Elastic Constant Matrix: (Units=GPa)
#
#
# Indices 1 2 3 4 5 6 
#
# 1 32.2760 -19.5075 0.7234 0.0000 0.0000 0.0000
# 2 -19.5075 87.7501 -3.3617 0.0000 0.0000 0.0000
# 3 0.7234 -3.3617 76.2142 0.0000 0.0000 0.0000
# 4 0.0000 0.0000 0.0000 14.7601 0.0000 0.0000
# 5 0.0000 0.0000 0.0000 0.0000 -5.8276 0.0000
# 6 0.0000 0.0000 0.0000 0.0000 0.0000 25.9085
#
#
#
# Elastic Compliance Matrix: (Units=1/GPa)
#
#
# Indices 1 2 3 4 5 6 
#
# 1 0.035792 0.007957 0.000011 0.000000 0.000000 0.000000
# 2 0.007957 0.013184 0.000506 0.000000 0.000000 0.000000
# 3 0.000011 0.000506 0.013143 0.000000 0.000000 0.000000
# 4 0.000000 0.000000 0.000000 0.067750 0.000000 0.000000
# 5 0.000000 0.000000 0.000000 0.000000 -0.171596 0.000000
# 6 0.000000 0.000000 0.000000 0.000000 0.000000 0.038597
#
#
# Mechanical properties :
#
#
# Convention : Reuss Voigt Hill
#
# Bulk Modulus (GPa) = 12.64729 16.88319 14.76524
# Shear Modulus (GPa) = 796.44544 21.52726 408.98635
#
# Velocity S-wave (km/s) = 18.32073 3.01203 13.12862
# Velocity P-wave (km/s) = 21.28056 4.38310 15.36349
#
# Compressibility (1/GPa) = 0.07906833
#
# Stress axis : x y z
#
# Youngs Moduli (GPa) = 27.93929 75.84758 76.08536
#
# Poissons Ratio (x) = -0.60354 -0.00086
# Poissons Ratio (y) = -0.22232 -0.03850
# Poissons Ratio (z) = -0.00031 -0.03838
#
# Static dielectric constant tensor:
#      x y z
#    x 1.900770 0.000000 0.000000 
#    y 0.000000 1.940810 0.000000 
#    z 0.000000 0.000000 1.939130 
# 
# From -- ./inp_files/9925.got.cif
#   From: 2010.05.17/outbox.cif.g08.bks.cpg/sg58_5_cif.got.tgz:9925.got - 2010.06.03 14:20:14.
