data_PCOD9441490
_publ_section_title
;
Structure prediction by ZEFSAII (Michael W. Deem and Ramdas Pophale) SiO2 
 PCOD9441490
Probable space group: P N N M
;
_chemical_formula_sum "Si O2"
_cell_formula_units_Z 64
_cell_length_a 31.421169
_cell_length_b 9.497891
_cell_length_c 14.714493
_cell_angle_alpha 90.000000
_cell_angle_beta 90.000000
_cell_angle_gamma 90.000000
_cell_volume 4391.317338
_symmetry_space_group_name_H-M "P N N M"
_symmetry_group_IT_number 58
_symmetry_cell_setting 'orthorhombic'
loop_
_space_group_symop_operation_xyz
x,y,z
-x,-y,z
1/2+x,1/2-y,1/2-z
1/2-x,1/2+y,1/2-z
-x,-y,-z
x,y,-z
1/2-x,1/2+y,1/2+z
1/2+x,1/2-y,1/2+z
loop_
_atom_site_type_symbol
_atom_site_label
_atom_site_fract_x
_atom_site_fract_y
_atom_site_fract_z
Si Si1 0.814094 0.683597 0.205086
Si Si2 0.294676 0.536294 0.607009
Si Si3 0.016503 0.154223 0.889537
Si Si4 0.281758 0.072514 0.394470
Si Si5 0.784334 0.679265 0.602068
Si Si6 0.940605 0.353230 0.110354
Si Si7 0.144746 0.791494 0.109895
Si Si8 0.905675 0.661076 0.109941
O O1 0.794199 0.829270 0.170423
O O2 0.782992 0.561956 0.168411
O O3 0.815826 0.671977 0.313550
O O4 0.860054 0.667228 0.157864
O O5 0.300334 0.575344 0.500000
O O6 0.252548 0.439668 0.611245
O O7 0.334518 0.438829 0.636632
O O8 0.063820 0.207312 0.865625
O O9 0.983939 0.277795 0.860334
O O10 0.015738 0.150442 0.000000
O O11 0.000000 0.000000 0.859296
O O12 0.288023 0.030514 0.500000
O O13 0.240975 0.172794 0.390754
O O14 0.321843 0.169314 0.366791
O O15 0.802166 0.667510 0.500000
O O16 0.901659 0.253576 0.140964
O O17 0.929656 0.514314 0.134367
O O18 0.941460 0.352885 0.000000
O O19 0.143765 0.795544 0.000000
O O20 0.899645 0.660633 0.000000
#
# Coordination Sequence:
#
# PCOD9441490 Si02
#       8
#     8   8   8   8   8   8   8   8
#     4  12  19  27  46  69  86 108 152 192 215 247
#     4   9  18  29  43  64  89 112 139 181 221 256
#     4   9  18  28  39  57  87 124 149 169 206 255
#     4   9  16  29  45  63  86 113 144 177 214 261
#     4   9  20  35  45  57  86 122 149 177 223 268
#     4   9  15  26  41  56  83 122 149 165 199 254
#     4   8  14  25  40  59  85 117 142 164 208 257
#     4  10  19  28  40  64  90 114 148 182 210 249
#
# _framework density 14.574213
#
# number of rings (size 3 to 8) (size 9 to 14) (size 15 to 20)
#    0.000    2.625    1.250    3.750    1.750    1.500 
#    0.000    0.000    0.000    0.000    0.000    0.000 
#    0.000    2.500    0.000    0.000    0.000    0.125 
#
# Total GULP energy -356374.638670 kJ/mol
# GULP energy per Si atom -5568.353729 kJ/mol
# Density = 1.454104 g / cm^3
# Si number density = 14.574213 Si / 1000 Ang^3
#
#
#
# Elastic Constant Matrix: (Units=GPa)
#
#
# Indices 1 2 3 4 5 6 
#
# 1 38.9116 11.0316 18.2138 0.0000 0.0000 0.0000
# 2 11.0316 74.3446 32.2704 0.0000 0.0000 0.0000
# 3 18.2138 32.2704 57.8781 0.0000 0.0000 0.0000
# 4 0.0000 0.0000 0.0000 6.1221 0.0000 0.0000
# 5 0.0000 0.0000 0.0000 0.0000 9.6943 0.0000
# 6 0.0000 0.0000 0.0000 0.0000 0.0000 5.7615
#
#
#
# Elastic Compliance Matrix: (Units=1/GPa)
#
#
# Indices 1 2 3 4 5 6 
#
# 1 0.030151 -0.000469 -0.009227 0.000000 0.000000 0.000000
# 2 -0.000469 0.017753 -0.009751 0.000000 0.000000 0.000000
# 3 -0.009227 -0.009751 0.025618 0.000000 0.000000 0.000000
# 4 0.000000 0.000000 0.000000 0.163344 0.000000 0.000000
# 5 0.000000 0.000000 0.000000 0.000000 0.103153 0.000000
# 6 0.000000 0.000000 0.000000 0.000000 0.000000 0.173565
#
#
# Mechanical properties :
#
#
# Convention : Reuss Voigt Hill
#
# Bulk Modulus (GPa) = 28.87758 32.68512 30.78135
# Shear Modulus (GPa) = 8.86494 11.62349 10.24421
#
# Velocity S-wave (km/s) = 2.46897 2.82714 2.65410
# Velocity P-wave (km/s) = 5.29008 5.75607 5.52798
#
# Compressibility (1/GPa) = 0.03462894
#
# Stress axis : x y z
#
# Youngs Moduli (GPa) = 33.16622 56.32884 39.03517
#
# Poissons Ratio (x) = 0.02641 0.36017
# Poissons Ratio (y) = 0.01555 0.38062
# Poissons Ratio (z) = 0.30602 0.54925
#
# Static dielectric constant tensor:
#      x y z
#    x 1.492170 0.000000 0.000000 
#    y 0.000000 1.517610 0.000000 
#    z 0.000000 0.000000 1.455070 
# 
# From -- ./inp_files/20404.got.cif
#   From: 2010.05.17/outbox.cif.g08.bks.cpg/sg58_11_cif.got.tgz:20404.got - 2010.06.03 14:20:14.
