data_PCOD9441201
_publ_section_title
;
Structure prediction by ZEFSAII (Michael W. Deem and Ramdas Pophale) SiO2 
 PCOD9441201
Probable space group: P N N M
;
_chemical_formula_sum "Si O2"
_cell_formula_units_Z 40
_cell_length_a 11.445480
_cell_length_b 10.696711
_cell_length_c 13.958055
_cell_angle_alpha 90.000000
_cell_angle_beta 90.000000
_cell_angle_gamma 90.000000
_cell_volume 1708.870601
_symmetry_space_group_name_H-M "P N N M"
_symmetry_group_IT_number 58
_symmetry_cell_setting 'orthorhombic'
loop_
_space_group_symop_operation_xyz
x,y,z
-x,-y,z
1/2+x,1/2-y,1/2-z
1/2-x,1/2+y,1/2-z
-x,-y,-z
x,y,-z
1/2-x,1/2+y,1/2+z
1/2+x,1/2-y,1/2+z
loop_
_atom_site_type_symbol
_atom_site_label
_atom_site_fract_x
_atom_site_fract_y
_atom_site_fract_z
Si Si1 0.929651 0.302369 0.110747
Si Si2 0.609114 0.405123 0.387628
Si Si3 0.871551 0.987712 0.610216
Si Si4 0.682843 0.193702 0.893787
Si Si5 0.185910 0.503839 0.249973
O O1 0.823776 0.200872 0.115366
O O2 0.897066 0.405166 0.189527
O O3 0.050122 0.230814 0.126049
O O4 0.925153 0.351207 0.000000
O O5 0.500000 0.500000 0.370655
O O6 0.641360 0.418278 0.500000
O O7 0.721382 0.425447 0.320357
O O8 0.870992 0.029397 0.500000
O O9 0.772417 0.054611 0.670277
O O10 0.848696 0.839198 0.613134
O O11 0.000000 0.000000 0.651244
O O12 0.630986 0.103049 0.815032
O O13 0.651290 0.150261 0.000000
#
# Coordination Sequence:
#
# PCOD9441201 Si02
#       5
#     8   8   8   8   8
#     4   9  19  34  52  85 126 161 198 255 320 368
#     4  10  18  31  56  89 119 154 205 260 313 369
#     4   9  19  34  53  85 123 159 200 245 302 362
#     4   9  17  31  53  83 119 155 193 248 303 353
#     4  11  18  29  58  91 119 153 210 247 303 364
#
# _framework density 23.407271999999999
#
# number of rings (size 3 to 8) (size 9 to 14) (size 15 to 20)
#    0.000    2.400    2.000    3.000    0.000    0.000 
#    0.000    0.000    0.000   28.800    0.000   22.400 
#    0.000    0.000    0.000    0.000    0.000    0.000 
#
# Total GULP energy -223587.116758 kJ/mol
# GULP energy per Si atom -5589.677919 kJ/mol
# Density = 2.335400 g / cm^3
# Si number density = 23.407272 Si / 1000 Ang^3
#
#
#
# Elastic Constant Matrix: (Units=GPa)
#
#
# Indices 1 2 3 4 5 6 
#
# 1 62.0585 18.5167 22.4837 0.0000 0.0000 0.0000
# 2 18.5167 38.0248 39.8139 0.0000 0.0000 0.0000
# 3 22.4837 39.8139 156.9724 0.0000 0.0000 0.0000
# 4 0.0000 0.0000 0.0000 34.5728 0.0000 0.0000
# 5 0.0000 0.0000 0.0000 0.0000 6.5951 0.0000
# 6 0.0000 0.0000 0.0000 0.0000 0.0000 32.8682
#
#
#
# Elastic Compliance Matrix: (Units=1/GPa)
#
#
# Indices 1 2 3 4 5 6 
#
# 1 0.018883 -0.008664 -0.000507 0.000000 0.000000 0.000000
# 2 -0.008664 0.039784 -0.008850 0.000000 0.000000 0.000000
# 3 -0.000507 -0.008850 0.008688 0.000000 0.000000 0.000000
# 4 0.000000 0.000000 0.000000 0.028924 0.000000 0.000000
# 5 0.000000 0.000000 0.000000 0.000000 0.151628 0.000000
# 6 0.000000 0.000000 0.000000 0.000000 0.000000 0.030425
#
#
# Mechanical properties :
#
#
# Convention : Reuss Voigt Hill
#
# Bulk Modulus (GPa) = 31.93627 46.52050 39.22838
# Shear Modulus (GPa) = 15.39360 26.55664 20.97512
#
# Velocity S-wave (km/s) = 2.56723 3.37196 2.99673
# Velocity P-wave (km/s) = 4.73930 5.92264 5.36370
#
# Compressibility (1/GPa) = 0.03131236
#
# Stress axis : x y z
#
# Youngs Moduli (GPa) = 52.95839 25.13587 115.10461
#
# Poissons Ratio (x) = 0.21779 0.05836
# Poissons Ratio (y) = 0.45885 1.01863
# Poissons Ratio (z) = 0.02685 0.22244
#
# Static dielectric constant tensor:
#      x y z
#    x 1.936200 0.000000 0.000000 
#    y 0.000000 1.943890 0.000000 
#    z 0.000000 0.000000 1.900710 
# 
# From -- ./inp_files/19477.got.cif
#   From: 2010.05.17/outbox.cif.g08.bks.cpg/sg58_10_cif.got.tgz:19477.got - 2010.06.03 14:20:14.
