data_PCOD9441874
_publ_section_title
;
Structure prediction by ZEFSAII (Michael W. Deem and Ramdas Pophale) SiO2 
 PCOD9441874
Probable space group: P N N M
;
_chemical_formula_sum "Si O2"
_cell_formula_units_Z 64
_cell_length_a 29.693200
_cell_length_b 12.484072
_cell_length_c 7.487287
_cell_angle_alpha 90.000000
_cell_angle_beta 90.000000
_cell_angle_gamma 90.000000
_cell_volume 2775.477742
_symmetry_space_group_name_H-M "P N N M"
_symmetry_group_IT_number 58
_symmetry_cell_setting 'orthorhombic'
loop_
_space_group_symop_operation_xyz
x,y,z
-x,-y,z
1/2+x,1/2-y,1/2-z
1/2-x,1/2+y,1/2-z
-x,-y,-z
x,y,-z
1/2-x,1/2+y,1/2+z
1/2+x,1/2-y,1/2+z
loop_
_atom_site_type_symbol
_atom_site_label
_atom_site_fract_x
_atom_site_fract_y
_atom_site_fract_z
Si Si1 0.926202 0.051694 0.283834
Si Si2 0.325043 0.721027 0.294352
Si Si3 0.020533 0.739368 0.286747
Si Si4 0.176105 0.454411 0.211966
Si Si5 0.773535 0.986416 0.215736
Si Si6 0.571770 0.309325 0.215701
Si Si7 0.336315 0.336134 0.295102
Si Si8 0.610556 0.871222 0.285365
O O1 0.923811 0.057331 0.500000
O O2 0.957598 0.148821 0.221138
O O3 0.876733 0.076989 0.209960
O O4 0.941044 0.932194 0.239213
O O5 0.309372 0.724027 0.500000
O O6 0.315543 0.836679 0.210424
O O7 0.301336 0.616041 0.215916
O O8 0.378965 0.710836 0.290716
O O9 0.017275 0.748682 0.500000
O O10 0.058146 0.649998 0.251928
O O11 0.969133 0.733510 0.222606
O O12 0.221315 0.522015 0.238567
O O13 0.133236 0.520003 0.281669
O O14 0.168763 0.440363 0.000000
O O15 0.794485 0.098875 0.284976
O O16 0.778223 0.990629 0.000000
O O17 0.576079 0.302573 0.000000
O O18 0.324972 0.309304 0.500000
O O19 0.359425 0.229619 0.215941
O O20 0.614441 0.869251 0.500000
#
# Coordination Sequence:
#
# PCOD9441874 Si02
#       8
#     8   8   8   8   8   8   8   8
#     4   9  16  28  48  76 110 143 173 212 262 316
#     4  10  22  40  57  79 111 143 179 223 269 320
#     4   9  18  32  52  80 112 144 181 224 270 320
#     4  10  23  40  58  78 105 142 183 224 264 318
#     4  10  21  36  56  81 108 137 173 220 275 324
#     4  10  19  32  53  81 111 145 183 223 270 321
#     4   9  17  31  51  76 106 136 168 214 265 312
#     4   9  19  36  55  77 106 141 182 222 264 317
#
# _framework density 23.059092
#
# number of rings (size 3 to 8) (size 9 to 14) (size 15 to 20)
#    0.000    2.500    1.250    0.375    1.750    4.000 
#    0.000    0.625    0.000    7.500    0.000    0.000 
#    0.000    0.000    0.000    0.000    0.000    0.000 
#
# Total GULP energy -357174.030548 kJ/mol
# GULP energy per Si atom -5580.844227 kJ/mol
# Density = 2.300661 g / cm^3
# Si number density = 23.059092 Si / 1000 Ang^3
#
#
#
# Elastic Constant Matrix: (Units=GPa)
#
#
# Indices 1 2 3 4 5 6 
#
# 1 71.9313 6.9013 -16.5275 0.0000 0.0000 0.0000
# 2 6.9013 50.0668 4.8311 0.0000 0.0000 0.0000
# 3 -16.5275 4.8311 64.7759 0.0000 0.0000 0.0000
# 4 0.0000 0.0000 0.0000 1.2195 0.0000 0.0000
# 5 0.0000 0.0000 0.0000 0.0000 14.4875 0.0000
# 6 0.0000 0.0000 0.0000 0.0000 0.0000 13.1306
#
#
#
# Elastic Compliance Matrix: (Units=1/GPa)
#
#
# Indices 1 2 3 4 5 6 
#
# 1 0.015064 -0.002465 0.004027 0.000000 0.000000 0.000000
# 2 -0.002465 0.020522 -0.002160 0.000000 0.000000 0.000000
# 3 0.004027 -0.002160 0.016627 0.000000 0.000000 0.000000
# 4 0.000000 0.000000 0.000000 0.820010 0.000000 0.000000
# 5 0.000000 0.000000 0.000000 0.000000 0.069025 0.000000
# 6 0.000000 0.000000 0.000000 0.000000 0.000000 0.076158
#
#
# Mechanical properties :
#
#
# Convention : Reuss Voigt Hill
#
# Bulk Modulus (GPa) = 19.60103 19.68709 19.64406
# Shear Modulus (GPa) = 4.82809 18.53878 11.68344
#
# Velocity S-wave (km/s) = 1.44856 2.83851 2.25338
# Velocity P-wave (km/s) = 3.36401 4.39307 3.91252
#
# Compressibility (1/GPa) = 0.05101773
#
# Stress axis : x y z
#
# Youngs Moduli (GPa) = 66.38322 48.72938 60.14493
#
# Poissons Ratio (x) = 0.12012 -0.24223
# Poissons Ratio (y) = 0.16364 0.12988
# Poissons Ratio (z) = -0.26735 0.10523
#
# Static dielectric constant tensor:
#      x y z
#    x 1.856630 0.000000 0.000000 
#    y 0.000000 1.883760 0.000000 
#    z 0.000000 0.000000 1.877400 
# 
# From -- ./inp_files/4730.got.cif
#   From: 2010.05.17/outbox.cif.g08.bks.cpg/sg58_3_cif.got.tgz:4730.got - 2010.06.03 14:20:14.
