data_PCOD9441295
_publ_section_title
;
Structure prediction by ZEFSAII (Michael W. Deem and Ramdas Pophale) SiO2 
 PCOD9441295
Probable space group: P N N M
;
_chemical_formula_sum "Si O2"
_cell_formula_units_Z 64
_cell_length_a 16.989178
_cell_length_b 12.265244
_cell_length_c 14.481439
_cell_angle_alpha 90.000000
_cell_angle_beta 90.000000
_cell_angle_gamma 90.000000
_cell_volume 3017.590322
_symmetry_space_group_name_H-M "P N N M"
_symmetry_group_IT_number 58
_symmetry_cell_setting 'orthorhombic'
loop_
_space_group_symop_operation_xyz
x,y,z
-x,-y,z
1/2+x,1/2-y,1/2-z
1/2-x,1/2+y,1/2-z
-x,-y,-z
x,y,-z
1/2-x,1/2+y,1/2+z
1/2+x,1/2-y,1/2+z
loop_
_atom_site_type_symbol
_atom_site_label
_atom_site_fract_x
_atom_site_fract_y
_atom_site_fract_z
Si Si1 0.391895 0.824024 0.889947
Si Si2 0.525461 0.823893 0.604286
Si Si3 0.263886 0.948574 0.216143
Si Si4 0.692652 0.380808 0.190814
Si Si5 0.158026 0.735338 0.218179
Si Si6 0.626181 0.048614 0.606005
Si Si7 0.074008 0.690908 0.605646
Si Si8 0.421535 0.453461 0.106228
O O1 0.329422 0.916943 0.860428
O O2 0.366469 0.718983 0.828636
O O3 0.484577 0.848973 0.874287
O O4 0.384717 0.799297 0.000000
O O5 0.529900 0.784060 0.500000
O O6 0.574137 0.747151 0.670728
O O7 0.436159 0.854349 0.624891
O O8 0.574301 0.937998 0.609325
O O9 0.202501 0.849260 0.226335
O O10 0.154282 0.016344 0.358627
O O11 0.215531 0.062521 0.211346
O O12 0.777098 0.332368 0.159498
O O13 0.812089 0.550925 0.187662
O O14 0.134512 0.669239 0.311263
O O15 0.655828 0.058821 0.500000
O O16 0.093821 0.657401 0.500000
O O17 0.074879 0.823366 0.608309
O O18 0.500000 0.500000 0.153769
O O19 0.423904 0.486961 0.000000
#
# Coordination Sequence:
#
# PCOD9441295 Si02
#       8
#     8   8   8   8   8   8   8   8
#     4  10  22  39  61  86 117 156 199 243 291 353
#     4   9  18  34  57  81 105 141 189 235 282 335
#     4  11  22  35  52  86 123 153 188 233 301 354
#     4  11  21  35  54  82 120 148 188 236 295 344
#     4  11  22  34  53  82 119 154 186 236 296 352
#     4   9  18  34  57  82 108 143 183 231 290 344
#     4  10  20  36  57  84 115 151 195 240 291 354
#     4  10  18  32  57  85 112 142 182 237 296 346
#
# _framework density 21.208976
#
# number of rings (size 3 to 8) (size 9 to 14) (size 15 to 20)
#    0.000    1.875    3.750    1.875    0.000    4.000 
#    0.000    0.625    0.000    2.250    0.000    0.000 
#    0.000   11.000    0.000    0.000    0.000    0.000 
#
# Total GULP energy -356345.635929 kJ/mol
# GULP energy per Si atom -5567.900561 kJ/mol
# Density = 2.116070 g / cm^3
# Si number density = 21.208976 Si / 1000 Ang^3
#
#
#
# Elastic Constant Matrix: (Units=GPa)
#
#
# Indices 1 2 3 4 5 6 
#
# 1 71.9289 6.9866 40.1876 0.0000 0.0000 0.0000
# 2 6.9866 39.6725 5.9644 0.0000 0.0000 0.0000
# 3 40.1876 5.9644 57.7508 0.0000 0.0000 0.0000
# 4 0.0000 0.0000 0.0000 13.4345 0.0000 0.0000
# 5 0.0000 0.0000 0.0000 0.0000 200.8397 0.0000
# 6 0.0000 0.0000 0.0000 0.0000 0.0000 29.3417
#
#
#
# Elastic Compliance Matrix: (Units=1/GPa)
#
#
# Indices 1 2 3 4 5 6 
#
# 1 0.022853 -0.001660 -0.015732 0.000000 0.000000 0.000000
# 2 -0.001660 0.025724 -0.001502 0.000000 0.000000 0.000000
# 3 -0.015732 -0.001502 0.028418 0.000000 0.000000 0.000000
# 4 0.000000 0.000000 0.000000 0.074435 0.000000 0.000000
# 5 0.000000 0.000000 0.000000 0.000000 0.004979 0.000000
# 6 0.000000 0.000000 0.000000 0.000000 0.000000 0.034081
#
#
# Mechanical properties :
#
#
# Convention : Reuss Voigt Hill
#
# Bulk Modulus (GPa) = 25.50394 30.62550 28.06472
# Shear Modulus (GPa) = 20.71696 56.47075 38.59385
#
# Velocity S-wave (km/s) = 3.12877 5.16562 4.27042
# Velocity P-wave (km/s) = 5.01034 7.07456 6.12996
#
# Compressibility (1/GPa) = 0.03920962
#
# Stress axis : x y z
#
# Youngs Moduli (GPa) = 43.75715 38.87351 35.18851
#
# Poissons Ratio (x) = 0.06451 0.55358
# Poissons Ratio (y) = 0.07262 0.05285
# Poissons Ratio (z) = 0.68838 0.05839
#
# Static dielectric constant tensor:
#      x y z
#    x 1.838570 0.000000 0.000000 
#    y 0.000000 1.847650 0.000000 
#    z 0.000000 0.000000 1.793230 
# 
# From -- ./inp_files/23041.got.cif
#   From: 2010.05.17/outbox.cif.g08.bks.cpg/sg58_12_cif.got.tgz:23041.got - 2010.06.03 14:20:14.
