data_PCOD9441920
_publ_section_title
;
Structure prediction by ZEFSAII (Michael W. Deem and Ramdas Pophale) SiO2 
 PCOD9441920
Probable space group: P N N M
;
_chemical_formula_sum "Si O2"
_cell_formula_units_Z 60
_cell_length_a 15.562329
_cell_length_b 12.512144
_cell_length_c 18.182415
_cell_angle_alpha 90.000000
_cell_angle_beta 90.000000
_cell_angle_gamma 90.000000
_cell_volume 3540.445328
_symmetry_space_group_name_H-M "P N N M"
_symmetry_group_IT_number 58
_symmetry_cell_setting 'orthorhombic'
loop_
_space_group_symop_operation_xyz
x,y,z
-x,-y,z
1/2+x,1/2-y,1/2-z
1/2-x,1/2+y,1/2-z
-x,-y,-z
x,y,-z
1/2-x,1/2+y,1/2+z
1/2+x,1/2-y,1/2+z
loop_
_atom_site_type_symbol
_atom_site_label
_atom_site_fract_x
_atom_site_fract_y
_atom_site_fract_z
Si Si1 0.000000 0.500000 0.244359
Si Si2 0.190042 0.827766 0.313985
Si Si3 0.212661 0.125443 0.157364
Si Si4 0.396979 0.502721 0.916048
Si Si5 0.317171 0.924930 0.802077
Si Si6 0.970750 0.878004 0.915074
Si Si7 0.869569 0.803822 0.689079
Si Si8 0.463253 0.239742 0.282926
O O1 0.912212 0.528106 0.287683
O O2 0.975841 0.387518 0.205298
O O3 0.228609 0.727886 0.358290
O O4 0.138825 0.906780 0.366677
O O5 0.265861 0.894028 0.273120
O O6 0.126404 0.776224 0.252997
O O7 0.129184 0.126753 0.106878
O O8 0.182260 0.146115 0.241934
O O9 0.262271 0.013528 0.155756
O O10 0.500000 0.500000 0.916202
O O11 0.372335 0.612037 0.875697
O O12 0.366268 0.496605 0.000000
O O13 0.329511 0.808152 0.836875
O O14 0.020243 0.802362 0.858223
O O15 0.984295 0.849374 0.000000
O O16 0.000000 0.000000 0.903579
O O17 0.962603 0.776730 0.724985
#
# Coordination Sequence:
#
# PCOD9441920 Si02
#       8
#     4   8   8   8   8   8   8   8
#     4  10  20  36  53  86 113 142 184 238 284 336
#     4  11  20  33  57  86 112 148 192 236 280 330
#     4  10  19  34  58  83 110 146 191 240 274 333
#     4  11  22  35  54  83 118 150 183 229 290 347
#     4  10  19  32  55  82 108 143 191 236 282 320
#     4  10  22  38  57  85 118 153 190 233 291 345
#     4   9  19  33  53  83 108 143 185 230 280 330
#     4  10  19  34  60  81 116 145 188 237 277 336
#
# _framework density 16.947020999999999
#
# number of rings (size 3 to 8) (size 9 to 14) (size 15 to 20)
#    0.000    1.867    4.000    1.600    1.867    0.533 
#    0.000    1.000    0.000    8.800    0.000    4.667 
#    0.000    0.000    0.000    0.000    0.000    0.000 
#
# Total GULP energy -334435.889291 kJ/mol
# GULP energy per Si atom -5573.931488 kJ/mol
# Density = 1.690845 g / cm^3
# Si number density = 16.947021 Si / 1000 Ang^3
#
#
#
# Elastic Constant Matrix: (Units=GPa)
#
#
# Indices 1 2 3 4 5 6 
#
# 1 78.5822 39.6105 23.6638 0.0000 0.0000 0.0000
# 2 39.6105 129.7189 58.2245 0.0000 0.0000 0.0000
# 3 23.6638 58.2245 69.6343 0.0000 0.0000 0.0000
# 4 0.0000 0.0000 0.0000 -0.9176 0.0000 0.0000
# 5 0.0000 0.0000 0.0000 0.0000 -17.0323 0.0000
# 6 0.0000 0.0000 0.0000 0.0000 0.0000 35.1764
#
#
#
# Elastic Compliance Matrix: (Units=1/GPa)
#
#
# Indices 1 2 3 4 5 6 
#
# 1 0.015223 -0.003724 -0.002059 0.000000 0.000000 0.000000
# 2 -0.003724 0.013251 -0.009815 0.000000 0.000000 0.000000
# 3 -0.002059 -0.009815 0.023267 0.000000 0.000000 0.000000
# 4 0.000000 0.000000 0.000000 -1.089840 0.000000 0.000000
# 5 0.000000 0.000000 0.000000 0.000000 -0.058712 0.000000
# 6 0.000000 0.000000 0.000000 0.000000 0.000000 0.028428
#
#
# Mechanical properties :
#
#
# Convention : Reuss Voigt Hill
#
# Bulk Modulus (GPa) = 48.67289 57.88144 53.27717
# Shear Modulus (GPa) = -4.85277 13.87442 4.51082
#
# Velocity S-wave (km/s) = -1.69402 2.86439 1.63325
# Velocity P-wave (km/s) = 4.99567 6.72072 5.92135
#
# Compressibility (1/GPa) = 0.02054532
#
# Stress axis : x y z
#
# Youngs Moduli (GPa) = 65.69087 75.46350 42.97936
#
# Poissons Ratio (x) = 0.28103 0.08851
# Poissons Ratio (y) = 0.24464 0.42183
# Poissons Ratio (z) = 0.13528 0.74064
#
# Static dielectric constant tensor:
#      x y z
#    x 1.602180 0.000000 0.000000 
#    y 0.000000 1.583590 0.000000 
#    z 0.000000 0.000000 1.534120 
# 
# From -- ./inp_files/26980.got.cif
#   From: 2010.05.17/outbox.cif.g08.bks.cpg/sg58_14_cif.got.tgz:26980.got - 2010.06.03 14:20:14.
