data_PCOD9441509
_publ_section_title
;
Structure prediction by ZEFSAII (Michael W. Deem and Ramdas Pophale) SiO2 
 PCOD9441509
Probable space group: P N N M
;
_chemical_formula_sum "Si O2"
_cell_formula_units_Z 64
_cell_length_a 15.218664
_cell_length_b 22.777005
_cell_length_c 7.486623
_cell_angle_alpha 90.000000
_cell_angle_beta 90.000000
_cell_angle_gamma 90.000000
_cell_volume 2595.129951
_symmetry_space_group_name_H-M "P N N M"
_symmetry_group_IT_number 58
_symmetry_cell_setting 'orthorhombic'
loop_
_space_group_symop_operation_xyz
x,y,z
-x,-y,z
1/2+x,1/2-y,1/2-z
1/2-x,1/2+y,1/2-z
-x,-y,-z
x,y,-z
1/2-x,1/2+y,1/2+z
1/2+x,1/2-y,1/2+z
loop_
_atom_site_type_symbol
_atom_site_label
_atom_site_fract_x
_atom_site_fract_y
_atom_site_fract_z
Si Si1 0.243689 0.315866 0.291363
Si Si2 0.735186 0.434456 0.783969
Si Si3 0.951857 0.812141 0.789142
Si Si4 0.201207 0.435669 0.710766
Si Si5 0.246724 0.689669 0.205142
Si Si6 0.964988 0.937692 0.285415
Si Si7 0.006170 0.435962 0.800808
Si Si8 0.534106 0.186451 0.716345
O O1 0.268366 0.313780 0.500000
O O2 0.264272 0.382135 0.226817
O O3 0.274551 0.253384 0.212832
O O4 0.136691 0.313843 0.274857
O O5 0.770962 0.497449 0.731759
O O6 0.778859 0.373933 0.718348
O O7 0.634968 0.434285 0.721395
O O8 0.735890 0.432031 0.000000
O O9 0.854424 0.813765 0.701861
O O10 0.002367 0.873306 0.759960
O O11 0.998134 0.751465 0.731864
O O12 0.935331 0.806961 0.000000
O O13 0.185248 0.425741 0.500000
O O14 0.110781 0.429872 0.814404
O O15 0.214827 0.690637 0.000000
O O16 0.966244 0.940740 0.500000
O O17 0.000000 0.000000 0.217895
O O18 0.984662 0.372346 0.718806
O O19 0.000000 0.500000 0.710879
O O20 0.964814 0.441015 0.000000
O O21 0.530972 0.182177 0.500000
#
# Coordination Sequence:
#
# PCOD9441509 Si02
#       8
#     8   8   8   8   8   8   8   8
#     4   8  14  25  41  61  83 109 143 179 214 252
#     4   9  17  29  46  66  87 114 147 181 215 256
#     4   9  15  23  39  64  90 111 135 175 223 261
#     4  10  19  29  44  67  94 119 142 177 223 265
#     4   8  14  26  43  61  82 110 146 182 212 249
#     4   9  18  32  48  65  86 115 150 183 215 257
#     4   9  17  30  48  67  88 118 153 183 212 253
#     4   8  14  24  39  62  88 110 138 178 218 253
#
# _framework density 24.661577000000001
#
# number of rings (size 3 to 8) (size 9 to 14) (size 15 to 20)
#    0.000    3.250    0.000    1.500    0.000    3.500 
#    0.000    0.000    0.000    1.500    0.000    7.000 
#    0.000    0.000    0.000    0.000    0.000    0.000 
#
# Total GULP energy -356276.384180 kJ/mol
# GULP energy per Si atom -5566.818503 kJ/mol
# Density = 2.460545 g / cm^3
# Si number density = 24.661577 Si / 1000 Ang^3
#
#
#
# Elastic Constant Matrix: (Units=GPa)
#
#
# Indices 1 2 3 4 5 6 
#
# 1 31.4526 23.8713 -2.8278 0.0000 0.0000 0.0000
# 2 23.8713 316.7820 6.9515 0.0000 0.0000 0.0000
# 3 -2.8278 6.9515 82.5375 0.0000 0.0000 0.0000
# 4 0.0000 0.0000 0.0000 -1.2039 0.0000 0.0000
# 5 0.0000 0.0000 0.0000 0.0000 3.0312 0.0000
# 6 0.0000 0.0000 0.0000 0.0000 0.0000 19.1546
#
#
#
# Elastic Compliance Matrix: (Units=1/GPa)
#
#
# Indices 1 2 3 4 5 6 
#
# 1 0.033878 -0.002583 0.001378 0.000000 0.000000 0.000000
# 2 -0.002583 0.003360 -0.000371 0.000000 0.000000 0.000000
# 3 0.001378 -0.000371 0.012194 0.000000 0.000000 0.000000
# 4 0.000000 0.000000 0.000000 -0.830623 0.000000 0.000000
# 5 0.000000 0.000000 0.000000 0.000000 0.329901 0.000000
# 6 0.000000 0.000000 0.000000 0.000000 0.000000 0.052207
#
#
# Mechanical properties :
#
#
# Convention : Reuss Voigt Hill
#
# Bulk Modulus (GPa) = 21.60790 54.08467 37.84629
# Shear Modulus (GPa) = -13.14045 31.04818 8.95387
#
# Velocity S-wave (km/s) = -2.31082 3.55205 1.90751
# Velocity P-wave (km/s) = 1.28878 6.22905 4.49789
#
# Compressibility (1/GPa) = 0.04627936
#
# Stress axis : x y z
#
# Youngs Moduli (GPa) = 29.51741 297.65872 82.00613
#
# Poissons Ratio (x) = 0.76890 -0.11303
# Poissons Ratio (y) = 0.07625 0.03046
# Poissons Ratio (z) = -0.04068 0.11057
#
# Static dielectric constant tensor:
#      x y z
#    x 1.963680 0.000000 0.000000 
#    y 0.000000 2.150960 0.000000 
#    z 0.000000 0.000000 2.004310 
# 
# From -- ./inp_files/9508.got.cif
#   From: 2010.05.17/outbox.cif.g08.bks.cpg/sg58_5_cif.got.tgz:9508.got - 2010.06.03 14:20:14.
