data_PCOD9441673
_publ_section_title
;
Structure prediction by ZEFSAII (Michael W. Deem and Ramdas Pophale) SiO2 
 PCOD9441673
Probable space group: P N N M
;
_chemical_formula_sum "Si O2"
_cell_formula_units_Z 64
_cell_length_a 26.102100
_cell_length_b 15.015816
_cell_length_c 8.755580
_cell_angle_alpha 90.000000
_cell_angle_beta 90.000000
_cell_angle_gamma 90.000000
_cell_volume 3431.699944
_symmetry_space_group_name_H-M "P N N M"
_symmetry_group_IT_number 58
_symmetry_cell_setting 'orthorhombic'
loop_
_space_group_symop_operation_xyz
x,y,z
-x,-y,z
1/2+x,1/2-y,1/2-z
1/2-x,1/2+y,1/2-z
-x,-y,-z
x,y,-z
1/2-x,1/2+y,1/2+z
1/2+x,1/2-y,1/2+z
loop_
_atom_site_type_symbol
_atom_site_label
_atom_site_fract_x
_atom_site_fract_y
_atom_site_fract_z
Si Si1 0.295740 0.934190 0.317220
Si Si2 0.018334 0.233790 0.184821
Si Si3 0.193358 0.823536 0.315793
Si Si4 0.164054 0.124694 0.324285
Si Si5 0.224302 0.624026 0.317282
Si Si6 0.581186 0.646188 0.315182
Si Si7 0.568233 0.451903 0.681602
Si Si8 0.386537 0.820655 0.175305
O O1 0.293762 0.936818 0.500000
O O2 0.243093 0.882467 0.265737
O O3 0.346517 0.881967 0.264950
O O4 0.298486 0.033915 0.252180
O O5 0.041010 0.137777 0.237290
O O6 0.056813 0.306585 0.254111
O O7 0.958306 0.225495 0.227189
O O8 0.021812 0.239105 0.000000
O O9 0.191877 0.829748 0.500000
O O10 0.200863 0.719612 0.273158
O O11 0.138123 0.849896 0.250484
O O12 0.167949 0.094221 0.500000
O O13 0.218249 0.127187 0.244931
O O14 0.126922 0.062166 0.228200
O O15 0.139834 0.223086 0.323015
O O16 0.223405 0.618156 0.500000
O O17 0.584199 0.645432 0.500000
O O18 0.555819 0.551525 0.266765
O O19 0.560992 0.450985 0.500000
O O20 0.390559 0.850225 0.000000
#
# Coordination Sequence:
#
# PCOD9441673 Si02
#       8
#     8   8   8   8   8   8   8   8
#     4  11  22  38  59  84 111 144 184 229 280 332
#     4   9  18  33  53  77 108 146 186 229 275 324
#     4  10  23  39  55  78 114 151 182 221 276 335
#     4  10  19  31  49  76 108 141 180 223 266 318
#     4  11  22  37  55  78 109 147 186 225 277 334
#     4  10  20  33  52  78 108 145 188 228 271 326
#     4   9  17  30  50  76 108 146 184 224 271 326
#     4  10  20  34  54  80 108 141 182 225 269 322
#
# _framework density 18.649650000000001
#
# number of rings (size 3 to 8) (size 9 to 14) (size 15 to 20)
#    0.000    2.000    1.250    2.625    0.000    7.500 
#    0.000    0.000    0.000    4.500    0.000    5.250 
#    0.000    0.000    0.000    0.000    0.000    0.000 
#
# Total GULP energy -356768.613727 kJ/mol
# GULP energy per Si atom -5574.509589 kJ/mol
# Density = 1.860720 g / cm^3
# Si number density = 18.649650 Si / 1000 Ang^3
#
#
#
# Elastic Constant Matrix: (Units=GPa)
#
#
# Indices 1 2 3 4 5 6 
#
# 1 49.8294 17.9127 11.6697 0.0000 0.0000 0.0000
# 2 17.9127 72.9955 29.2189 0.0000 0.0000 0.0000
# 3 11.6697 29.2189 35.5080 0.0000 0.0000 0.0000
# 4 0.0000 0.0000 0.0000 22.0210 0.0000 0.0000
# 5 0.0000 0.0000 0.0000 0.0000 16.2263 0.0000
# 6 0.0000 0.0000 0.0000 0.0000 0.0000 25.7924
#
#
#
# Elastic Compliance Matrix: (Units=1/GPa)
#
#
# Indices 1 2 3 4 5 6 
#
# 1 0.022430 -0.003808 -0.004238 0.000000 0.000000 0.000000
# 2 -0.003808 0.021075 -0.016091 0.000000 0.000000 0.000000
# 3 -0.004238 -0.016091 0.042796 0.000000 0.000000 0.000000
# 4 0.000000 0.000000 0.000000 0.045411 0.000000 0.000000
# 5 0.000000 0.000000 0.000000 0.000000 0.061628 0.000000
# 6 0.000000 0.000000 0.000000 0.000000 0.000000 0.038771
#
#
# Mechanical properties :
#
#
# Convention : Reuss Voigt Hill
#
# Bulk Modulus (GPa) = 26.29665 30.65949 28.47807
# Shear Modulus (GPa) = 17.06133 19.44337 18.25235
#
# Velocity S-wave (km/s) = 3.02790 3.23237 3.13181
# Velocity P-wave (km/s) = 5.13373 5.51420 5.32736
#
# Compressibility (1/GPa) = 0.03802766
#
# Stress axis : x y z
#
# Youngs Moduli (GPa) = 44.58347 47.45041 23.36656
#
# Poissons Ratio (x) = 0.18067 0.09903
# Poissons Ratio (y) = 0.16976 0.37598
# Poissons Ratio (z) = 0.18896 0.76350
#
# Static dielectric constant tensor:
#      x y z
#    x 1.652150 0.000000 0.000000 
#    y 0.000000 1.682950 0.000000 
#    z 0.000000 0.000000 1.635150 
# 
# From -- ./inp_files/10114.got.cif
#   From: 2010.05.17/outbox.cif.g08.bks.cpg/sg58_6_cif.got.tgz:10114.got - 2010.06.03 14:20:14.
