data_PCOD9441600
_publ_section_title
;
Structure prediction by ZEFSAII (Michael W. Deem and Ramdas Pophale) SiO2 
 PCOD9441600
Probable space group: P N N M
;
_chemical_formula_sum "Si O2"
_cell_formula_units_Z 64
_cell_length_a 19.508361
_cell_length_b 17.958486
_cell_length_c 7.482258
_cell_angle_alpha 90.000000
_cell_angle_beta 90.000000
_cell_angle_gamma 90.000000
_cell_volume 2621.338966
_symmetry_space_group_name_H-M "P N N M"
_symmetry_group_IT_number 58
_symmetry_cell_setting 'orthorhombic'
loop_
_space_group_symop_operation_xyz
x,y,z
-x,-y,z
1/2+x,1/2-y,1/2-z
1/2-x,1/2+y,1/2-z
-x,-y,-z
x,y,-z
1/2-x,1/2+y,1/2+z
1/2+x,1/2-y,1/2+z
loop_
_atom_site_type_symbol
_atom_site_label
_atom_site_fract_x
_atom_site_fract_y
_atom_site_fract_z
Si Si1 0.440161 0.622923 0.718828
Si Si2 0.558834 0.724861 0.282183
Si Si3 0.192006 0.216782 0.786757
Si Si4 0.769614 0.417954 0.698440
Si Si5 0.299628 0.331183 0.714707
Si Si6 0.365640 0.483304 0.701892
Si Si7 0.399568 0.996117 0.708750
Si Si8 0.005418 0.377033 0.781777
O O1 0.438455 0.620154 0.500000
O O2 0.514642 0.652844 0.771483
O O3 0.382081 0.684918 0.773726
O O4 0.421524 0.539747 0.782465
O O5 0.559261 0.726044 0.500000
O O6 0.637949 0.722870 0.227894
O O7 0.517733 0.796894 0.217564
O O8 0.249475 0.159572 0.710546
O O9 0.225168 0.298227 0.762380
O O10 0.189637 0.206246 0.000000
O O11 0.796295 0.401472 0.500000
O O12 0.697734 0.459729 0.685595
O O13 0.823077 0.475877 0.775391
O O14 0.297862 0.337162 0.500000
O O15 0.329297 0.410429 0.781881
O O16 0.389630 0.462381 0.500000
O O17 0.415226 0.992571 0.500000
O O18 0.448298 0.062671 0.774772
O O19 0.423715 0.915778 0.778436
O O20 0.005872 0.369933 0.000000
#
# Coordination Sequence:
#
# PCOD9441600 Si02
#       8
#     8   8   8   8   8   8   8   8
#     4   8  15  29  47  66  92 125 157 189 226 272
#     4   9  16  26  44  70  94 118 154 197 234 269
#     4   9  18  32  49  68  93 127 158 184 223 276
#     4   9  17  30  46  63  89 122 150 180 221 268
#     4  10  19  30  49  75  97 117 147 193 239 273
#     4   8  16  30  44  63  92 120 146 182 232 276
#     4   9  16  27  44  64  89 120 149 182 225 271
#     4   8  15  26  38  59  92 120 143 181 232 272
#
# _framework density 24.415004
#
# number of rings (size 3 to 8) (size 9 to 14) (size 15 to 20)
#    0.000    3.250    0.000    3.000    0.000    3.000 
#    0.000    5.625    0.000    2.250    0.000    0.875 
#    0.000    0.000    0.000    0.000    0.000    0.000 
#
# Total GULP energy -356518.199178 kJ/mol
# GULP energy per Si atom -5570.596862 kJ/mol
# Density = 2.435943 g / cm^3
# Si number density = 24.415004 Si / 1000 Ang^3
#
#
#
# Elastic Constant Matrix: (Units=GPa)
#
#
# Indices 1 2 3 4 5 6 
#
# 1 72.2830 2.4507 -4.4931 0.0000 0.0000 0.0000
# 2 2.4507 74.0198 -1.9869 0.0000 0.0000 0.0000
# 3 -4.4931 -1.9869 61.0350 0.0000 0.0000 0.0000
# 4 0.0000 0.0000 0.0000 5.1600 0.0000 0.0000
# 5 0.0000 0.0000 0.0000 0.0000 -24.9966 0.0000
# 6 0.0000 0.0000 0.0000 0.0000 0.0000 29.6018
#
#
#
# Elastic Compliance Matrix: (Units=1/GPa)
#
#
# Indices 1 2 3 4 5 6 
#
# 1 0.013912 -0.000433 0.001010 0.000000 0.000000 0.000000
# 2 -0.000433 0.013535 0.000409 0.000000 0.000000 0.000000
# 3 0.001010 0.000409 0.016472 0.000000 0.000000 0.000000
# 4 0.000000 0.000000 0.000000 0.193800 0.000000 0.000000
# 5 0.000000 0.000000 0.000000 0.000000 -0.040005 0.000000
# 6 0.000000 0.000000 0.000000 0.000000 0.000000 0.033782
#
#
# Mechanical properties :
#
#
# Convention : Reuss Voigt Hill
#
# Bulk Modulus (GPa) = 21.79151 22.14211 21.96681
# Shear Modulus (GPa) = 20.42309 16.04416 18.23363
#
# Velocity S-wave (km/s) = 2.89536 2.56626 2.73577
# Velocity P-wave (km/s) = 4.48579 4.22725 4.35844
#
# Compressibility (1/GPa) = 0.04588943
#
# Stress axis : x y z
#
# Youngs Moduli (GPa) = 71.88039 73.88127 60.71018
#
# Poissons Ratio (x) = 0.03203 -0.06132
# Poissons Ratio (y) = 0.03116 -0.02481
# Poissons Ratio (z) = -0.07260 -0.03020
#
# Static dielectric constant tensor:
#      x y z
#    x 1.949970 0.000000 0.000000 
#    y 0.000000 2.006580 0.000000 
#    z 0.000000 0.000000 1.975850 
# 
# From -- ./inp_files/16650.got.cif
#   From: 2010.05.17/outbox.cif.g08.bks.cpg/sg58_9_cif.got.tgz:16650.got - 2010.06.03 14:20:14.
