data_PCOD9441184
_publ_section_title
;
Structure prediction by ZEFSAII (Michael W. Deem and Ramdas Pophale) SiO2 
 PCOD9441184
Probable space group: P N N M
;
_chemical_formula_sum "Si O2"
_cell_formula_units_Z 64
_cell_length_a 12.575286
_cell_length_b 29.415503
_cell_length_c 7.421406
_cell_angle_alpha 90.000000
_cell_angle_beta 90.000000
_cell_angle_gamma 90.000000
_cell_volume 2745.240145
_symmetry_space_group_name_H-M "P N N M"
_symmetry_group_IT_number 58
_symmetry_cell_setting 'orthorhombic'
loop_
_space_group_symop_operation_xyz
x,y,z
-x,-y,z
1/2+x,1/2-y,1/2-z
1/2-x,1/2+y,1/2-z
-x,-y,-z
x,y,-z
1/2-x,1/2+y,1/2+z
1/2+x,1/2-y,1/2+z
loop_
_atom_site_type_symbol
_atom_site_label
_atom_site_fract_x
_atom_site_fract_y
_atom_site_fract_z
Si Si1 0.907869 0.592643 0.278668
Si Si2 0.371436 0.335609 0.217609
Si Si3 0.480094 0.428650 0.786363
Si Si4 0.865254 0.690296 0.705780
Si Si5 0.625187 0.946245 0.792646
Si Si6 0.587734 0.289825 0.781086
Si Si7 0.807442 0.883963 0.281473
Si Si8 0.273385 0.473891 0.284119
O O1 0.908632 0.593403 0.500000
O O2 0.916333 0.644555 0.214868
O O3 0.796873 0.569528 0.223994
O O4 0.008378 0.562856 0.217561
O O5 0.413235 0.384787 0.279922
O O6 0.259616 0.320958 0.294634
O O7 0.465966 0.301097 0.263269
O O8 0.361674 0.337177 0.000000
O O9 0.599837 0.419542 0.718509
O O10 0.398114 0.470017 0.760120
O O11 0.490902 0.424392 0.000000
O O12 0.904698 0.693306 0.500000
O O13 0.881581 0.740074 0.786763
O O14 0.693943 0.900291 0.786825
O O15 0.704944 0.983686 0.712695
O O16 0.607429 0.960089 0.000000
O O17 0.656978 0.333523 0.723274
O O18 0.596727 0.289978 0.000000
O O19 0.803481 0.884500 0.500000
O O20 0.271004 0.475260 0.500000
#
# Coordination Sequence:
#
# PCOD9441184 Si02
#       8
#     8   8   8   8   8   8   8   8
#     4   9  18  33  52  75 104 136 168 207 258 309
#     4   9  17  32  51  72 101 133 165 208 257 299
#     4   9  18  33  54  75 100 135 173 213 256 305
#     4  10  18  31  54  79  99 128 173 212 249 306
#     4  10  21  35  52  76 107 139 171 211 260 309
#     4   8  17  33  52  73 100 135 168 203 254 310
#     4   9  19  37  54  71 102 141 173 207 259 312
#     4  10  19  33  54  78 103 134 173 216 258 304
#
# _framework density 23.313079999999999
#
# number of rings (size 3 to 8) (size 9 to 14) (size 15 to 20)
#    0.000    2.750    1.250    1.875    0.000    4.000 
#    0.000    8.125    0.000    1.500    0.000    0.000 
#    0.000    0.000    0.000    0.000    0.000    0.000 
#
# Total GULP energy -357225.285932 kJ/mol
# GULP energy per Si atom -5581.645093 kJ/mol
# Density = 2.326002 g / cm^3
# Si number density = 23.313080 Si / 1000 Ang^3
#
#
#
# Elastic Constant Matrix: (Units=GPa)
#
#
# Indices 1 2 3 4 5 6 
#
# 1 97.3243 6.4191 -7.2205 0.0000 0.0000 0.0000
# 2 6.4191 78.4825 -4.7072 0.0000 0.0000 0.0000
# 3 -7.2205 -4.7072 76.6277 0.0000 0.0000 0.0000
# 4 0.0000 0.0000 0.0000 4.9789 0.0000 0.0000
# 5 0.0000 0.0000 0.0000 0.0000 8.4673 0.0000
# 6 0.0000 0.0000 0.0000 0.0000 0.0000 29.2735
#
#
#
# Elastic Compliance Matrix: (Units=1/GPa)
#
#
# Indices 1 2 3 4 5 6 
#
# 1 0.010396 -0.000794 0.000931 0.000000 0.000000 0.000000
# 2 -0.000794 0.012850 0.000714 0.000000 0.000000 0.000000
# 3 0.000931 0.000714 0.013182 0.000000 0.000000 0.000000
# 4 0.000000 0.000000 0.000000 0.200850 0.000000 0.000000
# 5 0.000000 0.000000 0.000000 0.000000 0.118102 0.000000
# 6 0.000000 0.000000 0.000000 0.000000 0.000000 0.034161
#
#
# Mechanical properties :
#
#
# Convention : Reuss Voigt Hill
#
# Bulk Modulus (GPa) = 26.22659 26.82415 26.52537
# Shear Modulus (GPa) = 12.48290 25.74013 19.11151
#
# Velocity S-wave (km/s) = 2.31648 3.32641 2.86628
# Velocity P-wave (km/s) = 4.29289 5.12683 4.72828
#
# Compressibility (1/GPa) = 0.03812925
#
# Stress axis : x y z
#
# Youngs Moduli (GPa) = 96.18730 77.82382 75.86268
#
# Poissons Ratio (x) = 0.06183 -0.07061
# Poissons Ratio (y) = 0.07642 -0.05420
# Poissons Ratio (z) = -0.08953 -0.05560
#
# Static dielectric constant tensor:
#      x y z
#    x 1.829680 0.000000 0.000000 
#    y 0.000000 1.923720 0.000000 
#    z 0.000000 0.000000 1.894920 
# 
# From -- ./inp_files/4736.got.cif
#   From: 2010.05.17/outbox.cif.g08.bks.cpg/sg58_3_cif.got.tgz:4736.got - 2010.06.03 14:20:14.
