data_PCOD9441661
_publ_section_title
;
Structure prediction by ZEFSAII (Michael W. Deem and Ramdas Pophale) SiO2 
 PCOD9441661
Probable space group: P N N M
;
_chemical_formula_sum "Si O2"
_cell_formula_units_Z 56
_cell_length_a 17.688872
_cell_length_b 5.097577
_cell_length_c 33.899214
_cell_angle_alpha 90.000000
_cell_angle_beta 90.000000
_cell_angle_gamma 90.000000
_cell_volume 3056.705248
_symmetry_space_group_name_H-M "P N N M"
_symmetry_group_IT_number 58
_symmetry_cell_setting 'orthorhombic'
loop_
_space_group_symop_operation_xyz
x,y,z
-x,-y,z
1/2+x,1/2-y,1/2-z
1/2-x,1/2+y,1/2-z
-x,-y,-z
x,y,-z
1/2-x,1/2+y,1/2+z
1/2+x,1/2-y,1/2+z
loop_
_atom_site_type_symbol
_atom_site_label
_atom_site_fract_x
_atom_site_fract_y
_atom_site_fract_z
Si Si1 0.342434 0.065700 0.582801
Si Si2 0.822176 0.923558 0.452325
Si Si3 0.411742 0.566948 0.454384
Si Si4 0.282060 0.559015 0.229906
Si Si5 0.843446 0.545761 0.174702
Si Si6 0.911154 0.045521 0.782881
Si Si7 0.416922 0.078699 0.952210
O O1 0.366048 0.360819 0.572040
O O2 0.351822 0.006874 0.628788
O O3 0.256836 0.022707 0.568544
O O4 0.394514 0.861522 0.558966
O O5 0.811334 0.935393 0.500000
O O6 0.885110 0.138367 0.441137
O O7 0.855351 0.640269 0.441789
O O8 0.500000 0.500000 0.450942
O O9 0.388749 0.532598 0.500000
O O10 0.236373 0.359503 0.259098
O O11 0.243875 0.492393 0.188329
O O12 0.368063 0.496856 0.241152
O O13 0.873657 0.828933 0.188093
O O14 0.890340 0.329254 0.199571
O O15 0.000000 0.000000 0.780436
O O16 0.500000 0.000000 0.937428
O O17 0.421745 0.078831 0.000000
#
# Coordination Sequence:
#
# PCOD9441661 Si02
#       7
#     8   8   8   8   8   8   8
#     4  12  23  36  55  78 105 140 181 230 277 318
#     4  10  19  31  49  72  97 129 171 213 251 306
#     4  11  24  40  55  72 101 144 189 231 278 328
#     4   8  16  32  51  73 102 134 161 192 244 307
#     4  10  21  34  51  78 110 138 168 214 268 313
#     4  10  19  33  55  80 105 135 174 213 250 306
#     4   9  17  30  49  72  95 119 153 204 261 307
#
# _framework density 18.320378999999999
#
# number of rings (size 3 to 8) (size 9 to 14) (size 15 to 20)
#    0.000    2.000    0.000    4.286    0.000    7.429 
#    0.000    0.000    0.000    1.714    0.000    0.000 
#    0.000    0.000    0.000    0.000    0.000    0.000 
#
# Total GULP energy -312492.926420 kJ/mol
# GULP energy per Si atom -5580.230829 kJ/mol
# Density = 1.827868 g / cm^3
# Si number density = 18.320379 Si / 1000 Ang^3
#
#
#
# Elastic Constant Matrix: (Units=GPa)
#
#
# Indices 1 2 3 4 5 6 
#
# 1 64.4863 -17.9626 18.7842 0.0000 0.0000 0.0000
# 2 -17.9626 56.8543 -9.1876 0.0000 0.0000 0.0000
# 3 18.7842 -9.1876 43.6025 0.0000 0.0000 0.0000
# 4 0.0000 0.0000 0.0000 21.2839 0.0000 0.0000
# 5 0.0000 0.0000 0.0000 0.0000 -27.2384 0.0000
# 6 0.0000 0.0000 0.0000 0.0000 0.0000 24.2476
#
#
#
# Elastic Compliance Matrix: (Units=1/GPa)
#
#
# Indices 1 2 3 4 5 6 
#
# 1 0.018931 0.004828 -0.007138 0.000000 0.000000 0.000000
# 2 0.004828 0.019440 0.002017 0.000000 0.000000 0.000000
# 3 -0.007138 0.002017 0.026435 0.000000 0.000000 0.000000
# 4 0.000000 0.000000 0.000000 0.046984 0.000000 0.000000
# 5 0.000000 0.000000 0.000000 0.000000 -0.036713 0.000000
# 6 0.000000 0.000000 0.000000 0.000000 0.000000 0.041241
#
#
# Mechanical properties :
#
#
# Convention : Reuss Voigt Hill
#
# Bulk Modulus (GPa) = 15.57216 16.46788 16.02002
# Shear Modulus (GPa) = 36.15007 15.21257 25.68132
#
# Velocity S-wave (km/s) = 4.44691 2.88473 3.74811
# Velocity P-wave (km/s) = 5.90636 4.48374 5.24352
#
# Compressibility (1/GPa) = 0.06421716
#
# Stress axis : x y z
#
# Youngs Moduli (GPa) = 52.82279 51.44052 37.82911
#
# Poissons Ratio (x) = -0.24833 0.27004
# Poissons Ratio (y) = -0.25501 -0.07628
# Poissons Ratio (z) = 0.37707 -0.10373
#
# Static dielectric constant tensor:
#      x y z
#    x 1.636010 0.000000 0.000000 
#    y 0.000000 1.622200 0.000000 
#    z 0.000000 0.000000 1.610670 
# 
# From -- ./inp_files/35044.got.cif
#   From: 2010.05.17/outbox.cif.g08.bks.cpg/sg58_18_cif.got.tgz:35044.got - 2010.06.03 14:20:14.
