data_PCOD9441277
_publ_section_title
;
Structure prediction by ZEFSAII (Michael W. Deem and Ramdas Pophale) SiO2 
 PCOD9441277
Probable space group: P N N M
;
_chemical_formula_sum "Si O2"
_cell_formula_units_Z 40
_cell_length_a 13.630030
_cell_length_b 7.471733
_cell_length_c 17.049321
_cell_angle_alpha 90.000000
_cell_angle_beta 90.000000
_cell_angle_gamma 90.000000
_cell_volume 1736.301912
_symmetry_space_group_name_H-M "P N N M"
_symmetry_group_IT_number 58
_symmetry_cell_setting 'orthorhombic'
loop_
_space_group_symop_operation_xyz
x,y,z
-x,-y,z
1/2+x,1/2-y,1/2-z
1/2-x,1/2+y,1/2-z
-x,-y,-z
x,y,-z
1/2-x,1/2+y,1/2+z
1/2+x,1/2-y,1/2+z
loop_
_atom_site_type_symbol
_atom_site_label
_atom_site_fract_x
_atom_site_fract_y
_atom_site_fract_z
Si Si1 0.764884 0.598551 0.856828
Si Si2 0.598872 0.399688 0.377546
Si Si3 0.995865 0.299672 0.251008
Si Si4 0.451423 0.303749 0.913508
Si Si5 0.284528 0.299886 0.685500
O O1 0.852658 0.707604 0.901025
O O2 0.662694 0.673799 0.890188
O O3 0.775969 0.636704 0.762028
O O4 0.757862 0.382763 0.858978
O O5 0.500000 0.500000 0.410852
O O6 0.564209 0.344719 0.290254
O O7 0.689018 0.537788 0.372629
O O8 0.000000 0.500000 0.219147
O O9 0.006052 0.298361 0.343825
O O10 0.888242 0.240477 0.226036
O O11 0.500000 0.500000 0.913932
O O12 0.460712 0.225491 0.000000
#
# Coordination Sequence:
#
# PCOD9441277 Si02
#       5
#     8   8   8   8   8
#     4  11  19  33  56  81 113 150 193 246 296 355
#     4  10  20  32  52  89 119 142 182 247 316 361
#     4  10  18  32  55  82 117 144 186 239 295 359
#     4  10  23  40  55  77 116 166 204 235 282 356
#     4  10  19  29  49  82 112 144 183 236 304 346
#
# _framework density 23.037468000000001
#
# number of rings (size 3 to 8) (size 9 to 14) (size 15 to 20)
#    0.000    1.800    4.000    3.000    0.000    0.400 
#    0.000    0.000    0.000    0.600    0.000    9.800 
#    0.000    0.000    0.000    0.000    0.000    0.200 
#
# Total GULP energy -222732.737512 kJ/mol
# GULP energy per Si atom -5568.318438 kJ/mol
# Density = 2.298503 g / cm^3
# Si number density = 23.037468 Si / 1000 Ang^3
#
#
#
# Elastic Constant Matrix: (Units=GPa)
#
#
# Indices 1 2 3 4 5 6 
#
# 1 57.9728 13.2596 -8.2554 0.0000 0.0000 0.0000
# 2 13.2596 136.0406 5.3533 0.0000 0.0000 0.0000
# 3 -8.2554 5.3533 65.3322 0.0000 0.0000 0.0000
# 4 0.0000 0.0000 0.0000 10.7343 0.0000 0.0000
# 5 0.0000 0.0000 0.0000 0.0000 14.2437 0.0000
# 6 0.0000 0.0000 0.0000 0.0000 0.0000 40.5561
#
#
#
# Elastic Compliance Matrix: (Units=1/GPa)
#
#
# Indices 1 2 3 4 5 6 
#
# 1 0.018019 -0.001852 0.002429 0.000000 0.000000 0.000000
# 2 -0.001852 0.007565 -0.000854 0.000000 0.000000 0.000000
# 3 0.002429 -0.000854 0.015683 0.000000 0.000000 0.000000
# 4 0.000000 0.000000 0.000000 0.093159 0.000000 0.000000
# 5 0.000000 0.000000 0.000000 0.000000 0.070206 0.000000
# 6 0.000000 0.000000 0.000000 0.000000 0.000000 0.024657
#
#
# Mechanical properties :
#
#
# Convention : Reuss Voigt Hill
#
# Bulk Modulus (GPa) = 24.56231 31.11783 27.84007
# Shear Modulus (GPa) = 20.54108 29.70603 25.12355
#
# Velocity S-wave (km/s) = 2.98927 3.59481 3.30593
# Velocity P-wave (km/s) = 4.75388 5.54680 5.16558
#
# Compressibility (1/GPa) = 0.04071278
#
# Stress axis : x y z
#
# Youngs Moduli (GPa) = 55.49738 132.19045 63.76237
#
# Poissons Ratio (x) = 0.24479 -0.15485
# Poissons Ratio (y) = 0.10277 0.05444
# Poissons Ratio (z) = -0.13478 0.11287
#
# Static dielectric constant tensor:
#      x y z
#    x 1.946070 0.000000 0.000000 
#    y 0.000000 1.939700 0.000000 
#    z 0.000000 0.000000 1.869170 
# 
# From -- ./inp_files/29853.got.cif
#   From: 2010.05.17/outbox.cif.g08.bks.cpg/sg58_15_cif.got.tgz:29853.got - 2010.06.03 14:20:14.
