data_PCOD9441380
_publ_section_title
;
Structure prediction by ZEFSAII (Michael W. Deem and Ramdas Pophale) SiO2 
 PCOD9441380
Probable space group: P N N M
;
_chemical_formula_sum "Si O2"
_cell_formula_units_Z 56
_cell_length_a 16.564912
_cell_length_b 8.157896
_cell_length_c 19.486766
_cell_angle_alpha 90.000000
_cell_angle_beta 90.000000
_cell_angle_gamma 90.000000
_cell_volume 2633.340798
_symmetry_space_group_name_H-M "P N N M"
_symmetry_group_IT_number 58
_symmetry_cell_setting 'orthorhombic'
loop_
_space_group_symop_operation_xyz
x,y,z
-x,-y,z
1/2+x,1/2-y,1/2-z
1/2-x,1/2+y,1/2-z
-x,-y,-z
x,y,-z
1/2-x,1/2+y,1/2+z
1/2+x,1/2-y,1/2+z
loop_
_atom_site_type_symbol
_atom_site_label
_atom_site_fract_x
_atom_site_fract_y
_atom_site_fract_z
Si Si1 0.160905 0.276761 0.223983
Si Si2 0.333804 0.192883 0.573669
Si Si3 0.115567 0.687088 0.366960
Si Si4 0.668231 0.831365 0.720727
Si Si5 0.544371 0.328933 0.162306
Si Si6 0.277744 0.811910 0.576591
Si Si7 0.160916 0.340019 0.577031
O O1 0.237773 0.214934 0.268445
O O2 0.161356 0.473190 0.224583
O O3 0.080611 0.218892 0.263365
O O4 0.178460 0.232592 0.143743
O O5 0.377090 0.212938 0.500000
O O6 0.370608 0.222361 0.648704
O O7 0.255867 0.309046 0.573567
O O8 0.302040 0.004021 0.576034
O O9 0.127215 0.740740 0.287942
O O10 0.182012 0.785962 0.410523
O O11 0.140057 0.498892 0.378457
O O12 0.020801 0.710862 0.374930
O O13 0.500000 0.500000 0.165013
O O14 0.620040 0.317436 0.111271
O O15 0.297264 0.746423 0.500000
O O16 0.131221 0.367155 0.500000
#
# Coordination Sequence:
#
# PCOD9441380 Si02
#       7
#     8   8   8   8   8   8   8
#     4  10  21  35  59  84 110 150 194 243 284 341
#     4   9  17  32  55  82 114 144 181 234 280 336
#     4  11  22  34  57  82 116 150 185 246 284 347
#     4  10  18  34  57  82 107 144 199 236 282 332
#     4  12  25  39  54  81 120 156 197 228 295 351
#     4   9  19  36  60  88 114 151 197 239 289 340
#     4  11  22  37  55  82 117 152 189 226 280 348
#
# _framework density 21.265761999999999
#
# number of rings (size 3 to 8) (size 9 to 14) (size 15 to 20)
#    0.000    1.714    2.857    1.714    4.000    2.000 
#    0.000    0.000    0.000    1.286    0.000    4.000 
#    0.000    0.000    0.000    0.000    0.000    0.000 
#
# Total GULP energy -312118.910244 kJ/mol
# GULP energy per Si atom -5573.551969 kJ/mol
# Density = 2.121736 g / cm^3
# Si number density = 21.265762 Si / 1000 Ang^3
#
#
#
# Elastic Constant Matrix: (Units=GPa)
#
#
# Indices 1 2 3 4 5 6 
#
# 1 5.6539 -3.3799 -10.1853 0.0000 0.0000 0.0000
# 2 -3.3799 41.7413 -2.9098 0.0000 0.0000 0.0000
# 3 -10.1853 -2.9098 168.9662 0.0000 0.0000 0.0000
# 4 0.0000 0.0000 0.0000 -11.1168 0.0000 0.0000
# 5 0.0000 0.0000 0.0000 0.0000 21.0114 0.0000
# 6 0.0000 0.0000 0.0000 0.0000 0.0000 29.8002
#
#
#
# Elastic Compliance Matrix: (Units=1/GPa)
#
#
# Indices 1 2 3 4 5 6 
#
# 1 0.211117 0.018003 0.013036 0.000000 0.000000 0.000000
# 2 0.018003 0.025521 0.001525 0.000000 0.000000 0.000000
# 3 0.013036 0.001525 0.006730 0.000000 0.000000 0.000000
# 4 0.000000 0.000000 0.000000 -0.089954 0.000000 0.000000
# 5 0.000000 0.000000 0.000000 0.000000 0.047593 0.000000
# 6 0.000000 0.000000 0.000000 0.000000 0.000000 0.033557
#
#
# Mechanical properties :
#
#
# Convention : Reuss Voigt Hill
#
# Bulk Modulus (GPa) = 3.24152 20.37905 11.81029
# Shear Modulus (GPa) = 18.36422 23.46138 20.91280
#
# Velocity S-wave (km/s) = 2.94182 3.32512 3.13933
# Velocity P-wave (km/s) = 3.61479 4.93414 4.32507
#
# Compressibility (1/GPa) = 0.30849731
#
# Stress axis : x y z
#
# Youngs Moduli (GPa) = 4.73671 39.18320 148.57911
#
# Poissons Ratio (x) = -0.70543 -1.93690
# Poissons Ratio (y) = -0.08528 -0.22654
# Poissons Ratio (z) = -0.06175 -0.05974
#
# Static dielectric constant tensor:
#      x y z
#    x 1.793860 0.000000 0.000000 
#    y 0.000000 1.780740 0.000000 
#    z 0.000000 0.000000 1.870620 
# 
# From -- ./inp_files/30037.got.cif
#   From: 2010.05.17/outbox.cif.g08.bks.cpg/sg58_16_cif.got.tgz:30037.got - 2010.06.03 14:20:14.
