data_PCOD9441222
_publ_section_title
;
Structure prediction by ZEFSAII (Michael W. Deem and Ramdas Pophale) SiO2 
 PCOD9441222
Probable space group: P N N M
;
_chemical_formula_sum "Si O2"
_cell_formula_units_Z 48
_cell_length_a 20.922932
_cell_length_b 15.284278
_cell_length_c 7.683699
_cell_angle_alpha 90.000000
_cell_angle_beta 90.000000
_cell_angle_gamma 90.000000
_cell_volume 2457.184773
_symmetry_space_group_name_H-M "P N N M"
_symmetry_group_IT_number 58
_symmetry_cell_setting 'orthorhombic'
loop_
_space_group_symop_operation_xyz
x,y,z
-x,-y,z
1/2+x,1/2-y,1/2-z
1/2-x,1/2+y,1/2-z
-x,-y,-z
x,y,-z
1/2-x,1/2+y,1/2+z
1/2+x,1/2-y,1/2+z
loop_
_atom_site_type_symbol
_atom_site_label
_atom_site_fract_x
_atom_site_fract_y
_atom_site_fract_z
Si Si1 0.167950 0.803625 0.702744
Si Si2 0.694518 0.504184 0.785595
Si Si3 0.443142 0.561195 0.792692
Si Si4 0.042413 0.581078 0.786810
Si Si5 0.185370 0.606278 0.203993
Si Si6 0.977546 0.223667 0.791871
O O1 0.183549 0.797659 0.500000
O O2 0.189494 0.711485 0.782386
O O3 0.090868 0.809487 0.721248
O O4 0.196906 0.894382 0.770625
O O5 0.626780 0.463987 0.726751
O O6 0.754032 0.445944 0.724620
O O7 0.694072 0.504048 0.000000
O O8 0.500000 0.500000 0.720473
O O9 0.465764 0.659848 0.761406
O O10 0.441074 0.546500 0.000000
O O11 0.115883 0.579265 0.724472
O O12 0.014956 0.675799 0.735538
O O13 0.000000 0.500000 0.728113
O O14 0.043311 0.579567 0.000000
O O15 0.183300 0.584788 0.000000
O O16 0.971976 0.222626 0.000000
#
# Coordination Sequence:
#
# PCOD9441222 Si02
#       6
#     8   8   8   8   8   8
#     4  10  18  33  54  74  98 135 174 203 248 310
#     4   9  18  33  52  72  98 137 173 203 250 310
#     4  10  18  32  52  73 100 136 171 203 249 311
#     4   8  15  30  51  72  95 127 164 203 250 301
#     4   9  18  34  53  73  98 131 171 212 253 300
#     4  10  19  31  50  78 104 129 166 213 258 297
#
# _framework density 19.534552000000001
#
# number of rings (size 3 to 8) (size 9 to 14) (size 15 to 20)
#    0.000    2.667    1.667    2.000    0.000    0.333 
#    3.000    2.500    0.000   12.500    0.000    0.000 
#    0.000    0.000    0.000    0.000    0.000    0.000 
#
# Total GULP energy -267697.467416 kJ/mol
# GULP energy per Si atom -5577.030571 kJ/mol
# Density = 1.949009 g / cm^3
# Si number density = 19.534552 Si / 1000 Ang^3
#
#
#
# Elastic Constant Matrix: (Units=GPa)
#
#
# Indices 1 2 3 4 5 6 
#
# 1 135.7078 116.0382 4.7626 0.0000 0.0000 0.0000
# 2 116.0382 156.9902 -10.8452 0.0000 0.0000 0.0000
# 3 4.7626 -10.8452 26.4833 0.0000 0.0000 0.0000
# 4 0.0000 0.0000 0.0000 21.2757 0.0000 0.0000
# 5 0.0000 0.0000 0.0000 0.0000 8.6023 0.0000
# 6 0.0000 0.0000 0.0000 0.0000 0.0000 37.9993
#
#
#
# Elastic Compliance Matrix: (Units=1/GPa)
#
#
# Indices 1 2 3 4 5 6 
#
# 1 0.022939 -0.017742 -0.011391 0.000000 0.000000 0.000000
# 2 -0.017742 0.020278 0.011495 0.000000 0.000000 0.000000
# 3 -0.011391 0.011495 0.044515 0.000000 0.000000 0.000000
# 4 0.000000 0.000000 0.000000 0.047002 0.000000 0.000000
# 5 0.000000 0.000000 0.000000 0.000000 0.116249 0.000000
# 6 0.000000 0.000000 0.000000 0.000000 0.000000 0.026316
#
#
# Mechanical properties :
#
#
# Convention : Reuss Voigt Hill
#
# Bulk Modulus (GPa) = 19.06373 59.89916 39.48144
# Shear Modulus (GPa) = 15.14869 27.52383 21.33626
#
# Velocity S-wave (km/s) = 2.78777 3.75771 3.30848
# Velocity P-wave (km/s) = 4.48803 7.03967 5.90336
#
# Compressibility (1/GPa) = 0.05245564
#
# Stress axis : x y z
#
# Youngs Moduli (GPa) = 43.59354 49.31466 22.46416
#
# Poissons Ratio (x) = 0.87495 0.25589
# Poissons Ratio (y) = 0.77345 -0.25822
# Poissons Ratio (z) = 0.49657 -0.56686
#
# Static dielectric constant tensor:
#      x y z
#    x 1.666340 0.000000 0.000000 
#    y 0.000000 1.685000 0.000000 
#    z 0.000000 0.000000 1.726520 
# 
# From -- ./inp_files/4220.got.cif
#   From: 2010.05.17/outbox.cif.g08.bks.cpg/sg58_3_cif.got.tgz:4220.got - 2010.06.03 14:20:14.
