data_PCOD9441543
_publ_section_title
;
Structure prediction by ZEFSAII (Michael W. Deem and Ramdas Pophale) SiO2 
 PCOD9441543
Probable space group: P N N M
;
_chemical_formula_sum "Si O2"
_cell_formula_units_Z 56
_cell_length_a 14.017933
_cell_length_b 29.798253
_cell_length_c 8.997237
_cell_angle_alpha 90.000000
_cell_angle_beta 90.000000
_cell_angle_gamma 90.000000
_cell_volume 3758.235094
_symmetry_space_group_name_H-M "P N N M"
_symmetry_group_IT_number 58
_symmetry_cell_setting 'orthorhombic'
loop_
_space_group_symop_operation_xyz
x,y,z
-x,-y,z
1/2+x,1/2-y,1/2-z
1/2-x,1/2+y,1/2-z
-x,-y,-z
x,y,-z
1/2-x,1/2+y,1/2+z
1/2+x,1/2-y,1/2+z
loop_
_atom_site_type_symbol
_atom_site_label
_atom_site_fract_x
_atom_site_fract_y
_atom_site_fract_z
Si Si1 0.106289 0.271187 0.821776
Si Si2 0.788508 0.821002 0.179233
Si Si3 0.096392 0.728764 0.678236
Si Si4 0.884512 0.004180 0.670375
Si Si5 0.298461 0.320978 0.179175
Si Si6 0.399534 0.404760 0.323284
Si Si7 0.109388 0.095460 0.678795
O O1 0.143192 0.221171 0.782009
O O2 0.191495 0.305235 0.781030
O O3 0.004970 0.280890 0.749966
O O4 0.097986 0.272255 0.000000
O O5 0.681566 0.805285 0.219245
O O6 0.824186 0.865239 0.260558
O O7 0.792749 0.826704 0.000000
O O8 0.088186 0.727651 0.500000
O O9 0.133281 0.778789 0.717844
O O10 0.855042 0.013117 0.500000
O O11 0.861399 0.046463 0.772203
O O12 0.852009 0.954474 0.716780
O O13 0.000000 0.000000 0.669898
O O14 0.333885 0.365259 0.260074
O O15 0.302795 0.326779 0.000000
O O16 0.407355 0.402441 0.500000
O O17 0.504662 0.399334 0.250921
O O18 0.099778 0.097275 0.500000
#
# Coordination Sequence:
#
# PCOD9441543 Si02
#       7
#     8   8   8   8   8   8   8
#     4   9  18  31  46  64  88 118 151 184 215 253
#     4   9  18  31  45  65  91 117 147 182 219 257
#     4   9  18  31  46  64  89 119 148 181 220 258
#     4   8  16  30  44  60  86 117 146 176 213 260
#     4   9  18  32  46  62  88 121 151 178 215 260
#     4  11  20  28  43  67  91 116 147 182 219 259
#     4  10  19  30  45  65  89 119 150 178 214 261
#
# _framework density 14.900611
#
# number of rings (size 3 to 8) (size 9 to 14) (size 15 to 20)
#    0.000    2.714    0.000    5.143    0.000    7.714 
#    0.000    2.857    0.000    0.000    0.000    1.000 
#    0.000    8.000    0.000    0.000    0.000    0.000 
#
# Total GULP energy -312108.814582 kJ/mol
# GULP energy per Si atom -5573.371689 kJ/mol
# Density = 1.486670 g / cm^3
# Si number density = 14.900611 Si / 1000 Ang^3
#
#
#
# Elastic Constant Matrix: (Units=GPa)
#
#
# Indices 1 2 3 4 5 6 
#
# 1 93.6824 63.4996 40.5121 0.0000 0.0000 0.0000
# 2 63.4996 142.1894 62.1997 0.0000 0.0000 0.0000
# 3 40.5121 62.1997 53.7029 0.0000 0.0000 0.0000
# 4 0.0000 0.0000 0.0000 38.7366 0.0000 0.0000
# 5 0.0000 0.0000 0.0000 0.0000 25.4325 0.0000
# 6 0.0000 0.0000 0.0000 0.0000 0.0000 20.8041
#
#
#
# Elastic Compliance Matrix: (Units=1/GPa)
#
#
# Indices 1 2 3 4 5 6 
#
# 1 0.016891 -0.003992 -0.008119 0.000000 0.000000 0.000000
# 2 -0.003992 0.015199 -0.014592 0.000000 0.000000 0.000000
# 3 -0.008119 -0.014592 0.041647 0.000000 0.000000 0.000000
# 4 0.000000 0.000000 0.000000 0.025815 0.000000 0.000000
# 5 0.000000 0.000000 0.000000 0.000000 0.039320 0.000000
# 6 0.000000 0.000000 0.000000 0.000000 0.000000 0.048067
#
#
# Mechanical properties :
#
#
# Convention : Reuss Voigt Hill
#
# Bulk Modulus (GPa) = 49.18655 69.11082 59.14869
# Shear Modulus (GPa) = 20.23299 25.21888 22.72593
#
# Velocity S-wave (km/s) = 3.68892 4.11843 3.90958
# Velocity P-wave (km/s) = 7.15720 8.31247 7.75638
#
# Compressibility (1/GPa) = 0.02033076
#
# Stress axis : x y z
#
# Youngs Moduli (GPa) = 59.20347 65.79474 24.01156
#
# Poissons Ratio (x) = 0.26263 0.19494
# Poissons Ratio (y) = 0.23632 0.35038
# Poissons Ratio (z) = 0.48066 0.96009
#
# Static dielectric constant tensor:
#      x y z
#    x 1.473200 0.000000 0.000000 
#    y 0.000000 1.500980 0.000000 
#    z 0.000000 0.000000 1.494720 
# 
# From -- ./inp_files/7115.got.cif
#   From: 2010.05.17/outbox.cif.g08.bks.cpg/sg58_4_cif.got.tgz:7115.got - 2010.06.03 14:20:14.
