data_PCOD9441473
_publ_section_title
;
Structure prediction by ZEFSAII (Michael W. Deem and Ramdas Pophale) SiO2 
 PCOD9441473
Probable space group: P N N M
;
_chemical_formula_sum "Si O2"
_cell_formula_units_Z 34
_cell_length_a 9.189314
_cell_length_b 7.308732
_cell_length_c 21.941054
_cell_angle_alpha 90.000000
_cell_angle_beta 90.000000
_cell_angle_gamma 90.000000
_cell_volume 1473.610187
_symmetry_space_group_name_H-M "P N N M"
_symmetry_group_IT_number 58
_symmetry_cell_setting 'orthorhombic'
loop_
_space_group_symop_operation_xyz
x,y,z
-x,-y,z
1/2+x,1/2-y,1/2-z
1/2-x,1/2+y,1/2-z
-x,-y,-z
x,y,-z
1/2-x,1/2+y,1/2+z
1/2+x,1/2-y,1/2+z
loop_
_atom_site_type_symbol
_atom_site_label
_atom_site_fract_x
_atom_site_fract_y
_atom_site_fract_z
Si Si1 0.190679 0.846095 0.070197
Si Si2 0.124714 0.249404 0.900077
Si Si3 0.177073 0.695151 0.291442
Si Si4 0.500000 0.000000 0.500000
Si Si5 0.140997 0.268217 0.677849
O O1 0.320964 0.750552 0.106395
O O2 0.044410 0.805891 0.107991
O O3 0.199451 0.067425 0.070453
O O4 0.161532 0.783563 0.000000
O O5 0.206235 0.284658 0.837229
O O6 0.109422 0.414414 0.946563
O O7 0.157748 0.486048 0.311873
O O8 0.240256 0.689115 0.223864
O O9 0.020210 0.785899 0.301427
#
# Coordination Sequence:
#
# PCOD9441473 Si02
#       5
#     8   8   8   2   8
#     4  10  18  38  59  86 115 166 196 244 288 375
#     4  10  20  35  59  84 120 151 205 236 301 347
#     4  10  22  40  58  92 115 160 198 257 296 368
#     4  12  20  34  56  92 112 156 186 254 284 356
#     4  10  22  39  63  87 122 153 208 246 313 350
#
# _framework density 23.072586999999999
#
# number of rings (size 3 to 8) (size 9 to 14) (size 15 to 20)
#    0.000    1.882    2.353    2.118    0.000    6.588 
#    2.118    2.353    0.000    1.412    0.000    0.000 
#    0.000    0.000    0.000    0.000    0.000    0.000 
#
# Total GULP energy -189375.375877 kJ/mol
# GULP energy per Si atom -5569.863996 kJ/mol
# Density = 2.302007 g / cm^3
# Si number density = 23.072587 Si / 1000 Ang^3
#
#
#
# Elastic Constant Matrix: (Units=GPa)
#
#
# Indices 1 2 3 4 5 6 
#
# 1 102.0242 15.5971 71.0088 0.0000 0.0000 0.0000
# 2 15.5971 61.1519 20.0205 0.0000 0.0000 0.0000
# 3 71.0088 20.0205 138.4114 0.0000 0.0000 0.0000
# 4 0.0000 0.0000 0.0000 33.3469 0.0000 0.0000
# 5 0.0000 0.0000 0.0000 0.0000 36.4488 0.0000
# 6 0.0000 0.0000 0.0000 0.0000 0.0000 12.7617
#
#
#
# Elastic Compliance Matrix: (Units=1/GPa)
#
#
# Indices 1 2 3 4 5 6 
#
# 1 0.015359 -0.001404 -0.007677 0.000000 0.000000 0.000000
# 2 -0.001404 0.017294 -0.001781 0.000000 0.000000 0.000000
# 3 -0.007677 -0.001781 0.011421 0.000000 0.000000 0.000000
# 4 0.000000 0.000000 0.000000 0.029988 0.000000 0.000000
# 5 0.000000 0.000000 0.000000 0.000000 0.027436 0.000000
# 6 0.000000 0.000000 0.000000 0.000000 0.000000 0.078359
#
#
# Mechanical properties :
#
#
# Convention : Reuss Voigt Hill
#
# Bulk Modulus (GPa) = 44.74238 57.20449 50.97344
# Shear Modulus (GPa) = 23.91996 29.50887 26.71442
#
# Velocity S-wave (km/s) = 3.22332 3.58013 3.40640
# Velocity P-wave (km/s) = 5.76950 6.47587 6.13286
#
# Compressibility (1/GPa) = 0.02235017
#
# Stress axis : x y z
#
# Youngs Moduli (GPa) = 65.10781 57.82360 87.55993
#
# Poissons Ratio (x) = 0.08120 0.67216
# Poissons Ratio (y) = 0.09142 0.15595
# Poissons Ratio (z) = 0.49980 0.10299
#
# Static dielectric constant tensor:
#      x y z
#    x 1.853360 0.000000 0.000000 
#    y 0.000000 1.733270 0.000000 
#    z 0.000000 0.000000 1.863470 
# 
# From -- ./inp_files/28537.got.cif
#   From: 2010.05.17/outbox.cif.g08.bks.cpg/sg58_15_cif.got.tgz:28537.got - 2010.06.03 14:20:14.
