data_PCOD9441211
_publ_section_title
;
Structure prediction by ZEFSAII (Michael W. Deem and Ramdas Pophale) SiO2 
 PCOD9441211
Probable space group: P N N M
;
_chemical_formula_sum "Si O2"
_cell_formula_units_Z 48
_cell_length_a 8.582420
_cell_length_b 14.178244
_cell_length_c 17.859589
_cell_angle_alpha 90.000000
_cell_angle_beta 90.000000
_cell_angle_gamma 90.000000
_cell_volume 2173.219885
_symmetry_space_group_name_H-M "P N N M"
_symmetry_group_IT_number 58
_symmetry_cell_setting 'orthorhombic'
loop_
_space_group_symop_operation_xyz
x,y,z
-x,-y,z
1/2+x,1/2-y,1/2-z
1/2-x,1/2+y,1/2-z
-x,-y,-z
x,y,-z
1/2-x,1/2+y,1/2+z
1/2+x,1/2-y,1/2+z
loop_
_atom_site_type_symbol
_atom_site_label
_atom_site_fract_x
_atom_site_fract_y
_atom_site_fract_z
Si Si1 0.312506 0.164070 0.799269
Si Si2 0.336731 0.842062 0.130743
Si Si3 0.262568 0.373798 0.211726
Si Si4 0.816465 0.975975 0.080720
Si Si5 0.500000 0.500000 0.131157
Si Si6 0.000000 0.500000 0.861886
Si Si7 0.261788 0.137483 0.382065
O O1 0.492501 0.163460 0.829483
O O2 0.243731 0.267488 0.817294
O O3 0.227161 0.086553 0.848421
O O4 0.285800 0.144957 0.710114
O O5 0.222346 0.860682 0.200449
O O6 0.288985 0.742097 0.095367
O O7 0.298052 0.933112 0.082057
O O8 0.415461 0.421359 0.180226
O O9 0.125765 0.445105 0.189025
O O10 0.790696 0.926852 0.000000
O O11 0.000000 0.000000 0.084179
O O12 0.631615 0.437801 0.092612
O O13 0.081052 0.584940 0.906504
#
# Coordination Sequence:
#
# PCOD9441211 Si02
#       7
#     8   8   8   8   4   4   8
#     4  11  22  36  55  82 117 153 198 236 288 349
#     4  11  22  36  55  82 117 153 198 236 288 349
#     4  10  21  32  53  88 120 152 182 235 294 356
#     4  11  27  43  60  83 111 157 206 247 290 335
#     4  10  18  32  48  78 120 146 172 220 292 350
#     4  10  18  32  50  78 120 146 180 216 288 350
#     4  10  21  32  53  88 120 152 182 235 294 356
#
# _framework density 22.087042
#
# number of rings (size 3 to 8) (size 9 to 14) (size 15 to 20)
#    0.000    1.500    3.333    2.500    7.000    1.333 
#    0.000    0.000    0.000    0.000    0.000    7.000 
#    0.000    0.000    0.000    0.000    0.000    0.000 
#
# Total GULP energy -267661.833124 kJ/mol
# GULP energy per Si atom -5576.288190 kJ/mol
# Density = 2.203677 g / cm^3
# Si number density = 22.087042 Si / 1000 Ang^3
#
#
#
# Elastic Constant Matrix: (Units=GPa)
#
#
# Indices 1 2 3 4 5 6 
#
# 1 54.0342 21.8833 4.0626 0.0000 0.0000 0.0000
# 2 21.8833 140.2456 21.6142 0.0000 0.0000 0.0000
# 3 4.0626 21.6142 70.0475 0.0000 0.0000 0.0000
# 4 0.0000 0.0000 0.0000 -10.0905 0.0000 0.0000
# 5 0.0000 0.0000 0.0000 0.0000 116.8671 0.0000
# 6 0.0000 0.0000 0.0000 0.0000 0.0000 42.6757
#
#
#
# Elastic Compliance Matrix: (Units=1/GPa)
#
#
# Indices 1 2 3 4 5 6 
#
# 1 0.019758 -0.003051 -0.000204 0.000000 0.000000 0.000000
# 2 -0.003051 0.007958 -0.002278 0.000000 0.000000 0.000000
# 3 -0.000204 -0.002278 0.014991 0.000000 0.000000 0.000000
# 4 0.000000 0.000000 0.000000 -0.099104 0.000000 0.000000
# 5 0.000000 0.000000 0.000000 0.000000 0.008557 0.000000
# 6 0.000000 0.000000 0.000000 0.000000 0.000000 0.023433
#
#
# Mechanical properties :
#
#
# Convention : Reuss Voigt Hill
#
# Bulk Modulus (GPa) = 31.60753 39.93860 35.77306
# Shear Modulus (GPa) = -1790.03709 44.34163 -872.84773
#
# Velocity S-wave (km/s) = -28.49923 4.48547 -19.90084
# Velocity P-wave (km/s) = 32.68945 6.70429 22.62358
#
# Compressibility (1/GPa) = 0.03163803
#
# Stress axis : x y z
#
# Youngs Moduli (GPa) = 50.61245 125.66552 66.70698
#
# Poissons Ratio (x) = 0.38346 0.01363
# Poissons Ratio (y) = 0.15444 0.15199
# Poissons Ratio (z) = 0.01034 0.28633
#
# Static dielectric constant tensor:
#      x y z
#    x 1.857980 0.000000 0.000000 
#    y 0.000000 1.853070 0.000000 
#    z 0.000000 0.000000 1.823360 
# 
# From -- ./inp_files/28860.got.cif
#   From: 2010.05.17/outbox.cif.g08.bks.cpg/sg58_15_cif.got.tgz:28860.got - 2010.06.03 14:20:14.
