data_PCOD9441876
_publ_section_title
;
Structure prediction by ZEFSAII (Michael W. Deem and Ramdas Pophale) SiO2 
 PCOD9441876
Probable space group: P N N M
;
_chemical_formula_sum "Si O2"
_cell_formula_units_Z 64
_cell_length_a 16.760971
_cell_length_b 20.921894
_cell_length_c 9.256167
_cell_angle_alpha 90.000000
_cell_angle_beta 90.000000
_cell_angle_gamma 90.000000
_cell_volume 3245.871732
_symmetry_space_group_name_H-M "P N N M"
_symmetry_group_IT_number 58
_symmetry_cell_setting 'orthorhombic'
loop_
_space_group_symop_operation_xyz
x,y,z
-x,-y,z
1/2+x,1/2-y,1/2-z
1/2-x,1/2+y,1/2-z
-x,-y,-z
x,y,-z
1/2-x,1/2+y,1/2+z
1/2+x,1/2-y,1/2+z
loop_
_atom_site_type_symbol
_atom_site_label
_atom_site_fract_x
_atom_site_fract_y
_atom_site_fract_z
Si Si1 0.143660 0.522478 0.669111
Si Si2 0.281240 0.629659 0.666534
Si Si3 0.599699 0.195174 0.173437
Si Si4 0.733200 0.103164 0.824726
Si Si5 0.934539 0.842701 0.327224
Si Si6 0.401439 0.358036 0.327965
Si Si7 0.328663 0.217963 0.661548
Si Si8 0.969068 0.387724 0.835947
O O1 0.121190 0.516420 0.500000
O O2 0.217567 0.572252 0.676997
O O3 0.178393 0.455470 0.723781
O O4 0.070885 0.551878 0.757921
O O5 0.304271 0.637351 0.500000
O O6 0.359146 0.619897 0.762981
O O7 0.235135 0.691957 0.725650
O O8 0.687794 0.169039 0.211270
O O9 0.579916 0.267890 0.215086
O O10 0.538501 0.146014 0.246032
O O11 0.591357 0.191182 0.000000
O O12 0.824992 0.100875 0.777663
O O13 0.736203 0.099852 0.000000
O O14 0.936817 0.846309 0.500000
O O15 0.017253 0.865780 0.258395
O O16 0.414912 0.367723 0.500000
O O17 0.369908 0.285368 0.308988
O O18 0.291725 0.220949 0.500000
O O19 0.398555 0.165260 0.658756
O O20 0.993673 0.401889 0.000000
#
# Coordination Sequence:
#
# PCOD9441876 Si02
#       8
#     8   8   8   8   8   8   8   8
#     4   9  19  37  57  78 105 141 189 229 261 311
#     4  10  20  33  54  79 104 137 179 223 266 316
#     4  10  20  35  56  81 110 141 177 219 266 324
#     4   9  19  36  58  79 102 141 187 229 266 311
#     4  11  22  35  54  82 113 140 174 220 275 330
#     4  10  19  35  57  79 107 141 179 223 274 325
#     4   9  17  31  52  77 107 138 171 213 269 323
#     4  10  19  32  53  81 112 145 174 214 268 318
#
# _framework density 19.717355000000001
#
# number of rings (size 3 to 8) (size 9 to 14) (size 15 to 20)
#    0.000    2.250    1.250    1.875    0.000    4.500 
#    0.000    5.000    0.000    3.750    0.000    0.000 
#    0.000    0.000    0.000    0.000    0.000    0.000 
#
# Total GULP energy -357302.086980 kJ/mol
# GULP energy per Si atom -5582.845109 kJ/mol
# Density = 1.967248 g / cm^3
# Si number density = 19.717355 Si / 1000 Ang^3
#
#
#
# Elastic Constant Matrix: (Units=GPa)
#
#
# Indices 1 2 3 4 5 6 
#
# 1 72.3809 -11.2792 22.5695 0.0000 0.0000 0.0000
# 2 -11.2792 33.1143 6.7731 0.0000 0.0000 0.0000
# 3 22.5695 6.7731 34.9733 0.0000 0.0000 0.0000
# 4 0.0000 0.0000 0.0000 13.2406 0.0000 0.0000
# 5 0.0000 0.0000 0.0000 0.0000 32.8465 0.0000
# 6 0.0000 0.0000 0.0000 0.0000 0.0000 22.2672
#
#
#
# Elastic Compliance Matrix: (Units=1/GPa)
#
#
# Indices 1 2 3 4 5 6 
#
# 1 0.019954 0.009820 -0.014779 0.000000 0.000000 0.000000
# 2 0.009820 0.036276 -0.013362 0.000000 0.000000 0.000000
# 3 -0.014779 -0.013362 0.040718 0.000000 0.000000 0.000000
# 4 0.000000 0.000000 0.000000 0.075525 0.000000 0.000000
# 5 0.000000 0.000000 0.000000 0.000000 0.030445 0.000000
# 6 0.000000 0.000000 0.000000 0.000000 0.000000 0.044909
#
#
# Mechanical properties :
#
#
# Convention : Reuss Voigt Hill
#
# Bulk Modulus (GPa) = 16.58223 19.62170 18.10197
# Shear Modulus (GPa) = 16.41642 21.83120 19.12381
#
# Velocity S-wave (km/s) = 2.88859 3.33108 3.11770
# Velocity P-wave (km/s) = 4.42193 4.97674 4.70752
#
# Compressibility (1/GPa) = 0.06030551
#
# Stress axis : x y z
#
# Youngs Moduli (GPa) = 50.11451 27.56630 24.55894
#
# Poissons Ratio (x) = -0.27069 0.36295
# Poissons Ratio (y) = -0.49210 0.32816
# Poissons Ratio (z) = 0.74064 0.36835
#
# Static dielectric constant tensor:
#      x y z
#    x 1.700730 0.000000 0.000000 
#    y 0.000000 1.710020 0.000000 
#    z 0.000000 0.000000 1.671510 
# 
# From -- ./inp_files/6871.got.cif
#   From: 2010.05.17/outbox.cif.g08.bks.cpg/sg58_4_cif.got.tgz:6871.got - 2010.06.03 14:20:14.
