data_PCOD9441888
_publ_section_title
;
Structure prediction by ZEFSAII (Michael W. Deem and Ramdas Pophale) SiO2 
 PCOD9441888
Probable space group: P N N M
;
_chemical_formula_sum "Si O2"
_cell_formula_units_Z 56
_cell_length_a 14.875277
_cell_length_b 22.150194
_cell_length_c 7.373896
_cell_angle_alpha 90.000000
_cell_angle_beta 90.000000
_cell_angle_gamma 90.000000
_cell_volume 2429.626994
_symmetry_space_group_name_H-M "P N N M"
_symmetry_group_IT_number 58
_symmetry_cell_setting 'orthorhombic'
loop_
_space_group_symop_operation_xyz
x,y,z
-x,-y,z
1/2+x,1/2-y,1/2-z
1/2-x,1/2+y,1/2-z
-x,-y,-z
x,y,-z
1/2-x,1/2+y,1/2+z
1/2+x,1/2-y,1/2+z
loop_
_atom_site_type_symbol
_atom_site_label
_atom_site_fract_x
_atom_site_fract_y
_atom_site_fract_z
Si Si1 0.278562 0.486108 0.218800
Si Si2 0.396776 0.377416 0.221226
Si Si3 0.595110 0.759249 0.786782
Si Si4 0.913254 0.676168 0.721995
Si Si5 0.793791 0.785558 0.717682
Si Si6 0.402154 0.596674 0.778902
Si Si7 0.080730 0.460234 0.711981
O O1 0.317991 0.421851 0.282061
O O2 0.343753 0.539683 0.280697
O O3 0.175807 0.493537 0.273997
O O4 0.280674 0.486297 0.000000
O O5 0.392710 0.308566 0.286657
O O6 0.493752 0.404180 0.273866
O O7 0.393522 0.376587 0.000000
O O8 0.508198 0.794736 0.718513
O O9 0.689682 0.792657 0.765470
O O10 0.577273 0.751683 0.000000
O O11 0.910492 0.675580 0.500000
O O12 0.834512 0.721712 0.781748
O O13 0.907134 0.607429 0.786725
O O14 0.799299 0.785389 0.500000
O O15 0.855222 0.841088 0.780320
O O16 0.401625 0.596494 0.000000
O O17 0.059013 0.451469 0.500000
O O18 0.000000 0.500000 0.790681
#
# Coordination Sequence:
#
# PCOD9441888 Si02
#       7
#     8   8   8   8   8   8   8
#     4  10  20  33  54  81 105 130 166 215 261 296
#     4   9  16  31  54  80 105 133 167 205 253 312
#     4  10  19  32  54  78 101 131 170 211 251 297
#     4   9  18  35  55  73  99 138 174 205 247 305
#     4  10  19  33  53  76 103 135 170 208 254 305
#     4   9  17  31  52  78 105 133 167 205 252 312
#     4  10  22  38  54  72 100 141 182 210 246 305
#
# _framework density 23.048805999999999
#
# number of rings (size 3 to 8) (size 9 to 14) (size 15 to 20)
#    0.000    2.429    1.429    1.286    2.000    2.000 
#    0.000    1.429    0.000    3.429    0.000    0.000 
#    0.000    0.000    0.000    0.000    0.000    0.000 
#
# Total GULP energy -313045.895586 kJ/mol
# GULP energy per Si atom -5590.105278 kJ/mol
# Density = 2.299635 g / cm^3
# Si number density = 23.048806 Si / 1000 Ang^3
#
#
#
# Elastic Constant Matrix: (Units=GPa)
#
#
# Indices 1 2 3 4 5 6 
#
# 1 105.8042 -5.3731 -17.4025 0.0000 0.0000 0.0000
# 2 -5.3731 51.3113 2.2447 0.0000 0.0000 0.0000
# 3 -17.4025 2.2447 78.8571 0.0000 0.0000 0.0000
# 4 0.0000 0.0000 0.0000 -14.8109 0.0000 0.0000
# 5 0.0000 0.0000 0.0000 0.0000 5.8054 0.0000
# 6 0.0000 0.0000 0.0000 0.0000 0.0000 31.7599
#
#
#
# Elastic Compliance Matrix: (Units=1/GPa)
#
#
# Indices 1 2 3 4 5 6 
#
# 1 0.009852 0.000938 0.002148 0.000000 0.000000 0.000000
# 2 0.000938 0.019602 -0.000351 0.000000 0.000000 0.000000
# 3 0.002148 -0.000351 0.013165 0.000000 0.000000 0.000000
# 4 0.000000 0.000000 0.000000 -0.067518 0.000000 0.000000
# 5 0.000000 0.000000 0.000000 0.000000 0.172253 0.000000
# 6 0.000000 0.000000 0.000000 0.000000 0.000000 0.031486
#
#
# Mechanical properties :
#
#
# Convention : Reuss Voigt Hill
#
# Bulk Modulus (GPa) = 20.79511 21.65677 21.22594
# Shear Modulus (GPa) = 26.39885 21.65112 24.02498
#
# Velocity S-wave (km/s) = 3.38797 3.06822 3.23205
# Velocity P-wave (km/s) = 4.93419 4.68705 4.81221
#
# Compressibility (1/GPa) = 0.04808823
#
# Stress axis : x y z
#
# Youngs Moduli (GPa) = 101.49954 51.01411 75.95847
#
# Poissons Ratio (x) = -0.04784 -0.16312
# Poissons Ratio (y) = -0.09518 0.02666
# Poissons Ratio (z) = -0.21797 0.01791
#
# Static dielectric constant tensor:
#      x y z
#    x 1.801020 0.000000 0.000000 
#    y 0.000000 1.838890 0.000000 
#    z 0.000000 0.000000 1.891680 
# 
# From -- ./inp_files/6442.got.cif
#   From: 2010.05.17/outbox.cif.g08.bks.cpg/sg58_4_cif.got.tgz:6442.got - 2010.06.03 14:20:14.
