data_PCOD9441637
_publ_section_title
;
Structure prediction by ZEFSAII (Michael W. Deem and Ramdas Pophale) SiO2 
 PCOD9441637
Probable space group: P N N M
;
_chemical_formula_sum "Si O2"
_cell_formula_units_Z 56
_cell_length_a 13.894215
_cell_length_b 29.819963
_cell_length_c 8.987845
_cell_angle_alpha 90.000000
_cell_angle_beta 90.000000
_cell_angle_gamma 90.000000
_cell_volume 3723.888675
_symmetry_space_group_name_H-M "P N N M"
_symmetry_group_IT_number 58
_symmetry_cell_setting 'orthorhombic'
loop_
_space_group_symop_operation_xyz
x,y,z
-x,-y,z
1/2+x,1/2-y,1/2-z
1/2-x,1/2+y,1/2-z
-x,-y,-z
x,y,-z
1/2-x,1/2+y,1/2+z
1/2+x,1/2-y,1/2+z
loop_
_atom_site_type_symbol
_atom_site_label
_atom_site_fract_x
_atom_site_fract_y
_atom_site_fract_z
Si Si1 0.302256 0.679415 0.675679
Si Si2 0.720226 0.684509 0.321418
Si Si3 0.883423 0.995517 0.171162
Si Si4 0.610341 0.593880 0.679168
Si Si5 0.610007 0.767061 0.821969
Si Si6 0.905317 0.726277 0.822033
Si Si7 0.599971 0.404204 0.176199
O O1 0.310677 0.669190 0.500000
O O2 0.194130 0.696568 0.705679
O O3 0.370073 0.722508 0.706215
O O4 0.335456 0.636821 0.767905
O O5 0.724465 0.689924 0.500000
O O6 0.680287 0.635079 0.287516
O O7 0.647335 0.721182 0.253149
O O8 0.823395 0.695042 0.249410
O O9 0.859973 0.952055 0.267049
O O10 0.850051 0.044712 0.223012
O O11 0.853892 0.988103 0.000000
O O12 0.000000 0.000000 0.172481
O O13 0.595672 0.592255 0.500000
O O14 0.506527 0.601235 0.753290
O O15 0.508579 0.780353 0.752027
O O16 0.602731 0.760915 0.000000
O O17 0.908621 0.720220 0.000000
O O18 0.592049 0.404351 0.000000
#
# Coordination Sequence:
#
# PCOD9441637 Si02
#       7
#     8   8   8   8   8   8   8
#     4   9  19  33  46  62  88 122 154 180 214 266
#     4  10  19  31  48  69  92 119 153 188 222 264
#     4   8  15  29  45  60  85 120 151 178 215 266
#     4   9  18  31  46  64  89 123 154 179 216 267
#     4  10  20  33  48  67  91 120 154 189 225 264
#     4  10  20  33  48  67  92 121 152 186 225 267
#     4  11  20  27  42  68  93 117 148 187 226 262
#
# _framework density 15.038043
#
# number of rings (size 3 to 8) (size 9 to 14) (size 15 to 20)
#    0.000    2.429    0.000    5.143    0.000   10.571 
#    0.000    0.000    0.000    0.000    0.000    1.000 
#    0.000    8.000    0.000    0.000    0.000    0.000 
#
# Total GULP energy -312265.610529 kJ/mol
# GULP energy per Si atom -5576.171617 kJ/mol
# Density = 1.500382 g / cm^3
# Si number density = 15.038043 Si / 1000 Ang^3
#
#
#
# Elastic Constant Matrix: (Units=GPa)
#
#
# Indices 1 2 3 4 5 6 
#
# 1 82.0031 51.5177 47.9278 0.0000 0.0000 0.0000
# 2 51.5177 125.3637 68.7459 0.0000 0.0000 0.0000
# 3 47.9278 68.7459 72.2010 0.0000 0.0000 0.0000
# 4 0.0000 0.0000 0.0000 21.7757 0.0000 0.0000
# 5 0.0000 0.0000 0.0000 0.0000 23.4895 0.0000
# 6 0.0000 0.0000 0.0000 0.0000 0.0000 17.4732
#
#
#
# Elastic Compliance Matrix: (Units=1/GPa)
#
#
# Indices 1 2 3 4 5 6 
#
# 1 0.020157 -0.001980 -0.011496 0.000000 0.000000 0.000000
# 2 -0.001980 0.016887 -0.014765 0.000000 0.000000 0.000000
# 3 -0.011496 -0.014765 0.035539 0.000000 0.000000 0.000000
# 4 0.000000 0.000000 0.000000 0.045923 0.000000 0.000000
# 5 0.000000 0.000000 0.000000 0.000000 0.042572 0.000000
# 6 0.000000 0.000000 0.000000 0.000000 0.000000 0.057230
#
#
# Mechanical properties :
#
#
# Convention : Reuss Voigt Hill
#
# Bulk Modulus (GPa) = 62.09862 68.43897 65.26880
# Shear Modulus (GPa) = 17.84720 19.97278 18.90999
#
# Velocity S-wave (km/s) = 3.44874 3.64833 3.54994
# Velocity P-wave (km/s) = 7.56587 7.95968 7.76527
#
# Compressibility (1/GPa) = 0.01610342
#
# Stress axis : x y z
#
# Youngs Moduli (GPa) = 49.61030 59.21792 28.13793
#
# Poissons Ratio (x) = 0.11723 0.32346
# Poissons Ratio (y) = 0.09821 0.41545
# Poissons Ratio (z) = 0.57030 0.87433
#
# Static dielectric constant tensor:
#      x y z
#    x 1.476050 0.000000 0.000000 
#    y 0.000000 1.508890 0.000000 
#    z 0.000000 0.000000 1.500550 
# 
# From -- ./inp_files/7116.got.cif
#   From: 2010.05.17/outbox.cif.g08.bks.cpg/sg58_4_cif.got.tgz:7116.got - 2010.06.03 14:20:14.
