data_PCOD9441311
_publ_section_title
;
Structure prediction by ZEFSAII (Michael W. Deem and Ramdas Pophale) SiO2 
 PCOD9441311
Probable space group: P N N M
;
_chemical_formula_sum "Si O2"
_cell_formula_units_Z 64
_cell_length_a 12.862635
_cell_length_b 16.493070
_cell_length_c 14.356802
_cell_angle_alpha 90.000000
_cell_angle_beta 90.000000
_cell_angle_gamma 90.000000
_cell_volume 3045.714277
_symmetry_space_group_name_H-M "P N N M"
_symmetry_group_IT_number 58
_symmetry_cell_setting 'orthorhombic'
loop_
_space_group_symop_operation_xyz
x,y,z
-x,-y,z
1/2+x,1/2-y,1/2-z
1/2-x,1/2+y,1/2-z
-x,-y,-z
x,y,-z
1/2-x,1/2+y,1/2+z
1/2+x,1/2-y,1/2+z
loop_
_atom_site_type_symbol
_atom_site_label
_atom_site_fract_x
_atom_site_fract_y
_atom_site_fract_z
Si Si1 0.320855 0.076130 0.603710
Si Si2 0.134992 0.880205 0.395968
Si Si3 0.233465 0.386275 0.284900
Si Si4 0.398773 0.745682 0.720865
Si Si5 0.693509 0.803776 0.891995
Si Si6 0.888529 0.466351 0.697010
Si Si7 0.403049 0.628425 0.896000
Si Si8 0.113376 0.764215 0.891784
O O1 0.353201 0.049310 0.500000
O O2 0.377922 0.036502 0.690597
O O3 0.195755 0.069775 0.612007
O O4 0.341641 0.172987 0.610446
O O5 0.177363 0.897088 0.500000
O O6 0.203481 0.905598 0.309096
O O7 0.131744 0.781324 0.387644
O O8 0.017083 0.909786 0.390562
O O9 0.131461 0.336603 0.251550
O O10 0.198105 0.468362 0.334257
O O11 0.305102 0.326328 0.345620
O O12 0.303534 0.714651 0.656889
O O13 0.397809 0.692277 0.813471
O O14 0.506564 0.737198 0.666461
O O15 0.636414 0.877311 0.840984
O O16 0.708322 0.824153 0.000000
O O17 0.000000 0.500000 0.668677
O O18 0.394831 0.665688 0.000000
O O19 0.094609 0.785014 0.000000
#
# Coordination Sequence:
#
# PCOD9441311 Si02
#       8
#     8   8   8   8   8   8   8   8
#     4  10  21  40  61  86 122 159 199 247 301 362
#     4   9  19  37  63  90 114 149 202 254 296 341
#     4  11  23  36  60  89 124 155 196 250 294 356
#     4  11  20  38  66  88 120 154 201 251 301 348
#     4  10  22  41  60  83 119 162 202 241 291 355
#     4  12  26  40  58  87 123 161 196 235 303 370
#     4  10  18  32  63  94 114 143 193 252 301 342
#     4  11  22  38  63  93 119 156 208 256 299 347
#
# _framework density 21.013134000000001
#
# number of rings (size 3 to 8) (size 9 to 14) (size 15 to 20)
#    0.000    1.500    3.750    1.875    1.750    2.000 
#    0.000    2.500    0.000    3.750    0.000    0.000 
#    0.000    0.000    0.000    0.000    0.000    0.000 
#
# Total GULP energy -357849.020833 kJ/mol
# GULP energy per Si atom -5591.390951 kJ/mol
# Density = 2.096531 g / cm^3
# Si number density = 21.013134 Si / 1000 Ang^3
#
#
#
# Elastic Constant Matrix: (Units=GPa)
#
#
# Indices 1 2 3 4 5 6 
#
# 1 83.9858 35.2377 21.3078 0.0000 0.0000 0.0000
# 2 35.2377 91.0925 28.3428 0.0000 0.0000 0.0000
# 3 21.3078 28.3428 104.3494 0.0000 0.0000 0.0000
# 4 0.0000 0.0000 0.0000 26.0767 0.0000 0.0000
# 5 0.0000 0.0000 0.0000 0.0000 23.4256 0.0000
# 6 0.0000 0.0000 0.0000 0.0000 0.0000 11.1659
#
#
#
# Elastic Compliance Matrix: (Units=1/GPa)
#
#
# Indices 1 2 3 4 5 6 
#
# 1 0.014444 -0.005101 -0.001564 0.000000 0.000000 0.000000
# 2 -0.005101 0.013793 -0.002705 0.000000 0.000000 0.000000
# 3 -0.001564 -0.002705 0.010637 0.000000 0.000000 0.000000
# 4 0.000000 0.000000 0.000000 0.038348 0.000000 0.000000
# 5 0.000000 0.000000 0.000000 0.000000 0.042688 0.000000
# 6 0.000000 0.000000 0.000000 0.000000 0.000000 0.089558
#
#
# Mechanical properties :
#
#
# Convention : Reuss Voigt Hill
#
# Bulk Modulus (GPa) = 49.66549 49.91158 49.78853
# Shear Modulus (GPa) = 21.28399 25.10294 23.19346
#
# Velocity S-wave (km/s) = 3.18605 3.46009 3.32589
# Velocity P-wave (km/s) = 6.10092 6.30612 6.20437
#
# Compressibility (1/GPa) = 0.02013471
#
# Stress axis : x y z
#
# Youngs Moduli (GPa) = 69.23470 72.50303 94.00993
#
# Poissons Ratio (x) = 0.36982 0.14702
# Poissons Ratio (y) = 0.35314 0.25427
# Poissons Ratio (z) = 0.10828 0.19610
#
# Static dielectric constant tensor:
#      x y z
#    x 1.762830 0.000000 0.000000 
#    y 0.000000 1.770350 0.000000 
#    z 0.000000 0.000000 1.738770 
# 
# From -- ./inp_files/21517.got.cif
#   From: 2010.05.17/outbox.cif.g08.bks.cpg/sg58_11_cif.got.tgz:21517.got - 2010.06.03 14:20:14.
