data_PCOD9441703
_publ_section_title
;
Structure prediction by ZEFSAII (Michael W. Deem and Ramdas Pophale) SiO2 
 PCOD9441703
Probable space group: P N N M
;
_chemical_formula_sum "Si O2"
_cell_formula_units_Z 64
_cell_length_a 8.870703
_cell_length_b 12.653123
_cell_length_c 30.762432
_cell_angle_alpha 90.000000
_cell_angle_beta 90.000000
_cell_angle_gamma 90.000000
_cell_volume 3452.839851
_symmetry_space_group_name_H-M "P N N M"
_symmetry_group_IT_number 58
_symmetry_cell_setting 'orthorhombic'
loop_
_space_group_symop_operation_xyz
x,y,z
-x,-y,z
1/2+x,1/2-y,1/2-z
1/2-x,1/2+y,1/2-z
-x,-y,-z
x,y,-z
1/2-x,1/2+y,1/2+z
1/2+x,1/2-y,1/2+z
loop_
_atom_site_type_symbol
_atom_site_label
_atom_site_fract_x
_atom_site_fract_y
_atom_site_fract_z
Si Si1 0.503362 0.241952 0.211529
Si Si2 0.152367 0.947176 0.684882
Si Si3 0.560603 0.117896 0.367237
Si Si4 0.538056 0.876245 0.121566
Si Si5 0.507999 0.243359 0.547823
Si Si6 0.806512 0.666989 0.548569
Si Si7 0.671825 0.843122 0.291722
Si Si8 0.230322 0.078334 0.048324
O O1 0.418257 0.355236 0.214563
O O2 0.457186 0.186635 0.166317
O O3 0.439516 0.173382 0.251166
O O4 0.683460 0.264615 0.210770
O O5 0.273943 0.892439 0.653634
O O6 0.249585 0.040951 0.706986
O O7 0.000000 0.000000 0.664567
O O8 0.569948 0.179373 0.412058
O O9 0.436472 0.167632 0.334012
O O10 0.500000 0.000000 0.375210
O O11 0.414427 0.825319 0.089538
O O12 0.682267 0.878438 0.090149
O O13 0.500000 0.000000 0.130061
O O14 0.548193 0.200654 0.500000
O O15 0.329094 0.251347 0.551727
O O16 0.571704 0.362860 0.549175
O O17 0.874132 0.677794 0.500000
O O18 0.741394 0.547503 0.550631
O O19 0.295286 0.104523 0.000000
#
# Coordination Sequence:
#
# PCOD9441703 Si02
#       8
#     8   8   8   8   8   8   8   8
#     4  11  21  36  56  79 108 136 176 227 268 317
#     4   9  20  38  58  79 103 140 182 216 264 327
#     4  10  20  36  55  74 102 137 174 216 263 316
#     4  10  20  31  49  77 105 136 173 217 265 312
#     4  10  19  31  51  76 100 132 174 217 260 308
#     4   9  17  31  49  72 105 139 171 208 255 316
#     4  10  22  37  57  80 104 141 178 215 271 329
#     4   9  17  30  48  72 104 140 172 205 256 320
#
# _framework density 18.535468000000002
#
# number of rings (size 3 to 8) (size 9 to 14) (size 15 to 20)
#    0.000    2.250    0.000    3.000    0.000    5.750 
#    0.000    0.000    0.000    3.375    0.000    0.000 
#    0.000    0.000    0.000    0.000    0.000    0.000 
#
# Total GULP energy -356416.804864 kJ/mol
# GULP energy per Si atom -5569.012576 kJ/mol
# Density = 1.849328 g / cm^3
# Si number density = 18.535468 Si / 1000 Ang^3
#
#
#
# Elastic Constant Matrix: (Units=GPa)
#
#
# Indices 1 2 3 4 5 6 
#
# 1 84.3079 19.5987 35.9824 0.0000 0.0000 0.0000
# 2 19.5987 23.2861 33.0718 0.0000 0.0000 0.0000
# 3 35.9824 33.0718 128.2363 0.0000 0.0000 0.0000
# 4 0.0000 0.0000 0.0000 21.1559 0.0000 0.0000
# 5 0.0000 0.0000 0.0000 0.0000 21.1895 0.0000
# 6 0.0000 0.0000 0.0000 0.0000 0.0000 23.6827
#
#
#
# Elastic Compliance Matrix: (Units=1/GPa)
#
#
# Indices 1 2 3 4 5 6 
#
# 1 0.014926 -0.010437 -0.001496 0.000000 0.000000 0.000000
# 2 -0.010437 0.075063 -0.016430 0.000000 0.000000 0.000000
# 3 -0.001496 -0.016430 0.012455 0.000000 0.000000 0.000000
# 4 0.000000 0.000000 0.000000 0.047268 0.000000 0.000000
# 5 0.000000 0.000000 0.000000 0.000000 0.047193 0.000000
# 6 0.000000 0.000000 0.000000 0.000000 0.000000 0.042225
#
#
# Mechanical properties :
#
#
# Convention : Reuss Voigt Hill
#
# Bulk Modulus (GPa) = 21.87363 45.90403 33.88883
# Shear Modulus (GPa) = 16.07213 23.01745 19.54479
#
# Velocity S-wave (km/s) = 2.94785 3.52775 3.25076
# Velocity P-wave (km/s) = 4.83870 6.43526 5.69323
#
# Compressibility (1/GPa) = 0.04571716
#
# Stress axis : x y z
#
# Youngs Moduli (GPa) = 66.99577 13.32211 80.28742
#
# Poissons Ratio (x) = 0.13905 0.12015
# Poissons Ratio (y) = 0.69926 1.31912
# Poissons Ratio (z) = 0.10026 0.21888
#
# Static dielectric constant tensor:
#      x y z
#    x 1.668970 0.000000 0.000000 
#    y 0.000000 1.645640 0.000000 
#    z 0.000000 0.000000 1.621670 
# 
# From -- ./inp_files/34787.got.cif
#   From: 2010.05.17/outbox.cif.g08.bks.cpg/sg58_18_cif.got.tgz:34787.got - 2010.06.03 14:20:14.
