data_PCOD9441626
_publ_section_title
;
Structure prediction by ZEFSAII (Michael W. Deem and Ramdas Pophale) SiO2 
 PCOD9441626
Probable space group: P N N M
;
_chemical_formula_sum "Si O2"
_cell_formula_units_Z 56
_cell_length_a 18.859210
_cell_length_b 21.421555
_cell_length_c 8.732229
_cell_angle_alpha 90.000000
_cell_angle_beta 90.000000
_cell_angle_gamma 90.000000
_cell_volume 3527.764667
_symmetry_space_group_name_H-M "P N N M"
_symmetry_group_IT_number 58
_symmetry_cell_setting 'orthorhombic'
loop_
_space_group_symop_operation_xyz
x,y,z
-x,-y,z
1/2+x,1/2-y,1/2-z
1/2-x,1/2+y,1/2-z
-x,-y,-z
x,y,-z
1/2-x,1/2+y,1/2+z
1/2+x,1/2-y,1/2+z
loop_
_atom_site_type_symbol
_atom_site_label
_atom_site_fract_x
_atom_site_fract_y
_atom_site_fract_z
Si Si1 0.582674 0.002248 0.184381
Si Si2 0.342482 0.128141 0.183568
Si Si3 0.152535 0.374334 0.183407
Si Si4 0.793422 0.186395 0.318223
Si Si5 0.425152 0.752329 0.817674
Si Si6 0.717447 0.308149 0.182704
Si Si7 0.079639 0.750094 0.181616
O O1 0.620930 0.060586 0.261785
O O2 0.500000 0.000000 0.228411
O O3 0.620180 0.936909 0.223100
O O4 0.585916 0.010037 0.000000
O O5 0.264235 0.134701 0.256790
O O6 0.389390 0.186090 0.245048
O O7 0.337744 0.133300 0.000000
O O8 0.236033 0.366371 0.224238
O O9 0.108832 0.317488 0.259601
O O10 0.146968 0.367812 0.000000
O O11 0.804870 0.185194 0.500000
O O12 0.752093 0.249482 0.270304
O O13 0.868461 0.194025 0.235399
O O14 0.366177 0.698706 0.787695
O O15 0.499711 0.740982 0.737421
O O16 0.435595 0.756776 0.000000
O O17 0.728162 0.301059 0.000000
O O18 0.082909 0.744092 0.000000
#
# Coordination Sequence:
#
# PCOD9441626 Si02
#       7
#     8   8   8   8   8   8   8
#     4  10  21  34  47  65  92 128 162 188 222 268
#     4  10  19  31  47  66  92 126 158 189 226 269
#     4  10  20  32  48  69  92 122 158 194 227 265
#     4   9  17  30  46  65  91 120 150 185 229 276
#     4  10  19  31  47  67  94 124 151 186 233 279
#     4   9  17  29  46  66  88 118 153 188 228 272
#     4  11  20  29  46  71  95 120 152 190 230 271
#
# _framework density 15.874074999999999
#
# number of rings (size 3 to 8) (size 9 to 14) (size 15 to 20)
#    0.000    2.143    0.000    6.000    0.000    6.000 
#    0.000    0.000    0.000    0.000    0.000    1.000 
#    0.000    8.000    0.000    0.000    0.000    0.000 
#
# Total GULP energy -312177.618058 kJ/mol
# GULP energy per Si atom -5574.600322 kJ/mol
# Density = 1.583794 g / cm^3
# Si number density = 15.874075 Si / 1000 Ang^3
#
#
#
# Elastic Constant Matrix: (Units=GPa)
#
#
# Indices 1 2 3 4 5 6 
#
# 1 139.8201 54.5261 43.1624 0.0000 0.0000 0.0000
# 2 54.5261 65.4756 25.7183 0.0000 0.0000 0.0000
# 3 43.1624 25.7183 51.9437 0.0000 0.0000 0.0000
# 4 0.0000 0.0000 0.0000 61.0422 0.0000 0.0000
# 5 0.0000 0.0000 0.0000 0.0000 29.3281 0.0000
# 6 0.0000 0.0000 0.0000 0.0000 0.0000 25.2623
#
#
#
# Elastic Compliance Matrix: (Units=1/GPa)
#
#
# Indices 1 2 3 4 5 6 
#
# 1 0.012032 -0.007564 -0.006253 0.000000 0.000000 0.000000
# 2 -0.007564 0.023715 -0.005457 0.000000 0.000000 0.000000
# 3 -0.006253 -0.005457 0.027149 0.000000 0.000000 0.000000
# 4 0.000000 0.000000 0.000000 0.016382 0.000000 0.000000
# 5 0.000000 0.000000 0.000000 0.000000 0.034097 0.000000
# 6 0.000000 0.000000 0.000000 0.000000 0.000000 0.039585
#
#
# Mechanical properties :
#
#
# Convention : Reuss Voigt Hill
#
# Bulk Modulus (GPa) = 41.06871 56.00588 48.53729
# Shear Modulus (GPa) = 25.04713 32.04868 28.54791
#
# Velocity S-wave (km/s) = 3.97654 4.49813 4.24535
# Velocity P-wave (km/s) = 6.85650 7.89528 7.39416
#
# Compressibility (1/GPa) = 0.02434944
#
# Stress axis : x y z
#
# Youngs Moduli (GPa) = 83.11160 42.16721 36.83345
#
# Poissons Ratio (x) = 0.31894 0.23032
# Poissons Ratio (y) = 0.62864 0.20099
# Poissons Ratio (z) = 0.51970 0.23009
#
# Static dielectric constant tensor:
#      x y z
#    x 1.562610 0.000000 0.000000 
#    y 0.000000 1.512380 0.000000 
#    z 0.000000 0.000000 1.532000 
# 
# From -- ./inp_files/8114.got.cif
#   From: 2010.05.17/outbox.cif.g08.bks.cpg/sg58_5_cif.got.tgz:8114.got - 2010.06.03 14:20:14.
