data_PCOD9441310
_publ_section_title
;
Structure prediction by ZEFSAII (Michael W. Deem and Ramdas Pophale) SiO2 
 PCOD9441310
Probable space group: P N N M
;
_chemical_formula_sum "Si O2"
_cell_formula_units_Z 56
_cell_length_a 21.643753
_cell_length_b 7.663676
_cell_length_c 13.643390
_cell_angle_alpha 90.000000
_cell_angle_beta 90.000000
_cell_angle_gamma 90.000000
_cell_volume 2263.038792
_symmetry_space_group_name_H-M "P N N M"
_symmetry_group_IT_number 58
_symmetry_cell_setting 'orthorhombic'
loop_
_space_group_symop_operation_xyz
x,y,z
-x,-y,z
1/2+x,1/2-y,1/2-z
1/2-x,1/2+y,1/2-z
-x,-y,-z
x,y,-z
1/2-x,1/2+y,1/2+z
1/2+x,1/2-y,1/2+z
loop_
_atom_site_type_symbol
_atom_site_label
_atom_site_fract_x
_atom_site_fract_y
_atom_site_fract_z
Si Si1 0.331376 0.487885 0.104583
Si Si2 0.936048 0.400207 0.394185
Si Si3 0.696408 0.928172 0.893913
Si Si4 0.518529 0.683249 0.281669
Si Si5 0.363895 0.466936 0.675691
Si Si6 0.897696 0.674548 0.887897
Si Si7 0.203667 0.606155 0.174475
O O1 0.317983 0.279799 0.102750
O O2 0.364138 0.521206 0.208476
O O3 0.264242 0.575569 0.111323
O O4 0.360599 0.538976 0.000000
O O5 0.933161 0.306254 0.500000
O O6 0.872898 0.510143 0.388844
O O7 0.000000 0.500000 0.396054
O O8 0.942309 0.290114 0.296514
O O9 0.723488 0.946022 0.785805
O O10 0.724159 0.976474 0.000000
O O11 0.500000 0.500000 0.232592
O O12 0.569594 0.612871 0.357912
O O13 0.459838 0.786573 0.324364
O O14 0.356741 0.648498 0.619861
O O15 0.317977 0.305295 0.665212
O O16 0.853686 0.517973 0.853571
O O17 0.916167 0.644805 0.000000
#
# Coordination Sequence:
#
# PCOD9441310 Si02
#       7
#     8   8   8   8   8   8   8
#     4  10  21  39  64  96 131 172 220 269 328 393
#     4  10  18  32  61  95 126 168 214 260 322 395
#     4   9  19  38  65  93 133 175 211 271 335 382
#     4  10  21  39  62  92 130 172 212 264 331 392
#     4  10  24  43  67  94 131 177 213 277 329 392
#     4  11  26  44  66  97 134 174 222 277 334 399
#     4  11  22  41  70  98 131 174 227 271 330 401
#
# _framework density 24.74549
#
# number of rings (size 3 to 8) (size 9 to 14) (size 15 to 20)
#    0.000    1.857    2.857    1.286    4.000    4.000 
#    0.000    3.571    0.000    0.000    0.000    0.000 
#    0.000    0.000    0.000    0.000    0.000    0.000 
#
# Total GULP energy -312614.809935 kJ/mol
# GULP energy per Si atom -5582.407320 kJ/mol
# Density = 2.468917 g / cm^3
# Si number density = 24.745490 Si / 1000 Ang^3
#
#
#
# Elastic Constant Matrix: (Units=GPa)
#
#
# Indices 1 2 3 4 5 6 
#
# 1 75.6693 18.9754 3.7778 0.0000 0.0000 0.0000
# 2 18.9754 74.4620 3.6012 0.0000 0.0000 0.0000
# 3 3.7778 3.6012 125.9947 0.0000 0.0000 0.0000
# 4 0.0000 0.0000 0.0000 6.4995 0.0000 0.0000
# 5 0.0000 0.0000 0.0000 0.0000 25.5238 0.0000
# 6 0.0000 0.0000 0.0000 0.0000 0.0000 42.0796
#
#
#
# Elastic Compliance Matrix: (Units=1/GPa)
#
#
# Indices 1 2 3 4 5 6 
#
# 1 0.014131 -0.003585 -0.000321 0.000000 0.000000 0.000000
# 2 -0.003585 0.014358 -0.000303 0.000000 0.000000 0.000000
# 3 -0.000321 -0.000303 0.007955 0.000000 0.000000 0.000000
# 4 0.000000 0.000000 0.000000 0.153859 0.000000 0.000000
# 5 0.000000 0.000000 0.000000 0.000000 0.039179 0.000000
# 6 0.000000 0.000000 0.000000 0.000000 0.000000 0.023764
#
#
# Mechanical properties :
#
#
# Convention : Reuss Voigt Hill
#
# Bulk Modulus (GPa) = 35.68281 36.53720 36.11000
# Shear Modulus (GPa) = 18.44974 31.47203 24.96088
#
# Velocity S-wave (km/s) = 2.73349 3.57014 3.17946
# Velocity P-wave (km/s) = 4.94104 5.63842 5.30121
#
# Compressibility (1/GPa) = 0.02802470
#
# Stress axis : x y z
#
# Youngs Moduli (GPa) = 70.76874 69.64765 125.70502
#
# Poissons Ratio (x) = 0.24971 0.04038
# Poissons Ratio (y) = 0.25373 0.03807
# Poissons Ratio (z) = 0.02273 0.02109
#
# Static dielectric constant tensor:
#      x y z
#    x 2.053170 0.000000 0.000000 
#    y 0.000000 2.007310 0.000000 
#    z 0.000000 0.000000 1.978090 
# 
# From -- ./inp_files/23256.got.cif
#   From: 2010.05.17/outbox.cif.g08.bks.cpg/sg58_12_cif.got.tgz:23256.got - 2010.06.03 14:20:14.
