data_PCOD9441073
_publ_section_title
;
Structure prediction by ZEFSAII (Michael W. Deem and Ramdas Pophale) SiO2 
 PCOD9441073
Probable space group: P N N M
;
_chemical_formula_sum "Si O2"
_cell_formula_units_Z 44
_cell_length_a 29.491805
_cell_length_b 7.680051
_cell_length_c 7.205460
_cell_angle_alpha 90.000000
_cell_angle_beta 90.000000
_cell_angle_gamma 90.000000
_cell_volume 1632.026361
_symmetry_space_group_name_H-M "P N N M"
_symmetry_group_IT_number 58
_symmetry_cell_setting 'orthorhombic'
loop_
_space_group_symop_operation_xyz
x,y,z
-x,-y,z
1/2+x,1/2-y,1/2-z
1/2-x,1/2+y,1/2-z
-x,-y,-z
x,y,-z
1/2-x,1/2+y,1/2+z
1/2+x,1/2-y,1/2+z
loop_
_atom_site_type_symbol
_atom_site_label
_atom_site_fract_x
_atom_site_fract_y
_atom_site_fract_z
Si Si1 0.778669 0.634581 0.272965
Si Si2 0.961259 0.862785 0.272945
Si Si3 0.402890 0.081502 0.273238
Si Si4 0.000000 0.500000 0.749740
Si Si5 0.184322 0.747327 0.209290
Si Si6 0.634802 0.307398 0.211020
O O1 0.778885 0.635350 0.500000
O O2 0.797393 0.450984 0.205571
O O3 0.727359 0.657015 0.206463
O O4 0.814513 0.784044 0.211251
O O5 0.960713 0.840527 0.500000
O O6 0.909670 0.904960 0.213191
O O7 0.975258 0.677024 0.188914
O O8 0.000000 0.000000 0.226686
O O9 0.406239 0.087398 0.500000
O O10 0.452937 0.095100 0.190393
O O11 0.365996 0.224572 0.212064
O O12 0.382765 0.893798 0.215065
O O13 0.178544 0.813467 0.000000
O O14 0.640486 0.367265 0.000000
#
# Coordination Sequence:
#
# PCOD9441073 Si02
#       6
#     8   8   8   4   8   8
#     4   9  17  31  49  69  94 125 159 199 242 289
#     4   9  17  30  48  72 101 129 160 202 247 290
#     4   9  17  30  49  70  95 128 163 197 239 290
#     4  10  18  30  50  72  95 132 169 202 241 294
#     4   9  18  32  49  71  98 128 161 200 245 294
#     4   8  15  29  49  68  91 124 160 196 236 286
#
# _framework density 26.960348
#
# number of rings (size 3 to 8) (size 9 to 14) (size 15 to 20)
#    0.000    3.091    0.000    0.545    0.000    1.455 
#    3.273    0.000    0.000   13.636    0.000    0.000 
#    0.000    0.000    0.000    0.000    0.000    0.000 
#
# Total GULP energy -245072.913951 kJ/mol
# GULP energy per Si atom -5569.838953 kJ/mol
# Density = 2.689899 g / cm^3
# Si number density = 26.960348 Si / 1000 Ang^3
#
#
#
# Elastic Constant Matrix: (Units=GPa)
#
#
# Indices 1 2 3 4 5 6 
#
# 1 194.6208 44.5910 0.9016 0.0000 0.0000 0.0000
# 2 44.5910 94.4820 0.5190 0.0000 0.0000 0.0000
# 3 0.9016 0.5190 163.7335 0.0000 0.0000 0.0000
# 4 0.0000 0.0000 0.0000 -1.4152 0.0000 0.0000
# 5 0.0000 0.0000 0.0000 0.0000 -274.7042 0.0000
# 6 0.0000 0.0000 0.0000 0.0000 0.0000 52.2420
#
#
#
# Elastic Compliance Matrix: (Units=1/GPa)
#
#
# Indices 1 2 3 4 5 6 
#
# 1 0.005761 -0.002719 -0.000023 0.000000 0.000000 0.000000
# 2 -0.002719 0.011867 -0.000023 0.000000 0.000000 0.000000
# 3 -0.000023 -0.000023 0.006108 0.000000 0.000000 0.000000
# 4 0.000000 0.000000 0.000000 -0.706621 0.000000 0.000000
# 5 0.000000 0.000000 0.000000 0.000000 -0.003640 0.000000
# 6 0.000000 0.000000 0.000000 0.000000 0.000000 0.019142
#
#
# Mechanical properties :
#
#
# Convention : Reuss Voigt Hill
#
# Bulk Modulus (GPa) = 54.92406 60.53996 57.73201
# Shear Modulus (GPa) = -7.62445 -17.65385 -12.63915
#
# Velocity S-wave (km/s) = -1.68350 -2.56170 -2.16754
# Velocity P-wave (km/s) = 4.07891 3.70867 3.89819
#
# Compressibility (1/GPa) = 0.01820696
#
# Stress axis : x y z
#
# Youngs Moduli (GPa) = 173.57329 84.26484 163.72818
#
# Poissons Ratio (x) = 0.22911 0.00378
# Poissons Ratio (y) = 0.47193 0.00371
# Poissons Ratio (z) = 0.00401 0.00191
#
# Static dielectric constant tensor:
#      x y z
#    x 2.122320 0.000000 0.000000 
#    y 0.000000 2.070880 0.000000 
#    z 0.000000 0.000000 2.084430 
# 
# From -- ./inp_files/10681.got.cif
#   From: 2010.05.17/outbox.cif.g08.bks.cpg/sg58_6_cif.got.tgz:10681.got - 2010.06.03 14:20:14.
