data_PCOD9441424
_publ_section_title
;
Structure prediction by ZEFSAII (Michael W. Deem and Ramdas Pophale) SiO2 
 PCOD9441424
Probable space group: P N N M
;
_chemical_formula_sum "Si O2"
_cell_formula_units_Z 64
_cell_length_a 7.684769
_cell_length_b 17.728365
_cell_length_c 23.857465
_cell_angle_alpha 90.000000
_cell_angle_beta 90.000000
_cell_angle_gamma 90.000000
_cell_volume 3250.302616
_symmetry_space_group_name_H-M "P N N M"
_symmetry_group_IT_number 58
_symmetry_cell_setting 'orthorhombic'
loop_
_space_group_symop_operation_xyz
x,y,z
-x,-y,z
1/2+x,1/2-y,1/2-z
1/2-x,1/2+y,1/2-z
-x,-y,-z
x,y,-z
1/2-x,1/2+y,1/2+z
1/2+x,1/2-y,1/2+z
loop_
_atom_site_type_symbol
_atom_site_label
_atom_site_fract_x
_atom_site_fract_y
_atom_site_fract_z
Si Si1 0.260691 0.699537 0.326473
Si Si2 0.081853 0.895188 0.434502
Si Si3 0.154247 0.289928 0.334886
Si Si4 0.157056 0.128712 0.715446
Si Si5 0.243558 0.204476 0.565448
Si Si6 0.313296 0.989317 0.648001
Si Si7 0.751864 0.640666 0.773533
Si Si8 0.630143 0.235062 0.435599
O O1 0.304613 0.634929 0.281854
O O2 0.316316 0.779510 0.298372
O O3 0.346546 0.702002 0.387692
O O4 0.052892 0.703436 0.331281
O O5 0.080005 0.917589 0.500000
O O6 0.170608 0.957914 0.395672
O O7 0.210298 0.822943 0.428911
O O8 0.108683 0.137642 0.418828
O O9 0.216914 0.208788 0.310332
O O10 0.204326 0.279785 0.399195
O O11 0.231097 0.352127 0.293294
O O12 0.948735 0.128166 0.710430
O O13 0.241594 0.059896 0.682932
O O14 0.210765 0.217236 0.500000
O O15 0.448629 0.190412 0.572927
O O16 0.350078 0.925432 0.695130
O O17 0.500000 0.000000 0.618820
O O18 0.630413 0.262643 0.500000
#
# Coordination Sequence:
#
# PCOD9441424 Si02
#       8
#     8   8   8   8   8   8   8   8
#     4  10  18  35  57  83 109 142 184 236 289 341
#     4  10  21  40  58  80 115 155 202 242 281 338
#     4  10  19  33  57  80 107 141 185 236 289 341
#     4  10  22  35  53  77 110 144 189 237 285 343
#     4  10  20  34  57  85 112 146 190 240 284 335
#     4  12  24  38  54  79 113 155 197 242 287 344
#     4  10  20  36  54  79 106 146 188 234 289 341
#     4  10  19  33  59  87 113 147 190 239 290 340
#
# _framework density 19.690476
#
# number of rings (size 3 to 8) (size 9 to 14) (size 15 to 20)
#    0.000    1.750    2.500    2.625    1.750    2.250 
#    0.000    0.625    0.000    3.750    0.000    0.875 
#    0.000    7.000    0.000    0.000    0.000    0.000 
#
# Total GULP energy -357399.533575 kJ/mol
# GULP energy per Si atom -5584.367712 kJ/mol
# Density = 1.964566 g / cm^3
# Si number density = 19.690476 Si / 1000 Ang^3
#
#
#
# Elastic Constant Matrix: (Units=GPa)
#
#
# Indices 1 2 3 4 5 6 
#
# 1 74.8694 12.0958 35.4346 0.0000 0.0000 0.0000
# 2 12.0958 34.6826 39.4261 0.0000 0.0000 0.0000
# 3 35.4346 39.4261 129.0180 0.0000 0.0000 0.0000
# 4 0.0000 0.0000 0.0000 24.2144 0.0000 0.0000
# 5 0.0000 0.0000 0.0000 0.0000 29.3574 0.0000
# 6 0.0000 0.0000 0.0000 0.0000 0.0000 16.6613
#
#
#
# Elastic Compliance Matrix: (Units=1/GPa)
#
#
# Indices 1 2 3 4 5 6 
#
# 1 0.015369 -0.000861 -0.003958 0.000000 0.000000 0.000000
# 2 -0.000861 0.044228 -0.013279 0.000000 0.000000 0.000000
# 3 -0.003958 -0.013279 0.012896 0.000000 0.000000 0.000000
# 4 0.000000 0.000000 0.000000 0.041298 0.000000 0.000000
# 5 0.000000 0.000000 0.000000 0.000000 0.034063 0.000000
# 6 0.000000 0.000000 0.000000 0.000000 0.000000 0.060019
#
#
# Mechanical properties :
#
#
# Convention : Reuss Voigt Hill
#
# Bulk Modulus (GPa) = 27.55013 45.83143 36.69078
# Shear Modulus (GPa) = 19.51842 24.15419 21.83630
#
# Velocity S-wave (km/s) = 3.15185 3.50622 3.33374
# Velocity P-wave (km/s) = 5.22183 6.30221 5.78729
#
# Compressibility (1/GPa) = 0.03629747
#
# Stress axis : x y z
#
# Youngs Moduli (GPa) = 65.06639 22.60987 77.54418
#
# Poissons Ratio (x) = 0.01946 0.30692
# Poissons Ratio (y) = 0.05600 1.02973
# Poissons Ratio (z) = 0.25754 0.30024
#
# Static dielectric constant tensor:
#      x y z
#    x 1.737930 0.000000 0.000000 
#    y 0.000000 1.685140 0.000000 
#    z 0.000000 0.000000 1.773070 
# 
# From -- ./inp_files/29102.got.cif
#   From: 2010.05.17/outbox.cif.g08.bks.cpg/sg58_15_cif.got.tgz:29102.got - 2010.06.03 14:20:14.
