data_PCOD9441124
_publ_section_title
;
Structure prediction by ZEFSAII (Michael W. Deem and Ramdas Pophale) SiO2 
 PCOD9441124
Probable space group: P N N M
;
_chemical_formula_sum "Si O2"
_cell_formula_units_Z 64
_cell_length_a 7.551185
_cell_length_b 21.225509
_cell_length_c 17.724355
_cell_angle_alpha 90.000000
_cell_angle_beta 90.000000
_cell_angle_gamma 90.000000
_cell_volume 2840.819654
_symmetry_space_group_name_H-M "P N N M"
_symmetry_group_IT_number 58
_symmetry_cell_setting 'orthorhombic'
loop_
_space_group_symop_operation_xyz
x,y,z
-x,-y,z
1/2+x,1/2-y,1/2-z
1/2-x,1/2+y,1/2-z
-x,-y,-z
x,y,-z
1/2-x,1/2+y,1/2+z
1/2+x,1/2-y,1/2+z
loop_
_atom_site_type_symbol
_atom_site_label
_atom_site_fract_x
_atom_site_fract_y
_atom_site_fract_z
Si Si1 0.739420 0.468061 0.259281
Si Si2 0.104986 0.870310 0.416133
Si Si3 0.786730 0.960720 0.415263
Si Si4 0.509208 0.131281 0.777348
Si Si5 0.541823 0.259679 0.184492
Si Si6 0.940695 0.224630 0.856836
Si Si7 0.398613 0.403408 0.309406
Si Si8 0.504588 0.853831 0.604494
O O1 0.761092 0.486625 0.169967
O O2 0.578766 0.417318 0.263900
O O3 0.679170 0.525479 0.312813
O O4 0.911601 0.433822 0.292157
O O5 0.065953 0.846203 0.500000
O O6 0.050182 0.816625 0.357771
O O7 0.313128 0.883305 0.410358
O O8 0.984942 0.932331 0.406862
O O9 0.770087 0.991271 0.500000
O O10 0.658519 0.899302 0.423489
O O11 0.452637 0.190900 0.826895
O O12 0.722020 0.127809 0.774179
O O13 0.455184 0.145694 0.692830
O O14 0.738887 0.248353 0.154634
O O15 0.535747 0.271905 0.274472
O O16 0.942184 0.149283 0.873163
O O17 0.012072 0.279062 0.912251
#
# Coordination Sequence:
#
# PCOD9441124 Si02
#       8
#     8   8   8   8   8   8   8   8
#     4  10  20  33  51  69 100 142 169 211 258 297
#     4  11  21  32  49  75 111 139 170 214 255 315
#     4  10  20  35  52  72 102 143 185 216 248 300
#     4   9  19  31  52  72  98 130 167 217 261 316
#     4  10  18  31  48  79 100 130 170 207 274 319
#     4  10  19  30  53  76 105 129 166 225 267 324
#     4  10  20  32  46  73 102 129 168 209 260 307
#     4  10  19  32  51  78  99 133 172 219 274 313
#
# _framework density 22.52871
#
# number of rings (size 3 to 8) (size 9 to 14) (size 15 to 20)
#    0.000    2.000    1.250    4.500    5.250    0.000 
#    0.000    1.250    0.000    9.000    0.000    0.000 
#    0.000   11.000    0.000    0.500    0.000    0.000 
#
# Total GULP energy -356434.588106 kJ/mol
# GULP energy per Si atom -5569.290439 kJ/mol
# Density = 2.247743 g / cm^3
# Si number density = 22.528710 Si / 1000 Ang^3
#
#
#
# Elastic Constant Matrix: (Units=GPa)
#
#
# Indices 1 2 3 4 5 6 
#
# 1 92.9054 29.3315 6.8609 0.0000 0.0000 0.0000
# 2 29.3315 135.6982 15.3586 0.0000 0.0000 0.0000
# 3 6.8609 15.3586 22.8965 0.0000 0.0000 0.0000
# 4 0.0000 0.0000 0.0000 29.2978 0.0000 0.0000
# 5 0.0000 0.0000 0.0000 0.0000 -10.9742 0.0000
# 6 0.0000 0.0000 0.0000 0.0000 0.0000 30.9859
#
#
#
# Elastic Compliance Matrix: (Units=1/GPa)
#
#
# Indices 1 2 3 4 5 6 
#
# 1 0.011632 -0.002294 -0.001947 0.000000 0.000000 0.000000
# 2 -0.002294 0.008427 -0.004965 0.000000 0.000000 0.000000
# 3 -0.001947 -0.004965 0.047589 0.000000 0.000000 0.000000
# 4 0.000000 0.000000 0.000000 0.034132 0.000000 0.000000
# 5 0.000000 0.000000 0.000000 0.000000 -0.091123 0.000000
# 6 0.000000 0.000000 0.000000 0.000000 0.000000 0.032273
#
#
# Mechanical properties :
#
#
# Convention : Reuss Voigt Hill
#
# Bulk Modulus (GPa) = 20.31052 39.40023 29.85538
# Shear Modulus (GPa) = 64.30570 23.19185 43.74877
#
# Velocity S-wave (km/s) = 5.34844 3.21196 4.41149
# Velocity P-wave (km/s) = 6.86849 5.59307 6.26333
#
# Compressibility (1/GPa) = 0.04923557
#
# Stress axis : x y z
#
# Youngs Moduli (GPa) = 85.97264 118.66455 21.01333
#
# Poissons Ratio (x) = 0.27220 0.04091
# Poissons Ratio (y) = 0.19721 0.10434
# Poissons Ratio (z) = 0.16736 0.58922
#
# Static dielectric constant tensor:
#      x y z
#    x 1.901280 0.000000 0.000000 
#    y 0.000000 2.039270 0.000000 
#    z 0.000000 0.000000 1.797210 
# 
# From -- ./inp_files/31707.got.cif
#   From: 2010.05.17/outbox.cif.g08.bks.cpg/sg58_16_cif.got.tgz:31707.got - 2010.06.03 14:20:14.
