data_PCOD9441795
_publ_section_title
;
Structure prediction by ZEFSAII (Michael W. Deem and Ramdas Pophale) SiO2 
 PCOD9441795
Probable space group: P N N M
;
_chemical_formula_sum "Si O2"
_cell_formula_units_Z 48
_cell_length_a 16.334694
_cell_length_b 18.831479
_cell_length_c 9.122649
_cell_angle_alpha 90.000000
_cell_angle_beta 90.000000
_cell_angle_gamma 90.000000
_cell_volume 2806.185646
_symmetry_space_group_name_H-M "P N N M"
_symmetry_group_IT_number 58
_symmetry_cell_setting 'orthorhombic'
loop_
_space_group_symop_operation_xyz
x,y,z
-x,-y,z
1/2+x,1/2-y,1/2-z
1/2-x,1/2+y,1/2-z
-x,-y,-z
x,y,-z
1/2-x,1/2+y,1/2+z
1/2+x,1/2-y,1/2+z
loop_
_atom_site_type_symbol
_atom_site_label
_atom_site_fract_x
_atom_site_fract_y
_atom_site_fract_z
Si Si1 0.337211 0.835339 0.825438
Si Si2 0.498650 0.417549 0.174693
Si Si3 0.414761 0.706071 0.667784
Si Si4 0.170779 0.834874 0.672605
Si Si5 0.014787 0.417737 0.175666
Si Si6 0.410719 0.211144 0.333125
O O1 0.356182 0.756676 0.761673
O O2 0.249432 0.858296 0.763737
O O3 0.408159 0.885985 0.761622
O O4 0.339279 0.834500 0.000000
O O5 0.500000 0.500000 0.216854
O O6 0.564042 0.369198 0.259823
O O7 0.408641 0.384043 0.200469
O O8 0.514357 0.412254 0.000000
O O9 0.386554 0.699788 0.500000
O O10 0.501829 0.747942 0.665610
O O11 0.188548 0.835941 0.500000
O O12 0.145838 0.755907 0.725676
O O13 0.000000 0.500000 0.207117
O O14 0.935762 0.368614 0.209443
O O15 0.029257 0.409427 0.000000
O O16 0.378275 0.212761 0.500000
#
# Coordination Sequence:
#
# PCOD9441795 Si02
#       6
#     8   8   8   8   8   8
#     4  11  21  33  51  74 101 131 168 213 256 298
#     4   9  18  33  53  77 104 135 169 205 250 304
#     4   9  17  31  51  73  97 127 165 204 244 294
#     4  10  19  32  51  73  99 131 168 209 252 299
#     4   9  18  34  55  77 103 135 168 202 247 305
#     4   8  15  29  49  72  96 124 160 199 239 288
#
# _framework density 17.105069
#
# number of rings (size 3 to 8) (size 9 to 14) (size 15 to 20)
#    0.000    2.667    0.000    3.500    0.000    5.333 
#    0.000    1.667    0.000    4.000    0.000    0.000 
#    0.000    0.000    0.000    0.000    0.000    0.000 
#
# Total GULP energy -267557.698327 kJ/mol
# GULP energy per Si atom -5574.118715 kJ/mol
# Density = 1.706614 g / cm^3
# Si number density = 17.105069 Si / 1000 Ang^3
#
#
#
# Elastic Constant Matrix: (Units=GPa)
#
#
# Indices 1 2 3 4 5 6 
#
# 1 48.8894 26.9372 47.9324 0.0000 0.0000 0.0000
# 2 26.9372 134.7184 55.2998 0.0000 0.0000 0.0000
# 3 47.9324 55.2998 96.5579 0.0000 0.0000 0.0000
# 4 0.0000 0.0000 0.0000 22.9457 0.0000 0.0000
# 5 0.0000 0.0000 0.0000 0.0000 25.5333 0.0000
# 6 0.0000 0.0000 0.0000 0.0000 0.0000 12.1760
#
#
#
# Elastic Compliance Matrix: (Units=1/GPa)
#
#
# Indices 1 2 3 4 5 6 
#
# 1 0.039852 0.000199 -0.019897 0.000000 0.000000 0.000000
# 2 0.000199 0.009705 -0.005657 0.000000 0.000000 0.000000
# 3 -0.019897 -0.005657 0.023473 0.000000 0.000000 0.000000
# 4 0.000000 0.000000 0.000000 0.043581 0.000000 0.000000
# 5 0.000000 0.000000 0.000000 0.000000 0.039165 0.000000
# 6 0.000000 0.000000 0.000000 0.000000 0.000000 0.082129
#
#
# Mechanical properties :
#
#
# Convention : Reuss Voigt Hill
#
# Bulk Modulus (GPa) = 44.80163 60.05606 52.42884
# Shear Modulus (GPa) = 16.88871 22.13076 19.50973
#
# Velocity S-wave (km/s) = 3.14562 3.60086 3.38091
# Velocity P-wave (km/s) = 6.28030 7.24394 6.77926
#
# Compressibility (1/GPa) = 0.02232062
#
# Stress axis : x y z
#
# Youngs Moduli (GPa) = 25.09269 103.03704 42.60138
#
# Poissons Ratio (x) = -0.02049 0.84764
# Poissons Ratio (y) = -0.00499 0.24100
# Poissons Ratio (z) = 0.49927 0.58288
#
# Static dielectric constant tensor:
#      x y z
#    x 1.579970 0.000000 0.000000 
#    y 0.000000 1.583770 0.000000 
#    z 0.000000 0.000000 1.574900 
# 
# From -- ./inp_files/5887.got.cif
#   From: 2010.05.17/outbox.cif.g08.bks.cpg/sg58_3_cif.got.tgz:5887.got - 2010.06.03 14:20:14.
