data_PCOD9441746
_publ_section_title
;
Structure prediction by ZEFSAII (Michael W. Deem and Ramdas Pophale) SiO2 
 PCOD9441746
Probable space group: P N N M
;
_chemical_formula_sum "Si O2"
_cell_formula_units_Z 56
_cell_length_a 20.958733
_cell_length_b 15.705460
_cell_length_c 7.455593
_cell_angle_alpha 90.000000
_cell_angle_beta 90.000000
_cell_angle_gamma 90.000000
_cell_volume 2454.131772
_symmetry_space_group_name_H-M "P N N M"
_symmetry_group_IT_number 58
_symmetry_cell_setting 'orthorhombic'
loop_
_space_group_symop_operation_xyz
x,y,z
-x,-y,z
1/2+x,1/2-y,1/2-z
1/2-x,1/2+y,1/2-z
-x,-y,-z
x,y,-z
1/2-x,1/2+y,1/2+z
1/2+x,1/2-y,1/2+z
loop_
_atom_site_type_symbol
_atom_site_label
_atom_site_fract_x
_atom_site_fract_y
_atom_site_fract_z
Si Si1 0.179568 0.824944 0.292603
Si Si2 0.454518 0.576020 0.282294
Si Si3 0.410195 0.171553 0.779665
Si Si4 0.322838 0.822324 0.216543
Si Si5 0.679051 0.980385 0.218828
Si Si6 0.041956 0.265903 0.291362
Si Si7 0.818829 0.978680 0.205716
O O1 0.163611 0.839334 0.500000
O O2 0.131731 0.753215 0.222223
O O3 0.253159 0.794184 0.282045
O O4 0.176008 0.918236 0.205213
O O5 0.500000 0.500000 0.222671
O O6 0.453908 0.574763 0.500000
O O7 0.477906 0.667836 0.222685
O O8 0.382783 0.559886 0.214170
O O9 0.374152 0.086058 0.723409
O O10 0.483047 0.180019 0.717232
O O11 0.410474 0.172620 0.000000
O O12 0.386502 0.775431 0.282874
O O13 0.331660 0.921528 0.267856
O O14 0.319015 0.816680 0.000000
O O15 0.750005 0.956367 0.284698
O O16 0.680558 0.978885 0.000000
O O17 0.047635 0.290341 0.500000
O O18 0.817137 0.949500 0.000000
#
# Coordination Sequence:
#
# PCOD9441746 Si02
#       7
#     8   8   8   8   8   8   8
#     4  10  19  31  53  79 105 135 172 219 266 312
#     4  10  21  35  53  78 108 143 179 214 263 327
#     4   9  18  31  50  77 103 132 174 218 262 308
#     4   9  19  35  53  75 105 139 174 217 266 314
#     4   8  15  30  51  73  97 129 172 215 254 300
#     4  10  21  35  52  78 108 138 175 221 269 313
#     4   9  18  33  53  74 101 136 174 214 258 313
#
# _framework density 22.818660999999999
#
# number of rings (size 3 to 8) (size 9 to 14) (size 15 to 20)
#    0.000    2.714    0.000    2.143    2.000    2.000 
#    0.000    3.571    0.000    4.286    0.000    5.000 
#    0.000    0.000    0.000    0.000    0.000    0.000 
#
# Total GULP energy -312758.147161 kJ/mol
# GULP energy per Si atom -5584.966914 kJ/mol
# Density = 2.276672 g / cm^3
# Si number density = 22.818661 Si / 1000 Ang^3
#
#
#
# Elastic Constant Matrix: (Units=GPa)
#
#
# Indices 1 2 3 4 5 6 
#
# 1 81.3942 5.8537 0.6566 0.0000 0.0000 0.0000
# 2 5.8537 19.9553 -8.0462 0.0000 0.0000 0.0000
# 3 0.6566 -8.0462 68.7134 0.0000 0.0000 0.0000
# 4 0.0000 0.0000 0.0000 10.2727 0.0000 0.0000
# 5 0.0000 0.0000 0.0000 0.0000 7.1557 0.0000
# 6 0.0000 0.0000 0.0000 0.0000 0.0000 37.9699
#
#
#
# Elastic Compliance Matrix: (Units=1/GPa)
#
#
# Indices 1 2 3 4 5 6 
#
# 1 0.012573 -0.003922 -0.000579 0.000000 0.000000 0.000000
# 2 -0.003922 0.053819 0.006340 0.000000 0.000000 0.000000
# 3 -0.000579 0.006340 0.015301 0.000000 0.000000 0.000000
# 4 0.000000 0.000000 0.000000 0.097345 0.000000 0.000000
# 5 0.000000 0.000000 0.000000 0.000000 0.139748 0.000000
# 6 0.000000 0.000000 0.000000 0.000000 0.000000 0.026337
#
#
# Mechanical properties :
#
#
# Convention : Reuss Voigt Hill
#
# Bulk Modulus (GPa) = 11.71379 18.55456 15.13417
# Shear Modulus (GPa) = 13.51708 22.51958 18.01833
#
# Velocity S-wave (km/s) = 2.43650 3.14489 2.81309
# Velocity P-wave (km/s) = 3.61386 4.61910 4.14705
#
# Compressibility (1/GPa) = 0.08536945
#
# Stress axis : x y z
#
# Youngs Moduli (GPa) = 79.53801 18.58090 65.35480
#
# Poissons Ratio (x) = 0.07287 0.03786
# Poissons Ratio (y) = 0.31192 -0.41432
# Poissons Ratio (z) = 0.04608 -0.11779
#
# Static dielectric constant tensor:
#      x y z
#    x 1.860280 0.000000 0.000000 
#    y 0.000000 1.802940 0.000000 
#    z 0.000000 0.000000 1.903650 
# 
# From -- ./inp_files/9043.got.cif
#   From: 2010.05.17/outbox.cif.g08.bks.cpg/sg58_5_cif.got.tgz:9043.got - 2010.06.03 14:20:14.
