data_PCOD9441361
_publ_section_title
;
Structure prediction by ZEFSAII (Michael W. Deem and Ramdas Pophale) SiO2 
 PCOD9441361
Probable space group: P N N M
;
_chemical_formula_sum "Si O2"
_cell_formula_units_Z 56
_cell_length_a 14.250522
_cell_length_b 14.616236
_cell_length_c 14.648442
_cell_angle_alpha 90.000000
_cell_angle_beta 90.000000
_cell_angle_gamma 90.000000
_cell_volume 3051.109228
_symmetry_space_group_name_H-M "P N N M"
_symmetry_group_IT_number 58
_symmetry_cell_setting 'orthorhombic'
loop_
_space_group_symop_operation_xyz
x,y,z
-x,-y,z
1/2+x,1/2-y,1/2-z
1/2-x,1/2+y,1/2-z
-x,-y,-z
x,y,-z
1/2-x,1/2+y,1/2+z
1/2+x,1/2-y,1/2+z
loop_
_atom_site_type_symbol
_atom_site_label
_atom_site_fract_x
_atom_site_fract_y
_atom_site_fract_z
Si Si1 0.077394 0.422217 0.261790
Si Si2 0.577218 0.578187 0.891331
Si Si3 0.472662 0.711271 0.228882
Si Si4 0.044585 0.900235 0.105859
Si Si5 0.704687 0.324549 0.104945
Si Si6 0.754244 0.611426 0.395346
Si Si7 0.710509 0.010904 0.606965
O O1 0.033621 0.320621 0.265969
O O2 0.159452 0.425216 0.337430
O O3 0.132643 0.441102 0.167805
O O4 0.000000 0.500000 0.275576
O O5 0.500000 0.500000 0.865767
O O6 0.553529 0.669434 0.835614
O O7 0.683512 0.546059 0.873921
O O8 0.567595 0.592841 0.000000
O O9 0.489454 0.667661 0.327867
O O10 0.378346 0.675569 0.178485
O O11 0.151340 0.912921 0.139438
O O12 0.047450 0.868409 0.000000
O O13 0.000000 0.000000 0.108070
O O14 0.742619 0.221868 0.105549
O O15 0.781383 0.401884 0.124937
O O16 0.670054 0.343932 0.000000
O O17 0.762870 0.580457 0.500000
O O18 0.691792 0.024876 0.500000
#
# Coordination Sequence:
#
# PCOD9441361 Si02
#       7
#     8   8   8   8   8   8   8
#     4  11  26  41  55  85 122 163 207 238 284 355
#     4  10  18  33  62  97 119 137 184 251 313 353
#     4  11  21  35  58  85 118 157 187 245 290 348
#     4  10  22  38  59  89 117 152 198 240 292 352
#     4   9  18  34  60  89 113 149 193 239 296 352
#     4   9  20  40  62  84 117 157 201 243 286 347
#     4  10  21  38  61  89 122 151 190 249 305 353
#
# _framework density 18.353981000000001
#
# number of rings (size 3 to 8) (size 9 to 14) (size 15 to 20)
#    0.000    2.000    1.429    1.714    4.000    1.714 
#    0.000    0.000    0.000    3.429    0.000    0.000 
#    0.000    0.000    0.000    0.000    0.000    0.000 
#
# Total GULP energy -312517.041269 kJ/mol
# GULP energy per Si atom -5580.661451 kJ/mol
# Density = 1.831221 g / cm^3
# Si number density = 18.353981 Si / 1000 Ang^3
#
#
#
# Elastic Constant Matrix: (Units=GPa)
#
#
# Indices 1 2 3 4 5 6 
#
# 1 87.8965 54.6782 44.4076 0.0000 0.0000 0.0000
# 2 54.6782 96.1664 50.0790 0.0000 0.0000 0.0000
# 3 44.4076 50.0790 85.0968 0.0000 0.0000 0.0000
# 4 0.0000 0.0000 0.0000 15.3395 0.0000 0.0000
# 5 0.0000 0.0000 0.0000 0.0000 30.0799 0.0000
# 6 0.0000 0.0000 0.0000 0.0000 0.0000 19.5084
#
#
#
# Elastic Compliance Matrix: (Units=1/GPa)
#
#
# Indices 1 2 3 4 5 6 
#
# 1 0.019046 -0.008151 -0.005142 0.000000 0.000000 0.000000
# 2 -0.008151 0.018482 -0.006623 0.000000 0.000000 0.000000
# 3 -0.005142 -0.006623 0.018332 0.000000 0.000000 0.000000
# 4 0.000000 0.000000 0.000000 0.065191 0.000000 0.000000
# 5 0.000000 0.000000 0.000000 0.000000 0.033245 0.000000
# 6 0.000000 0.000000 0.000000 0.000000 0.000000 0.051260
#
#
# Mechanical properties :
#
#
# Convention : Reuss Voigt Hill
#
# Bulk Modulus (GPa) = 62.39197 63.05436 62.72317
# Shear Modulus (GPa) = 19.94172 20.98521 20.46347
#
# Velocity S-wave (km/s) = 3.29980 3.38503 3.34268
# Velocity P-wave (km/s) = 6.97034 7.05032 7.01045
#
# Compressibility (1/GPa) = 0.01602770
#
# Stress axis : x y z
#
# Youngs Moduli (GPa) = 52.50576 54.10615 54.54878
#
# Poissons Ratio (x) = 0.44103 0.28049
# Poissons Ratio (y) = 0.42799 0.36127
# Poissons Ratio (z) = 0.26998 0.35834
#
# Static dielectric constant tensor:
#      x y z
#    x 1.634760 0.000000 0.000000 
#    y 0.000000 1.624340 0.000000 
#    z 0.000000 0.000000 1.652370 
# 
# From -- ./inp_files/21245.got.cif
#   From: 2010.05.17/outbox.cif.g08.bks.cpg/sg58_11_cif.got.tgz:21245.got - 2010.06.03 14:20:14.
