data_PCOD9441501
_publ_section_title
;
Structure prediction by ZEFSAII (Michael W. Deem and Ramdas Pophale) SiO2 
 PCOD9441501
Probable space group: P N N M
;
_chemical_formula_sum "Si O2"
_cell_formula_units_Z 64
_cell_length_a 18.159243
_cell_length_b 8.403101
_cell_length_c 16.662504
_cell_angle_alpha 90.000000
_cell_angle_beta 90.000000
_cell_angle_gamma 90.000000
_cell_volume 2542.597352
_symmetry_space_group_name_H-M "P N N M"
_symmetry_group_IT_number 58
_symmetry_cell_setting 'orthorhombic'
loop_
_space_group_symop_operation_xyz
x,y,z
-x,-y,z
1/2+x,1/2-y,1/2-z
1/2-x,1/2+y,1/2-z
-x,-y,-z
x,y,-z
1/2-x,1/2+y,1/2+z
1/2+x,1/2-y,1/2+z
loop_
_atom_site_type_symbol
_atom_site_label
_atom_site_fract_x
_atom_site_fract_y
_atom_site_fract_z
Si Si1 0.819596 0.960389 0.088582
Si Si2 0.688655 0.593542 0.093594
Si Si3 0.737560 0.702717 0.684416
Si Si4 0.539996 0.668207 0.586447
Si Si5 0.417363 0.145336 0.267951
Si Si6 0.093239 0.592820 0.406868
Si Si7 0.859893 0.775086 0.590869
Si Si8 0.160053 0.338771 0.822151
O O1 0.860016 0.799535 0.115683
O O2 0.770607 0.015843 0.163486
O O3 0.875309 0.108379 0.083994
O O4 0.786617 0.938418 0.000000
O O5 0.657221 0.773131 0.095861
O O6 0.630580 0.457919 0.123367
O O7 0.764297 0.587521 0.142642
O O8 0.703956 0.563919 0.000000
O O9 0.664152 0.770512 0.724691
O O10 0.770473 0.764438 0.600023
O O11 0.809655 0.730570 0.738668
O O12 0.500000 0.500000 0.590303
O O13 0.522655 0.745805 0.500000
O O14 0.532509 0.765711 0.667420
O O15 0.446858 0.142029 0.176921
O O16 0.399201 0.971109 0.302310
O O17 0.064948 0.605761 0.500000
O O18 0.113375 0.406941 0.392127
O O19 0.886404 0.791660 0.500000
#
# Coordination Sequence:
#
# PCOD9441501 Si02
#       8
#     8   8   8   8   8   8   8   8
#     4  10  22  36  54  77 106 150 193 231 286 348
#     4  10  20  30  44  66 106 158 195 225 262 311
#     4  11  19  31  46  69 110 150 186 221 262 326
#     4   9  21  43  65  82 103 136 185 247 309 364
#     4  11  21  33  55  79 108 148 188 231 293 339
#     4  10  20  34  48  73 112 153 194 229 266 331
#     4  10  19  29  43  63 100 152 193 223 263 313
#     4  12  20  30  46  77 115 143 185 230 272 325
#
# _framework density 25.171111
#
# number of rings (size 3 to 8) (size 9 to 14) (size 15 to 20)
#    0.000    1.625    3.750    2.250    0.000    2.500 
#    0.000    0.625    0.000    2.625    0.000    0.000 
#    0.000    1.000    0.000    0.000    0.000    0.000 
#
# Total GULP energy -356341.011859 kJ/mol
# GULP energy per Si atom -5567.828310 kJ/mol
# Density = 2.511382 g / cm^3
# Si number density = 25.171111 Si / 1000 Ang^3
#
#
#
# Elastic Constant Matrix: (Units=GPa)
#
#
# Indices 1 2 3 4 5 6 
#
# 1 30.7625 9.6170 20.8784 0.0000 0.0000 0.0000
# 2 9.6170 122.6958 51.9071 0.0000 0.0000 0.0000
# 3 20.8784 51.9071 179.6385 0.0000 0.0000 0.0000
# 4 0.0000 0.0000 0.0000 90.9682 0.0000 0.0000
# 5 0.0000 0.0000 0.0000 0.0000 0.4336 0.0000
# 6 0.0000 0.0000 0.0000 0.0000 0.0000 27.0704
#
#
#
# Elastic Compliance Matrix: (Units=1/GPa)
#
#
# Indices 1 2 3 4 5 6 
#
# 1 0.035440 -0.001179 -0.003778 0.000000 0.000000 0.000000
# 2 -0.001179 0.009325 -0.002557 0.000000 0.000000 0.000000
# 3 -0.003778 -0.002557 0.006745 0.000000 0.000000 0.000000
# 4 0.000000 0.000000 0.000000 0.010993 0.000000 0.000000
# 5 0.000000 0.000000 0.000000 0.000000 2.306008 0.000000
# 6 0.000000 0.000000 0.000000 0.000000 0.000000 0.036941
#
#
# Mechanical properties :
#
#
# Convention : Reuss Voigt Hill
#
# Bulk Modulus (GPa) = 27.41259 55.32240 41.36750
# Shear Modulus (GPa) = 2.05538 40.40742 21.23140
#
# Velocity S-wave (km/s) = 0.90462 4.01098 2.90743
# Velocity P-wave (km/s) = 3.46486 6.59370 5.26698
#
# Compressibility (1/GPa) = 0.03647959
#
# Stress axis : x y z
#
# Youngs Moduli (GPa) = 28.21666 107.24375 148.26261
#
# Poissons Ratio (x) = 0.12649 0.56017
# Poissons Ratio (y) = 0.03328 0.37915
# Poissons Ratio (z) = 0.10661 0.27425
#
# Static dielectric constant tensor:
#      x y z
#    x 2.126890 0.000000 0.000000 
#    y 0.000000 2.096740 0.000000 
#    z 0.000000 0.000000 2.149420 
# 
# From -- ./inp_files/25654.got.cif
#   From: 2010.05.17/outbox.cif.g08.bks.cpg/sg58_13_cif.got.tgz:25654.got - 2010.06.03 14:20:14.
