data_PCOD9441235
_publ_section_title
;
Structure prediction by ZEFSAII (Michael W. Deem and Ramdas Pophale) SiO2 
 PCOD9441235
Probable space group: P N N M
;
_chemical_formula_sum "Si O2"
_cell_formula_units_Z 56
_cell_length_a 15.475548
_cell_length_b 14.566620
_cell_length_c 13.852744
_cell_angle_alpha 90.000000
_cell_angle_beta 90.000000
_cell_angle_gamma 90.000000
_cell_volume 3122.774584
_symmetry_space_group_name_H-M "P N N M"
_symmetry_group_IT_number 58
_symmetry_cell_setting 'orthorhombic'
loop_
_space_group_symop_operation_xyz
x,y,z
-x,-y,z
1/2+x,1/2-y,1/2-z
1/2-x,1/2+y,1/2-z
-x,-y,-z
x,y,-z
1/2-x,1/2+y,1/2+z
1/2+x,1/2-y,1/2+z
loop_
_atom_site_type_symbol
_atom_site_label
_atom_site_fract_x
_atom_site_fract_y
_atom_site_fract_z
Si Si1 0.335077 0.624046 0.387441
Si Si2 0.505883 0.709854 0.307586
Si Si3 0.011750 0.276445 0.610193
Si Si4 0.660123 0.107778 0.209833
Si Si5 0.648506 0.913402 0.888169
Si Si6 0.837408 0.095507 0.887943
Si Si7 0.544155 0.099826 0.385531
O O1 0.343506 0.649227 0.500000
O O2 0.409370 0.676722 0.331941
O O3 0.235635 0.639592 0.356509
O O4 0.348895 0.514327 0.378386
O O5 0.515938 0.705007 0.192289
O O6 0.575376 0.647638 0.361087
O O7 0.512976 0.815407 0.344476
O O8 0.020527 0.244665 0.500000
O O9 0.099038 0.323126 0.650078
O O10 0.936861 0.353293 0.613262
O O11 0.759176 0.124621 0.182039
O O12 0.630810 0.108093 0.321105
O O13 0.639123 0.005607 0.171741
O O14 0.665057 0.940682 0.000000
O O15 0.814423 0.113677 0.000000
O O16 0.557721 0.111378 0.500000
O O17 0.500000 0.000000 0.370028
#
# Coordination Sequence:
#
# PCOD9441235 Si02
#       7
#     8   8   8   8   8   8   8
#     4   9  18  33  55  80 100 123 165 220 268 305
#     4  11  21  34  54  76 103 139 174 215 260 300
#     4  10  20  32  48  73 104 137 171 207 254 312
#     4  10  18  32  53  77 104 133 167 211 264 309
#     4   9  17  31  53  78 101 126 163 215 267 308
#     4  10  20  34  55  82 105 128 167 217 265 309
#     4  10  21  36  53  75 106 143 180 213 250 306
#
# _framework density 17.932770999999999
#
# number of rings (size 3 to 8) (size 9 to 14) (size 15 to 20)
#    0.000    2.143    0.000    6.000    0.000    4.571 
#    0.000    2.143    0.000    6.857    0.000    0.000 
#    0.000    0.000    0.000    0.000    0.000    0.000 
#
# Total GULP energy -312317.589380 kJ/mol
# GULP energy per Si atom -5577.099810 kJ/mol
# Density = 1.789196 g / cm^3
# Si number density = 17.932771 Si / 1000 Ang^3
#
#
#
# Elastic Constant Matrix: (Units=GPa)
#
#
# Indices 1 2 3 4 5 6 
#
# 1 51.0413 14.3149 16.5992 0.0000 0.0000 0.0000
# 2 14.3149 32.5456 10.0633 0.0000 0.0000 0.0000
# 3 16.5992 10.0633 108.2272 0.0000 0.0000 0.0000
# 4 0.0000 0.0000 0.0000 23.0959 0.0000 0.0000
# 5 0.0000 0.0000 0.0000 0.0000 26.5044 0.0000
# 6 0.0000 0.0000 0.0000 0.0000 0.0000 14.9813
#
#
#
# Elastic Compliance Matrix: (Units=1/GPa)
#
#
# Indices 1 2 3 4 5 6 
#
# 1 0.023076 -0.009323 -0.002672 0.000000 0.000000 0.000000
# 2 -0.009323 0.035403 -0.001862 0.000000 0.000000 0.000000
# 3 -0.002672 -0.001862 0.009823 0.000000 0.000000 0.000000
# 4 0.000000 0.000000 0.000000 0.043298 0.000000 0.000000
# 5 0.000000 0.000000 0.000000 0.000000 0.037730 0.000000
# 6 0.000000 0.000000 0.000000 0.000000 0.000000 0.066750
#
#
# Mechanical properties :
#
#
# Convention : Reuss Voigt Hill
#
# Bulk Modulus (GPa) = 24.63899 30.41878 27.52889
# Shear Modulus (GPa) = 19.43088 22.97211 21.20149
#
# Velocity S-wave (km/s) = 3.29529 3.58301 3.44215
# Velocity P-wave (km/s) = 5.31489 5.84095 5.58412
#
# Compressibility (1/GPa) = 0.04058608
#
# Stress axis : x y z
#
# Youngs Moduli (GPa) = 43.33530 28.24644 101.80394
#
# Poissons Ratio (x) = 0.26335 0.27205
# Poissons Ratio (y) = 0.40403 0.18955
# Poissons Ratio (z) = 0.11581 0.05259
#
# Static dielectric constant tensor:
#      x y z
#    x 1.620680 0.000000 0.000000 
#    y 0.000000 1.616270 0.000000 
#    z 0.000000 0.000000 1.624700 
# 
# From -- ./inp_files/22305.got.cif
#   From: 2010.05.17/outbox.cif.g08.bks.cpg/sg58_12_cif.got.tgz:22305.got - 2010.06.03 14:20:14.
