data_PCOD9441715
_publ_section_title
;
Structure prediction by ZEFSAII (Michael W. Deem and Ramdas Pophale) SiO2 
 PCOD9441715
Probable space group: P N N M
;
_chemical_formula_sum "Si O2"
_cell_formula_units_Z 56
_cell_length_a 14.036746
_cell_length_b 23.609501
_cell_length_c 7.983550
_cell_angle_alpha 90.000000
_cell_angle_beta 90.000000
_cell_angle_gamma 90.000000
_cell_volume 2645.753010
_symmetry_space_group_name_H-M "P N N M"
_symmetry_group_IT_number 58
_symmetry_cell_setting 'orthorhombic'
loop_
_space_group_symop_operation_xyz
x,y,z
-x,-y,z
1/2+x,1/2-y,1/2-z
1/2-x,1/2+y,1/2-z
-x,-y,-z
x,y,-z
1/2-x,1/2+y,1/2+z
1/2+x,1/2-y,1/2+z
loop_
_atom_site_type_symbol
_atom_site_label
_atom_site_fract_x
_atom_site_fract_y
_atom_site_fract_z
Si Si1 0.421371 0.373167 0.812303
Si Si2 0.145902 0.287287 0.309008
Si Si3 0.892685 0.484639 0.295238
Si Si4 0.214048 0.404736 0.699846
Si Si5 0.129191 0.757789 0.186003
Si Si6 0.328418 0.138184 0.800567
Si Si7 0.887119 0.834128 0.704889
O O1 0.326974 0.397076 0.726685
O O2 0.406210 0.305040 0.812933
O O3 0.527711 0.375594 0.738555
O O4 0.422706 0.395918 0.000000
O O5 0.108902 0.293385 0.500000
O O6 0.155718 0.349920 0.231242
O O7 0.256448 0.267561 0.318418
O O8 0.098501 0.231118 0.232783
O O9 0.888023 0.483299 0.500000
O O10 0.824500 0.535501 0.237221
O O11 0.863983 0.422301 0.236676
O O12 0.000000 0.500000 0.248758
O O13 0.198511 0.402672 0.500000
O O14 0.115593 0.692318 0.228221
O O15 0.094208 0.771625 0.000000
O O16 0.216618 0.145293 0.759721
O O17 0.340180 0.140515 0.000000
O O18 0.888418 0.832380 0.500000
#
# Coordination Sequence:
#
# PCOD9441715 Si02
#       7
#     8   8   8   8   8   8   8
#     4  10  19  31  51  80 109 138 175 215 255 308
#     4   7  12  25  46  68  90 124 164 196 239 299
#     4   9  19  35  55  78 101 131 175 221 264 312
#     4   9  17  32  53  74 101 137 173 214 264 312
#     4   9  17  31  50  72 103 140 170 204 258 312
#     4  10  19  32  53  79 104 133 176 226 263 302
#     4   9  18  32  50  75 108 141 170 207 263 321
#
# _framework density 21.165996
#
# number of rings (size 3 to 8) (size 9 to 14) (size 15 to 20)
#    0.000    3.000    0.000    3.000    0.000    2.286 
#    0.000    6.429    0.000   13.286    0.000    0.000 
#    0.000    0.000    0.000    0.000    0.000    0.000 
#
# Total GULP energy -311995.014849 kJ/mol
# GULP energy per Si atom -5571.339551 kJ/mol
# Density = 2.111782 g / cm^3
# Si number density = 21.165996 Si / 1000 Ang^3
#
#
#
# Elastic Constant Matrix: (Units=GPa)
#
#
# Indices 1 2 3 4 5 6 
#
# 1 36.9271 7.2661 -7.7713 0.0000 0.0000 0.0000
# 2 7.2661 109.1975 0.7030 0.0000 0.0000 0.0000
# 3 -7.7713 0.7030 30.7427 0.0000 0.0000 0.0000
# 4 0.0000 0.0000 0.0000 11.7679 0.0000 0.0000
# 5 0.0000 0.0000 0.0000 0.0000 12.0964 0.0000
# 6 0.0000 0.0000 0.0000 0.0000 0.0000 23.2410
#
#
#
# Elastic Compliance Matrix: (Units=1/GPa)
#
#
# Indices 1 2 3 4 5 6 
#
# 1 0.029023 -0.001979 0.007382 0.000000 0.000000 0.000000
# 2 -0.001979 0.009294 -0.000713 0.000000 0.000000 0.000000
# 3 0.007382 -0.000713 0.034410 0.000000 0.000000 0.000000
# 4 0.000000 0.000000 0.000000 0.084977 0.000000 0.000000
# 5 0.000000 0.000000 0.000000 0.000000 0.082669 0.000000
# 6 0.000000 0.000000 0.000000 0.000000 0.000000 0.043027
#
#
# Mechanical properties :
#
#
# Convention : Reuss Voigt Hill
#
# Bulk Modulus (GPa) = 12.17903 19.69586 15.93744
# Shear Modulus (GPa) = 16.58982 21.19904 18.89443
#
# Velocity S-wave (km/s) = 2.80267 3.16818 2.99101
# Velocity P-wave (km/s) = 4.02987 4.76537 4.41297
#
# Compressibility (1/GPa) = 0.08210838
#
# Stress axis : x y z
#
# Youngs Moduli (GPa) = 34.45514 107.59656 29.06105
#
# Poissons Ratio (x) = 0.21291 -0.21452
# Poissons Ratio (y) = 0.06818 0.02071
# Poissons Ratio (z) = -0.25434 0.07669
#
# Static dielectric constant tensor:
#      x y z
#    x 1.800560 0.000000 0.000000 
#    y 0.000000 1.776340 0.000000 
#    z 0.000000 0.000000 1.781840 
# 
# From -- ./inp_files/6369.got.cif
#   From: 2010.05.17/outbox.cif.g08.bks.cpg/sg58_4_cif.got.tgz:6369.got - 2010.06.03 14:20:14.
