data_PCOD9441268
_publ_section_title
;
Structure prediction by ZEFSAII (Michael W. Deem and Ramdas Pophale) SiO2 
 PCOD9441268
Probable space group: P N N M
;
_chemical_formula_sum "Si O2"
_cell_formula_units_Z 64
_cell_length_a 16.617860
_cell_length_b 19.926920
_cell_length_c 7.241445
_cell_angle_alpha 90.000000
_cell_angle_beta 90.000000
_cell_angle_gamma 90.000000
_cell_volume 2397.952133
_symmetry_space_group_name_H-M "P N N M"
_symmetry_group_IT_number 58
_symmetry_cell_setting 'orthorhombic'
loop_
_space_group_symop_operation_xyz
x,y,z
-x,-y,z
1/2+x,1/2-y,1/2-z
1/2-x,1/2+y,1/2-z
-x,-y,-z
x,y,-z
1/2-x,1/2+y,1/2+z
1/2+x,1/2-y,1/2+z
loop_
_atom_site_type_symbol
_atom_site_label
_atom_site_fract_x
_atom_site_fract_y
_atom_site_fract_z
Si Si1 0.240712 0.666012 0.223208
Si Si2 0.905918 0.907807 0.275953
Si Si3 0.817358 0.702339 0.723154
Si Si4 0.332859 0.457820 0.777053
Si Si5 0.656891 0.053097 0.789111
Si Si6 0.929632 0.164593 0.275321
Si Si7 0.002786 0.296110 0.276422
Si Si8 0.582343 0.921622 0.786356
O O1 0.323569 0.629169 0.279190
O O2 0.252097 0.743395 0.286861
O O3 0.162824 0.624529 0.282881
O O4 0.238504 0.665745 0.000000
O O5 0.907559 0.905290 0.500000
O O6 0.987898 0.872576 0.218455
O O7 0.896756 0.985563 0.223330
O O8 0.809426 0.699516 0.500000
O O9 0.823564 0.626075 0.793112
O O10 0.907555 0.728433 0.765305
O O11 0.245767 0.478881 0.707959
O O12 0.357940 0.383625 0.713730
O O13 0.329538 0.457676 0.000000
O O14 0.600809 0.995064 0.706813
O O15 0.630074 0.065791 0.000000
O O16 0.927171 0.165606 0.500000
O O17 0.938638 0.241026 0.212463
O O18 0.997928 0.298766 0.500000
O O19 0.984801 0.371202 0.209349
O O20 0.563062 0.934034 0.000000
#
# Coordination Sequence:
#
# PCOD9441268 Si02
#       8
#     8   8   8   8   8   8   8   8
#     4  10  18  32  55  77  98 130 169 205 246 298
#     4   9  15  27  48  74  99 125 161 204 246 290
#     4   9  18  33  53  74  99 133 172 210 246 291
#     4  10  19  30  49  77 103 130 165 205 249 297
#     4  10  21  35  49  72 105 137 167 202 248 300
#     4   9  16  27  46  75 104 124 158 214 256 286
#     4   9  17  31  50  74  99 127 168 214 252 284
#     4  10  21  34  51  76 105 133 163 206 255 297
#
# _framework density 26.689439
#
# number of rings (size 3 to 8) (size 9 to 14) (size 15 to 20)
#    0.000    2.500    2.500    0.375    1.750    2.000 
#    0.000    2.500    0.000    3.750    0.000    1.750 
#    0.000    0.000    0.000    0.000    0.000    0.000 
#
# Total GULP energy -357954.575575 kJ/mol
# GULP energy per Si atom -5593.040243 kJ/mol
# Density = 2.662869 g / cm^3
# Si number density = 26.689439 Si / 1000 Ang^3
#
#
#
# Elastic Constant Matrix: (Units=GPa)
#
#
# Indices 1 2 3 4 5 6 
#
# 1 87.2632 19.2373 -4.6477 0.0000 0.0000 0.0000
# 2 19.2373 177.5242 5.0520 0.0000 0.0000 0.0000
# 3 -4.6477 5.0520 129.6557 0.0000 0.0000 0.0000
# 4 0.0000 0.0000 0.0000 -9.4448 0.0000 0.0000
# 5 0.0000 0.0000 0.0000 0.0000 0.4322 0.0000
# 6 0.0000 0.0000 0.0000 0.0000 0.0000 52.2435
#
#
#
# Elastic Compliance Matrix: (Units=1/GPa)
#
#
# Indices 1 2 3 4 5 6 
#
# 1 0.011769 -0.001289 0.000472 0.000000 0.000000 0.000000
# 2 -0.001289 0.005780 -0.000271 0.000000 0.000000 0.000000
# 3 0.000472 -0.000271 0.007740 0.000000 0.000000 0.000000
# 4 0.000000 0.000000 0.000000 -0.105878 0.000000 0.000000
# 5 0.000000 0.000000 0.000000 0.000000 2.313790 0.000000
# 6 0.000000 0.000000 0.000000 0.000000 0.000000 0.019141
#
#
# Mechanical properties :
#
#
# Convention : Reuss Voigt Hill
#
# Bulk Modulus (GPa) = 43.26518 48.19182 45.72850
# Shear Modulus (GPa) = 2.21022 33.63294 17.92158
#
# Velocity S-wave (km/s) = 0.91100 3.55372 2.59412
# Velocity P-wave (km/s) = 4.16562 5.91053 5.11306
#
# Compressibility (1/GPa) = 0.02311328
#
# Stress axis : x y z
#
# Youngs Moduli (GPa) = 84.97018 172.99798 129.19511
#
# Poissons Ratio (x) = 0.22295 -0.06099
# Poissons Ratio (y) = 0.10951 0.03507
# Poissons Ratio (z) = -0.04011 0.04696
#
# Static dielectric constant tensor:
#      x y z
#    x 2.042120 0.000000 0.000000 
#    y 0.000000 2.101560 0.000000 
#    z 0.000000 0.000000 2.052870 
# 
# From -- ./inp_files/8371.got.cif
#   From: 2010.05.17/outbox.cif.g08.bks.cpg/sg58_5_cif.got.tgz:8371.got - 2010.06.03 14:20:14.
