data_PCOD9441514
_publ_section_title
;
Structure prediction by ZEFSAII (Michael W. Deem and Ramdas Pophale) SiO2 
 PCOD9441514
Probable space group: P N N M
;
_chemical_formula_sum "Si O2"
_cell_formula_units_Z 64
_cell_length_a 23.271795
_cell_length_b 17.843004
_cell_length_c 8.666794
_cell_angle_alpha 90.000000
_cell_angle_beta 90.000000
_cell_angle_gamma 90.000000
_cell_volume 3598.788545
_symmetry_space_group_name_H-M "P N N M"
_symmetry_group_IT_number 58
_symmetry_cell_setting 'orthorhombic'
loop_
_space_group_symop_operation_xyz
x,y,z
-x,-y,z
1/2+x,1/2-y,1/2-z
1/2-x,1/2+y,1/2-z
-x,-y,-z
x,y,-z
1/2-x,1/2+y,1/2+z
1/2+x,1/2-y,1/2+z
loop_
_atom_site_type_symbol
_atom_site_label
_atom_site_fract_x
_atom_site_fract_y
_atom_site_fract_z
Si Si1 0.606774 0.790327 0.815803
Si Si2 0.159860 0.564749 0.176305
Si Si3 0.510684 0.264824 0.683769
Si Si4 0.280597 0.913224 0.687286
Si Si5 0.884435 0.679670 0.676444
Si Si6 0.531210 0.576390 0.813002
Si Si7 0.846695 0.127919 0.312992
Si Si8 0.433825 0.983859 0.169005
O O1 0.647602 0.858277 0.764211
O O2 0.542093 0.787189 0.746530
O O3 0.636748 0.712400 0.767731
O O4 0.600393 0.790931 0.000000
O O5 0.200785 0.497601 0.237390
O O6 0.098578 0.523602 0.192782
O O7 0.175317 0.580717 0.000000
O O8 0.508666 0.263406 0.500000
O O9 0.573539 0.238065 0.740077
O O10 0.497103 0.348300 0.745911
O O11 0.283423 0.912942 0.500000
O O12 0.325399 0.850270 0.746797
O O13 0.216071 0.896192 0.740739
O O14 0.873459 0.703400 0.500000
O O15 0.921765 0.603613 0.673804
O O16 0.500000 0.500000 0.765678
O O17 0.598558 0.577778 0.767511
O O18 0.528429 0.581861 0.000000
O O19 0.844316 0.126503 0.500000
O O20 0.500000 0.000000 0.175166
O O21 0.411728 0.011502 0.000000
#
# Coordination Sequence:
#
# PCOD9441514 Si02
#       8
#     8   8   8   8   8   8   8   8
#     4  10  19  33  53  74  99 133 175 217 260 314
#     4  10  19  29  45  70  99 129 164 210 257 303
#     4  11  21  33  52  78 108 137 169 214 265 311
#     4   9  18  34  52  71 101 139 176 212 257 312
#     4  10  19  31  48  72 102 135 171 206 246 299
#     4   9  18  35  59  83 106 134 172 216 264 318
#     4   8  16  33  56  76  97 134 175 212 259 311
#     4   9  17  28  43  63  90 126 163 199 239 287
#
# _framework density 17.783763
#
# number of rings (size 3 to 8) (size 9 to 14) (size 15 to 20)
#    0.000    2.500    0.000    3.750    0.000    2.500 
#    0.000    4.375    0.000    1.500    0.000    0.000 
#    0.000    0.000    0.000    0.000    0.000    0.000 
#
# Total GULP energy -356426.770403 kJ/mol
# GULP energy per Si atom -5569.168288 kJ/mol
# Density = 1.774329 g / cm^3
# Si number density = 17.783763 Si / 1000 Ang^3
#
#
#
# Elastic Constant Matrix: (Units=GPa)
#
#
# Indices 1 2 3 4 5 6 
#
# 1 141.8790 72.2469 30.8717 0.0000 0.0000 0.0000
# 2 72.2469 85.1073 25.5734 0.0000 0.0000 0.0000
# 3 30.8717 25.5734 51.2085 0.0000 0.0000 0.0000
# 4 0.0000 0.0000 0.0000 24.2850 0.0000 0.0000
# 5 0.0000 0.0000 0.0000 0.0000 21.2522 0.0000
# 6 0.0000 0.0000 0.0000 0.0000 0.0000 19.6734
#
#
#
# Elastic Compliance Matrix: (Units=1/GPa)
#
#
# Indices 1 2 3 4 5 6 
#
# 1 0.012719 -0.009993 -0.002678 0.000000 0.000000 0.000000
# 2 -0.009993 0.021675 -0.004800 0.000000 0.000000 0.000000
# 3 -0.002678 -0.004800 0.023539 0.000000 0.000000 0.000000
# 4 0.000000 0.000000 0.000000 0.041178 0.000000 0.000000
# 5 0.000000 0.000000 0.000000 0.000000 0.047054 0.000000
# 6 0.000000 0.000000 0.000000 0.000000 0.000000 0.050830
#
#
# Mechanical properties :
#
#
# Convention : Reuss Voigt Hill
#
# Bulk Modulus (GPa) = 43.49220 59.50875 51.50048
# Shear Modulus (GPa) = 20.86803 23.00898 21.93850
#
# Velocity S-wave (km/s) = 3.42925 3.60087 3.51611
# Velocity P-wave (km/s) = 6.33947 7.12905 6.74583
#
# Compressibility (1/GPa) = 0.02299263
#
# Stress axis : x y z
#
# Youngs Moduli (GPa) = 78.62029 46.13602 42.48182
#
# Poissons Ratio (x) = 0.46103 0.11375
# Poissons Ratio (y) = 0.78563 0.20392
# Poissons Ratio (z) = 0.21052 0.22146
#
# Static dielectric constant tensor:
#      x y z
#    x 1.602420 0.000000 0.000000 
#    y 0.000000 2.239800 0.000000 
#    z 0.000000 0.000000 1.643050 
# 
# From -- ./inp_files/10162.got.cif
#   From: 2010.05.17/outbox.cif.g08.bks.cpg/sg58_6_cif.got.tgz:10162.got - 2010.06.03 14:20:14.
