data_PCOD9441480
_publ_section_title
;
Structure prediction by ZEFSAII (Michael W. Deem and Ramdas Pophale) SiO2 
 PCOD9441480
Probable space group: P N N M
;
_chemical_formula_sum "Si O2"
_cell_formula_units_Z 48
_cell_length_a 18.838526
_cell_length_b 9.086695
_cell_length_c 15.193672
_cell_angle_alpha 90.000000
_cell_angle_beta 90.000000
_cell_angle_gamma 90.000000
_cell_volume 2600.851862
_symmetry_space_group_name_H-M "P N N M"
_symmetry_group_IT_number 58
_symmetry_cell_setting 'orthorhombic'
loop_
_space_group_symop_operation_xyz
x,y,z
-x,-y,z
1/2+x,1/2-y,1/2-z
1/2-x,1/2+y,1/2-z
-x,-y,-z
x,y,-z
1/2-x,1/2+y,1/2+z
1/2+x,1/2-y,1/2+z
loop_
_atom_site_type_symbol
_atom_site_label
_atom_site_fract_x
_atom_site_fract_y
_atom_site_fract_z
Si Si1 0.188932 0.548529 0.694647
Si Si2 0.728357 0.805563 0.500000
Si Si3 0.695569 0.306732 0.815151
Si Si4 0.533969 0.347715 0.832369
Si Si5 0.545967 0.145863 0.000000
Si Si6 0.952519 0.352096 0.201073
Si Si7 0.299644 0.991452 0.000000
Si Si8 0.434990 0.122954 0.500000
O O1 0.255683 0.619311 0.742430
O O2 0.191301 0.370197 0.698171
O O3 0.119762 0.608793 0.746053
O O4 0.193866 0.581566 0.590298
O O5 0.769783 0.841872 0.589854
O O6 0.732995 0.623571 0.500000
O O7 0.652236 0.888510 0.500000
O O8 0.616331 0.366560 0.810747
O O9 0.500000 0.500000 0.859055
O O10 0.492577 0.277157 0.751183
O O11 0.529230 0.235136 0.912804
O O12 0.500000 0.000000 0.000000
O O13 0.629320 0.108883 0.000000
O O14 0.943700 0.310714 0.098214
O O15 0.000000 0.500000 0.205471
O O16 0.500000 0.000000 0.500000
#
# Coordination Sequence:
#
# PCOD9441480 Si02
#       8
#     8   4   8   8   4   8   4   4
#     4  11  22  40  65  90 124 169 223 264 333 398
#     4  10  18  39  62  83 123 166 210 263 331 379
#     4  11  23  40  63  91 127 172 217 272 331 401
#     4  12  25  39  64 101 138 169 218 283 335 394
#     4  12  21  42  67  93 131 180 218 259 331 416
#     4  11  21  42  65  91 127 175 220 270 331 406
#     4  10  20  37  61  89 120 168 216 262 321 407
#     4  10  22  36  66  99 118 169 234 274 321 392
#
# _framework density 18.455490999999999
#
# number of rings (size 3 to 8) (size 9 to 14) (size 15 to 20)
#    0.000    1.000    6.667    1.750    2.333    0.000 
#    0.000    2.917    0.000    0.000    0.000    0.000 
#    0.000    0.000    0.000    0.000    0.000    0.000 
#
# Total GULP energy -267645.185983 kJ/mol
# GULP energy per Si atom -5575.941375 kJ/mol
# Density = 1.841349 g / cm^3
# Si number density = 18.455491 Si / 1000 Ang^3
#
#
#
# Elastic Constant Matrix: (Units=GPa)
#
#
# Indices 1 2 3 4 5 6 
#
# 1 147.1933 46.5773 67.0571 0.0000 0.0000 0.0000
# 2 46.5773 25.0941 35.2587 0.0000 0.0000 0.0000
# 3 67.0571 35.2587 189.3026 0.0000 0.0000 0.0000
# 4 0.0000 0.0000 0.0000 43.4946 0.0000 0.0000
# 5 0.0000 0.0000 0.0000 0.0000 52.6458 0.0000
# 6 0.0000 0.0000 0.0000 0.0000 0.0000 33.0217
#
#
#
# Elastic Compliance Matrix: (Units=1/GPa)
#
#
# Indices 1 2 3 4 5 6 
#
# 1 0.016468 -0.030300 -0.000190 0.000000 0.000000 0.000000
# 2 -0.030300 0.109724 -0.009703 0.000000 0.000000 0.000000
# 3 -0.000190 -0.009703 0.007157 0.000000 0.000000 0.000000
# 4 0.000000 0.000000 0.000000 0.022991 0.000000 0.000000
# 5 0.000000 0.000000 0.000000 0.000000 0.018995 0.000000
# 6 0.000000 0.000000 0.000000 0.000000 0.000000 0.030283
#
#
# Mechanical properties :
#
#
# Convention : Reuss Voigt Hill
#
# Bulk Modulus (GPa) = 18.88126 73.26404 46.07265
# Shear Modulus (GPa) = 16.46574 40.01222 28.23898
#
# Velocity S-wave (km/s) = 2.99019 4.66127 3.91591
# Velocity P-wave (km/s) = 4.70899 8.29179 6.74271
#
# Compressibility (1/GPa) = 0.05296256
#
# Stress axis : x y z
#
# Youngs Moduli (GPa) = 60.72217 9.11375 139.71918
#
# Poissons Ratio (x) = 0.27615 0.02656
# Poissons Ratio (y) = 1.83989 1.35576
# Poissons Ratio (z) = 0.01154 0.08844
#
# Static dielectric constant tensor:
#      x y z
#    x 1.637290 0.000000 0.000000 
#    y 0.000000 1.595940 0.000000 
#    z 0.000000 0.000000 1.653340 
# 
# From -- ./inp_files/19881.got.cif
#   From: 2010.05.17/outbox.cif.g08.bks.cpg/sg58_10_cif.got.tgz:19881.got - 2010.06.03 14:20:14.
