data_PCOD9441680
_publ_section_title
;
Structure prediction by ZEFSAII (Michael W. Deem and Ramdas Pophale) SiO2 
 PCOD9441680
Probable space group: P N N M
;
_chemical_formula_sum "Si O2"
_cell_formula_units_Z 40
_cell_length_a 14.050410
_cell_length_b 19.245693
_cell_length_c 7.700090
_cell_angle_alpha 90.000000
_cell_angle_beta 90.000000
_cell_angle_gamma 90.000000
_cell_volume 2082.180393
_symmetry_space_group_name_H-M "P N N M"
_symmetry_group_IT_number 58
_symmetry_cell_setting 'orthorhombic'
loop_
_space_group_symop_operation_xyz
x,y,z
-x,-y,z
1/2+x,1/2-y,1/2-z
1/2-x,1/2+y,1/2-z
-x,-y,-z
x,y,-z
1/2-x,1/2+y,1/2+z
1/2+x,1/2-y,1/2+z
loop_
_atom_site_type_symbol
_atom_site_label
_atom_site_fract_x
_atom_site_fract_y
_atom_site_fract_z
Si Si1 0.103100 0.715585 0.292195
Si Si2 0.387511 0.785949 0.707823
Si Si3 0.392855 0.504479 0.293590
Si Si4 0.302610 0.357599 0.789841
Si Si5 0.792788 0.856610 0.787305
O O1 0.111270 0.717707 0.500000
O O2 0.130577 0.793383 0.230243
O O3 0.185885 0.663440 0.230480
O O4 0.995419 0.696383 0.250990
O O5 0.380119 0.784723 0.500000
O O6 0.304284 0.837732 0.769147
O O7 0.359249 0.708179 0.767197
O O8 0.500000 0.500000 0.221284
O O9 0.401838 0.516418 0.500000
O O10 0.339856 0.431752 0.268653
O O11 0.334057 0.570404 0.224526
O O12 0.303610 0.358100 0.000000
O O13 0.791990 0.857834 0.000000
#
# Coordination Sequence:
#
# PCOD9441680 Si02
#       5
#     8   8   8   8   8
#     4   9  17  31  50  69  92 123 156 190 231 277
#     4   9  17  32  52  70  92 123 158 195 231 270
#     4  10  19  31  50  73  94 121 158 195 230 274
#     4   9  19  33  48  70  99 126 151 188 240 284
#     4   8  16  31  48  68  95 123 152 190 234 275
#
# _framework density 19.210633000000001
#
# number of rings (size 3 to 8) (size 9 to 14) (size 15 to 20)
#    0.000    3.000    0.000    3.600    0.000    3.600 
#    0.000    6.000    0.000    6.000    0.000    0.000 
#    0.000    0.000    0.000    0.000    0.000    0.000 
#
# Total GULP energy -223023.742978 kJ/mol
# GULP energy per Si atom -5575.593574 kJ/mol
# Density = 1.916691 g / cm^3
# Si number density = 19.210633 Si / 1000 Ang^3
#
#
#
# Elastic Constant Matrix: (Units=GPa)
#
#
# Indices 1 2 3 4 5 6 
#
# 1 179.2560 96.9275 -1.0161 0.0000 0.0000 0.0000
# 2 96.9275 153.4533 -1.1294 0.0000 0.0000 0.0000
# 3 -1.0161 -1.1294 22.4899 0.0000 0.0000 0.0000
# 4 0.0000 0.0000 0.0000 21.6793 0.0000 0.0000
# 5 0.0000 0.0000 0.0000 0.0000 24.8353 0.0000
# 6 0.0000 0.0000 0.0000 0.0000 0.0000 16.7816
#
#
#
# Elastic Compliance Matrix: (Units=1/GPa)
#
#
# Indices 1 2 3 4 5 6 
#
# 1 0.008473 -0.005351 0.000114 0.000000 0.000000 0.000000
# 2 -0.005351 0.009898 0.000255 0.000000 0.000000 0.000000
# 3 0.000114 0.000255 0.044482 0.000000 0.000000 0.000000
# 4 0.000000 0.000000 0.000000 0.046127 0.000000 0.000000
# 5 0.000000 0.000000 0.000000 0.000000 0.040265 0.000000
# 6 0.000000 0.000000 0.000000 0.000000 0.000000 0.059589
#
#
# Mechanical properties :
#
#
# Convention : Reuss Voigt Hill
#
# Bulk Modulus (GPa) = 18.90702 60.52925 39.71814
# Shear Modulus (GPa) = 21.14816 30.02039 25.58427
#
# Velocity S-wave (km/s) = 3.32152 3.95738 3.65331
# Velocity P-wave (km/s) = 4.95714 7.24277 6.20609
#
# Compressibility (1/GPa) = 0.05289040
#
# Stress axis : x y z
#
# Youngs Moduli (GPa) = 118.02847 101.02755 22.48086
#
# Poissons Ratio (x) = 0.54057 -0.00256
# Poissons Ratio (y) = 0.63154 -0.00574
# Poissons Ratio (z) = -0.01347 -0.02579
#
# Static dielectric constant tensor:
#      x y z
#    x 1.679580 0.000000 0.000000 
#    y 0.000000 1.642610 0.000000 
#    z 0.000000 0.000000 1.721890 
# 
# From -- ./inp_files/3796.got.cif
#   From: 2010.05.17/outbox.cif.g08.bks.cpg/sg58_2_cif.got.tgz:3796.got - 2010.06.03 14:20:14.
