data_PCOD9441648
_publ_section_title
;
Structure prediction by ZEFSAII (Michael W. Deem and Ramdas Pophale) SiO2 
 PCOD9441648
Probable space group: P N N M
;
_chemical_formula_sum "Si O2"
_cell_formula_units_Z 48
_cell_length_a 23.142718
_cell_length_b 9.721376
_cell_length_c 10.432422
_cell_angle_alpha 90.000000
_cell_angle_beta 90.000000
_cell_angle_gamma 90.000000
_cell_volume 2347.076530
_symmetry_space_group_name_H-M "P N N M"
_symmetry_group_IT_number 58
_symmetry_cell_setting 'orthorhombic'
loop_
_space_group_symop_operation_xyz
x,y,z
-x,-y,z
1/2+x,1/2-y,1/2-z
1/2-x,1/2+y,1/2-z
-x,-y,-z
x,y,-z
1/2-x,1/2+y,1/2+z
1/2+x,1/2-y,1/2+z
loop_
_atom_site_type_symbol
_atom_site_label
_atom_site_fract_x
_atom_site_fract_y
_atom_site_fract_z
Si Si1 0.369411 0.044101 0.847394
Si Si2 0.205737 0.363709 0.849023
Si Si3 0.506551 0.341471 0.638958
Si Si4 0.463849 0.827350 0.141325
Si Si5 0.343920 0.359569 0.851068
Si Si6 0.376153 0.640416 0.736742
O O1 0.326464 0.968057 0.747892
O O2 0.432169 0.971557 0.830707
O O3 0.364875 0.206034 0.822209
O O4 0.354628 0.023525 0.000000
O O5 0.274593 0.367252 0.836970
O O6 0.182226 0.214750 0.804067
O O7 0.191630 0.387468 0.000000
O O8 0.500000 0.500000 0.679207
O O9 0.479299 0.319319 0.500000
O O10 0.494133 0.234094 0.750945
O O11 0.575951 0.328526 0.630134
O O12 0.408676 0.720974 0.147371
O O13 0.489438 0.826455 0.000000
O O14 0.369714 0.481036 0.765876
O O15 0.357962 0.388309 0.000000
#
# Coordination Sequence:
#
# PCOD9441648 Si02
#       6
#     8   8   8   8   8   8
#     4   9  18  32  49  69  98 134 167 203 250 298
#     4  10  19  32  50  71  98 135 175 209 245 295
#     4   9  18  32  53  77  98 125 164 210 256 299
#     4   8  16  29  49  73  95 124 162 201 243 293
#     4  10  19  31  48  73 103 135 168 207 251 296
#     4   9  18  30  50  72 101 130 163 205 250 292
#
# _framework density 20.450973000000001
#
# number of rings (size 3 to 8) (size 9 to 14) (size 15 to 20)
#    1.000    1.833    0.000    2.000    0.000    1.000 
#    0.000    3.333    0.000    1.000    0.000    5.833 
#    0.000    0.000    0.000    0.000    0.000    0.000 
#
# Total GULP energy -267215.399125 kJ/mol
# GULP energy per Si atom -5566.987482 kJ/mol
# Density = 2.040443 g / cm^3
# Si number density = 20.450973 Si / 1000 Ang^3
#
#
#
# Elastic Constant Matrix: (Units=GPa)
#
#
# Indices 1 2 3 4 5 6 
#
# 1 42.4989 12.9330 31.7113 0.0000 0.0000 0.0000
# 2 12.9330 136.1921 74.5222 0.0000 0.0000 0.0000
# 3 31.7113 74.5222 120.9519 0.0000 0.0000 0.0000
# 4 0.0000 0.0000 0.0000 0.8392 0.0000 0.0000
# 5 0.0000 0.0000 0.0000 0.0000 26.6246 0.0000
# 6 0.0000 0.0000 0.0000 0.0000 0.0000 27.1897
#
#
#
# Elastic Compliance Matrix: (Units=1/GPa)
#
#
# Indices 1 2 3 4 5 6 
#
# 1 0.029672 0.002171 -0.009117 0.000000 0.000000 0.000000
# 2 0.002171 0.011236 -0.007492 0.000000 0.000000 0.000000
# 3 -0.009117 -0.007492 0.015274 0.000000 0.000000 0.000000
# 4 0.000000 0.000000 0.000000 1.191568 0.000000 0.000000
# 5 0.000000 0.000000 0.000000 0.000000 0.037559 0.000000
# 6 0.000000 0.000000 0.000000 0.000000 0.000000 0.036779
#
#
# Mechanical properties :
#
#
# Convention : Reuss Voigt Hill
#
# Bulk Modulus (GPa) = 36.62183 59.77511 48.19847
# Shear Modulus (GPa) = 3.67629 22.96247 13.31938
#
# Velocity S-wave (km/s) = 1.34221 3.35446 2.55479
# Velocity P-wave (km/s) = 4.51088 6.65546 5.68521
#
# Compressibility (1/GPa) = 0.02730612
#
# Stress axis : x y z
#
# Youngs Moduli (GPa) = 33.70146 89.00039 65.47004
#
# Poissons Ratio (x) = -0.19322 0.59690
# Poissons Ratio (y) = -0.07317 0.49050
# Poissons Ratio (z) = 0.30726 0.66679
#
# Static dielectric constant tensor:
#      x y z
#    x 1.747940 0.000000 0.000000 
#    y 0.000000 1.736820 0.000000 
#    z 0.000000 0.000000 1.760330 
# 
# From -- ./inp_files/17916.got.cif
#   From: 2010.05.17/outbox.cif.g08.bks.cpg/sg58_9_cif.got.tgz:17916.got - 2010.06.03 14:20:14.
