data_PCOD9441379
_publ_section_title
;
Structure prediction by ZEFSAII (Michael W. Deem and Ramdas Pophale) SiO2 
 PCOD9441379
Probable space group: P N N M
;
_chemical_formula_sum "Si O2"
_cell_formula_units_Z 56
_cell_length_a 23.019377
_cell_length_b 11.198394
_cell_length_c 13.279694
_cell_angle_alpha 90.000000
_cell_angle_beta 90.000000
_cell_angle_gamma 90.000000
_cell_volume 3423.240227
_symmetry_space_group_name_H-M "P N N M"
_symmetry_group_IT_number 58
_symmetry_cell_setting 'orthorhombic'
loop_
_space_group_symop_operation_xyz
x,y,z
-x,-y,z
1/2+x,1/2-y,1/2-z
1/2-x,1/2+y,1/2-z
-x,-y,-z
x,y,-z
1/2-x,1/2+y,1/2+z
1/2+x,1/2-y,1/2+z
loop_
_atom_site_type_symbol
_atom_site_label
_atom_site_fract_x
_atom_site_fract_y
_atom_site_fract_z
Si Si1 0.421652 0.246623 0.619280
Si Si2 0.663088 0.384326 0.611481
Si Si3 0.766016 0.639461 0.884185
Si Si4 0.846355 0.083949 0.264008
Si Si5 0.939480 0.928275 0.617003
Si Si6 0.614804 0.028385 0.620213
Si Si7 0.447175 0.740692 0.695961
O O1 0.414786 0.274172 0.500000
O O2 0.381536 0.326892 0.691338
O O3 0.405776 0.106874 0.633407
O O4 0.488120 0.266476 0.652940
O O5 0.667911 0.434587 0.500000
O O6 0.702493 0.267306 0.619531
O O7 0.679024 0.480218 0.693677
O O8 0.597248 0.341281 0.632140
O O9 0.707793 0.640793 0.820687
O O10 0.817400 0.548050 0.852769
O O11 0.751262 0.611861 0.000000
O O12 0.890090 0.017423 0.340757
O O13 0.929276 0.897156 0.500000
O O14 0.943295 0.814301 0.691659
O O15 0.000000 0.000000 0.624136
O O16 0.609334 0.058203 0.500000
O O17 0.576767 0.124788 0.681282
#
# Coordination Sequence:
#
# PCOD9441379 Si02
#       7
#     8   8   8   8   8   8   8
#     4  11  21  32  52  85 115 136 170 214 265 322
#     4   9  19  34  53  77 107 136 171 216 266 318
#     4   9  19  36  54  72  98 141 185 216 257 313
#     4  11  21  32  54  79 104 141 174 219 266 307
#     4  10  20  36  53  75 104 137 182 226 259 303
#     4   9  19  35  56  80 110 140 173 216 262 320
#     4  10  18  34  57  81 103 144 173 209 270 322
#
# _framework density 16.35877
#
# number of rings (size 3 to 8) (size 9 to 14) (size 15 to 20)
#    0.000    2.143    1.429    3.429    2.000    1.143 
#    0.000    2.143    0.000    6.857    0.000    0.000 
#    0.000    0.000    0.000    0.000    0.000    0.000 
#
# Total GULP energy -312233.324108 kJ/mol
# GULP energy per Si atom -5575.595073 kJ/mol
# Density = 1.632154 g / cm^3
# Si number density = 16.358770 Si / 1000 Ang^3
#
#
#
# Elastic Constant Matrix: (Units=GPa)
#
#
# Indices 1 2 3 4 5 6 
#
# 1 113.7024 27.7322 60.4642 0.0000 0.0000 0.0000
# 2 27.7322 55.8519 40.9502 0.0000 0.0000 0.0000
# 3 60.4642 40.9502 110.8958 0.0000 0.0000 0.0000
# 4 0.0000 0.0000 0.0000 24.6221 0.0000 0.0000
# 5 0.0000 0.0000 0.0000 0.0000 19.9102 0.0000
# 6 0.0000 0.0000 0.0000 0.0000 0.0000 9.9306
#
#
#
# Elastic Compliance Matrix: (Units=1/GPa)
#
#
# Indices 1 2 3 4 5 6 
#
# 1 0.012497 -0.001658 -0.006202 0.000000 0.000000 0.000000
# 2 -0.001658 0.024772 -0.008243 0.000000 0.000000 0.000000
# 3 -0.006202 -0.008243 0.015443 0.000000 0.000000 0.000000
# 4 0.000000 0.000000 0.000000 0.040614 0.000000 0.000000
# 5 0.000000 0.000000 0.000000 0.000000 0.050226 0.000000
# 6 0.000000 0.000000 0.000000 0.000000 0.000000 0.100699
#
#
# Mechanical properties :
#
#
# Convention : Reuss Voigt Hill
#
# Bulk Modulus (GPa) = 48.76738 59.86036 54.31387
# Shear Modulus (GPa) = 17.64965 20.97947 19.31456
#
# Velocity S-wave (km/s) = 3.28824 3.58503 3.43984
# Velocity P-wave (km/s) = 6.65527 7.33541 7.00360
#
# Compressibility (1/GPa) = 0.02050551
#
# Stress axis : x y z
#
# Youngs Moduli (GPa) = 80.01807 40.36851 64.75546
#
# Poissons Ratio (x) = 0.06694 0.40158
# Poissons Ratio (y) = 0.13270 0.53379
# Poissons Ratio (z) = 0.49623 0.33277
#
# Static dielectric constant tensor:
#      x y z
#    x 1.539380 0.000000 0.000000 
#    y 0.000000 1.539590 0.000000 
#    z 0.000000 0.000000 1.542750 
# 
# From -- ./inp_files/14576.got.cif
#   From: 2010.05.17/outbox.cif.g08.bks.cpg/sg58_8_cif.got.tgz:14576.got - 2010.06.03 14:20:14.
