data_PCOD9441110
_publ_section_title
;
Structure prediction by ZEFSAII (Michael W. Deem and Ramdas Pophale) SiO2 
 PCOD9441110
Probable space group: P N N M
;
_chemical_formula_sum "Si O2"
_cell_formula_units_Z 56
_cell_length_a 14.853966
_cell_length_b 21.951354
_cell_length_c 7.517120
_cell_angle_alpha 90.000000
_cell_angle_beta 90.000000
_cell_angle_gamma 90.000000
_cell_volume 2451.067222
_symmetry_space_group_name_H-M "P N N M"
_symmetry_group_IT_number 58
_symmetry_cell_setting 'orthorhombic'
loop_
_space_group_symop_operation_xyz
x,y,z
-x,-y,z
1/2+x,1/2-y,1/2-z
1/2-x,1/2+y,1/2-z
-x,-y,-z
x,y,-z
1/2-x,1/2+y,1/2+z
1/2+x,1/2-y,1/2+z
loop_
_atom_site_type_symbol
_atom_site_label
_atom_site_fract_x
_atom_site_fract_y
_atom_site_fract_z
Si Si1 0.947565 0.645704 0.216047
Si Si2 0.851076 0.847697 0.281065
Si Si3 0.741265 0.105172 0.291702
Si Si4 0.712793 0.742686 0.296268
Si Si5 0.781854 0.977465 0.716621
Si Si6 0.577120 0.953545 0.283708
Si Si7 0.012300 0.770822 0.702014
O O1 0.860905 0.608016 0.278467
O O2 0.039057 0.612069 0.267740
O O3 0.946599 0.712815 0.291861
O O4 0.944390 0.649586 0.000000
O O5 0.850459 0.847130 0.500000
O O6 0.772817 0.799087 0.223477
O O7 0.833394 0.916946 0.221936
O O8 0.949440 0.824041 0.222791
O O9 0.731489 0.091984 0.500000
O O10 0.774142 0.174511 0.278661
O O11 0.799109 0.047589 0.223641
O O12 0.740477 0.737864 0.500000
O O13 0.604979 0.750656 0.289473
O O14 0.789847 0.975229 0.500000
O O15 0.677915 0.966700 0.769958
O O16 0.577991 0.956223 0.500000
O O17 0.500000 0.000000 0.224516
O O18 0.036089 0.786636 0.500000
#
# Coordination Sequence:
#
# PCOD9441110 Si02
#       7
#     8   8   8   8   8   8   8
#     4  10  18  30  52  82 112 143 178 221 280 338
#     4   9  19  35  56  82 111 144 184 232 281 328
#     4  10  19  32  55  85 112 142 181 227 277 331
#     4  11  22  39  60  83 111 149 190 232 283 336
#     4   9  16  29  50  78 112 144 182 230 276 323
#     4   9  14  23  44  78 111 138 174 222 268 323
#     4  11  22  37  56  81 110 144 189 238 281 326
#
# _framework density 22.847192
#
# number of rings (size 3 to 8) (size 9 to 14) (size 15 to 20)
#    0.000    2.143    2.857    1.714    0.000    2.286 
#    0.000    0.714    0.000   10.714    0.000    0.000 
#    0.000    0.000    0.000    0.000    0.000    0.000 
#
# Total GULP energy -312218.915493 kJ/mol
# GULP energy per Si atom -5575.337777 kJ/mol
# Density = 2.279519 g / cm^3
# Si number density = 22.847192 Si / 1000 Ang^3
#
#
#
# Elastic Constant Matrix: (Units=GPa)
#
#
# Indices 1 2 3 4 5 6 
#
# 1 33.2942 2.5922 0.1279 0.0000 0.0000 0.0000
# 2 2.5922 114.3239 -3.7057 0.0000 0.0000 0.0000
# 3 0.1279 -3.7057 51.1971 0.0000 0.0000 0.0000
# 4 0.0000 0.0000 0.0000 9.7962 0.0000 0.0000
# 5 0.0000 0.0000 0.0000 0.0000 7.0029 0.0000
# 6 0.0000 0.0000 0.0000 0.0000 0.0000 35.1795
#
#
#
# Elastic Compliance Matrix: (Units=1/GPa)
#
#
# Indices 1 2 3 4 5 6 
#
# 1 0.030089 -0.000686 -0.000125 0.000000 0.000000 0.000000
# 2 -0.000686 0.008783 0.000637 0.000000 0.000000 0.000000
# 3 -0.000125 0.000637 0.019579 0.000000 0.000000 0.000000
# 4 0.000000 0.000000 0.000000 0.102080 0.000000 0.000000
# 5 0.000000 0.000000 0.000000 0.000000 0.142798 0.000000
# 6 0.000000 0.000000 0.000000 0.000000 0.000000 0.028426
#
#
# Mechanical properties :
#
#
# Convention : Reuss Voigt Hill
#
# Bulk Modulus (GPa) = 17.21055 21.87157 19.54106
# Shear Modulus (GPa) = 14.22594 23.71577 18.97086
#
# Velocity S-wave (km/s) = 2.49801 3.22532 2.88468
# Velocity P-wave (km/s) = 3.98364 4.84397 4.43471
#
# Compressibility (1/GPa) = 0.05810389
#
# Stress axis : x y z
#
# Youngs Moduli (GPa) = 33.23457 113.85240 51.07564
#
# Poissons Ratio (x) = 0.07814 0.00638
# Poissons Ratio (y) = 0.02281 -0.03256
# Poissons Ratio (z) = 0.00415 -0.07258
#
# Static dielectric constant tensor:
#      x y z
#    x 1.857590 0.000000 0.000000 
#    y 0.000000 1.932230 0.000000 
#    z 0.000000 0.000000 1.885880 
# 
# From -- ./inp_files/6288.got.cif
#   From: 2010.05.17/outbox.cif.g08.bks.cpg/sg58_4_cif.got.tgz:6288.got - 2010.06.03 14:20:14.
