data_PCOD9441521
_publ_section_title
;
Structure prediction by ZEFSAII (Michael W. Deem and Ramdas Pophale) SiO2 
 PCOD9441521
Probable space group: P N N M
;
_chemical_formula_sum "Si O2"
_cell_formula_units_Z 64
_cell_length_a 20.108107
_cell_length_b 20.541892
_cell_length_c 7.359609
_cell_angle_alpha 90.000000
_cell_angle_beta 90.000000
_cell_angle_gamma 90.000000
_cell_volume 3039.949513
_symmetry_space_group_name_H-M "P N N M"
_symmetry_group_IT_number 58
_symmetry_cell_setting 'orthorhombic'
loop_
_space_group_symop_operation_xyz
x,y,z
-x,-y,z
1/2+x,1/2-y,1/2-z
1/2-x,1/2+y,1/2-z
-x,-y,-z
x,y,-z
1/2-x,1/2+y,1/2+z
1/2+x,1/2-y,1/2+z
loop_
_atom_site_type_symbol
_atom_site_label
_atom_site_fract_x
_atom_site_fract_y
_atom_site_fract_z
Si Si1 0.576162 0.671130 0.278725
Si Si2 0.248501 0.215236 0.718918
Si Si3 0.558392 0.955024 0.288287
Si Si4 0.726226 0.640514 0.721110
Si Si5 0.204393 0.492776 0.720163
Si Si6 0.679839 0.412975 0.710054
Si Si7 0.032251 0.068219 0.777784
Si Si8 0.898250 0.315754 0.778464
O O1 0.576942 0.670647 0.500000
O O2 0.648483 0.642904 0.223492
O O3 0.515624 0.626531 0.218164
O O4 0.570886 0.746575 0.223276
O O5 0.247847 0.215276 0.500000
O O6 0.242926 0.290117 0.777796
O O7 0.194780 0.163518 0.781712
O O8 0.320921 0.188686 0.776980
O O9 0.541280 0.945279 0.500000
O O10 0.629975 0.990114 0.279263
O O11 0.500000 0.000000 0.209489
O O12 0.568396 0.882139 0.212266
O O13 0.725934 0.639480 0.500000
O O14 0.766840 0.577195 0.779192
O O15 0.202438 0.493479 0.500000
O O16 0.257306 0.547192 0.785248
O O17 0.676373 0.433715 0.500000
O O18 0.607683 0.427248 0.788523
O O19 0.033548 0.070708 0.000000
O O20 0.000000 0.000000 0.726408
O O21 0.898340 0.317207 0.000000
#
# Coordination Sequence:
#
# PCOD9441521 Si02
#       8
#     8   8   8   8   8   8   8   8
#     4   8  13  24  44  67  91 124 162 194 225 271
#     4   9  16  30  51  68  88 123 165 197 226 279
#     4  10  20  34  50  70  95 122 160 206 244 282
#     4   8  15  28  48  72  93 124 166 199 226 276
#     4  10  19  32  50  72 100 127 157 195 242 294
#     4  10  19  29  46  75 103 124 151 197 246 283
#     4   9  16  26  41  66 100 129 153 189 238 283
#     4   8  14  27  47  66  85 116 160 195 223 272
#
# _framework density 21.052980999999999
#
# number of rings (size 3 to 8) (size 9 to 14) (size 15 to 20)
#    0.000    3.000    1.250    2.250    0.000    3.250 
#    2.250    0.625    0.000    0.375    0.000    4.375 
#    0.000    0.000    0.000    0.000    0.000    0.000 
#
# Total GULP energy -357165.025223 kJ/mol
# GULP energy per Si atom -5580.703519 kJ/mol
# Density = 2.100506 g / cm^3
# Si number density = 21.052981 Si / 1000 Ang^3
#
#
#
# Elastic Constant Matrix: (Units=GPa)
#
#
# Indices 1 2 3 4 5 6 
#
# 1 143.7715 89.9039 -5.1323 0.0000 0.0000 0.0000
# 2 89.9039 158.0498 -5.7558 0.0000 0.0000 0.0000
# 3 -5.1323 -5.7558 73.4072 0.0000 0.0000 0.0000
# 4 0.0000 0.0000 0.0000 3.0996 0.0000 0.0000
# 5 0.0000 0.0000 0.0000 0.0000 -47.5284 0.0000
# 6 0.0000 0.0000 0.0000 0.0000 0.0000 35.8403
#
#
#
# Elastic Compliance Matrix: (Units=1/GPa)
#
#
# Indices 1 2 3 4 5 6 
#
# 1 0.010801 -0.006134 0.000274 0.000000 0.000000 0.000000
# 2 -0.006134 0.009829 0.000342 0.000000 0.000000 0.000000
# 3 0.000274 0.000342 0.013669 0.000000 0.000000 0.000000
# 4 0.000000 0.000000 0.000000 0.322619 0.000000 0.000000
# 5 0.000000 0.000000 0.000000 0.000000 -0.021040 0.000000
# 6 0.000000 0.000000 0.000000 0.000000 0.000000 0.027902
#
#
# Mechanical properties :
#
#
# Convention : Reuss Voigt Hill
#
# Bulk Modulus (GPa) = 42.98775 59.25113 51.11944
# Shear Modulus (GPa) = 13.06955 18.02980 15.54968
#
# Velocity S-wave (km/s) = 2.49428 2.92961 2.72066
# Velocity P-wave (km/s) = 5.36268 6.29670 5.84837
#
# Compressibility (1/GPa) = 0.02326244
#
# Stress axis : x y z
#
# Youngs Moduli (GPa) = 92.58401 101.74206 73.16030
#
# Poissons Ratio (x) = 0.62408 -0.02006
# Poissons Ratio (y) = 0.56791 -0.02501
# Poissons Ratio (z) = -0.02539 -0.03478
#
# Static dielectric constant tensor:
#      x y z
#    x 1.713470 0.000000 0.000000 
#    y 0.000000 1.746530 0.000000 
#    z 0.000000 0.000000 1.832300 
# 
# From -- ./inp_files/16687.got.cif
#   From: 2010.05.17/outbox.cif.g08.bks.cpg/sg58_9_cif.got.tgz:16687.got - 2010.06.03 14:20:14.
