data_PCOD9441033
_publ_section_title
;
Structure prediction by ZEFSAII (Michael W. Deem and Ramdas Pophale) SiO2 
 PCOD9441033
Probable space group: P N N M
;
_chemical_formula_sum "Si O2"
_cell_formula_units_Z 64
_cell_length_a 8.233523
_cell_length_b 18.740970
_cell_length_c 18.441937
_cell_angle_alpha 90.000000
_cell_angle_beta 90.000000
_cell_angle_gamma 90.000000
_cell_volume 2845.668474
_symmetry_space_group_name_H-M "P N N M"
_symmetry_group_IT_number 58
_symmetry_cell_setting 'orthorhombic'
loop_
_space_group_symop_operation_xyz
x,y,z
-x,-y,z
1/2+x,1/2-y,1/2-z
1/2-x,1/2+y,1/2-z
-x,-y,-z
x,y,-z
1/2-x,1/2+y,1/2+z
1/2+x,1/2-y,1/2+z
loop_
_atom_site_type_symbol
_atom_site_label
_atom_site_fract_x
_atom_site_fract_y
_atom_site_fract_z
Si Si1 0.496730 0.168342 0.415784
Si Si2 0.425573 0.077815 0.779661
Si Si3 0.814720 0.905658 0.649021
Si Si4 0.711487 0.856166 0.915437
Si Si5 0.813727 0.698480 0.287836
Si Si6 0.464015 0.695935 0.681362
Si Si7 0.180728 0.465528 0.085280
Si Si8 0.517750 0.276059 0.086325
O O1 0.511593 0.185994 0.500000
O O2 0.328870 0.127088 0.401568
O O3 0.489693 0.236733 0.367290
O O4 0.647013 0.116555 0.396539
O O5 0.266761 0.091263 0.729353
O O6 0.390862 0.090942 0.864669
O O7 0.557570 0.139140 0.763465
O O8 0.500000 0.000000 0.765782
O O9 0.961957 0.852877 0.626632
O O10 0.814005 0.988603 0.626575
O O11 0.883335 0.857315 0.874969
O O12 0.643671 0.774003 0.907611
O O13 0.712017 0.872896 0.000000
O O14 0.630847 0.671233 0.282814
O O15 0.841983 0.768875 0.239431
O O16 0.857965 0.724688 0.369337
O O17 0.000000 0.500000 0.096661
O O18 0.215276 0.469591 0.000000
O O19 0.548385 0.284278 0.000000
#
# Coordination Sequence:
#
# PCOD9441033 Si02
#       8
#     8   8   8   8   8   8   8   8
#     4  10  18  29  51  85 122 162 200 242 290 356
#     4  11  23  41  64  92 126 167 214 260 314 383
#     4  11  17  30  56  89 126 163 201 243 296 366
#     4  10  24  42  62  89 122 161 210 272 331 381
#     4  11  22  37  60  93 124 162 206 259 312 379
#     4  12  22  38  61  87 124 158 205 264 321 378
#     4   8  15  25  43  80 124 160 201 235 266 337
#     4  10  19  34  57  88 122 156 197 246 311 372
#
# _framework density 22.490321000000002
#
# number of rings (size 3 to 8) (size 9 to 14) (size 15 to 20)
#    0.000    1.625    2.500    5.625    0.000    0.750 
#    0.000    0.625    0.000    1.500    0.000    3.500 
#    0.000    0.000    0.000    0.000    0.000    0.000 
#
# Total GULP energy -357148.511742 kJ/mol
# GULP energy per Si atom -5580.445496 kJ/mol
# Density = 2.243913 g / cm^3
# Si number density = 22.490321 Si / 1000 Ang^3
#
#
#
# Elastic Constant Matrix: (Units=GPa)
#
#
# Indices 1 2 3 4 5 6 
#
# 1 53.3241 -22.4718 28.8843 0.0000 0.0000 0.0000
# 2 -22.4718 38.3042 5.2023 0.0000 0.0000 0.0000
# 3 28.8843 5.2023 150.6341 0.0000 0.0000 0.0000
# 4 0.0000 0.0000 0.0000 25.1317 0.0000 0.0000
# 5 0.0000 0.0000 0.0000 0.0000 13.8448 0.0000
# 6 0.0000 0.0000 0.0000 0.0000 0.0000 14.5678
#
#
#
# Elastic Compliance Matrix: (Units=1/GPa)
#
#
# Indices 1 2 3 4 5 6 
#
# 1 0.029996 0.018465 -0.006389 0.000000 0.000000 0.000000
# 2 0.018465 0.037597 -0.004839 0.000000 0.000000 0.000000
# 3 -0.006389 -0.004839 0.008031 0.000000 0.000000 0.000000
# 4 0.000000 0.000000 0.000000 0.039790 0.000000 0.000000
# 5 0.000000 0.000000 0.000000 0.000000 0.072229 0.000000
# 6 0.000000 0.000000 0.000000 0.000000 0.000000 0.068644
#
#
# Mechanical properties :
#
#
# Convention : Reuss Voigt Hill
#
# Bulk Modulus (GPa) = 11.09913 29.49914 20.29913
# Shear Modulus (GPa) = 18.39270 26.08536 22.23903
#
# Velocity S-wave (km/s) = 2.86283 3.40935 3.14797
# Velocity P-wave (km/s) = 3.98416 5.35192 4.71787
#
# Compressibility (1/GPa) = 0.09009716
#
# Stress axis : x y z
#
# Youngs Moduli (GPa) = 33.33790 26.59784 124.51858
#
# Poissons Ratio (x) = -0.49114 0.79561
# Poissons Ratio (y) = -0.61560 0.60257
# Poissons Ratio (z) = 0.21301 0.12871
#
# Static dielectric constant tensor:
#      x y z
#    x 1.949850 0.000000 0.000000 
#    y 0.000000 1.898650 0.000000 
#    z 0.000000 0.000000 1.838690 
# 
# From -- ./inp_files/25660.got.cif
#   From: 2010.05.17/outbox.cif.g08.bks.cpg/sg58_13_cif.got.tgz:25660.got - 2010.06.03 14:20:14.
