data_PCOD9441401
_publ_section_title
;
Structure prediction by ZEFSAII (Michael W. Deem and Ramdas Pophale) SiO2 
 PCOD9441401
Probable space group: P N N M
;
_chemical_formula_sum "Si O2"
_cell_formula_units_Z 64
_cell_length_a 31.421241
_cell_length_b 12.073599
_cell_length_c 7.406757
_cell_angle_alpha 90.000000
_cell_angle_beta 90.000000
_cell_angle_gamma 90.000000
_cell_volume 2809.882619
_symmetry_space_group_name_H-M "P N N M"
_symmetry_group_IT_number 58
_symmetry_cell_setting 'orthorhombic'
loop_
_space_group_symop_operation_xyz
x,y,z
-x,-y,z
1/2+x,1/2-y,1/2-z
1/2-x,1/2+y,1/2-z
-x,-y,-z
x,y,-z
1/2-x,1/2+y,1/2+z
1/2+x,1/2-y,1/2+z
loop_
_atom_site_type_symbol
_atom_site_label
_atom_site_fract_x
_atom_site_fract_y
_atom_site_fract_z
Si Si1 0.192843 0.528313 0.720731
Si Si2 0.048246 0.523041 0.720053
Si Si3 0.963243 0.925259 0.708044
Si Si4 0.881827 0.305475 0.281491
Si Si5 0.212063 0.056738 0.794129
Si Si6 0.078802 0.285213 0.279771
Si Si7 0.672531 0.221673 0.782213
Si Si8 0.124133 0.955037 0.210726
O O1 0.192910 0.533905 0.500000
O O2 0.158943 0.621337 0.778546
O O3 0.241283 0.539927 0.785946
O O4 0.178754 0.404897 0.771122
O O5 0.047191 0.528122 0.500000
O O6 0.075158 0.630128 0.778305
O O7 0.072800 0.411470 0.773783
O O8 0.000000 0.500000 0.779231
O O9 0.976189 0.905804 0.500000
O O10 0.918160 0.989186 0.708326
O O11 0.955485 0.803186 0.785861
O O12 0.000000 0.000000 0.791984
O O13 0.882065 0.306876 0.500000
O O14 0.878702 0.177766 0.226851
O O15 0.204319 0.188113 0.793190
O O16 0.169483 0.999910 0.714334
O O17 0.214496 0.014278 0.000000
O O18 0.077644 0.285086 0.500000
O O19 0.125195 0.244100 0.226459
O O20 0.675443 0.226392 0.000000
O O21 0.123136 0.985175 0.000000
#
# Coordination Sequence:
#
# PCOD9441401 Si02
#       8
#     8   8   8   8   8   8   8   8
#     4   9  19  36  57  81 109 142 181 232 284 326
#     4   9  17  29  52  85 112 134 167 219 280 327
#     4  10  21  36  59  88 112 140 186 235 273 320
#     4  10  20  36  58  81 108 143 185 230 275 327
#     4  10  22  38  54  77 111 148 184 223 275 333
#     4   9  16  30  52  81 110 134 170 224 274 317
#     4  10  18  34  60  82 104 138 185 232 276 325
#     4  11  24  39  54  77 116 155 184 221 277 340
#
# _framework density 22.776751000000001
#
# number of rings (size 3 to 8) (size 9 to 14) (size 15 to 20)
#    0.000    2.250    2.500    0.375    3.500    0.750 
#    0.000    1.250    0.000    1.125    0.000    0.000 
#    0.000    0.000    0.000    0.000    0.000    0.000 
#
# Total GULP energy -357369.615039 kJ/mol
# GULP energy per Si atom -5583.900235 kJ/mol
# Density = 2.272491 g / cm^3
# Si number density = 22.776751 Si / 1000 Ang^3
#
#
#
# Elastic Constant Matrix: (Units=GPa)
#
#
# Indices 1 2 3 4 5 6 
#
# 1 93.5883 3.4745 -8.1972 0.0000 0.0000 0.0000
# 2 3.4745 94.4618 -16.1949 0.0000 0.0000 0.0000
# 3 -8.1972 -16.1949 75.8594 0.0000 0.0000 0.0000
# 4 0.0000 0.0000 0.0000 -4.9065 0.0000 0.0000
# 5 0.0000 0.0000 0.0000 0.0000 -4.2835 0.0000
# 6 0.0000 0.0000 0.0000 0.0000 0.0000 36.6414
#
#
#
# Elastic Compliance Matrix: (Units=1/GPa)
#
#
# Indices 1 2 3 4 5 6 
#
# 1 0.010791 -0.000204 0.001122 0.000000 0.000000 0.000000
# 2 -0.000204 0.010992 0.002325 0.000000 0.000000 0.000000
# 3 0.001122 0.002325 0.013800 0.000000 0.000000 0.000000
# 4 0.000000 0.000000 0.000000 -0.203813 0.000000 0.000000
# 5 0.000000 0.000000 0.000000 0.000000 -0.233457 0.000000
# 6 0.000000 0.000000 0.000000 0.000000 0.000000 0.027292
#
#
# Mechanical properties :
#
#
# Convention : Reuss Voigt Hill
#
# Bulk Modulus (GPa) = 23.77090 24.67492 24.22291
# Shear Modulus (GPa) = -13.62929 24.47877 5.42474
#
# Velocity S-wave (km/s) = -2.44885 3.28186 1.54495
# Velocity P-wave (km/s) = 1.56950 5.02172 3.72028
#
# Compressibility (1/GPa) = 0.04206825
#
# Stress axis : x y z
#
# Youngs Moduli (GPa) = 92.66982 90.97237 72.46458
#
# Poissons Ratio (x) = 0.01860 -0.08133
# Poissons Ratio (y) = 0.01895 -0.16845
# Poissons Ratio (z) = -0.10401 -0.21148
#
# Static dielectric constant tensor:
#      x y z
#    x 1.871310 0.000000 0.000000 
#    y 0.000000 1.799740 0.000000 
#    z 0.000000 0.000000 1.976210 
# 
# From -- ./inp_files/11038.got.cif
#   From: 2010.05.17/outbox.cif.g08.bks.cpg/sg58_6_cif.got.tgz:11038.got - 2010.06.03 14:20:14.
