data_PCOD9441676
_publ_section_title
;
Structure prediction by ZEFSAII (Michael W. Deem and Ramdas Pophale) SiO2 
 PCOD9441676
Probable space group: P N N M
;
_chemical_formula_sum "Si O2"
_cell_formula_units_Z 58
_cell_length_a 15.803338
_cell_length_b 18.429552
_cell_length_c 8.754380
_cell_angle_alpha 90.000000
_cell_angle_beta 90.000000
_cell_angle_gamma 90.000000
_cell_volume 2549.699513
_symmetry_space_group_name_H-M "P N N M"
_symmetry_group_IT_number 58
_symmetry_cell_setting 'orthorhombic'
loop_
_space_group_symop_operation_xyz
x,y,z
-x,-y,z
1/2+x,1/2-y,1/2-z
1/2-x,1/2+y,1/2-z
-x,-y,-z
x,y,-z
1/2-x,1/2+y,1/2+z
1/2+x,1/2-y,1/2+z
loop_
_atom_site_type_symbol
_atom_site_label
_atom_site_fract_x
_atom_site_fract_y
_atom_site_fract_z
Si Si1 0.880966 0.081815 0.674472
Si Si2 0.208829 0.783255 0.818576
Si Si3 0.805295 0.920362 0.676039
Si Si4 0.461548 0.633561 0.671608
Si Si5 0.869902 0.650547 0.816854
Si Si6 0.833767 0.497852 0.669132
Si Si7 0.455634 0.206492 0.675700
Si Si8 0.500000 0.000000 0.000000
O O1 0.865911 0.105654 0.500000
O O2 0.834953 0.138889 0.784288
O O3 0.846640 0.000881 0.689290
O O4 0.979518 0.087912 0.714778
O O5 0.301403 0.791554 0.745114
O O6 0.138223 0.724905 0.760432
O O7 0.217191 0.773389 0.000000
O O8 0.802422 0.898601 0.500000
O O9 0.713716 0.934164 0.745071
O O10 0.866009 0.869122 0.771580
O O11 0.467610 0.604133 0.500000
O O12 0.499216 0.714275 0.670742
O O13 0.836343 0.571948 0.764961
O O14 0.966309 0.660488 0.754570
O O15 0.872467 0.655595 0.000000
O O16 0.793626 0.511513 0.500000
O O17 0.929481 0.479650 0.630017
O O18 0.443108 0.181564 0.500000
#
# Coordination Sequence:
#
# PCOD9441676 Si02
#       8
#     8   8   8   8   8   8   8   2
#     4  10  19  31  49  80 119 151 186 237 286 347
#     4  10  19  34  56  84 114 151 198 248 292 358
#     4  11  21  33  54  86 117 152 194 241 295 354
#     4  10  20  34  52  78 120 165 195 227 290 355
#     4  11  20  36  63  90 117 152 199 250 304 358
#     4  10  21  40  63  85 111 148 197 253 294 354
#     4   8  19  37  55  79 120 160 195 241 300 358
#     4   8  24  44  62  84 114 140 190 252 302 338
#
# _framework density 22.747779000000001
#
# number of rings (size 3 to 8) (size 9 to 14) (size 15 to 20)
#    0.414    1.655    1.379    3.724    0.000    3.310 
#    0.000   11.034    3.034    1.655    0.000    0.000 
#    0.000    0.000    0.000    0.000    0.000    0.000 
#
# Total GULP energy -323178.159440 kJ/mol
# GULP energy per Si atom -5572.037232 kJ/mol
# Density = 2.269600 g / cm^3
# Si number density = 22.747779 Si / 1000 Ang^3
#
#
#
# Elastic Constant Matrix: (Units=GPa)
#
#
# Indices 1 2 3 4 5 6 
#
# 1 110.0939 27.6448 10.9887 0.0000 0.0000 0.0000
# 2 27.6448 59.9073 11.9893 0.0000 0.0000 0.0000
# 3 10.9887 11.9893 50.6322 0.0000 0.0000 0.0000
# 4 0.0000 0.0000 0.0000 -1.9222 0.0000 0.0000
# 5 0.0000 0.0000 0.0000 0.0000 38.5711 0.0000
# 6 0.0000 0.0000 0.0000 0.0000 0.0000 29.5642
#
#
#
# Elastic Compliance Matrix: (Units=1/GPa)
#
#
# Indices 1 2 3 4 5 6 
#
# 1 0.010339 -0.004537 -0.001170 0.000000 0.000000 0.000000
# 2 -0.004537 0.019514 -0.003636 0.000000 0.000000 0.000000
# 3 -0.001170 -0.003636 0.020865 0.000000 0.000000 0.000000
# 4 0.000000 0.000000 0.000000 -0.520238 0.000000 0.000000
# 5 0.000000 0.000000 0.000000 0.000000 0.025926 0.000000
# 6 0.000000 0.000000 0.000000 0.000000 0.000000 0.033825
#
#
# Mechanical properties :
#
#
# Convention : Reuss Voigt Hill
#
# Bulk Modulus (GPa) = 31.21807 35.76435 33.49121
# Shear Modulus (GPa) = -13.14384 24.57665 5.71641
#
# Velocity S-wave (km/s) = -2.40637 3.29051 1.58695
# Velocity P-wave (km/s) = 2.45612 5.49480 4.25590
#
# Compressibility (1/GPa) = 0.03203273
#
# Stress axis : x y z
#
# Youngs Moduli (GPa) = 96.71969 51.24575 47.92697
#
# Poissons Ratio (x) = 0.23250 0.05605
# Poissons Ratio (y) = 0.43882 0.17426
# Poissons Ratio (z) = 0.11312 0.18633
#
# Static dielectric constant tensor:
#      x y z
#    x 1.925130 0.000000 0.000000 
#    y 0.000000 1.873920 0.000000 
#    z 0.000000 0.000000 1.780810 
# 
# From -- ./inp_files/6715.got.cif
#   From: 2010.05.17/outbox.cif.g08.bks.cpg/sg58_4_cif.got.tgz:6715.got - 2010.06.03 14:20:14.
