data_PCOD9441922
_publ_section_title
;
Structure prediction by ZEFSAII (Michael W. Deem and Ramdas Pophale) SiO2 
 PCOD9441922
Probable space group: P N N M
;
_chemical_formula_sum "Si O2"
_cell_formula_units_Z 48
_cell_length_a 15.344254
_cell_length_b 20.026262
_cell_length_c 9.147027
_cell_angle_alpha 90.000000
_cell_angle_beta 90.000000
_cell_angle_gamma 90.000000
_cell_volume 2810.772097
_symmetry_space_group_name_H-M "P N N M"
_symmetry_group_IT_number 58
_symmetry_cell_setting 'orthorhombic'
loop_
_space_group_symop_operation_xyz
x,y,z
-x,-y,z
1/2+x,1/2-y,1/2-z
1/2-x,1/2+y,1/2-z
-x,-y,-z
x,y,-z
1/2-x,1/2+y,1/2+z
1/2+x,1/2-y,1/2+z
loop_
_atom_site_type_symbol
_atom_site_label
_atom_site_fract_x
_atom_site_fract_y
_atom_site_fract_z
Si Si1 0.590204 0.464936 0.325389
Si Si2 0.304108 0.160096 0.175518
Si Si3 0.003342 0.696493 0.674498
Si Si4 0.063153 0.437321 0.825804
Si Si5 0.611386 0.308177 0.326169
Si Si6 0.231388 0.519084 0.174660
O O1 0.500000 0.500000 0.284670
O O2 0.603361 0.473043 0.500000
O O3 0.587501 0.385477 0.296355
O O4 0.673614 0.493572 0.241365
O O5 0.393519 0.197558 0.211582
O O6 0.214110 0.197751 0.212395
O O7 0.301447 0.088716 0.255515
O O8 0.302055 0.148065 0.000000
O O9 0.995634 0.696797 0.500000
O O10 0.965681 0.627527 0.738433
O O11 0.949742 0.757416 0.741706
O O12 0.160777 0.462042 0.792315
O O13 0.000000 0.500000 0.793696
O O14 0.056562 0.423974 0.000000
O O15 0.602543 0.296749 0.500000
O O16 0.235858 0.526538 0.000000
#
# Coordination Sequence:
#
# PCOD9441922 Si02
#       6
#     8   8   8   8   8   8
#     4   9  19  38  61  81 108 145 182 221 272 327
#     4   9  19  36  56  76 104 144 180 216 272 324
#     4  11  22  35  55  82 109 140 182 231 269 315
#     4  10  20  35  54  80 113 145 176 214 270 330
#     4   9  19  37  57  76 106 146 179 216 270 328
#     4  10  19  32  55  83 108 138 178 223 265 315
#
# _framework density 17.077158000000001
#
# number of rings (size 3 to 8) (size 9 to 14) (size 15 to 20)
#    0.000    2.333    1.667    2.000    0.000    5.333 
#    3.000    0.000    0.000    0.000    0.000    0.000 
#    0.000    0.000    0.000    0.000    0.000    0.000 
#
# Total GULP energy -267780.539457 kJ/mol
# GULP energy per Si atom -5578.761239 kJ/mol
# Density = 1.703829 g / cm^3
# Si number density = 17.077158 Si / 1000 Ang^3
#
#
#
# Elastic Constant Matrix: (Units=GPa)
#
#
# Indices 1 2 3 4 5 6 
#
# 1 188.6410 83.3088 67.0597 0.0000 0.0000 0.0000
# 2 83.3088 64.9599 40.0821 0.0000 0.0000 0.0000
# 3 67.0597 40.0821 39.2889 0.0000 0.0000 0.0000
# 4 0.0000 0.0000 0.0000 28.7048 0.0000 0.0000
# 5 0.0000 0.0000 0.0000 0.0000 30.1792 0.0000
# 6 0.0000 0.0000 0.0000 0.0000 0.0000 30.4880
#
#
#
# Elastic Compliance Matrix: (Units=1/GPa)
#
#
# Indices 1 2 3 4 5 6 
#
# 1 0.015393 -0.009526 -0.016555 0.000000 0.000000 0.000000
# 2 -0.009526 0.047444 -0.032141 0.000000 0.000000 0.000000
# 3 -0.016555 -0.032141 0.086500 0.000000 0.000000 0.000000
# 4 0.000000 0.000000 0.000000 0.034837 0.000000 0.000000
# 5 0.000000 0.000000 0.000000 0.000000 0.033135 0.000000
# 6 0.000000 0.000000 0.000000 0.000000 0.000000 0.032800
#
#
# Mechanical properties :
#
#
# Convention : Reuss Voigt Hill
#
# Bulk Modulus (GPa) = 30.40363 74.86568 52.63465
# Shear Modulus (GPa) = 13.24436 24.70368 18.97402
#
# Velocity S-wave (km/s) = 2.78791 3.80753 3.33690
# Velocity P-wave (km/s) = 5.31089 7.95390 6.76277
#
# Compressibility (1/GPa) = 0.03289081
#
# Stress axis : x y z
#
# Youngs Moduli (GPa) = 64.96278 21.07769 11.56069
#
# Poissons Ratio (x) = 0.20080 0.19139
# Poissons Ratio (y) = 0.61886 0.37158
# Poissons Ratio (z) = 1.07548 0.67747
#
# Static dielectric constant tensor:
#      x y z
#    x 1.592870 0.000000 0.000000 
#    y 0.000000 1.539970 0.000000 
#    z 0.000000 0.000000 1.567420 
# 
# From -- ./inp_files/6040.got.cif
#   From: 2010.05.17/outbox.cif.g08.bks.cpg/sg58_4_cif.got.tgz:6040.got - 2010.06.03 14:20:14.
