data_PCOD9441066
_publ_section_title
;
Structure prediction by ZEFSAII (Michael W. Deem and Ramdas Pophale) SiO2 
 PCOD9441066
Probable space group: P N N M
;
_chemical_formula_sum "Si O2"
_cell_formula_units_Z 48
_cell_length_a 9.163964
_cell_length_b 13.158492
_cell_length_c 22.454723
_cell_angle_alpha 90.000000
_cell_angle_beta 90.000000
_cell_angle_gamma 90.000000
_cell_volume 2707.679128
_symmetry_space_group_name_H-M "P N N M"
_symmetry_group_IT_number 58
_symmetry_cell_setting 'orthorhombic'
loop_
_space_group_symop_operation_xyz
x,y,z
-x,-y,z
1/2+x,1/2-y,1/2-z
1/2-x,1/2+y,1/2-z
-x,-y,-z
x,y,-z
1/2-x,1/2+y,1/2+z
1/2+x,1/2-y,1/2+z
loop_
_atom_site_type_symbol
_atom_site_label
_atom_site_fract_x
_atom_site_fract_y
_atom_site_fract_z
Si Si1 0.577232 0.890056 0.617022
Si Si2 0.189521 0.278949 0.067702
Si Si3 0.332691 0.461817 0.260378
Si Si4 0.329333 0.479366 0.878654
Si Si5 0.044939 0.752381 0.772198
Si Si6 0.258896 0.160968 0.816664
O O1 0.477913 0.816955 0.576720
O O2 0.574736 0.836468 0.681006
O O3 0.500000 0.000000 0.619031
O O4 0.739879 0.922066 0.599295
O O5 0.282661 0.378822 0.085936
O O6 0.226728 0.192224 0.115740
O O7 0.215458 0.249671 0.000000
O O8 0.500000 0.500000 0.259510
O O9 0.285628 0.461692 0.191108
O O10 0.349429 0.348363 0.284837
O O11 0.244611 0.542344 0.299702
O O12 0.500000 0.500000 0.881460
O O13 0.093808 0.712188 0.707842
O O14 0.878849 0.789645 0.780248
#
# Coordination Sequence:
#
# PCOD9441066 Si02
#       6
#     8   8   8   8   8   8
#     4   9  19  32  50  74 104 136 169 212 257 307
#     4  10  21  35  49  72 107 144 173 201 253 320
#     4   9  17  29  47  74 104 130 157 216 272 297
#     4  10  18  30  51  75 104 136 168 214 261 307
#     4  10  18  30  49  74 102 129 166 213 267 301
#     4  10  19  31  52  73  99 133 168 213 261 307
#
# _framework density 17.727359
#
# number of rings (size 3 to 8) (size 9 to 14) (size 15 to 20)
#    0.000    2.333    3.333    0.000    0.000    3.333 
#    0.000    0.000    0.000   12.500    0.000    0.000 
#    0.000    9.000    0.000    0.000    0.000    0.000 
#
# Total GULP energy -267450.213791 kJ/mol
# GULP energy per Si atom -5571.879454 kJ/mol
# Density = 1.768701 g / cm^3
# Si number density = 17.727359 Si / 1000 Ang^3
#
#
#
# Elastic Constant Matrix: (Units=GPa)
#
#
# Indices 1 2 3 4 5 6 
#
# 1 53.2875 -7.3123 14.7945 0.0000 0.0000 0.0000
# 2 -7.3123 34.5717 18.7116 0.0000 0.0000 0.0000
# 3 14.7945 18.7116 103.5622 0.0000 0.0000 0.0000
# 4 0.0000 0.0000 0.0000 15.8314 0.0000 0.0000
# 5 0.0000 0.0000 0.0000 0.0000 12.3646 0.0000
# 6 0.0000 0.0000 0.0000 0.0000 0.0000 12.0903
#
#
#
# Elastic Compliance Matrix: (Units=1/GPa)
#
#
# Indices 1 2 3 4 5 6 
#
# 1 0.020843 0.006673 -0.004183 0.000000 0.000000 0.000000
# 2 0.006673 0.034197 -0.007132 0.000000 0.000000 0.000000
# 3 -0.004183 -0.007132 0.011542 0.000000 0.000000 0.000000
# 4 0.000000 0.000000 0.000000 0.063165 0.000000 0.000000
# 5 0.000000 0.000000 0.000000 0.000000 0.080876 0.000000
# 6 0.000000 0.000000 0.000000 0.000000 0.000000 0.082711
#
#
# Mechanical properties :
#
#
# Convention : Reuss Voigt Hill
#
# Bulk Modulus (GPa) = 17.45280 27.08990 22.27135
# Shear Modulus (GPa) = 15.54151 19.07243 17.30697
#
# Velocity S-wave (km/s) = 2.96412 3.28361 3.12795
# Velocity P-wave (km/s) = 4.64555 5.44892 5.06319
#
# Compressibility (1/GPa) = 0.05729741
#
# Stress axis : x y z
#
# Youngs Moduli (GPa) = 47.97727 29.24245 86.63840
#
# Poissons Ratio (x) = -0.19513 0.36243
# Poissons Ratio (y) = -0.32014 0.61790
# Poissons Ratio (z) = 0.20070 0.20856
#
# Static dielectric constant tensor:
#      x y z
#    x 1.663340 0.000000 0.000000 
#    y 0.000000 1.629670 0.000000 
#    z 0.000000 0.000000 1.595140 
# 
# From -- ./inp_files/28836.got.cif
#   From: 2010.05.17/outbox.cif.g08.bks.cpg/sg58_15_cif.got.tgz:28836.got - 2010.06.03 14:20:14.
