data_PCOD9441878
_publ_section_title
;
Structure prediction by ZEFSAII (Michael W. Deem and Ramdas Pophale) SiO2 
 PCOD9441878
Probable space group: P N N M
;
_chemical_formula_sum "Si O2"
_cell_formula_units_Z 56
_cell_length_a 9.537465
_cell_length_b 21.224923
_cell_length_c 16.223090
_cell_angle_alpha 90.000000
_cell_angle_beta 90.000000
_cell_angle_gamma 90.000000
_cell_volume 3284.071910
_symmetry_space_group_name_H-M "P N N M"
_symmetry_group_IT_number 58
_symmetry_cell_setting 'orthorhombic'
loop_
_space_group_symop_operation_xyz
x,y,z
-x,-y,z
1/2+x,1/2-y,1/2-z
1/2-x,1/2+y,1/2-z
-x,-y,-z
x,y,-z
1/2-x,1/2+y,1/2+z
1/2+x,1/2-y,1/2+z
loop_
_atom_site_type_symbol
_atom_site_label
_atom_site_fract_x
_atom_site_fract_y
_atom_site_fract_z
Si Si1 0.765992 0.373073 0.703396
Si Si2 0.995646 0.431439 0.406739
Si Si3 0.335334 0.493028 0.222250
Si Si4 0.619124 0.052695 0.407429
Si Si5 0.253133 0.870168 0.828349
Si Si6 0.978373 0.803036 0.100753
Si Si7 0.021153 0.327492 0.804561
O O1 0.880329 0.389932 0.635461
O O2 0.717955 0.439873 0.742315
O O3 0.639351 0.339842 0.654934
O O4 0.863025 0.333357 0.767336
O O5 0.953454 0.440580 0.500000
O O6 0.000000 0.500000 0.364259
O O7 0.144148 0.398492 0.397240
O O8 0.500000 0.500000 0.209136
O O9 0.251230 0.476220 0.139824
O O10 0.305285 0.432397 0.280971
O O11 0.655093 0.072505 0.500000
O O12 0.555610 0.109999 0.355887
O O13 0.500000 0.000000 0.410090
O O14 0.356943 0.830505 0.766838
O O15 0.127327 0.831547 0.869057
O O16 0.968877 0.731913 0.135175
O O17 0.962998 0.807315 0.000000
#
# Coordination Sequence:
#
# PCOD9441878 Si02
#       7
#     8   8   8   8   8   8   8
#     4  11  21  37  58  85 112 152 197 231 285 345
#     4  10  19  32  53  81 114 148 189 239 283 326
#     4  11  20  36  57  85 120 148 188 236 292 344
#     4  10  20  36  62  91 110 140 191 247 290 331
#     4  10  21  36  58  84 112 152 196 235 281 348
#     4  12  24  39  56  84 121 155 190 238 285 336
#     4  10  22  39  63  81 114 152 201 230 283 343
#
# _framework density 17.052002000000002
#
# number of rings (size 3 to 8) (size 9 to 14) (size 15 to 20)
#    0.000    1.429    4.286    2.143    0.000    0.286 
#    0.000    0.714    0.000    0.000    0.000    0.000 
#    0.000    0.000    0.000    0.000    0.000    0.000 
#
# Total GULP energy -311987.978814 kJ/mol
# GULP energy per Si atom -5571.213907 kJ/mol
# Density = 1.701319 g / cm^3
# Si number density = 17.052002 Si / 1000 Ang^3
#
#
#
# Elastic Constant Matrix: (Units=GPa)
#
#
# Indices 1 2 3 4 5 6 
#
# 1 119.6559 37.1322 34.2558 0.0000 0.0000 0.0000
# 2 37.1322 76.4421 29.2050 0.0000 0.0000 0.0000
# 3 34.2558 29.2050 92.0853 0.0000 0.0000 0.0000
# 4 0.0000 0.0000 0.0000 22.1295 0.0000 0.0000
# 5 0.0000 0.0000 0.0000 0.0000 20.4783 0.0000
# 6 0.0000 0.0000 0.0000 0.0000 0.0000 26.0829
#
#
#
# Elastic Compliance Matrix: (Units=1/GPa)
#
#
# Indices 1 2 3 4 5 6 
#
# 1 0.010347 -0.004046 -0.002566 0.000000 0.000000 0.000000
# 2 -0.004046 0.016467 -0.003718 0.000000 0.000000 0.000000
# 3 -0.002566 -0.003718 0.012993 0.000000 0.000000 0.000000
# 4 0.000000 0.000000 0.000000 0.045189 0.000000 0.000000
# 5 0.000000 0.000000 0.000000 0.000000 0.048832 0.000000
# 6 0.000000 0.000000 0.000000 0.000000 0.000000 0.038339
#
#
# Mechanical properties :
#
#
# Convention : Reuss Voigt Hill
#
# Bulk Modulus (GPa) = 52.22259 54.37438 53.29849
# Shear Modulus (GPa) = 25.09911 26.24417 25.67164
#
# Velocity S-wave (km/s) = 3.84072 3.92735 3.88428
# Velocity P-wave (km/s) = 7.09649 7.24721 7.17224
#
# Compressibility (1/GPa) = 0.01914880
#
# Stress axis : x y z
#
# Youngs Moduli (GPa) = 96.64170 60.72586 76.96380
#
# Poissons Ratio (x) = 0.24570 0.19750
# Poissons Ratio (y) = 0.39101 0.28612
# Poissons Ratio (z) = 0.24799 0.22575
#
# Static dielectric constant tensor:
#      x y z
#    x 1.567020 0.000000 0.000000 
#    y 0.000000 1.593720 0.000000 
#    z 0.000000 0.000000 1.597330 
# 
# From -- ./inp_files/20106.got.cif
#   From: 2010.05.17/outbox.cif.g08.bks.cpg/sg58_11_cif.got.tgz:20106.got - 2010.06.03 14:20:14.
