data_PCOD9441741
_publ_section_title
;
Structure prediction by ZEFSAII (Michael W. Deem and Ramdas Pophale) SiO2 
 PCOD9441741
Probable space group: P N N M
;
_chemical_formula_sum "Si O2"
_cell_formula_units_Z 56
_cell_length_a 15.283876
_cell_length_b 21.457448
_cell_length_c 7.818113
_cell_angle_alpha 90.000000
_cell_angle_beta 90.000000
_cell_angle_gamma 90.000000
_cell_volume 2563.973413
_symmetry_space_group_name_H-M "P N N M"
_symmetry_group_IT_number 58
_symmetry_cell_setting 'orthorhombic'
loop_
_space_group_symop_operation_xyz
x,y,z
-x,-y,z
1/2+x,1/2-y,1/2-z
1/2-x,1/2+y,1/2-z
-x,-y,-z
x,y,-z
1/2-x,1/2+y,1/2+z
1/2+x,1/2-y,1/2+z
loop_
_atom_site_type_symbol
_atom_site_label
_atom_site_fract_x
_atom_site_fract_y
_atom_site_fract_z
Si Si1 0.096617 0.493166 0.802804
Si Si2 0.722213 0.116390 0.798442
Si Si3 0.898412 0.726055 0.703704
Si Si4 0.709803 0.892726 0.798343
Si Si5 0.090029 0.864875 0.791443
Si Si6 0.407742 0.219046 0.295276
Si Si7 0.100083 0.130671 0.200128
O O1 0.157710 0.441252 0.720475
O O2 0.146318 0.558518 0.791105
O O3 0.000000 0.500000 0.725617
O O4 0.085795 0.474022 0.000000
O O5 0.674151 0.178077 0.729021
O O6 0.820018 0.103867 0.731505
O O7 0.733243 0.128762 0.000000
O O8 0.887249 0.734770 0.500000
O O9 0.895249 0.794048 0.787471
O O10 0.995479 0.698713 0.735600
O O11 0.667904 0.824473 0.777069
O O12 0.808731 0.894526 0.727848
O O13 0.711237 0.907911 0.000000
O O14 0.100448 0.791670 0.747456
O O15 0.995132 0.887050 0.726489
O O16 0.084434 0.868871 0.000000
O O17 0.404246 0.215278 0.500000
O O18 0.100080 0.113401 0.000000
#
# Coordination Sequence:
#
# PCOD9441741 Si02
#       7
#     8   8   8   8   8   8   8
#     4  11  25  42  58  77 103 138 178 221 273 328
#     4  10  20  35  56  79 105 140 180 221 264 313
#     4  10  19  31  52  84 116 145 180 221 267 320
#     4  11  22  36  56  81 108 142 184 226 269 320
#     4   8  16  33  55  79 108 142 177 212 258 316
#     4  10  19  33  54  80 113 149 181 219 270 324
#     4   9  19  35  55  81 113 146 179 217 265 323
#
# _framework density 21.841099
#
# number of rings (size 3 to 8) (size 9 to 14) (size 15 to 20)
#    0.000    2.143    0.000    4.286    0.000    6.857 
#    0.000    4.286    0.000    4.286    0.000    0.000 
#    0.000    0.000    0.000    0.000    0.000    0.000 
#
# Total GULP energy -312677.750997 kJ/mol
# GULP energy per Si atom -5583.531268 kJ/mol
# Density = 2.179139 g / cm^3
# Si number density = 21.841099 Si / 1000 Ang^3
#
#
#
# Elastic Constant Matrix: (Units=GPa)
#
#
# Indices 1 2 3 4 5 6 
#
# 1 221.3842 37.7579 -1.3364 0.0000 0.0000 0.0000
# 2 37.7579 18.7817 -11.5623 0.0000 0.0000 0.0000
# 3 -1.3364 -11.5623 31.7557 0.0000 0.0000 0.0000
# 4 0.0000 0.0000 0.0000 15.2966 0.0000 0.0000
# 5 0.0000 0.0000 0.0000 0.0000 12.5664 0.0000
# 6 0.0000 0.0000 0.0000 0.0000 0.0000 27.9692
#
#
#
# Elastic Compliance Matrix: (Units=1/GPa)
#
#
# Indices 1 2 3 4 5 6 
#
# 1 0.007937 -0.020300 -0.007057 0.000000 0.000000 0.000000
# 2 -0.020300 0.120548 0.043038 0.000000 0.000000 0.000000
# 3 -0.007057 0.043038 0.046864 0.000000 0.000000 0.000000
# 4 0.000000 0.000000 0.000000 0.065374 0.000000 0.000000
# 5 0.000000 0.000000 0.000000 0.000000 0.079577 0.000000
# 6 0.000000 0.000000 0.000000 0.000000 0.000000 0.035754
#
#
# Mechanical properties :
#
#
# Convention : Reuss Voigt Hill
#
# Bulk Modulus (GPa) = 4.83772 35.73777 20.28775
# Shear Modulus (GPa) = 12.70337 27.63725 20.17031
#
# Velocity S-wave (km/s) = 2.41431 3.56107 3.04222
# Velocity P-wave (km/s) = 3.16095 5.77118 4.65285
#
# Compressibility (1/GPa) = 0.20670879
#
# Stress axis : x y z
#
# Youngs Moduli (GPa) = 125.99704 8.29544 21.33853
#
# Poissons Ratio (x) = 0.16840 0.15059
# Poissons Ratio (y) = 2.55776 -0.91836
# Poissons Ratio (z) = 0.88920 -0.35702
#
# Static dielectric constant tensor:
#      x y z
#    x 1.867840 0.000000 0.000000 
#    y 0.000000 1.760930 0.000000 
#    z 0.000000 0.000000 1.791510 
# 
# From -- ./inp_files/6424.got.cif
#   From: 2010.05.17/outbox.cif.g08.bks.cpg/sg58_4_cif.got.tgz:6424.got - 2010.06.03 14:20:14.
