data_PCOD9441306
_publ_section_title
;
Structure prediction by ZEFSAII (Michael W. Deem and Ramdas Pophale) SiO2 
 PCOD9441306
Probable space group: P N N M
;
_chemical_formula_sum "Si O2"
_cell_formula_units_Z 64
_cell_length_a 9.828316
_cell_length_b 21.644291
_cell_length_c 15.739165
_cell_angle_alpha 90.000000
_cell_angle_beta 90.000000
_cell_angle_gamma 90.000000
_cell_volume 3348.144276
_symmetry_space_group_name_H-M "P N N M"
_symmetry_group_IT_number 58
_symmetry_cell_setting 'orthorhombic'
loop_
_space_group_symop_operation_xyz
x,y,z
-x,-y,z
1/2+x,1/2-y,1/2-z
1/2-x,1/2+y,1/2-z
-x,-y,-z
x,y,-z
1/2-x,1/2+y,1/2+z
1/2+x,1/2-y,1/2+z
loop_
_atom_site_type_symbol
_atom_site_label
_atom_site_fract_x
_atom_site_fract_y
_atom_site_fract_z
Si Si1 0.731566 0.110514 0.788290
Si Si2 0.183218 0.374979 0.097708
Si Si3 0.987362 0.824727 0.774637
Si Si4 0.908029 0.438815 0.092100
Si Si5 0.664308 0.992341 0.898670
Si Si6 0.464415 0.194297 0.190179
Si Si7 0.723186 0.269854 0.406143
Si Si8 0.243861 0.599775 0.749667
O O1 0.729341 0.093665 0.686799
O O2 0.597532 0.151932 0.807822
O O3 0.866606 0.150637 0.801962
O O4 0.726118 0.052251 0.851162
O O5 0.223405 0.303565 0.110674
O O6 0.020397 0.384513 0.097265
O O7 0.226740 0.393356 0.000000
O O8 0.002788 0.763550 0.718484
O O9 0.886852 0.802837 0.848414
O O10 0.898723 0.880340 0.735428
O O11 0.810639 0.439390 0.171833
O O12 0.000000 0.500000 0.093734
O O13 0.838896 0.435348 0.000000
O O14 0.713905 0.935300 0.839386
O O15 0.500000 0.000000 0.891870
O O16 0.696736 0.987300 0.000000
O O17 0.373993 0.202605 0.105904
O O18 0.352326 0.160803 0.249736
O O19 0.675140 0.278885 0.500000
#
# Coordination Sequence:
#
# PCOD9441306 Si02
#       8
#     8   8   8   8   8   8   8   8
#     4  12  21  39  64  89 127 166 214 271 317 376
#     4  10  18  32  58  88 119 157 201 255 314 377
#     4  11  23  37  59  93 128 166 202 257 333 388
#     4  10  19  33  59  90 115 152 208 253 301 370
#     4  11  24  42  66  93 119 164 225 271 310 372
#     4  11  20  38  63  88 118 165 215 254 308 377
#     4  10  21  37  58  85 120 164 211 254 314 388
#     4  11  21  39  62  87 126 165 201 262 318 373
#
# _framework density 19.115065999999999
#
# number of rings (size 3 to 8) (size 9 to 14) (size 15 to 20)
#    0.000    1.250    5.000    1.875    0.000    3.500 
#    0.000    1.875    0.000    1.500    0.000    4.375 
#    0.000    0.000    0.000    0.000    0.000    0.000 
#
# Total GULP energy -356498.140041 kJ/mol
# GULP energy per Si atom -5570.283438 kJ/mol
# Density = 1.907156 g / cm^3
# Si number density = 19.115066 Si / 1000 Ang^3
#
#
#
# Elastic Constant Matrix: (Units=GPa)
#
#
# Indices 1 2 3 4 5 6 
#
# 1 85.4559 23.6299 14.0085 0.0000 0.0000 0.0000
# 2 23.6299 67.9040 31.6008 0.0000 0.0000 0.0000
# 3 14.0085 31.6008 129.7510 0.0000 0.0000 0.0000
# 4 0.0000 0.0000 0.0000 21.1459 0.0000 0.0000
# 5 0.0000 0.0000 0.0000 0.0000 -4.8533 0.0000
# 6 0.0000 0.0000 0.0000 0.0000 0.0000 9.1106
#
#
#
# Elastic Compliance Matrix: (Units=1/GPa)
#
#
# Indices 1 2 3 4 5 6 
#
# 1 0.012961 -0.004352 -0.000339 0.000000 0.000000 0.000000
# 2 -0.004352 0.018071 -0.003931 0.000000 0.000000 0.000000
# 3 -0.000339 -0.003931 0.008701 0.000000 0.000000 0.000000
# 4 0.000000 0.000000 0.000000 0.047291 0.000000 0.000000
# 5 0.000000 0.000000 0.000000 0.000000 -0.206046 0.000000
# 6 0.000000 0.000000 0.000000 0.000000 0.000000 0.109762
#
#
# Mechanical properties :
#
#
# Convention : Reuss Voigt Hill
#
# Bulk Modulus (GPa) = 44.46993 46.84324 45.65658
# Shear Modulus (GPa) = 322.97241 19.33876 171.15559
#
# Velocity S-wave (km/s) = 13.01265 3.18418 9.47280
# Velocity P-wave (km/s) = 15.78249 6.17072 11.98258
#
# Compressibility (1/GPa) = 0.02248711
#
# Stress axis : x y z
#
# Youngs Moduli (GPa) = 77.15415 55.33802 114.92739
#
# Poissons Ratio (x) = 0.24085 0.03900
# Poissons Ratio (y) = 0.33581 0.45180
# Poissons Ratio (z) = 0.02618 0.21755
#
# Static dielectric constant tensor:
#      x y z
#    x 1.657310 0.000000 0.000000 
#    y 0.000000 1.798380 0.000000 
#    z 0.000000 0.000000 1.714640 
# 
# From -- ./inp_files/20285.got.cif
#   From: 2010.05.17/outbox.cif.g08.bks.cpg/sg58_11_cif.got.tgz:20285.got - 2010.06.03 14:20:14.
