data_PCOD9441850
_publ_section_title
;
Structure prediction by ZEFSAII (Michael W. Deem and Ramdas Pophale) SiO2 
 PCOD9441850
Probable space group: P N N M
;
_chemical_formula_sum "Si O2"
_cell_formula_units_Z 64
_cell_length_a 21.161616
_cell_length_b 20.126722
_cell_length_c 7.727890
_cell_angle_alpha 90.000000
_cell_angle_beta 90.000000
_cell_angle_gamma 90.000000
_cell_volume 3291.416250
_symmetry_space_group_name_H-M "P N N M"
_symmetry_group_IT_number 58
_symmetry_cell_setting 'orthorhombic'
loop_
_space_group_symop_operation_xyz
x,y,z
-x,-y,z
1/2+x,1/2-y,1/2-z
1/2-x,1/2+y,1/2-z
-x,-y,-z
x,y,-z
1/2-x,1/2+y,1/2+z
1/2+x,1/2-y,1/2+z
loop_
_atom_site_type_symbol
_atom_site_label
_atom_site_fract_x
_atom_site_fract_y
_atom_site_fract_z
Si Si1 0.940002 0.957294 0.791546
Si Si2 0.639024 0.824330 0.288345
Si Si3 0.007462 0.322693 0.208720
Si Si4 0.996929 0.175521 0.698612
Si Si5 0.317307 0.464784 0.292093
Si Si6 0.686704 0.964150 0.291295
Si Si7 0.562097 0.041288 0.288424
Si Si8 0.854348 0.177225 0.199365
O O1 0.953684 0.881579 0.743394
O O2 0.875462 0.990172 0.727009
O O3 0.939505 0.960729 0.000000
O O4 0.000000 0.000000 0.729347
O O5 0.640134 0.822246 0.500000
O O6 0.565569 0.835782 0.239855
O O7 0.679436 0.887727 0.231428
O O8 0.657701 0.750684 0.224712
O O9 0.051474 0.382862 0.268010
O O10 0.023503 0.249002 0.269854
O O11 0.008358 0.322057 0.000000
O O12 0.978537 0.168963 0.500000
O O13 0.930685 0.168102 0.799965
O O14 0.324818 0.460048 0.500000
O O15 0.251240 0.499857 0.256464
O O16 0.324145 0.389367 0.223093
O O17 0.683227 0.962298 0.500000
O O18 0.625988 0.006026 0.229243
O O19 0.563134 0.040865 0.500000
O O20 0.500000 0.000000 0.237199
O O21 0.833185 0.180819 0.000000
#
# Coordination Sequence:
#
# PCOD9441850 Si02
#       8
#     8   8   8   8   8   8   8   8
#     4  10  19  36  58  76  97 135 182 216 250 312
#     4   8  14  27  52  78  98 129 174 218 252 299
#     4   9  16  30  53  77 105 140 180 216 252 305
#     4  11  21  31  49  81 113 134 164 218 279 315
#     4  10  21  36  54  76 104 139 177 214 258 320
#     4  10  19  32  52  81 111 136 172 220 267 307
#     4   9  15  28  54  83 104 133 181 223 250 298
#     4   9  17  34  56  75  97 135 183 216 251 311
#
# _framework density 19.444516
#
# number of rings (size 3 to 8) (size 9 to 14) (size 15 to 20)
#    0.000    2.500    2.500    1.875    0.000    1.250 
#    0.000    4.375    0.000    3.750    0.000    0.000 
#    0.000    0.000    0.000    0.000    0.000    0.000 
#
# Total GULP energy -356967.304328 kJ/mol
# GULP energy per Si atom -5577.614130 kJ/mol
# Density = 1.940026 g / cm^3
# Si number density = 19.444516 Si / 1000 Ang^3
#
#
#
# Elastic Constant Matrix: (Units=GPa)
#
#
# Indices 1 2 3 4 5 6 
#
# 1 115.2022 98.0790 1.6495 0.0000 0.0000 0.0000
# 2 98.0790 216.9683 6.0297 0.0000 0.0000 0.0000
# 3 1.6495 6.0297 31.5015 0.0000 0.0000 0.0000
# 4 0.0000 0.0000 0.0000 1.4600 0.0000 0.0000
# 5 0.0000 0.0000 0.0000 0.0000 12.7054 0.0000
# 6 0.0000 0.0000 0.0000 0.0000 0.0000 29.8934
#
#
#
# Elastic Compliance Matrix: (Units=1/GPa)
#
#
# Indices 1 2 3 4 5 6 
#
# 1 0.014118 -0.006396 0.000485 0.000000 0.000000 0.000000
# 2 -0.006396 0.007531 -0.001107 0.000000 0.000000 0.000000
# 3 0.000485 -0.001107 0.031931 0.000000 0.000000 0.000000
# 4 0.000000 0.000000 0.000000 0.684921 0.000000 0.000000
# 5 0.000000 0.000000 0.000000 0.000000 0.078707 0.000000
# 6 0.000000 0.000000 0.000000 0.000000 0.000000 0.033452
#
#
# Mechanical properties :
#
#
# Convention : Reuss Voigt Hill
#
# Bulk Modulus (GPa) = 25.28724 63.90982 44.59853
# Shear Modulus (GPa) = 5.69556 26.00602 15.85079
#
# Velocity S-wave (km/s) = 1.71333 3.66108 2.85823
# Velocity P-wave (km/s) = 4.11668 7.12815 5.82055
#
# Compressibility (1/GPa) = 0.03954564
#
# Stress axis : x y z
#
# Youngs Moduli (GPa) = 70.82940 132.78785 31.31757
#
# Poissons Ratio (x) = 0.84926 -0.01519
# Poissons Ratio (y) = 0.45300 0.03466
# Poissons Ratio (z) = -0.03435 0.14694
#
# Static dielectric constant tensor:
#      x y z
#    x 1.633870 0.000000 0.000000 
#    y 0.000000 1.711050 0.000000 
#    z 0.000000 0.000000 1.731350 
# 
# From -- ./inp_files/8295.got.cif
#   From: 2010.05.17/outbox.cif.g08.bks.cpg/sg58_5_cif.got.tgz:8295.got - 2010.06.03 14:20:14.
