data_PCOD9441328
_publ_section_title
;
Structure prediction by ZEFSAII (Michael W. Deem and Ramdas Pophale) SiO2 
 PCOD9441328
Probable space group: P N N M
;
_chemical_formula_sum "Si O2"
_cell_formula_units_Z 64
_cell_length_a 12.007504
_cell_length_b 30.699265
_cell_length_c 7.901103
_cell_angle_alpha 90.000000
_cell_angle_beta 90.000000
_cell_angle_gamma 90.000000
_cell_volume 2912.516813
_symmetry_space_group_name_H-M "P N N M"
_symmetry_group_IT_number 58
_symmetry_cell_setting 'orthorhombic'
loop_
_space_group_symop_operation_xyz
x,y,z
-x,-y,z
1/2+x,1/2-y,1/2-z
1/2-x,1/2+y,1/2-z
-x,-y,-z
x,y,-z
1/2-x,1/2+y,1/2+z
1/2+x,1/2-y,1/2+z
loop_
_atom_site_type_symbol
_atom_site_label
_atom_site_fract_x
_atom_site_fract_y
_atom_site_fract_z
Si Si1 0.761976 0.222004 0.794344
Si Si2 0.881468 0.524124 0.206635
Si Si3 0.753209 0.412834 0.304876
Si Si4 0.481506 0.799615 0.196721
Si Si5 0.510742 0.894919 0.303953
Si Si6 0.512942 0.705796 0.307565
Si Si7 0.216986 0.182800 0.308585
Si Si8 0.129145 0.007998 0.697516
O O1 0.648078 0.198498 0.755297
O O2 0.866229 0.193495 0.742402
O O3 0.759232 0.271845 0.727893
O O4 0.766795 0.226205 0.000000
O O5 0.752945 0.511232 0.260716
O O6 0.000000 0.500000 0.259139
O O7 0.911787 0.573964 0.258494
O O8 0.880780 0.521239 0.000000
O O9 0.762008 0.425287 0.500000
O O10 0.872013 0.420152 0.215979
O O11 0.732685 0.361526 0.289500
O O12 0.656182 0.440806 0.220022
O O13 0.526785 0.847867 0.219685
O O14 0.521008 0.758549 0.305114
O O15 0.492612 0.787143 0.000000
O O16 0.491203 0.886252 0.500000
O O17 0.492279 0.691249 0.500000
O O18 0.414327 0.691556 0.189663
O O19 0.260842 0.177355 0.500000
O O20 0.124788 0.995546 0.500000
O O21 0.000000 0.000000 0.763866
#
# Coordination Sequence:
#
# PCOD9441328 Si02
#       8
#     8   8   8   8   8   8   8   8
#     4   8  17  33  53  74 107 149 187 233 290 347
#     4   9  17  35  63  90 117 151 191 239 297 357
#     4  12  24  38  59  88 120 152 196 244 294 358
#     4  10  20  35  52  78 114 151 194 241 294 350
#     4  11  21  36  60  87 117 150 195 248 299 350
#     4  10  18  33  55  78 108 151 198 243 295 347
#     4  10  20  36  56  81 112 150 194 239 290 347
#     4  10  21  41  67  91 119 156 196 242 299 361
#
# _framework density 21.974124
#
# number of rings (size 3 to 8) (size 9 to 14) (size 15 to 20)
#    0.000    2.000    1.250    4.125    0.000    1.250 
#    2.250    8.750    0.000    0.000    0.000    0.000 
#    0.000    0.000    0.000    0.000    0.000    0.000 
#
# Total GULP energy -356327.614532 kJ/mol
# GULP energy per Si atom -5567.618977 kJ/mol
# Density = 2.192411 g / cm^3
# Si number density = 21.974124 Si / 1000 Ang^3
#
#
#
# Elastic Constant Matrix: (Units=GPa)
#
#
# Indices 1 2 3 4 5 6 
#
# 1 143.6128 30.6354 -6.5406 0.0000 0.0000 0.0000
# 2 30.6354 66.7986 -2.7403 0.0000 0.0000 0.0000
# 3 -6.5406 -2.7403 39.7218 0.0000 0.0000 0.0000
# 4 0.0000 0.0000 0.0000 2.3994 0.0000 0.0000
# 5 0.0000 0.0000 0.0000 0.0000 24.8335 0.0000
# 6 0.0000 0.0000 0.0000 0.0000 0.0000 -71.8814
#
#
#
# Elastic Compliance Matrix: (Units=1/GPa)
#
#
# Indices 1 2 3 4 5 6 
#
# 1 0.007760 -0.003517 0.001035 0.000000 0.000000 0.000000
# 2 -0.003517 0.016606 0.000567 0.000000 0.000000 0.000000
# 3 0.001035 0.000567 0.025385 0.000000 0.000000 0.000000
# 4 0.000000 0.000000 0.000000 0.416767 0.000000 0.000000
# 5 0.000000 0.000000 0.000000 0.000000 0.040268 0.000000
# 6 0.000000 0.000000 0.000000 0.000000 0.000000 -0.013912
#
#
# Mechanical properties :
#
#
# Convention : Reuss Voigt Hill
#
# Bulk Modulus (GPa) = 21.77613 32.53803 27.15708
# Shear Modulus (GPa) = 9.76539 6.32221 8.04380
#
# Velocity S-wave (km/s) = 2.11038 1.69805 1.91534
# Velocity P-wave (km/s) = 3.98367 4.32251 4.15654
#
# Compressibility (1/GPa) = 0.04592185
#
# Stress axis : x y z
#
# Youngs Moduli (GPa) = 128.85786 60.21755 39.39391
#
# Poissons Ratio (x) = 0.21177 -0.04078
# Poissons Ratio (y) = 0.45315 -0.02232
# Poissons Ratio (z) = -0.13340 -0.03412
#
# Static dielectric constant tensor:
#      x y z
#    x 1.906020 0.000000 0.000000 
#    y 0.000000 1.810540 0.000000 
#    z 0.000000 0.000000 1.801040 
# 
# From -- ./inp_files/4657.got.cif
#   From: 2010.05.17/outbox.cif.g08.bks.cpg/sg58_3_cif.got.tgz:4657.got - 2010.06.03 14:20:14.
