data_PCOD9441551
_publ_section_title
;
Structure prediction by ZEFSAII (Michael W. Deem and Ramdas Pophale) SiO2 
 PCOD9441551
Probable space group: P N N M
;
_chemical_formula_sum "Si O2"
_cell_formula_units_Z 64
_cell_length_a 9.461027
_cell_length_b 14.317543
_cell_length_c 28.191895
_cell_angle_alpha 90.000000
_cell_angle_beta 90.000000
_cell_angle_gamma 90.000000
_cell_volume 3818.836345
_symmetry_space_group_name_H-M "P N N M"
_symmetry_group_IT_number 58
_symmetry_cell_setting 'orthorhombic'
loop_
_space_group_symop_operation_xyz
x,y,z
-x,-y,z
1/2+x,1/2-y,1/2-z
1/2-x,1/2+y,1/2-z
-x,-y,-z
x,y,-z
1/2-x,1/2+y,1/2+z
1/2+x,1/2-y,1/2+z
loop_
_atom_site_type_symbol
_atom_site_label
_atom_site_fract_x
_atom_site_fract_y
_atom_site_fract_z
Si Si1 0.153541 0.017183 0.710109
Si Si2 0.648756 0.553419 0.446167
Si Si3 0.576048 0.136905 0.164090
Si Si4 0.082567 0.584720 0.149343
Si Si5 0.404399 0.650444 0.699534
Si Si6 0.302977 0.056598 0.871118
Si Si7 0.136022 0.353418 0.229537
Si Si8 0.147634 0.787113 0.132464
O O1 0.266968 0.058607 0.672940
O O2 0.117438 0.084035 0.755041
O O3 0.229884 0.922496 0.728887
O O4 0.000000 0.000000 0.687539
O O5 0.500000 0.500000 0.446451
O O6 0.686180 0.578834 0.500000
O O7 0.761642 0.482744 0.422325
O O8 0.633431 0.641575 0.411120
O O9 0.432828 0.127673 0.134435
O O10 0.559168 0.150947 0.219783
O O11 0.687506 0.212033 0.145927
O O12 0.650718 0.036012 0.157565
O O13 0.096598 0.682557 0.122189
O O14 0.000000 0.500000 0.123590
O O15 0.977489 0.605726 0.193091
O O16 0.329155 0.601108 0.655272
O O17 0.331288 0.748645 0.712839
O O18 0.559794 0.675202 0.678587
#
# Coordination Sequence:
#
# PCOD9441551 Si02
#       8
#     8   8   8   8   8   8   8   8
#     4  11  21  30  46  70  98 138 182 225 239 289
#     4  10  20  36  59  83 106 129 163 212 265 322
#     4  10  19  30  46  69 101 139 172 211 253 297
#     4   9  20  35  49  68 103 141 174 216 257 293
#     4  11  20  31  49  69 101 137 183 220 240 298
#     4  10  20  32  49  72 101 136 171 216 259 302
#     4  10  20  32  45  68 100 143 180 213 254 282
#     4  10  20  34  52  75 100 136 171 209 265 314
#
# _framework density 16.759032000000001
#
# number of rings (size 3 to 8) (size 9 to 14) (size 15 to 20)
#    0.000    1.875    2.500    2.250    5.250    4.000 
#    0.000    5.000    0.000    0.375    0.000    0.000 
#    0.000    0.500    0.000    0.250    0.000    0.000 
#
# Total GULP energy -356708.744248 kJ/mol
# GULP energy per Si atom -5573.574129 kJ/mol
# Density = 1.672089 g / cm^3
# Si number density = 16.759032 Si / 1000 Ang^3
#
#
#
# Elastic Constant Matrix: (Units=GPa)
#
#
# Indices 1 2 3 4 5 6 
#
# 1 73.4893 17.8284 5.3433 0.0000 0.0000 0.0000
# 2 17.8284 69.5738 19.0188 0.0000 0.0000 0.0000
# 3 5.3433 19.0188 50.5236 0.0000 0.0000 0.0000
# 4 0.0000 0.0000 0.0000 12.3955 0.0000 0.0000
# 5 0.0000 0.0000 0.0000 0.0000 7.6901 0.0000
# 6 0.0000 0.0000 0.0000 0.0000 0.0000 20.3566
#
#
#
# Elastic Compliance Matrix: (Units=1/GPa)
#
#
# Indices 1 2 3 4 5 6 
#
# 1 0.014510 -0.003677 -0.000150 0.000000 0.000000 0.000000
# 2 -0.003677 0.016954 -0.005993 0.000000 0.000000 0.000000
# 3 -0.000150 -0.005993 0.022065 0.000000 0.000000 0.000000
# 4 0.000000 0.000000 0.000000 0.080674 0.000000 0.000000
# 5 0.000000 0.000000 0.000000 0.000000 0.130037 0.000000
# 6 0.000000 0.000000 0.000000 0.000000 0.000000 0.049124
#
#
# Mechanical properties :
#
#
# Convention : Reuss Voigt Hill
#
# Bulk Modulus (GPa) = 29.50940 30.88531 30.19735
# Shear Modulus (GPa) = 14.52215 18.18152 16.35183
#
# Velocity S-wave (km/s) = 2.94688 3.29732 3.12701
# Velocity P-wave (km/s) = 5.40602 5.74156 5.57631
#
# Compressibility (1/GPa) = 0.03388751
#
# Stress axis : x y z
#
# Youngs Moduli (GPa) = 68.91593 58.98386 45.32133
#
# Poissons Ratio (x) = 0.21690 0.00682
# Poissons Ratio (y) = 0.25342 0.27162
# Poissons Ratio (z) = 0.01036 0.35350
#
# Static dielectric constant tensor:
#      x y z
#    x 1.611630 0.000000 0.000000 
#    y 0.000000 1.619110 0.000000 
#    z 0.000000 0.000000 1.526590 
# 
# From -- ./inp_files/34818.got.cif
#   From: 2010.05.17/outbox.cif.g08.bks.cpg/sg58_18_cif.got.tgz:34818.got - 2010.06.03 14:20:14.
