data_PCOD9441879
_publ_section_title
;
Structure prediction by ZEFSAII (Michael W. Deem and Ramdas Pophale) SiO2 
 PCOD9441879
Probable space group: P N N M
;
_chemical_formula_sum "Si O2"
_cell_formula_units_Z 56
_cell_length_a 14.581690
_cell_length_b 23.541976
_cell_length_c 8.747580
_cell_angle_alpha 90.000000
_cell_angle_beta 90.000000
_cell_angle_gamma 90.000000
_cell_volume 3002.884973
_symmetry_space_group_name_H-M "P N N M"
_symmetry_group_IT_number 58
_symmetry_cell_setting 'orthorhombic'
loop_
_space_group_symop_operation_xyz
x,y,z
-x,-y,z
1/2+x,1/2-y,1/2-z
1/2-x,1/2+y,1/2-z
-x,-y,-z
x,y,-z
1/2-x,1/2+y,1/2+z
1/2+x,1/2-y,1/2+z
loop_
_atom_site_type_symbol
_atom_site_label
_atom_site_fract_x
_atom_site_fract_y
_atom_site_fract_z
Si Si1 0.392447 0.219158 0.321282
Si Si2 0.290386 0.111971 0.818951
Si Si3 0.784627 0.608157 0.185931
Si Si4 0.098595 0.842809 0.684465
Si Si5 0.889399 0.721566 0.179833
Si Si6 0.606499 0.996565 0.314820
Si Si7 0.389456 0.655289 0.182201
O O1 0.367390 0.217899 0.500000
O O2 0.339125 0.170098 0.234133
O O3 0.376015 0.281328 0.251963
O O4 0.502000 0.209260 0.309250
O O5 0.344826 0.059572 0.746416
O O6 0.186314 0.116051 0.759385
O O7 0.291958 0.107775 0.000000
O O8 0.677955 0.613224 0.229390
O O9 0.834561 0.666390 0.234053
O O10 0.838202 0.552424 0.238033
O O11 0.788973 0.607665 0.000000
O O12 0.098613 0.838038 0.500000
O O13 0.994509 0.856810 0.731396
O O14 0.870278 0.779331 0.270343
O O15 0.867892 0.731510 0.000000
O O16 0.608495 0.994988 0.500000
O O17 0.500000 0.000000 0.268280
O O18 0.383341 0.649819 0.000000
#
# Coordination Sequence:
#
# PCOD9441879 Si02
#       7
#     8   8   8   8   8   8   8
#     4  10  19  32  53  82 113 145 180 218 266 324
#     4  12  24  37  54  76 106 145 186 229 274 315
#     4   9  17  32  55  79 104 137 174 213 263 322
#     4   9  18  33  54  82 113 142 174 217 269 324
#     4   9  17  31  54  84 115 143 171 210 265 325
#     4  10  21  39  61  82 105 136 176 221 269 326
#     4  10  20  34  53  79 110 143 180 220 264 318
#
# _framework density 18.648733
#
# number of rings (size 3 to 8) (size 9 to 14) (size 15 to 20)
#    0.000    2.143    0.000    3.857    0.000    4.857 
#    0.000    2.143    0.000    4.286    0.000    0.000 
#    0.000    0.000    0.000    0.000    0.000    0.000 
#
# Total GULP energy -312721.830111 kJ/mol
# GULP energy per Si atom -5584.318395 kJ/mol
# Density = 1.860629 g / cm^3
# Si number density = 18.648733 Si / 1000 Ang^3
#
#
#
# Elastic Constant Matrix: (Units=GPa)
#
#
# Indices 1 2 3 4 5 6 
#
# 1 143.2415 98.2283 37.7803 0.0000 0.0000 0.0000
# 2 98.2283 83.8891 24.8593 0.0000 0.0000 0.0000
# 3 37.7803 24.8593 32.8598 0.0000 0.0000 0.0000
# 4 0.0000 0.0000 0.0000 25.0905 0.0000 0.0000
# 5 0.0000 0.0000 0.0000 0.0000 22.9788 0.0000
# 6 0.0000 0.0000 0.0000 0.0000 0.0000 33.8900
#
#
#
# Elastic Compliance Matrix: (Units=1/GPa)
#
#
# Indices 1 2 3 4 5 6 
#
# 1 0.039568 -0.042342 -0.013459 0.000000 0.000000 0.000000
# 2 -0.042342 0.060677 0.002779 0.000000 0.000000 0.000000
# 3 -0.013459 0.002779 0.043805 0.000000 0.000000 0.000000
# 4 0.000000 0.000000 0.000000 0.039856 0.000000 0.000000
# 5 0.000000 0.000000 0.000000 0.000000 0.043518 0.000000
# 6 0.000000 0.000000 0.000000 0.000000 0.000000 0.029507
#
#
# Mechanical properties :
#
#
# Convention : Reuss Voigt Hill
#
# Bulk Modulus (GPa) = 26.31306 64.63624 45.47465
# Shear Modulus (GPa) = 13.31047 23.00003 18.15525
#
# Velocity S-wave (km/s) = 2.67450 3.51569 3.12354
# Velocity P-wave (km/s) = 4.86598 7.15648 6.11935
#
# Compressibility (1/GPa) = 0.03800394
#
# Stress axis : x y z
#
# Youngs Moduli (GPa) = 25.27315 16.48071 22.82860
#
# Poissons Ratio (x) = 0.69783 0.30726
# Poissons Ratio (y) = 1.07013 -0.06345
# Poissons Ratio (z) = 0.34016 -0.04580
#
# Static dielectric constant tensor:
#      x y z
#    x 1.674360 0.000000 0.000000 
#    y 0.000000 1.604720 0.000000 
#    z 0.000000 0.000000 1.629290 
# 
# From -- ./inp_files/6305.got.cif
#   From: 2010.05.17/outbox.cif.g08.bks.cpg/sg58_4_cif.got.tgz:6305.got - 2010.06.03 14:20:14.
