data_PCOD9441386
_publ_section_title
;
Structure prediction by ZEFSAII (Michael W. Deem and Ramdas Pophale) SiO2 
 PCOD9441386
Probable space group: P N N M
;
_chemical_formula_sum "Si O2"
_cell_formula_units_Z 56
_cell_length_a 21.825737
_cell_length_b 15.158874
_cell_length_c 7.979443
_cell_angle_alpha 90.000000
_cell_angle_beta 90.000000
_cell_angle_gamma 90.000000
_cell_volume 2640.027420
_symmetry_space_group_name_H-M "P N N M"
_symmetry_group_IT_number 58
_symmetry_cell_setting 'orthorhombic'
loop_
_space_group_symop_operation_xyz
x,y,z
-x,-y,z
1/2+x,1/2-y,1/2-z
1/2-x,1/2+y,1/2-z
-x,-y,-z
x,y,-z
1/2-x,1/2+y,1/2+z
1/2+x,1/2-y,1/2+z
loop_
_atom_site_type_symbol
_atom_site_label
_atom_site_fract_x
_atom_site_fract_y
_atom_site_fract_z
Si Si1 0.268747 0.495852 0.802536
Si Si2 0.632348 0.046940 0.302559
Si Si3 0.527662 0.724672 0.308893
Si Si4 0.458133 0.081882 0.806073
Si Si5 0.397080 0.760135 0.705957
Si Si6 0.839660 0.167685 0.700081
Si Si7 0.735903 0.303660 0.698975
O O1 0.204845 0.443609 0.786142
O O2 0.319411 0.428474 0.733341
O O3 0.259499 0.591910 0.726030
O O4 0.279913 0.511076 0.000000
O O5 0.619015 0.035023 0.500000
O O6 0.601122 0.137058 0.242639
O O7 0.608949 0.960723 0.208505
O O8 0.527176 0.694185 0.500000
O O9 0.535443 0.830644 0.299866
O O10 0.458991 0.710968 0.237107
O O11 0.589115 0.687230 0.228411
O O12 0.500000 0.000000 0.748733
O O13 0.471741 0.102188 0.000000
O O14 0.397955 0.759240 0.500000
O O15 0.331562 0.723942 0.763959
O O16 0.830519 0.164338 0.500000
O O17 0.793132 0.244690 0.764467
O O18 0.734060 0.287462 0.500000
#
# Coordination Sequence:
#
# PCOD9441386 Si02
#       7
#     8   8   8   8   8   8   8
#     4  10  21  37  59  86 113 147 189 236 286 339
#     4  10  18  34  58  79 106 146 191 231 274 333
#     4  11  22  36  57  82 111 148 193 237 278 334
#     4  11  22  33  48  78 117 149 179 221 282 345
#     4   9  18  35  58  81 106 145 191 232 276 326
#     4  10  21  39  60  83 118 153 183 229 294 346
#     4  10  20  38  62  84 110 150 193 236 282 334
#
# _framework density 21.211901000000001
#
# number of rings (size 3 to 8) (size 9 to 14) (size 15 to 20)
#    0.000    1.857    2.857    1.714    0.000    4.571 
#    0.000    2.857    0.000    4.286    0.000    0.000 
#    0.000    0.000    0.000    0.000    0.000    0.000 
#
# Total GULP energy -312422.834487 kJ/mol
# GULP energy per Si atom -5578.979187 kJ/mol
# Density = 2.116362 g / cm^3
# Si number density = 21.211901 Si / 1000 Ang^3
#
#
#
# Elastic Constant Matrix: (Units=GPa)
#
#
# Indices 1 2 3 4 5 6 
#
# 1 101.5359 18.5413 13.8346 0.0000 0.0000 0.0000
# 2 18.5413 40.5723 -4.5685 0.0000 0.0000 0.0000
# 3 13.8346 -4.5685 15.5958 0.0000 0.0000 0.0000
# 4 0.0000 0.0000 0.0000 -10.7714 0.0000 0.0000
# 5 0.0000 0.0000 0.0000 0.0000 23.9149 0.0000
# 6 0.0000 0.0000 0.0000 0.0000 0.0000 35.9244
#
#
#
# Elastic Compliance Matrix: (Units=1/GPa)
#
#
# Indices 1 2 3 4 5 6 
#
# 1 0.013114 -0.007552 -0.013846 0.000000 0.000000 0.000000
# 2 -0.007552 0.029837 0.015440 0.000000 0.000000 0.000000
# 3 -0.013846 0.015440 0.080924 0.000000 0.000000 0.000000
# 4 0.000000 0.000000 0.000000 -0.092838 0.000000 0.000000
# 5 0.000000 0.000000 0.000000 0.000000 0.041815 0.000000
# 6 0.000000 0.000000 0.000000 0.000000 0.000000 0.027836
#
#
# Mechanical properties :
#
#
# Convention : Reuss Voigt Hill
#
# Bulk Modulus (GPa) = 8.93180 23.70209 16.31694
# Shear Modulus (GPa) = 33.35000 18.47335 25.91167
#
# Velocity S-wave (km/s) = 3.96944 2.95430 3.49888
# Velocity P-wave (km/s) = 5.02280 4.77864 4.90224
#
# Compressibility (1/GPa) = 0.11195957
#
# Stress axis : x y z
#
# Youngs Moduli (GPa) = 76.25238 33.51517 12.35720
#
# Poissons Ratio (x) = 0.25311 0.17109
# Poissons Ratio (y) = 0.57588 -0.19079
# Poissons Ratio (z) = 1.05576 -0.51746
#
# Static dielectric constant tensor:
#      x y z
#    x 1.852500 0.000000 0.000000 
#    y 0.000000 1.750370 0.000000 
#    z 0.000000 0.000000 1.763670 
# 
# From -- ./inp_files/6351.got.cif
#   From: 2010.05.17/outbox.cif.g08.bks.cpg/sg58_4_cif.got.tgz:6351.got - 2010.06.03 14:20:14.
