data_PCOD9441409
_publ_section_title
;
Structure prediction by ZEFSAII (Michael W. Deem and Ramdas Pophale) SiO2 
 PCOD9441409
Probable space group: P N N M
;
_chemical_formula_sum "Si O2"
_cell_formula_units_Z 64
_cell_length_a 16.015932
_cell_length_b 24.509795
_cell_length_c 7.725331
_cell_angle_alpha 90.000000
_cell_angle_beta 90.000000
_cell_angle_gamma 90.000000
_cell_volume 3032.557131
_symmetry_space_group_name_H-M "P N N M"
_symmetry_group_IT_number 58
_symmetry_cell_setting 'orthorhombic'
loop_
_space_group_symop_operation_xyz
x,y,z
-x,-y,z
1/2+x,1/2-y,1/2-z
1/2-x,1/2+y,1/2-z
-x,-y,-z
x,y,-z
1/2-x,1/2+y,1/2+z
1/2+x,1/2-y,1/2+z
loop_
_atom_site_type_symbol
_atom_site_label
_atom_site_fract_x
_atom_site_fract_y
_atom_site_fract_z
Si Si1 0.903988 0.502074 0.709058
Si Si2 0.344361 0.386906 0.287938
Si Si3 0.097439 0.005483 0.790592
Si Si4 0.997918 0.312054 0.791759
Si Si5 0.341780 0.116899 0.707277
Si Si6 0.842165 0.874995 0.298003
Si Si7 0.993744 0.189095 0.203726
Si Si8 0.660323 0.118868 0.791622
O O1 0.904971 0.503808 0.500000
O O2 0.857596 0.446903 0.759681
O O3 0.862484 0.557998 0.771382
O O4 0.000000 0.500000 0.769458
O O5 0.347203 0.387204 0.500000
O O6 0.357196 0.449885 0.236087
O O7 0.420883 0.349892 0.224733
O O8 0.253416 0.366220 0.232819
O O9 0.136069 0.061036 0.720450
O O10 0.101353 0.009151 0.000000
O O11 0.000000 0.000000 0.742769
O O12 0.994910 0.250252 0.723837
O O13 0.085899 0.340644 0.754358
O O14 0.920682 0.348663 0.725207
O O15 0.990529 0.310465 0.000000
O O16 0.339357 0.124168 0.500000
O O17 0.250758 0.133917 0.775473
O O18 0.841004 0.860813 0.500000
O O19 0.917247 0.840369 0.218899
O O20 0.975469 0.194466 0.000000
O O21 0.663108 0.116465 0.000000
#
# Coordination Sequence:
#
# PCOD9441409 Si02
#       8
#     8   8   8   8   8   8   8   8
#     4  10  19  33  56  86 115 144 182 228 274 326
#     4   9  18  34  58  84 107 141 186 224 266 326
#     4  10  18  34  61  86 110 146 188 222 266 331
#     4  10  22  39  58  78 106 145 191 234 273 326
#     4  10  22  38  56  82 115 152 185 221 278 339
#     4  11  23  37  56  86 118 146 180 227 284 334
#     4  10  21  40  60  78 104 145 193 235 273 323
#     4  10  20  35  57  84 113 143 179 226 279 329
#
# _framework density 21.104299999999999
#
# number of rings (size 3 to 8) (size 9 to 14) (size 15 to 20)
#    0.000    2.000    2.500    1.125    0.000    4.500 
#    0.000    3.750    0.000    0.000    0.000    0.000 
#    0.000    0.000    0.000    0.000    0.000    0.000 
#
# Total GULP energy -357524.152699 kJ/mol
# GULP energy per Si atom -5586.314886 kJ/mol
# Density = 2.105627 g / cm^3
# Si number density = 21.104300 Si / 1000 Ang^3
#
#
#
# Elastic Constant Matrix: (Units=GPa)
#
#
# Indices 1 2 3 4 5 6 
#
# 1 123.3918 34.6952 -0.7471 0.0000 0.0000 0.0000
# 2 34.6952 120.5228 -4.0569 0.0000 0.0000 0.0000
# 3 -0.7471 -4.0569 28.4180 0.0000 0.0000 0.0000
# 4 0.0000 0.0000 0.0000 2.7087 0.0000 0.0000
# 5 0.0000 0.0000 0.0000 0.0000 20.4496 0.0000
# 6 0.0000 0.0000 0.0000 0.0000 0.0000 -1.1600
#
#
#
# Elastic Compliance Matrix: (Units=1/GPa)
#
#
# Indices 1 2 3 4 5 6 
#
# 1 0.008819 -0.002543 -0.000131 0.000000 0.000000 0.000000
# 2 -0.002543 0.009071 0.001228 0.000000 0.000000 0.000000
# 3 -0.000131 0.001228 0.035361 0.000000 0.000000 0.000000
# 4 0.000000 0.000000 0.000000 0.369176 0.000000 0.000000
# 5 0.000000 0.000000 0.000000 0.000000 0.048901 0.000000
# 6 0.000000 0.000000 0.000000 0.000000 0.000000 -0.862059
#
#
# Mechanical properties :
#
#
# Convention : Reuss Voigt Hill
#
# Bulk Modulus (GPa) = 19.85800 36.90166 28.37983
# Shear Modulus (GPa) = -13.47511 20.56243 3.54366
#
# Velocity S-wave (km/s) = -2.52960 3.12480 1.29721
# Velocity P-wave (km/s) = 0.94766 5.52653 3.96488
#
# Compressibility (1/GPa) = 0.05035753
#
# Stress axis : x y z
#
# Youngs Moduli (GPa) = 113.39778 110.24645 28.27992
#
# Poissons Ratio (x) = 0.28036 0.00371
# Poissons Ratio (y) = 0.28837 -0.03473
# Poissons Ratio (z) = 0.01488 -0.13539
#
# Static dielectric constant tensor:
#      x y z
#    x 1.759110 0.000000 0.000000 
#    y 0.000000 1.723410 0.000000 
#    z 0.000000 0.000000 1.795340 
# 
# From -- ./inp_files/6886.got.cif
#   From: 2010.05.17/outbox.cif.g08.bks.cpg/sg58_4_cif.got.tgz:6886.got - 2010.06.03 14:20:14.
