data_PCOD9441498
_publ_section_title
;
Structure prediction by ZEFSAII (Michael W. Deem and Ramdas Pophale) SiO2 
 PCOD9441498
Probable space group: P N N M
;
_chemical_formula_sum "Si O2"
_cell_formula_units_Z 56
_cell_length_a 22.114423
_cell_length_b 5.440654
_cell_length_c 21.643437
_cell_angle_alpha 90.000000
_cell_angle_beta 90.000000
_cell_angle_gamma 90.000000
_cell_volume 2604.071764
_symmetry_space_group_name_H-M "P N N M"
_symmetry_group_IT_number 58
_symmetry_cell_setting 'orthorhombic'
loop_
_space_group_symop_operation_xyz
x,y,z
-x,-y,z
1/2+x,1/2-y,1/2-z
1/2-x,1/2+y,1/2-z
-x,-y,-z
x,y,-z
1/2-x,1/2+y,1/2+z
1/2+x,1/2-y,1/2+z
loop_
_atom_site_type_symbol
_atom_site_label
_atom_site_fract_x
_atom_site_fract_y
_atom_site_fract_z
Si Si1 0.521464 0.255344 0.569508
Si Si2 0.931298 0.458500 0.425344
Si Si3 0.309216 0.137122 0.754385
Si Si4 0.721221 0.866982 0.392401
Si Si5 0.831923 0.863613 0.767098
Si Si6 0.656068 0.361042 0.592547
Si Si7 0.358909 0.539840 0.074596
O O1 0.500000 0.500000 0.603340
O O2 0.493047 0.252886 0.500000
O O3 0.592254 0.297632 0.563114
O O4 0.500000 0.000000 0.598514
O O5 0.935597 0.430011 0.500000
O O6 0.897817 0.715798 0.413434
O O7 0.000000 0.500000 0.401980
O O8 0.893036 0.214237 0.405689
O O9 0.298770 0.137387 0.679882
O O10 0.241317 0.136375 0.780808
O O11 0.342753 0.387307 0.769137
O O12 0.342977 0.886826 0.768692
O O13 0.691010 0.617933 0.420418
O O14 0.792890 0.896726 0.397836
O O15 0.696210 0.121406 0.419648
O O16 0.860174 0.866930 0.834264
O O17 0.350311 0.519834 0.000000
#
# Coordination Sequence:
#
# PCOD9441498 Si02
#       7
#     8   8   8   8   8   8   8
#     4  10  21  36  51  67  89 120 161 204 239 276
#     4   9  17  30  46  61  80 112 154 191 214 237
#     4   8  14  25  40  61  90 115 137 168 209 262
#     4  10  19  29  44  69  98 122 144 178 231 286
#     4   8  14  25  42  63  85 110 140 174 210 256
#     4  10  19  31  48  68  90 118 151 185 229 283
#     4  10  19  29  42  64  92 117 145 181 219 261
#
# _framework density 21.504784000000001
#
# number of rings (size 3 to 8) (size 9 to 14) (size 15 to 20)
#    0.000    2.714    0.000    2.143    0.000    2.857 
#    0.000    0.000    0.000    0.000    0.000    3.000 
#    0.000    0.000    0.000    0.000    0.000    0.000 
#
# Total GULP energy -312005.964535 kJ/mol
# GULP energy per Si atom -5571.535081 kJ/mol
# Density = 2.145584 g / cm^3
# Si number density = 21.504784 Si / 1000 Ang^3
#
#
#
# Elastic Constant Matrix: (Units=GPa)
#
#
# Indices 1 2 3 4 5 6 
#
# 1 116.9690 67.7817 6.9329 0.0000 0.0000 0.0000
# 2 67.7817 251.0331 14.0973 0.0000 0.0000 0.0000
# 3 6.9329 14.0973 45.4863 0.0000 0.0000 0.0000
# 4 0.0000 0.0000 0.0000 -7.8801 0.0000 0.0000
# 5 0.0000 0.0000 0.0000 0.0000 26.9951 0.0000
# 6 0.0000 0.0000 0.0000 0.0000 0.0000 30.9629
#
#
#
# Elastic Compliance Matrix: (Units=1/GPa)
#
#
# Indices 1 2 3 4 5 6 
#
# 1 0.010158 -0.002703 -0.000711 0.000000 0.000000 0.000000
# 2 -0.002703 0.004773 -0.001067 0.000000 0.000000 0.000000
# 3 -0.000711 -0.001067 0.022424 0.000000 0.000000 0.000000
# 4 0.000000 0.000000 0.000000 -0.126902 0.000000 0.000000
# 5 0.000000 0.000000 0.000000 0.000000 0.037044 0.000000
# 6 0.000000 0.000000 0.000000 0.000000 0.000000 0.032297
#
#
# Mechanical properties :
#
#
# Convention : Reuss Voigt Hill
#
# Bulk Modulus (GPa) = 35.21970 65.67913 50.44941
# Shear Modulus (GPa) = -2807.41493 31.66068 -1387.87713
#
# Velocity S-wave (km/s) = -36.17068 3.84117 -25.43190
# Velocity P-wave (km/s) = 41.56935 7.09089 28.96317
#
# Compressibility (1/GPa) = 0.02839320
#
# Stress axis : x y z
#
# Youngs Moduli (GPa) = 98.44854 209.50068 44.59556
#
# Poissons Ratio (x) = 0.56623 0.03169
# Poissons Ratio (y) = 0.26608 0.04760
# Poissons Ratio (z) = 0.06995 0.22362
#
# Static dielectric constant tensor:
#      x y z
#    x 1.782260 0.000000 0.000000 
#    y 0.000000 1.879430 0.000000 
#    z 0.000000 0.000000 1.846090 
# 
# From -- ./inp_files/33844.got.cif
#   From: 2010.05.17/outbox.cif.g08.bks.cpg/sg58_17_cif.got.tgz:33844.got - 2010.06.03 14:20:14.
