data_PCOD9441588
_publ_section_title
;
Structure prediction by ZEFSAII (Michael W. Deem and Ramdas Pophale) SiO2 
 PCOD9441588
Probable space group: P N N M
;
_chemical_formula_sum "Si O2"
_cell_formula_units_Z 64
_cell_length_a 11.344649
_cell_length_b 30.355310
_cell_length_c 7.296000
_cell_angle_alpha 90.000000
_cell_angle_beta 90.000000
_cell_angle_gamma 90.000000
_cell_volume 2512.525980
_symmetry_space_group_name_H-M "P N N M"
_symmetry_group_IT_number 58
_symmetry_cell_setting 'orthorhombic'
loop_
_space_group_symop_operation_xyz
x,y,z
-x,-y,z
1/2+x,1/2-y,1/2-z
1/2-x,1/2+y,1/2-z
-x,-y,-z
x,y,-z
1/2-x,1/2+y,1/2+z
1/2+x,1/2-y,1/2+z
loop_
_atom_site_type_symbol
_atom_site_label
_atom_site_fract_x
_atom_site_fract_y
_atom_site_fract_z
Si Si1 0.942560 0.222947 0.209046
Si Si2 0.552147 0.098028 0.707975
Si Si3 0.426466 0.183072 0.279649
Si Si4 0.200316 0.856375 0.779820
Si Si5 0.072572 0.943129 0.285611
Si Si6 0.681130 0.015095 0.724054
Si Si7 0.813988 0.934831 0.723671
Si Si8 0.334850 0.665281 0.780873
O O1 0.978105 0.270525 0.287442
O O2 0.056248 0.191940 0.205077
O O3 0.839067 0.191812 0.287579
O O4 0.905144 0.232078 0.000000
O O5 0.508961 0.089874 0.500000
O O6 0.471387 0.136056 0.793206
O O7 0.679926 0.122721 0.702925
O O8 0.581355 0.049443 0.786541
O O9 0.447496 0.179187 0.500000
O O10 0.288512 0.188629 0.244642
O O11 0.096397 0.890925 0.733325
O O12 0.212269 0.855251 0.000000
O O13 0.071729 0.954450 0.500000
O O14 0.193234 0.964115 0.214673
O O15 0.941981 0.953699 0.216830
O O16 0.674414 0.016435 0.500000
O O17 0.702143 0.964451 0.777931
O O18 0.814517 0.935063 0.500000
O O19 0.816131 0.884639 0.783765
O O20 0.351935 0.663280 0.000000
#
# Coordination Sequence:
#
# PCOD9441588 Si02
#       8
#     8   8   8   8   8   8   8   8
#     4  10  21  36  52  72 103 135 163 204 261 306
#     4   9  18  34  54  72  98 136 172 203 245 302
#     4   9  20  37  54  74 102 134 167 212 258 293
#     4  10  19  30  48  74 103 132 162 207 255 292
#     4   9  15  26  45  70 101 136 166 199 245 299
#     4   8  14  24  44  73 102 131 165 203 247 296
#     4   9  15  25  45  75 103 130 165 207 249 293
#     4  10  20  35  56  78 102 131 171 212 248 298
#
# _framework density 25.472372
#
# number of rings (size 3 to 8) (size 9 to 14) (size 15 to 20)
#    0.000    2.750    1.250    1.500    1.750    2.000 
#    0.000    1.875    0.000   12.750    0.000    0.000 
#    0.000    5.000    0.000    0.000    0.000    0.000 
#
# Total GULP energy -357268.181246 kJ/mol
# GULP energy per Si atom -5582.315332 kJ/mol
# Density = 2.541440 g / cm^3
# Si number density = 25.472372 Si / 1000 Ang^3
#
#
#
# Elastic Constant Matrix: (Units=GPa)
#
#
# Indices 1 2 3 4 5 6 
#
# 1 54.1033 -5.0464 -6.2873 0.0000 0.0000 0.0000
# 2 -5.0464 103.7665 -4.8710 0.0000 0.0000 0.0000
# 3 -6.2873 -4.8710 105.5590 0.0000 0.0000 0.0000
# 4 0.0000 0.0000 0.0000 5.1969 0.0000 0.0000
# 5 0.0000 0.0000 0.0000 0.0000 121.6964 0.0000
# 6 0.0000 0.0000 0.0000 0.0000 0.0000 24.5723
#
#
#
# Elastic Compliance Matrix: (Units=1/GPa)
#
#
# Indices 1 2 3 4 5 6 
#
# 1 0.018708 0.000964 0.001159 0.000000 0.000000 0.000000
# 2 0.000964 0.009708 0.000505 0.000000 0.000000 0.000000
# 3 0.001159 0.000505 0.009566 0.000000 0.000000 0.000000
# 4 0.000000 0.000000 0.000000 0.192424 0.000000 0.000000
# 5 0.000000 0.000000 0.000000 0.000000 0.008217 0.000000
# 6 0.000000 0.000000 0.000000 0.000000 0.000000 0.040696
#
#
# Mechanical properties :
#
#
# Convention : Reuss Voigt Hill
#
# Bulk Modulus (GPa) = 23.12790 25.66881 24.39836
# Shear Modulus (GPa) = 17.33256 48.93536 33.13396
#
# Velocity S-wave (km/s) = 2.61136 4.38781 3.61055
# Velocity P-wave (km/s) = 4.26516 5.98076 5.19428
#
# Compressibility (1/GPa) = 0.04323781
#
# Stress axis : x y z
#
# Youngs Moduli (GPa) = 53.45378 103.01168 104.54003
#
# Poissons Ratio (x) = -0.09932 -0.12114
# Poissons Ratio (y) = -0.05154 -0.05283
# Poissons Ratio (z) = -0.06194 -0.05206
#
# Static dielectric constant tensor:
#      x y z
#    x 1.967300 0.000000 0.000000 
#    y 0.000000 2.084210 0.000000 
#    z 0.000000 0.000000 2.047990 
# 
# From -- ./inp_files/4727.got.cif
#   From: 2010.05.17/outbox.cif.g08.bks.cpg/sg58_3_cif.got.tgz:4727.got - 2010.06.03 14:20:14.
