data_PCOD9441958
_publ_section_title
;
Structure prediction by ZEFSAII (Michael W. Deem and Ramdas Pophale) SiO2 
 PCOD9441958
Probable space group: P N N M
;
_chemical_formula_sum "Si O2"
_cell_formula_units_Z 48
_cell_length_a 14.206887
_cell_length_b 8.600818
_cell_length_c 16.916721
_cell_angle_alpha 90.000000
_cell_angle_beta 90.000000
_cell_angle_gamma 90.000000
_cell_volume 2067.068509
_symmetry_space_group_name_H-M "P N N M"
_symmetry_group_IT_number 58
_symmetry_cell_setting 'orthorhombic'
loop_
_space_group_symop_operation_xyz
x,y,z
-x,-y,z
1/2+x,1/2-y,1/2-z
1/2-x,1/2+y,1/2-z
-x,-y,-z
x,y,-z
1/2-x,1/2+y,1/2+z
1/2+x,1/2-y,1/2+z
loop_
_atom_site_type_symbol
_atom_site_label
_atom_site_fract_x
_atom_site_fract_y
_atom_site_fract_z
Si Si1 0.015591 0.318110 0.664587
Si Si2 0.229805 0.374098 0.669677
Si Si3 0.978945 0.816035 0.829334
Si Si4 0.979283 0.817918 0.500000
Si Si5 0.974023 0.817990 0.000000
Si Si6 0.753232 0.766060 0.829961
Si Si7 0.246714 0.716756 0.500000
Si Si8 0.722639 0.143712 0.000000
O O1 0.128272 0.293025 0.666110
O O2 0.980792 0.257011 0.749156
O O3 0.980006 0.245166 0.582980
O O4 0.000000 0.500000 0.659889
O O5 0.276014 0.325556 0.751869
O O6 0.215528 0.558703 0.673736
O O7 0.274781 0.335767 0.584142
O O8 0.008612 0.752323 0.915802
O O9 0.866547 0.785855 0.828138
O O10 0.000000 0.000000 0.827327
O O11 0.871504 0.749558 0.500000
O O12 0.000000 0.000000 0.500000
O O13 0.859927 0.811849 0.000000
O O14 0.000000 0.000000 0.000000
O O15 0.727553 0.700567 0.916526
O O16 0.200380 0.543229 0.500000
#
# Coordination Sequence:
#
# PCOD9441958 Si02
#       8
#     8   8   8   4   4   8   4   4
#     4  10  20  33  49  71  99 129 160 199 249 296
#     4   9  18  32  49  68  93 125 159 195 235 284
#     4   9  17  30  49  72  96 123 159 201 240 286
#     4  10  19  33  52  72  96 127 165 207 246 293
#     4   8  14  26  47  73  95 122 164 201 236 284
#     4   9  17  30  48  68  91 121 156 193 234 279
#     4   8  14  28  48  66  91 126 156 190 234 283
#     4   8  16  31  48  67  95 125 154 194 245 284
#
# _framework density 23.221291999999998
#
# number of rings (size 3 to 8) (size 9 to 14) (size 15 to 20)
#    0.000    3.000    0.000    0.750    0.000    1.333 
#    0.000    1.250    0.000    0.000    0.000    0.000 
#    0.000    0.000    0.000    0.000    0.000    0.000 
#
# Total GULP energy -267531.046595 kJ/mol
# GULP energy per Si atom -5573.563471 kJ/mol
# Density = 2.316844 g / cm^3
# Si number density = 23.221292 Si / 1000 Ang^3
#
#
#
# Elastic Constant Matrix: (Units=GPa)
#
#
# Indices 1 2 3 4 5 6 
#
# 1 57.3238 -17.2777 -2.7443 0.0000 0.0000 0.0000
# 2 -17.2777 53.0726 81.8590 0.0000 0.0000 0.0000
# 3 -2.7443 81.8590 339.3854 0.0000 0.0000 0.0000
# 4 0.0000 0.0000 0.0000 44.2887 0.0000 0.0000
# 5 0.0000 0.0000 0.0000 0.0000 12.0110 0.0000
# 6 0.0000 0.0000 0.0000 0.0000 0.0000 16.1977
#
#
#
# Elastic Compliance Matrix: (Units=1/GPa)
#
#
# Indices 1 2 3 4 5 6 
#
# 1 0.020401 0.010171 -0.002288 0.000000 0.000000 0.000000
# 2 0.010171 0.035075 -0.008378 0.000000 0.000000 0.000000
# 3 -0.002288 -0.008378 0.004949 0.000000 0.000000 0.000000
# 4 0.000000 0.000000 0.000000 0.022579 0.000000 0.000000
# 5 0.000000 0.000000 0.000000 0.000000 0.083257 0.000000
# 6 0.000000 0.000000 0.000000 0.000000 0.000000 0.061737
#
#
# Mechanical properties :
#
#
# Convention : Reuss Voigt Hill
#
# Bulk Modulus (GPa) = 16.82541 63.71732 40.27136
# Shear Modulus (GPa) = 20.09650 40.36248 30.22949
#
# Velocity S-wave (km/s) = 2.94502 4.17366 3.61196
# Velocity P-wave (km/s) = 4.33885 7.12212 5.89704
#
# Compressibility (1/GPa) = 0.05943393
#
# Stress axis : x y z
#
# Youngs Moduli (GPa) = 49.01792 28.51029 202.07314
#
# Poissons Ratio (x) = -0.28997 0.46238
# Poissons Ratio (y) = -0.49855 1.69293
# Poissons Ratio (z) = 0.11216 0.23885
#
# Static dielectric constant tensor:
#      x y z
#    x 1.942970 0.000000 0.000000 
#    y 0.000000 1.781300 0.000000 
#    z 0.000000 0.000000 1.965270 
# 
# From -- ./inp_files/26875.got.cif
#   From: 2010.05.17/outbox.cif.g08.bks.cpg/sg58_14_cif.got.tgz:26875.got - 2010.06.03 14:20:14.
