data_PCOD9441147
_publ_section_title
;
Structure prediction by ZEFSAII (Michael W. Deem and Ramdas Pophale) SiO2 
 PCOD9441147
Probable space group: P N N M
;
_chemical_formula_sum "Si O2"
_cell_formula_units_Z 56
_cell_length_a 15.222924
_cell_length_b 22.075137
_cell_length_c 7.484960
_cell_angle_alpha 90.000000
_cell_angle_beta 90.000000
_cell_angle_gamma 90.000000
_cell_volume 2515.306832
_symmetry_space_group_name_H-M "P N N M"
_symmetry_group_IT_number 58
_symmetry_cell_setting 'orthorhombic'
loop_
_space_group_symop_operation_xyz
x,y,z
-x,-y,z
1/2+x,1/2-y,1/2-z
1/2-x,1/2+y,1/2-z
-x,-y,-z
x,y,-z
1/2-x,1/2+y,1/2+z
1/2+x,1/2-y,1/2+z
loop_
_atom_site_type_symbol
_atom_site_label
_atom_site_fract_x
_atom_site_fract_y
_atom_site_fract_z
Si Si1 0.792225 0.583740 0.211536
Si Si2 0.607856 0.835451 0.286488
Si Si3 0.908983 0.925275 0.717450
Si Si4 0.087969 0.301731 0.288825
Si Si5 0.103965 0.934181 0.717363
Si Si6 0.298614 0.689309 0.780952
Si Si7 0.905407 0.473452 0.218606
O O1 0.862551 0.636899 0.233393
O O2 0.693993 0.596917 0.279869
O O3 0.832128 0.520804 0.281477
O O4 0.782250 0.574729 0.000000
O O5 0.615066 0.839359 0.500000
O O6 0.515191 0.803960 0.250918
O O7 0.697624 0.804713 0.222564
O O8 0.604741 0.904767 0.219356
O O9 0.907676 0.924937 0.500000
O O10 0.839598 0.875063 0.775242
O O11 0.008790 0.910512 0.776602
O O12 0.890045 0.994692 0.767847
O O13 0.096084 0.299197 0.500000
O O14 0.139856 0.243723 0.216469
O O15 0.100382 0.931421 0.500000
O O16 0.299959 0.689752 0.000000
O O17 0.000000 0.500000 0.269348
O O18 0.903010 0.472508 0.000000
#
# Coordination Sequence:
#
# PCOD9441147 Si02
#       7
#     8   8   8   8   8   8   8
#     4  10  18  31  51  77 103 133 171 210 253 304
#     4  10  19  36  58  76  96 131 174 213 253 301
#     4   8  13  26  45  73 104 126 154 206 263 299
#     4  11  23  36  48  72 107 138 167 204 247 298
#     4   8  14  23  45  77 104 123 153 206 262 302
#     4   9  19  33  50  68  96 137 172 199 241 300
#     4   9  15  26  50  79  99 119 161 219 259 288
#
# _framework density 22.263687000000001
#
# number of rings (size 3 to 8) (size 9 to 14) (size 15 to 20)
#    0.000    2.714    1.429    2.143    0.000    4.571 
#    0.000    4.286    0.000    0.000    0.000    5.000 
#    0.000    0.000    0.000    0.000    0.000    0.000 
#
# Total GULP energy -312621.071994 kJ/mol
# GULP energy per Si atom -5582.519143 kJ/mol
# Density = 2.221301 g / cm^3
# Si number density = 22.263687 Si / 1000 Ang^3
#
#
#
# Elastic Constant Matrix: (Units=GPa)
#
#
# Indices 1 2 3 4 5 6 
#
# 1 268.2206 123.0469 16.2392 0.0000 0.0000 0.0000
# 2 123.0469 138.8244 13.5058 0.0000 0.0000 0.0000
# 3 16.2392 13.5058 61.6126 0.0000 0.0000 0.0000
# 4 0.0000 0.0000 0.0000 -8.7110 0.0000 0.0000
# 5 0.0000 0.0000 0.0000 0.0000 -3.6073 0.0000
# 6 0.0000 0.0000 0.0000 0.0000 0.0000 39.0333
#
#
#
# Elastic Compliance Matrix: (Units=1/GPa)
#
#
# Indices 1 2 3 4 5 6 
#
# 1 0.006295 -0.005536 -0.000446 0.000000 0.000000 0.000000
# 2 -0.005536 0.012229 -0.001222 0.000000 0.000000 0.000000
# 3 -0.000446 -0.001222 0.016616 0.000000 0.000000 0.000000
# 4 0.000000 0.000000 0.000000 -0.114797 0.000000 0.000000
# 5 0.000000 0.000000 0.000000 0.000000 -0.277212 0.000000
# 6 0.000000 0.000000 0.000000 0.000000 0.000000 0.025619
#
#
# Mechanical properties :
#
#
# Convention : Reuss Voigt Hill
#
# Bulk Modulus (GPa) = 48.23188 86.02682 67.12935
# Shear Modulus (GPa) = -16.13253 26.40071 5.13409
#
# Velocity S-wave (km/s) = -2.69478 3.44731 1.52021
# Velocity P-wave (km/s) = 3.46821 7.38709 5.77051
#
# Compressibility (1/GPa) = 0.02073317
#
# Stress axis : x y z
#
# Youngs Moduli (GPa) = 158.85590 81.77143 60.18420
#
# Poissons Ratio (x) = 0.45271 0.02682
# Poissons Ratio (y) = 0.87946 0.07352
# Poissons Ratio (z) = 0.07079 0.09989
#
# Static dielectric constant tensor:
#      x y z
#    x 1.748030 0.000000 0.000000 
#    y 0.000000 1.767010 0.000000 
#    z 0.000000 0.000000 1.872700 
# 
# From -- ./inp_files/6238.got.cif
#   From: 2010.05.17/outbox.cif.g08.bks.cpg/sg58_4_cif.got.tgz:6238.got - 2010.06.03 14:20:14.
