data_PCOD9441075
_publ_section_title
;
Structure prediction by ZEFSAII (Michael W. Deem and Ramdas Pophale) SiO2 
 PCOD9441075
Probable space group: P N N M
;
_chemical_formula_sum "Si O2"
_cell_formula_units_Z 64
_cell_length_a 20.904967
_cell_length_b 20.488700
_cell_length_c 7.511395
_cell_angle_alpha 90.000000
_cell_angle_beta 90.000000
_cell_angle_gamma 90.000000
_cell_volume 3217.247637
_symmetry_space_group_name_H-M "P N N M"
_symmetry_group_IT_number 58
_symmetry_cell_setting 'orthorhombic'
loop_
_space_group_symop_operation_xyz
x,y,z
-x,-y,z
1/2+x,1/2-y,1/2-z
1/2-x,1/2+y,1/2-z
-x,-y,-z
x,y,-z
1/2-x,1/2+y,1/2+z
1/2+x,1/2-y,1/2+z
loop_
_atom_site_type_symbol
_atom_site_label
_atom_site_fract_x
_atom_site_fract_y
_atom_site_fract_z
Si Si1 0.414394 0.325115 0.781505
Si Si2 0.700091 0.585834 0.785633
Si Si3 0.522417 0.427591 0.782810
Si Si4 0.476461 0.928246 0.782513
Si Si5 0.665541 0.438904 0.217615
Si Si6 0.300901 0.101171 0.296626
Si Si7 0.075134 0.678630 0.294214
Si Si8 0.336584 0.954868 0.208326
O O1 0.347885 0.358299 0.723968
O O2 0.472233 0.372621 0.727030
O O3 0.422177 0.251224 0.717607
O O4 0.413484 0.324769 0.000000
O O5 0.674406 0.514559 0.728098
O O6 0.773873 0.589039 0.731022
O O7 0.698793 0.585433 0.000000
O O8 0.500000 0.500000 0.727240
O O9 0.595577 0.415603 0.726739
O O10 0.522016 0.428216 0.000000
O O11 0.523751 0.872019 0.715924
O O12 0.402441 0.922874 0.728887
O O13 0.500000 0.000000 0.727634
O O14 0.520412 0.072805 0.000000
O O15 0.728748 0.400348 0.278894
O O16 0.667408 0.438054 0.000000
O O17 0.297393 0.123472 0.500000
O O18 0.355611 0.144324 0.209096
O O19 0.322813 0.025245 0.294555
O O20 0.056361 0.687304 0.500000
O O21 0.344765 0.969825 0.000000
#
# Coordination Sequence:
#
# PCOD9441075 Si02
#       8
#     8   8   8   8   8   8   8   8
#     4   9  17  28  47  72  97 129 165 201 244 293
#     4   9  16  29  46  71 101 124 153 198 243 288
#     4   9  13  22  43  71  98 122 152 196 248 288
#     4   9  16  29  48  69  94 124 161 209 247 277
#     4   8  14  24  42  68  97 119 145 193 242 281
#     4  10  19  31  47  72 101 127 156 200 251 292
#     4  10  19  33  50  69  95 129 168 204 243 296
#     4  10  18  30  50  73  95 125 163 201 246 291
#
# _framework density 19.892779999999998
#
# number of rings (size 3 to 8) (size 9 to 14) (size 15 to 20)
#    0.000    2.750    2.500    1.500    0.000    0.000 
#    0.000    3.750    0.000    3.000    0.000   12.250 
#    0.000    0.000    0.000    0.000    0.000    0.000 
#
# Total GULP energy -356968.821227 kJ/mol
# GULP energy per Si atom -5577.637832 kJ/mol
# Density = 1.984750 g / cm^3
# Si number density = 19.892780 Si / 1000 Ang^3
#
#
#
# Elastic Constant Matrix: (Units=GPa)
#
#
# Indices 1 2 3 4 5 6 
#
# 1 202.4121 99.2739 -1.8909 0.0000 0.0000 0.0000
# 2 99.2739 134.5683 0.4866 0.0000 0.0000 0.0000
# 3 -1.8909 0.4866 49.7108 0.0000 0.0000 0.0000
# 4 0.0000 0.0000 0.0000 2.8897 0.0000 0.0000
# 5 0.0000 0.0000 0.0000 0.0000 20.0458 0.0000
# 6 0.0000 0.0000 0.0000 0.0000 0.0000 23.3053
#
#
#
# Elastic Compliance Matrix: (Units=1/GPa)
#
#
# Indices 1 2 3 4 5 6 
#
# 1 0.007748 -0.005717 0.000351 0.000000 0.000000 0.000000
# 2 -0.005717 0.011650 -0.000331 0.000000 0.000000 0.000000
# 3 0.000351 -0.000331 0.020133 0.000000 0.000000 0.000000
# 4 0.000000 0.000000 0.000000 0.346052 0.000000 0.000000
# 5 0.000000 0.000000 0.000000 0.000000 0.049886 0.000000
# 6 0.000000 0.000000 0.000000 0.000000 0.000000 0.042909
#
#
# Mechanical properties :
#
#
# Convention : Reuss Voigt Hill
#
# Bulk Modulus (GPa) = 35.54291 64.71449 50.12870
# Shear Modulus (GPa) = 10.01702 28.50294 19.25998
#
# Velocity S-wave (km/s) = 2.24643 3.78938 3.11495
# Velocity P-wave (km/s) = 4.96333 7.19362 6.17992
#
# Compressibility (1/GPa) = 0.02813501
#
# Stress axis : x y z
#
# Youngs Moduli (GPa) = 129.07383 85.83872 49.66982
#
# Poissons Ratio (x) = 0.49072 -0.01742
# Poissons Ratio (y) = 0.73789 0.01646
# Poissons Ratio (z) = -0.04526 0.02845
#
# Static dielectric constant tensor:
#      x y z
#    x 1.713570 0.000000 0.000000 
#    y 0.000000 1.658600 0.000000 
#    z 0.000000 0.000000 1.759670 
# 
# From -- ./inp_files/9458.got.cif
#   From: 2010.05.17/outbox.cif.g08.bks.cpg/sg58_5_cif.got.tgz:9458.got - 2010.06.03 14:20:14.
