data_PCOD9441804
_publ_section_title
;
Structure prediction by ZEFSAII (Michael W. Deem and Ramdas Pophale) SiO2 
 PCOD9441804
Probable space group: P N N M
;
_chemical_formula_sum "Si O2"
_cell_formula_units_Z 56
_cell_length_a 20.513648
_cell_length_b 16.755204
_cell_length_c 7.680141
_cell_angle_alpha 90.000000
_cell_angle_beta 90.000000
_cell_angle_gamma 90.000000
_cell_volume 2639.744005
_symmetry_space_group_name_H-M "P N N M"
_symmetry_group_IT_number 58
_symmetry_cell_setting 'orthorhombic'
loop_
_space_group_symop_operation_xyz
x,y,z
-x,-y,z
1/2+x,1/2-y,1/2-z
1/2-x,1/2+y,1/2-z
-x,-y,-z
x,y,-z
1/2-x,1/2+y,1/2+z
1/2+x,1/2-y,1/2+z
loop_
_atom_site_type_symbol
_atom_site_label
_atom_site_fract_x
_atom_site_fract_y
_atom_site_fract_z
Si Si1 0.462263 0.370835 0.297492
Si Si2 0.668555 0.531658 0.298845
Si Si3 0.380547 0.800221 0.287242
Si Si4 0.103452 0.115961 0.211818
Si Si5 0.000510 0.590940 0.793071
Si Si6 0.110602 0.713860 0.300845
Si Si7 0.234883 0.809303 0.701186
O O1 0.472350 0.346608 0.500000
O O2 0.405326 0.435149 0.296526
O O3 0.530203 0.404684 0.231756
O O4 0.436588 0.291208 0.206434
O O5 0.691202 0.529888 0.500000
O O6 0.660139 0.442976 0.224599
O O7 0.707720 0.600756 0.205054
O O8 0.380964 0.806391 0.500000
O O9 0.391456 0.708097 0.242957
O O10 0.439305 0.856682 0.224211
O O11 0.307142 0.815336 0.222677
O O12 0.107037 0.108405 0.000000
O O13 0.068088 0.640266 0.770704
O O14 0.000000 0.500000 0.723659
O O15 0.990483 0.584832 0.000000
O O16 0.124425 0.693285 0.500000
O O17 0.178915 0.749588 0.222815
O O18 0.242418 0.784130 0.500000
#
# Coordination Sequence:
#
# PCOD9441804 Si02
#       7
#     8   8   8   8   8   8   8
#     4   9  15  27  49  74 100 128 161 202 246 294
#     4   9  17  28  47  76 102 125 162 211 254 296
#     4   9  17  33  55  74  98 136 176 212 254 310
#     4   9  15  26  49  76  97 123 164 207 250 298
#     4  10  20  36  59  82 100 130 180 228 265 304
#     4  10  19  32  51  76 104 135 170 207 256 313
#     4   9  19  35  52  70 101 144 176 202 253 323
#
# _framework density 21.214176999999999
#
# number of rings (size 3 to 8) (size 9 to 14) (size 15 to 20)
#    0.000    2.714    1.429    0.857    0.000    2.571 
#    2.571    1.429    0.000    3.429    0.000    0.000 
#    0.000    0.000    0.000    0.000    0.000    0.000 
#
# Total GULP energy -311842.304483 kJ/mol
# GULP energy per Si atom -5568.612580 kJ/mol
# Density = 2.116589 g / cm^3
# Si number density = 21.214177 Si / 1000 Ang^3
#
#
#
# Elastic Constant Matrix: (Units=GPa)
#
#
# Indices 1 2 3 4 5 6 
#
# 1 112.4353 45.2541 7.8030 0.0000 0.0000 0.0000
# 2 45.2541 123.7364 7.4891 0.0000 0.0000 0.0000
# 3 7.8030 7.4891 32.6213 0.0000 0.0000 0.0000
# 4 0.0000 0.0000 0.0000 18.3588 0.0000 0.0000
# 5 0.0000 0.0000 0.0000 0.0000 12.3960 0.0000
# 6 0.0000 0.0000 0.0000 0.0000 0.0000 1.8239
#
#
#
# Elastic Compliance Matrix: (Units=1/GPa)
#
#
# Indices 1 2 3 4 5 6 
#
# 1 0.010517 -0.003746 -0.001656 0.000000 0.000000 0.000000
# 2 -0.003746 0.009530 -0.001292 0.000000 0.000000 0.000000
# 3 -0.001656 -0.001292 0.031347 0.000000 0.000000 0.000000
# 4 0.000000 0.000000 0.000000 0.054470 0.000000 0.000000
# 5 0.000000 0.000000 0.000000 0.000000 0.080671 0.000000
# 6 0.000000 0.000000 0.000000 0.000000 0.000000 0.548288
#
#
# Mechanical properties :
#
#
# Convention : Reuss Voigt Hill
#
# Bulk Modulus (GPa) = 26.31084 43.32061 34.81573
# Shear Modulus (GPa) = 6.57135 20.39885 13.48510
#
# Velocity S-wave (km/s) = 1.76192 3.10428 2.52397
# Velocity P-wave (km/s) = 4.07045 5.77180 4.99411
#
# Compressibility (1/GPa) = 0.03800714
#
# Stress axis : x y z
#
# Youngs Moduli (GPa) = 95.08725 104.93256 31.90055
#
# Poissons Ratio (x) = 0.39308 0.05281
# Poissons Ratio (y) = 0.35620 0.04121
# Poissons Ratio (z) = 0.15742 0.13555
#
# Static dielectric constant tensor:
#      x y z
#    x 1.797020 0.000000 0.000000 
#    y 0.000000 1.786870 0.000000 
#    z 0.000000 0.000000 1.822430 
# 
# From -- ./inp_files/9003.got.cif
#   From: 2010.05.17/outbox.cif.g08.bks.cpg/sg58_5_cif.got.tgz:9003.got - 2010.06.03 14:20:14.
