data_PCOD9441681
_publ_section_title
;
Structure prediction by ZEFSAII (Michael W. Deem and Ramdas Pophale) SiO2 
 PCOD9441681
Probable space group: P N N M
;
_chemical_formula_sum "Si O2"
_cell_formula_units_Z 64
_cell_length_a 15.067311
_cell_length_b 28.602353
_cell_length_c 8.574473
_cell_angle_alpha 90.000000
_cell_angle_beta 90.000000
_cell_angle_gamma 90.000000
_cell_volume 3695.259583
_symmetry_space_group_name_H-M "P N N M"
_symmetry_group_IT_number 58
_symmetry_cell_setting 'orthorhombic'
loop_
_space_group_symop_operation_xyz
x,y,z
-x,-y,z
1/2+x,1/2-y,1/2-z
1/2-x,1/2+y,1/2-z
-x,-y,-z
x,y,-z
1/2-x,1/2+y,1/2+z
1/2+x,1/2-y,1/2+z
loop_
_atom_site_type_symbol
_atom_site_label
_atom_site_fract_x
_atom_site_fract_y
_atom_site_fract_z
Si Si1 0.901204 0.944754 0.688224
Si Si2 0.397640 0.280774 0.311054
Si Si3 0.397162 0.447241 0.188012
Si Si4 0.275661 0.366026 0.311502
Si Si5 0.102252 0.674389 0.186563
Si Si6 0.601470 0.277274 0.311628
Si Si7 0.277382 0.636180 0.686368
Si Si8 0.092826 0.325929 0.686464
O O1 0.898860 0.942633 0.500000
O O2 0.830939 0.908679 0.755266
O O3 0.002578 0.933349 0.737708
O O4 0.883463 0.998626 0.733787
O O5 0.392187 0.280191 0.500000
O O6 0.331669 0.320817 0.254777
O O7 0.378308 0.227846 0.257545
O O8 0.500110 0.291186 0.271066
O O9 0.324624 0.412165 0.253667
O O10 0.395349 0.445528 0.000000
O O11 0.277789 0.365642 0.500000
O O12 0.173608 0.359231 0.263347
O O13 0.177787 0.640775 0.251552
O O14 0.002555 0.663119 0.240093
O O15 0.104995 0.674385 0.000000
O O16 0.605602 0.272355 0.500000
O O17 0.668765 0.317459 0.260759
O O18 0.618132 0.226920 0.236285
O O19 0.276670 0.636214 0.500000
O O20 0.084919 0.327522 0.500000
#
# Coordination Sequence:
#
# PCOD9441681 Si02
#       8
#     8   8   8   8   8   8   8   8
#     4   9  19  36  54  75 104 134 162 198 248 300
#     4   8  15  29  47  69  99 133 165 196 236 289
#     4   9  19  35  54  76 103 132 164 201 241 297
#     4  10  19  31  50  74 101 132 165 204 251 297
#     4  10  20  35  52  69  98 139 175 210 252 295
#     4   9  18  31  47  71 104 137 167 201 243 294
#     4  11  21  32  51  78 103 130 169 212 251 299
#     4  10  20  33  49  72 102 135 172 212 250 291
#
# _framework density 17.319486999999999
#
# number of rings (size 3 to 8) (size 9 to 14) (size 15 to 20)
#    0.000    2.500    0.000    4.125    0.000    5.000 
#    0.000    5.625    0.000    0.750    0.000    5.250 
#    0.000    0.000    0.000    0.000    0.000    0.000 
#
# Total GULP energy -357088.156320 kJ/mol
# GULP energy per Si atom -5579.502443 kJ/mol
# Density = 1.728007 g / cm^3
# Si number density = 17.319487 Si / 1000 Ang^3
#
#
#
# Elastic Constant Matrix: (Units=GPa)
#
#
# Indices 1 2 3 4 5 6 
#
# 1 138.1994 96.0800 32.3063 0.0000 0.0000 0.0000
# 2 96.0800 91.3219 25.9850 0.0000 0.0000 0.0000
# 3 32.3063 25.9850 23.8326 0.0000 0.0000 0.0000
# 4 0.0000 0.0000 0.0000 26.0372 0.0000 0.0000
# 5 0.0000 0.0000 0.0000 0.0000 21.8391 0.0000
# 6 0.0000 0.0000 0.0000 0.0000 0.0000 31.2595
#
#
#
# Elastic Compliance Matrix: (Units=1/GPa)
#
#
# Indices 1 2 3 4 5 6 
#
# 1 0.028080 -0.027129 -0.008485 0.000000 0.000000 0.000000
# 2 -0.027129 0.042085 -0.009112 0.000000 0.000000 0.000000
# 3 -0.008485 -0.009112 0.063396 0.000000 0.000000 0.000000
# 4 0.000000 0.000000 0.000000 0.038407 0.000000 0.000000
# 5 0.000000 0.000000 0.000000 0.000000 0.045789 0.000000
# 6 0.000000 0.000000 0.000000 0.000000 0.000000 0.031990
#
#
# Mechanical properties :
#
#
# Convention : Reuss Voigt Hill
#
# Bulk Modulus (GPa) = 22.67049 62.45516 42.56282
# Shear Modulus (GPa) = 14.12821 22.42601 18.27711
#
# Velocity S-wave (km/s) = 2.85922 3.60230 3.25205
# Velocity P-wave (km/s) = 4.90083 7.31033 6.22331
#
# Compressibility (1/GPa) = 0.04411022
#
# Stress axis : x y z
#
# Youngs Moduli (GPa) = 35.61241 23.76137 15.77385
#
# Poissons Ratio (x) = 0.64462 0.13384
# Poissons Ratio (y) = 0.96612 0.14373
# Poissons Ratio (z) = 0.30218 0.21650
#
# Static dielectric constant tensor:
#      x y z
#    x 1.589720 0.000000 0.000000 
#    y 0.000000 1.570750 0.000000 
#    z 0.000000 0.000000 1.584560 
# 
# From -- ./inp_files/6936.got.cif
#   From: 2010.05.17/outbox.cif.g08.bks.cpg/sg58_4_cif.got.tgz:6936.got - 2010.06.03 14:20:14.
