data_PCOD9441889
_publ_section_title
;
Structure prediction by ZEFSAII (Michael W. Deem and Ramdas Pophale) SiO2 
 PCOD9441889
Probable space group: P N N M
;
_chemical_formula_sum "Si O2"
_cell_formula_units_Z 64
_cell_length_a 11.471029
_cell_length_b 35.284001
_cell_length_c 7.937884
_cell_angle_alpha 90.000000
_cell_angle_beta 90.000000
_cell_angle_gamma 90.000000
_cell_volume 3212.809324
_symmetry_space_group_name_H-M "P N N M"
_symmetry_group_IT_number 58
_symmetry_cell_setting 'orthorhombic'
loop_
_space_group_symop_operation_xyz
x,y,z
-x,-y,z
1/2+x,1/2-y,1/2-z
1/2-x,1/2+y,1/2-z
-x,-y,-z
x,y,-z
1/2-x,1/2+y,1/2+z
1/2+x,1/2-y,1/2+z
loop_
_atom_site_type_symbol
_atom_site_label
_atom_site_fract_x
_atom_site_fract_y
_atom_site_fract_z
Si Si1 0.738005 0.085439 0.697917
Si Si2 0.376744 0.634974 0.295222
Si Si3 0.368754 0.344561 0.695854
Si Si4 0.260790 0.061628 0.796943
Si Si5 0.129501 0.986857 0.203383
Si Si6 0.170660 0.220467 0.203031
Si Si7 0.511268 0.042913 0.297534
Si Si8 0.905683 0.238193 0.307296
O O1 0.723936 0.092603 0.500000
O O2 0.767304 0.125287 0.781438
O O3 0.836913 0.053697 0.724054
O O4 0.623190 0.064978 0.768236
O O5 0.367808 0.634618 0.500000
O O6 0.512966 0.633896 0.252617
O O7 0.310527 0.597852 0.233056
O O8 0.333277 0.676458 0.239506
O O9 0.380434 0.333682 0.500000
O O10 0.365266 0.305603 0.795815
O O11 0.394266 0.064660 0.746956
O O12 0.213699 0.020797 0.736604
O O13 0.249752 0.060873 0.000000
O O14 0.137201 0.983762 0.000000
O O15 0.000000 0.000000 0.245810
O O16 0.292147 0.239435 0.266822
O O17 0.041146 0.238258 0.241873
O O18 0.176772 0.221034 0.000000
O O19 0.523409 0.040453 0.500000
O O20 0.500000 0.000000 0.231165
O O21 0.915888 0.250663 0.500000
#
# Coordination Sequence:
#
# PCOD9441889 Si02
#       8
#     8   8   8   8   8   8   8   8
#     4  11  22  36  54  75 104 141 183 226 273 330
#     4   8  16  34  57  80 107 139 174 220 274 321
#     4  10  20  37  60  82 111 145 180 226 284 337
#     4  10  19  32  54  78 101 133 181 225 261 320
#     4  10  20  33  51  77 106 136 174 222 272 320
#     4   9  19  37  60  85 119 157 190 232 285 339
#     4  10  21  38  53  68 103 147 179 219 277 324
#     4  10  20  36  60  89 121 154 194 238 282 340
#
# _framework density 19.920259999999999
#
# number of rings (size 3 to 8) (size 9 to 14) (size 15 to 20)
#    0.000    2.250    1.250    2.625    0.000    4.500 
#    2.250    4.375    0.000    0.000    0.000    0.000 
#    0.000    0.000    0.000    0.000    0.000    0.000 
#
# Total GULP energy -356818.863991 kJ/mol
# GULP energy per Si atom -5575.294750 kJ/mol
# Density = 1.987492 g / cm^3
# Si number density = 19.920260 Si / 1000 Ang^3
#
#
#
# Elastic Constant Matrix: (Units=GPa)
#
#
# Indices 1 2 3 4 5 6 
#
# 1 48.3854 13.4735 -2.4458 0.0000 0.0000 0.0000
# 2 13.4735 53.1188 -8.6515 0.0000 0.0000 0.0000
# 3 -2.4458 -8.6515 13.2041 0.0000 0.0000 0.0000
# 4 0.0000 0.0000 0.0000 18.5344 0.0000 0.0000
# 5 0.0000 0.0000 0.0000 0.0000 30.6792 0.0000
# 6 0.0000 0.0000 0.0000 0.0000 0.0000 38.1295
#
#
#
# Elastic Compliance Matrix: (Units=1/GPa)
#
#
# Indices 1 2 3 4 5 6 
#
# 1 0.022241 -0.005564 0.000474 0.000000 0.000000 0.000000
# 2 -0.005564 0.022467 0.013690 0.000000 0.000000 0.000000
# 3 0.000474 0.013690 0.084792 0.000000 0.000000 0.000000
# 4 0.000000 0.000000 0.000000 0.053954 0.000000 0.000000
# 5 0.000000 0.000000 0.000000 0.000000 0.032595 0.000000
# 6 0.000000 0.000000 0.000000 0.000000 0.000000 0.026226
#
#
# Mechanical properties :
#
#
# Convention : Reuss Voigt Hill
#
# Bulk Modulus (GPa) = 6.81669 13.27341 10.04505
# Shear Modulus (GPa) = 18.24984 24.95742 21.60363
#
# Velocity S-wave (km/s) = 3.03007 3.54343 3.29676
# Velocity P-wave (km/s) = 3.95869 4.83931 4.42098
#
# Compressibility (1/GPa) = 0.14669870
#
# Stress axis : x y z
#
# Youngs Moduli (GPa) = 44.96256 44.51024 11.79358
#
# Poissons Ratio (x) = 0.24766 -0.00559
# Poissons Ratio (y) = 0.25018 -0.16145
# Poissons Ratio (z) = -0.02131 -0.60934
#
# Static dielectric constant tensor:
#      x y z
#    x 1.725750 0.000000 0.000000 
#    y 0.000000 1.681490 0.000000 
#    z 0.000000 0.000000 1.735830 
# 
# From -- ./inp_files/4701.got.cif
#   From: 2010.05.17/outbox.cif.g08.bks.cpg/sg58_3_cif.got.tgz:4701.got - 2010.06.03 14:20:14.
