data_PCOD9441084
_publ_section_title
;
Structure prediction by ZEFSAII (Michael W. Deem and Ramdas Pophale) SiO2 
 PCOD9441084
Probable space group: P N N M
;
_chemical_formula_sum "Si O2"
_cell_formula_units_Z 64
_cell_length_a 30.605774
_cell_length_b 12.082467
_cell_length_c 7.987091
_cell_angle_alpha 90.000000
_cell_angle_beta 90.000000
_cell_angle_gamma 90.000000
_cell_volume 2953.572374
_symmetry_space_group_name_H-M "P N N M"
_symmetry_group_IT_number 58
_symmetry_cell_setting 'orthorhombic'
loop_
_space_group_symop_operation_xyz
x,y,z
-x,-y,z
1/2+x,1/2-y,1/2-z
1/2-x,1/2+y,1/2-z
-x,-y,-z
x,y,-z
1/2-x,1/2+y,1/2+z
1/2+x,1/2-y,1/2+z
loop_
_atom_site_type_symbol
_atom_site_label
_atom_site_fract_x
_atom_site_fract_y
_atom_site_fract_z
Si Si1 0.930992 0.527661 0.195767
Si Si2 0.609088 0.362309 0.302771
Si Si3 0.728129 0.980270 0.299718
Si Si4 0.158181 0.354546 0.797101
Si Si5 0.976208 0.753696 0.698824
Si Si6 0.932544 0.290921 0.692367
Si Si7 0.678197 0.529016 0.798941
Si Si8 0.834269 0.280693 0.701875
O O1 0.881259 0.560475 0.239997
O O2 0.957809 0.639710 0.224232
O O3 0.944981 0.420911 0.298759
O O4 0.933449 0.498597 0.000000
O O5 0.604356 0.343592 0.500000
O O6 0.641128 0.264149 0.234996
O O7 0.560878 0.345222 0.229759
O O8 0.634268 0.475325 0.271026
O O9 0.731691 0.993723 0.500000
O O10 0.777537 0.970331 0.235609
O O11 0.697673 0.875252 0.267004
O O12 0.702543 0.089417 0.234604
O O13 0.161271 0.346820 0.000000
O O14 0.979461 0.736999 0.500000
O O15 0.025432 0.772861 0.764148
O O16 0.927371 0.254195 0.500000
O O17 0.884151 0.285907 0.768571
O O18 0.682468 0.658163 0.759235
O O19 0.675163 0.518465 0.000000
O O20 0.835500 0.293943 0.500000
#
# Coordination Sequence:
#
# PCOD9441084 Si02
#       8
#     8   8   8   8   8   8   8   8
#     4  10  18  30  50  79 116 154 188 230 286 343
#     4  10  21  38  60  84 114 150 194 238 284 341
#     4  10  20  37  59  84 113 147 186 229 287 345
#     4   8  16  31  52  79 110 144 178 222 276 329
#     4  10  20  34  54  80 114 151 192 240 293 347
#     4  10  20  34  53  80 113 152 195 243 293 345
#     4  10  23  40  60  83 113 151 190 236 287 339
#     4  10  22  40  60  85 116 151 195 240 288 343
#
# _framework density 21.668675
#
# number of rings (size 3 to 8) (size 9 to 14) (size 15 to 20)
#    0.000    2.250    1.250    2.250    1.750    3.500 
#    0.000    1.250    0.000    3.750    0.000    0.000 
#    0.000    0.000    0.000    0.000    0.000    0.000 
#
# Total GULP energy -357145.139242 kJ/mol
# GULP energy per Si atom -5580.392801 kJ/mol
# Density = 2.161936 g / cm^3
# Si number density = 21.668675 Si / 1000 Ang^3
#
#
#
# Elastic Constant Matrix: (Units=GPa)
#
#
# Indices 1 2 3 4 5 6 
#
# 1 116.2688 -4.4800 7.3041 0.0000 0.0000 0.0000
# 2 -4.4800 6.6035 -2.5037 0.0000 0.0000 0.0000
# 3 7.3041 -2.5037 24.5780 0.0000 0.0000 0.0000
# 4 0.0000 0.0000 0.0000 15.6574 0.0000 0.0000
# 5 0.0000 0.0000 0.0000 0.0000 19.0600 0.0000
# 6 0.0000 0.0000 0.0000 0.0000 0.0000 14.4774
#
#
#
# Elastic Compliance Matrix: (Units=1/GPa)
#
#
# Indices 1 2 3 4 5 6 
#
# 1 0.008937 0.005259 -0.002120 0.000000 0.000000 0.000000
# 2 0.005259 0.160613 0.014798 0.000000 0.000000 0.000000
# 3 -0.002120 0.014798 0.042824 0.000000 0.000000 0.000000
# 4 0.000000 0.000000 0.000000 0.063868 0.000000 0.000000
# 5 0.000000 0.000000 0.000000 0.000000 0.052466 0.000000
# 6 0.000000 0.000000 0.000000 0.000000 0.000000 0.069073
#
#
# Mechanical properties :
#
#
# Convention : Reuss Voigt Hill
#
# Bulk Modulus (GPa) = 4.02822 16.45459 10.24140
# Shear Modulus (GPa) = 11.24465 19.64763 15.44614
#
# Velocity S-wave (km/s) = 2.28049 3.01446 2.67279
# Velocity P-wave (km/s) = 2.96601 4.44142 3.77647
#
# Compressibility (1/GPa) = 0.24824884
#
# Stress axis : x y z
#
# Youngs Moduli (GPa) = 111.89966 6.22613 23.35127
#
# Poissons Ratio (x) = -0.03274 0.04951
# Poissons Ratio (y) = -0.58848 -0.34556
# Poissons Ratio (z) = 0.23724 -0.09214
#
# Static dielectric constant tensor:
#      x y z
#    x 1.839200 0.000000 0.000000 
#    y 0.000000 1.765530 0.000000 
#    z 0.000000 0.000000 1.790040 
# 
# From -- ./inp_files/10962.got.cif
#   From: 2010.05.17/outbox.cif.g08.bks.cpg/sg58_6_cif.got.tgz:10962.got - 2010.06.03 14:20:14.
