data_PCOD9441824
_publ_section_title
;
Structure prediction by ZEFSAII (Michael W. Deem and Ramdas Pophale) SiO2 
 PCOD9441824
Probable space group: P N N M
;
_chemical_formula_sum "Si O2"
_cell_formula_units_Z 64
_cell_length_a 20.773668
_cell_length_b 20.573865
_cell_length_c 7.756120
_cell_angle_alpha 90.000000
_cell_angle_beta 90.000000
_cell_angle_gamma 90.000000
_cell_volume 3314.924123
_symmetry_space_group_name_H-M "P N N M"
_symmetry_group_IT_number 58
_symmetry_cell_setting 'orthorhombic'
loop_
_space_group_symop_operation_xyz
x,y,z
-x,-y,z
1/2+x,1/2-y,1/2-z
1/2-x,1/2+y,1/2-z
-x,-y,-z
x,y,-z
1/2-x,1/2+y,1/2+z
1/2+x,1/2-y,1/2+z
loop_
_atom_site_type_symbol
_atom_site_label
_atom_site_fract_x
_atom_site_fract_y
_atom_site_fract_z
Si Si1 0.476349 0.571883 0.210752
Si Si2 0.833963 0.946501 0.292907
Si Si3 0.202288 0.908283 0.707870
Si Si4 0.914481 0.321615 0.702887
Si Si5 0.983951 0.572039 0.799763
Si Si6 0.195451 0.585958 0.707086
Si Si7 0.658658 0.058557 0.795632
Si Si8 0.082169 0.824289 0.711478
O O1 0.500000 0.500000 0.261505
O O2 0.402567 0.579667 0.268267
O O3 0.525521 0.627280 0.268984
O O4 0.477168 0.572839 0.000000
O O5 0.837390 0.950100 0.500000
O O6 0.770492 0.906322 0.247124
O O7 0.821650 0.020499 0.230158
O O8 0.201226 0.909623 0.500000
O O9 0.276379 0.901190 0.761845
O O10 0.150917 0.854600 0.763938
O O11 0.901877 0.312371 0.500000
O O12 0.852181 0.359061 0.775741
O O13 0.925931 0.249525 0.772857
O O14 0.974086 0.370797 0.718992
O O15 0.907820 0.583087 0.782722
O O16 0.000000 0.500000 0.726251
O O17 0.002410 0.570596 0.000000
O O18 0.189066 0.583764 0.500000
O O19 0.173217 0.514670 0.771665
O O20 0.648713 0.054968 0.000000
O O21 0.080493 0.825239 0.500000
#
# Coordination Sequence:
#
# PCOD9441824 Si02
#       8
#     8   8   8   8   8   8   8   8
#     4   9  14  25  47  78 107 130 165 215 257 293
#     4   9  16  26  48  76 100 125 163 213 255 288
#     4   9  16  29  49  76 104 132 169 212 253 300
#     4  10  20  35  53  74 103 141 176 208 257 321
#     4  11  22  35  54  79 103 131 171 221 269 311
#     4   9  18  31  47  69  99 131 165 204 250 304
#     4  10  19  32  52  76 102 132 167 212 260 304
#     4   9  17  30  51  76 105 141 176 210 257 314
#
# _framework density 19.306625
#
# number of rings (size 3 to 8) (size 9 to 14) (size 15 to 20)
#    0.000    2.500    2.500    0.750    0.000    1.500 
#    0.000    1.875    0.000    4.875    0.000    0.000 
#    0.000    0.000    0.000    0.000    0.000    0.000 
#
# Total GULP energy -356976.682628 kJ/mol
# GULP energy per Si atom -5577.760666 kJ/mol
# Density = 1.926268 g / cm^3
# Si number density = 19.306625 Si / 1000 Ang^3
#
#
#
# Elastic Constant Matrix: (Units=GPa)
#
#
# Indices 1 2 3 4 5 6 
#
# 1 171.1423 85.0808 -7.4811 0.0000 0.0000 0.0000
# 2 85.0808 129.0865 1.7450 0.0000 0.0000 0.0000
# 3 -7.4811 1.7450 23.7236 0.0000 0.0000 0.0000
# 4 0.0000 0.0000 0.0000 7.5931 0.0000 0.0000
# 5 0.0000 0.0000 0.0000 0.0000 89.7722 0.0000
# 6 0.0000 0.0000 0.0000 0.0000 0.0000 23.1256
#
#
#
# Elastic Compliance Matrix: (Units=1/GPa)
#
#
# Indices 1 2 3 4 5 6 
#
# 1 0.008935 -0.005933 0.003254 0.000000 0.000000 0.000000
# 2 -0.005933 0.011694 -0.002731 0.000000 0.000000 0.000000
# 3 0.003254 -0.002731 0.043379 0.000000 0.000000 0.000000
# 4 0.000000 0.000000 0.000000 0.131699 0.000000 0.000000
# 5 0.000000 0.000000 0.000000 0.000000 0.011139 0.000000
# 6 0.000000 0.000000 0.000000 0.000000 0.000000 0.043242
#
#
# Mechanical properties :
#
#
# Convention : Reuss Voigt Hill
#
# Bulk Modulus (GPa) = 18.80130 53.62687 36.21409
# Shear Modulus (GPa) = 17.94446 40.40537 29.17491
#
# Velocity S-wave (km/s) = 3.05199 4.57970 3.89155
# Velocity P-wave (km/s) = 4.70945 7.47005 6.24422
#
# Compressibility (1/GPa) = 0.05318781
#
# Stress axis : x y z
#
# Youngs Moduli (GPa) = 111.92225 85.51378 23.05259
#
# Poissons Ratio (x) = 0.50734 -0.07501
# Poissons Ratio (y) = 0.66402 0.06296
# Poissons Ratio (z) = -0.36419 0.23355
#
# Static dielectric constant tensor:
#      x y z
#    x 1.674010 0.000000 0.000000 
#    y 0.000000 1.663830 0.000000 
#    z 0.000000 0.000000 1.712040 
# 
# From -- ./inp_files/9308.got.cif
#   From: 2010.05.17/outbox.cif.g08.bks.cpg/sg58_5_cif.got.tgz:9308.got - 2010.06.03 14:20:14.
