data_PCOD9441285
_publ_section_title
;
Structure prediction by ZEFSAII (Michael W. Deem and Ramdas Pophale) SiO2 
 PCOD9441285
Probable space group: P N N M
;
_chemical_formula_sum "Si O2"
_cell_formula_units_Z 64
_cell_length_a 17.637295
_cell_length_b 11.619278
_cell_length_c 18.529115
_cell_angle_alpha 90.000000
_cell_angle_beta 90.000000
_cell_angle_gamma 90.000000
_cell_volume 3797.220338
_symmetry_space_group_name_H-M "P N N M"
_symmetry_group_IT_number 58
_symmetry_cell_setting 'orthorhombic'
loop_
_space_group_symop_operation_xyz
x,y,z
-x,-y,z
1/2+x,1/2-y,1/2-z
1/2-x,1/2+y,1/2-z
-x,-y,-z
x,y,-z
1/2-x,1/2+y,1/2+z
1/2+x,1/2-y,1/2+z
loop_
_atom_site_type_symbol
_atom_site_label
_atom_site_fract_x
_atom_site_fract_y
_atom_site_fract_z
Si Si1 0.771833 0.938206 0.415790
Si Si2 0.792753 0.179190 0.919030
Si Si3 0.157443 0.884808 0.769651
Si Si4 0.616449 0.846325 0.198736
Si Si5 0.356267 0.976275 0.917209
Si Si6 0.921995 0.937627 0.679092
Si Si7 0.559904 0.167272 0.205767
Si Si8 0.316806 0.956615 0.708494
O O1 0.774428 0.966269 0.500000
O O2 0.745553 0.804749 0.408723
O O3 0.854198 0.949537 0.378863
O O4 0.713192 0.018344 0.371530
O O5 0.848037 0.155407 0.852159
O O6 0.726669 0.082400 0.916802
O O7 0.826047 0.177440 0.000000
O O8 0.132203 0.786049 0.714032
O O9 0.245581 0.907142 0.752707
O O10 0.109585 0.997093 0.749937
O O11 0.527606 0.866143 0.212029
O O12 0.640062 0.899600 0.121684
O O13 0.663058 0.920337 0.256734
O O14 0.406753 0.895797 0.865219
O O15 0.382363 0.979980 0.000000
O O16 0.934484 0.803717 0.695116
O O17 0.000000 0.000000 0.656925
O O18 0.611564 0.123391 0.272433
#
# Coordination Sequence:
#
# PCOD9441285 Si02
#       8
#     8   8   8   8   8   8   8   8
#     4  10  20  35  56  81 113 148 188 227 278 340
#     4  10  18  32  56  83 109 143 187 230 274 329
#     4  11  20  35  57  81 110 146 195 235 279 326
#     4  11  21  34  54  84 113 144 187 235 282 335
#     4  10  20  35  56  81 113 151 183 225 279 333
#     4  11  22  36  55  84 112 151 191 229 277 345
#     4  11  21  36  55  84 113 148 191 231 285 332
#     4  10  20  33  58  79 108 145 187 239 276 327
#
# _framework density 16.854434000000001
#
# number of rings (size 3 to 8) (size 9 to 14) (size 15 to 20)
#    0.000    1.500    6.250    1.500    1.750    1.250 
#    0.000    2.500    0.000    3.375    0.000    0.000 
#    0.000    0.000    0.000    0.000    0.000    0.000 
#
# Total GULP energy -356789.888290 kJ/mol
# GULP energy per Si atom -5574.842005 kJ/mol
# Density = 1.681607 g / cm^3
# Si number density = 16.854434 Si / 1000 Ang^3
#
#
#
# Elastic Constant Matrix: (Units=GPa)
#
#
# Indices 1 2 3 4 5 6 
#
# 1 48.9529 15.4182 39.1916 0.0000 0.0000 0.0000
# 2 15.4182 64.3485 41.8929 0.0000 0.0000 0.0000
# 3 39.1916 41.8929 133.3403 0.0000 0.0000 0.0000
# 4 0.0000 0.0000 0.0000 20.2769 0.0000 0.0000
# 5 0.0000 0.0000 0.0000 0.0000 14.0177 0.0000
# 6 0.0000 0.0000 0.0000 0.0000 0.0000 30.7972
#
#
#
# Elastic Compliance Matrix: (Units=1/GPa)
#
#
# Indices 1 2 3 4 5 6 
#
# 1 0.026849 -0.001629 -0.007380 0.000000 0.000000 0.000000
# 2 -0.001629 0.019635 -0.005690 0.000000 0.000000 0.000000
# 3 -0.007380 -0.005690 0.011456 0.000000 0.000000 0.000000
# 4 0.000000 0.000000 0.000000 0.049317 0.000000 0.000000
# 5 0.000000 0.000000 0.000000 0.000000 0.071338 0.000000
# 6 0.000000 0.000000 0.000000 0.000000 0.000000 0.032471
#
#
# Mechanical properties :
#
#
# Convention : Reuss Voigt Hill
#
# Bulk Modulus (GPa) = 35.03466 48.84966 41.94216
# Shear Modulus (GPa) = 20.00172 23.02763 21.51468
#
# Velocity S-wave (km/s) = 3.44864 3.70031 3.57669
# Velocity P-wave (km/s) = 6.05716 6.87769 6.48043
#
# Compressibility (1/GPa) = 0.02854316
#
# Stress axis : x y z
#
# Youngs Moduli (GPa) = 37.24526 50.92906 87.28696
#
# Poissons Ratio (x) = 0.08295 0.64416
# Poissons Ratio (y) = 0.06066 0.49669
# Poissons Ratio (z) = 0.27486 0.28980
#
# Static dielectric constant tensor:
#      x y z
#    x 1.560690 0.000000 0.000000 
#    y 0.000000 1.582020 0.000000 
#    z 0.000000 0.000000 1.573390 
# 
# From -- ./inp_files/27387.got.cif
#   From: 2010.05.17/outbox.cif.g08.bks.cpg/sg58_14_cif.got.tgz:27387.got - 2010.06.03 14:20:14.
