data_PCOD9441122
_publ_section_title
;
Structure prediction by ZEFSAII (Michael W. Deem and Ramdas Pophale) SiO2 
 PCOD9441122
Probable space group: P N N M
;
_chemical_formula_sum "Si O2"
_cell_formula_units_Z 64
_cell_length_a 15.135475
_cell_length_b 31.424785
_cell_length_c 8.024636
_cell_angle_alpha 90.000000
_cell_angle_beta 90.000000
_cell_angle_gamma 90.000000
_cell_volume 3816.749979
_symmetry_space_group_name_H-M "P N N M"
_symmetry_group_IT_number 58
_symmetry_cell_setting 'orthorhombic'
loop_
_space_group_symop_operation_xyz
x,y,z
-x,-y,z
1/2+x,1/2-y,1/2-z
1/2-x,1/2+y,1/2-z
-x,-y,-z
x,y,-z
1/2-x,1/2+y,1/2+z
1/2+x,1/2-y,1/2+z
loop_
_atom_site_type_symbol
_atom_site_label
_atom_site_fract_x
_atom_site_fract_y
_atom_site_fract_z
Si Si1 0.322150 0.866740 0.700633
Si Si2 0.999750 0.226355 0.798916
Si Si3 0.996507 0.324448 0.796657
Si Si4 0.601762 0.951805 0.799110
Si Si5 0.317542 0.132314 0.301602
Si Si6 0.804282 0.207844 0.700408
Si Si7 0.099538 0.451439 0.700353
Si Si8 0.304056 0.708084 0.300410
O O1 0.320863 0.865034 0.500000
O O2 0.414463 0.846653 0.761139
O O3 0.246039 0.834701 0.760580
O O4 0.329888 0.916040 0.748230
O O5 0.995688 0.275579 0.746707
O O6 0.094697 0.209395 0.738594
O O7 0.907459 0.206405 0.743179
O O8 0.000633 0.224784 0.000000
O O9 0.908928 0.347407 0.735500
O O10 0.996581 0.325801 0.000000
O O11 0.672964 0.917169 0.742882
O O12 0.501129 0.941018 0.740046
O O13 0.619721 0.000317 0.744654
O O14 0.599937 0.951385 0.000000
O O15 0.316452 0.135887 0.500000
O O16 0.240902 0.162973 0.237046
O O17 0.796708 0.208901 0.500000
O O18 0.755071 0.251431 0.761960
O O19 0.095808 0.451863 0.500000
O O20 0.307543 0.713180 0.500000
#
# Coordination Sequence:
#
# PCOD9441122 Si02
#       8
#     8   8   8   8   8   8   8   8
#     4  10  18  31  48  68  97 131 162 196 239 285
#     4  10  19  34  50  65  94 132 167 202 238 278
#     4   9  16  27  44  67  95 126 159 196 233 270
#     4   9  18  32  47  67  99 130 157 194 241 288
#     4  11  20  30  48  72  97 127 165 204 237 278
#     4  10  20  32  48  70  96 127 163 201 241 282
#     4   9  18  31  47  69  97 128 160 197 236 282
#     4  10  20  33  49  68  95 132 165 196 241 288
#
# _framework density 16.768191999999999
#
# number of rings (size 3 to 8) (size 9 to 14) (size 15 to 20)
#    0.000    2.250    3.750    1.125    0.000    1.500 
#    0.000    1.875    0.000    0.000    0.000    0.875 
#    0.000    7.000    0.000    0.000    0.000    0.000 
#
# Total GULP energy -356675.695354 kJ/mol
# GULP energy per Si atom -5573.057740 kJ/mol
# Density = 1.673003 g / cm^3
# Si number density = 16.768192 Si / 1000 Ang^3
#
#
#
# Elastic Constant Matrix: (Units=GPa)
#
#
# Indices 1 2 3 4 5 6 
#
# 1 115.8347 69.9049 9.6808 0.0000 0.0000 0.0000
# 2 69.9049 125.7083 5.9562 0.0000 0.0000 0.0000
# 3 9.6808 5.9562 13.3291 0.0000 0.0000 0.0000
# 4 0.0000 0.0000 0.0000 15.7137 0.0000 0.0000
# 5 0.0000 0.0000 0.0000 0.0000 18.3354 0.0000
# 6 0.0000 0.0000 0.0000 0.0000 0.0000 22.0727
#
#
#
# Elastic Compliance Matrix: (Units=1/GPa)
#
#
# Indices 1 2 3 4 5 6 
#
# 1 0.013540 -0.007217 -0.006610 0.000000 0.000000 0.000000
# 2 -0.007217 0.011973 -0.000109 0.000000 0.000000 0.000000
# 3 -0.006610 -0.000109 0.079873 0.000000 0.000000 0.000000
# 4 0.000000 0.000000 0.000000 0.063639 0.000000 0.000000
# 5 0.000000 0.000000 0.000000 0.000000 0.054539 0.000000
# 6 0.000000 0.000000 0.000000 0.000000 0.000000 0.045305
#
#
# Mechanical properties :
#
#
# Convention : Reuss Voigt Hill
#
# Bulk Modulus (GPa) = 12.90051 47.32843 30.11447
# Shear Modulus (GPa) = 15.50012 22.51304 19.00658
#
# Velocity S-wave (km/s) = 3.04365 3.66813 3.37039
# Velocity P-wave (km/s) = 4.47905 6.79902 5.75711
#
# Compressibility (1/GPa) = 0.07751632
#
# Stress axis : x y z
#
# Youngs Moduli (GPa) = 73.85270 83.52045 12.51991
#
# Poissons Ratio (x) = 0.60273 0.08275
# Poissons Ratio (y) = 0.53296 0.00136
# Poissons Ratio (z) = 0.48813 0.00910
#
# Static dielectric constant tensor:
#      x y z
#    x 1.568140 0.000000 0.000000 
#    y 0.000000 1.588790 0.000000 
#    z 0.000000 0.000000 1.603690 
# 
# From -- ./inp_files/7140.got.cif
#   From: 2010.05.17/outbox.cif.g08.bks.cpg/sg58_4_cif.got.tgz:7140.got - 2010.06.03 14:20:14.
