data_PCOD9441767
_publ_section_title
;
Structure prediction by ZEFSAII (Michael W. Deem and Ramdas Pophale) SiO2 
 PCOD9441767
Probable space group: P N N M
;
_chemical_formula_sum "Si O2"
_cell_formula_units_Z 56
_cell_length_a 16.849106
_cell_length_b 9.019168
_cell_length_c 20.346788
_cell_angle_alpha 90.000000
_cell_angle_beta 90.000000
_cell_angle_gamma 90.000000
_cell_volume 3091.997963
_symmetry_space_group_name_H-M "P N N M"
_symmetry_group_IT_number 58
_symmetry_cell_setting 'orthorhombic'
loop_
_space_group_symop_operation_xyz
x,y,z
-x,-y,z
1/2+x,1/2-y,1/2-z
1/2-x,1/2+y,1/2-z
-x,-y,-z
x,y,-z
1/2-x,1/2+y,1/2+z
1/2+x,1/2-y,1/2+z
loop_
_atom_site_type_symbol
_atom_site_label
_atom_site_fract_x
_atom_site_fract_y
_atom_site_fract_z
Si Si1 0.730703 0.305841 0.341043
Si Si2 0.390775 0.307333 0.876584
Si Si3 0.941772 0.863615 0.813915
Si Si4 0.461486 0.839399 0.927424
Si Si5 0.282262 0.017415 0.721423
Si Si6 0.869263 0.865111 0.333636
Si Si7 0.448569 0.135552 0.745980
O O1 0.804062 0.265939 0.389440
O O2 0.638209 0.338997 0.356879
O O3 0.758967 0.443632 0.296271
O O4 0.729182 0.153722 0.297408
O O5 0.460779 0.263223 0.924471
O O6 0.388459 0.483819 0.871893
O O7 0.418750 0.242693 0.804838
O O8 0.908743 0.879703 0.738643
O O9 0.998247 0.722100 0.806345
O O10 0.000000 0.000000 0.830523
O O11 0.402035 0.776294 0.872273
O O12 0.500000 0.000000 0.916439
O O13 0.424510 0.836561 0.000000
O O14 0.224315 0.120744 0.678602
O O15 0.371834 0.065478 0.712922
O O16 0.500000 0.000000 0.773424
#
# Coordination Sequence:
#
# PCOD9441767 Si02
#       7
#     8   8   8   8   8   8   8
#     4   9  19  29  42  64  94 124 158 193 225 273
#     4  10  19  32  47  67  91 125 159 192 236 276
#     4  11  18  29  44  67  99 129 160 190 222 272
#     4  11  23  36  50  69  90 117 157 200 240 286
#     4   9  19  29  41  65  91 125 159 190 228 274
#     4  10  19  33  47  64  95 123 157 198 233 276
#     4  11  18  28  46  66  96 131 161 187 225 273
#
# _framework density 18.111267000000002
#
# number of rings (size 3 to 8) (size 9 to 14) (size 15 to 20)
#    0.000    1.857    4.286    0.857    2.000    2.286 
#    0.000    0.000    0.000    0.000    0.000    0.000 
#    0.000    2.286    0.000    0.143    0.000    0.000 
#
# Total GULP energy -311956.230632 kJ/mol
# GULP energy per Si atom -5570.646976 kJ/mol
# Density = 1.807004 g / cm^3
# Si number density = 18.111267 Si / 1000 Ang^3
#
#
#
# Elastic Constant Matrix: (Units=GPa)
#
#
# Indices 1 2 3 4 5 6 
#
# 1 119.4739 16.5958 3.4149 0.0000 0.0000 0.0000
# 2 16.5958 55.9560 4.8578 0.0000 0.0000 0.0000
# 3 3.4149 4.8578 17.2682 0.0000 0.0000 0.0000
# 4 0.0000 0.0000 0.0000 -2.4018 0.0000 0.0000
# 5 0.0000 0.0000 0.0000 0.0000 8.5688 0.0000
# 6 0.0000 0.0000 0.0000 0.0000 0.0000 32.3145
#
#
#
# Elastic Compliance Matrix: (Units=1/GPa)
#
#
# Indices 1 2 3 4 5 6 
#
# 1 0.008747 -0.002505 -0.001025 0.000000 0.000000 0.000000
# 2 -0.002505 0.019036 -0.004860 0.000000 0.000000 0.000000
# 3 -0.001025 -0.004860 0.059480 0.000000 0.000000 0.000000
# 4 0.000000 0.000000 0.000000 -0.416362 0.000000 0.000000
# 5 0.000000 0.000000 0.000000 0.000000 0.116703 0.000000
# 6 0.000000 0.000000 0.000000 0.000000 0.000000 0.030946
#
#
# Mechanical properties :
#
#
# Convention : Reuss Voigt Hill
#
# Bulk Modulus (GPa) = 14.18782 26.93725 20.56254
# Shear Modulus (GPa) = -35.41676 18.88494 -8.26591
#
# Velocity S-wave (km/s) = -4.42691 3.23262 -2.13866
# Velocity P-wave (km/s) = 4.27544 5.37016 2.29774
#
# Compressibility (1/GPa) = 0.07048299
#
# Stress axis : x y z
#
# Youngs Moduli (GPa) = 114.32049 52.53168 16.81244
#
# Poissons Ratio (x) = 0.13161 0.01723
# Poissons Ratio (y) = 0.28641 0.08170
# Poissons Ratio (z) = 0.11718 0.25529
#
# Static dielectric constant tensor:
#      x y z
#    x 1.689040 0.000000 0.000000 
#    y 0.000000 1.673150 0.000000 
#    z 0.000000 0.000000 1.639830 
# 
# From -- ./inp_files/29063.got.cif
#   From: 2010.05.17/outbox.cif.g08.bks.cpg/sg58_15_cif.got.tgz:29063.got - 2010.06.03 14:20:14.
