data_PCOD9441620
_publ_section_title
;
Structure prediction by ZEFSAII (Michael W. Deem and Ramdas Pophale) SiO2 
 PCOD9441620
Probable space group: P N N M
;
_chemical_formula_sum "Si O2"
_cell_formula_units_Z 48
_cell_length_a 5.153063
_cell_length_b 28.550029
_cell_length_c 17.942876
_cell_angle_alpha 90.000000
_cell_angle_beta 90.000000
_cell_angle_gamma 90.000000
_cell_volume 2639.757677
_symmetry_space_group_name_H-M "P N N M"
_symmetry_group_IT_number 58
_symmetry_cell_setting 'orthorhombic'
loop_
_space_group_symop_operation_xyz
x,y,z
-x,-y,z
1/2+x,1/2-y,1/2-z
1/2-x,1/2+y,1/2-z
-x,-y,-z
x,y,-z
1/2-x,1/2+y,1/2+z
1/2+x,1/2-y,1/2+z
loop_
_atom_site_type_symbol
_atom_site_label
_atom_site_fract_x
_atom_site_fract_y
_atom_site_fract_z
Si Si1 0.266780 0.834048 0.660899
Si Si2 0.650908 0.778141 0.500000
Si Si3 0.268556 0.730143 0.844454
Si Si4 0.301233 0.331391 0.679223
Si Si5 0.750159 0.972641 0.090122
Si Si6 0.344705 0.339531 0.000000
Si Si7 0.202541 0.637975 0.589703
O O1 0.550814 0.809981 0.665133
O O2 0.213240 0.857864 0.740796
O O3 0.226332 0.861082 0.581457
O O4 0.046022 0.793978 0.654753
O O5 0.713508 0.750175 0.573148
O O6 0.355682 0.795368 0.500000
O O7 0.856203 0.821962 0.500000
O O8 0.245167 0.776971 0.797601
O O9 0.574288 0.336613 0.637540
O O10 0.073373 0.347975 0.624584
O O11 0.744821 0.917438 0.103482
O O12 0.500000 0.000000 0.118491
O O13 0.750428 0.977024 0.000000
O O14 0.000000 0.000000 0.118632
O O15 0.216087 0.646646 0.500000
#
# Coordination Sequence:
#
# PCOD9441620 Si02
#       7
#     8   4   8   8   8   4   8
#     4  10  19  34  49  67  90 124 173 210 249 290
#     4   8  16  26  42  60  80 110 158 208 236 274
#     4  10  19  31  46  65  88 127 170 205 243 295
#     4  12  22  33  49  68 100 133 155 208 253 292
#     4   9  17  33  55  71  90 125 163 194 224 281
#     4   8  16  30  46  64  82 108 160 214 242 270
#     4  11  24  36  48  75 104 129 163 197 247 295
#
# _framework density 18.183485999999998
#
# number of rings (size 3 to 8) (size 9 to 14) (size 15 to 20)
#    0.000    2.000    0.000    4.500    2.333    2.667 
#    3.000    0.000    0.000    0.000    0.000    0.000 
#    0.000    0.000    0.000   15.000    0.000    0.000 
#
# Total GULP energy -267321.199045 kJ/mol
# GULP energy per Si atom -5569.191647 kJ/mol
# Density = 1.814210 g / cm^3
# Si number density = 18.183486 Si / 1000 Ang^3
#
#
#
# Elastic Constant Matrix: (Units=GPa)
#
#
# Indices 1 2 3 4 5 6 
#
# 1 73.6880 2.2788 -4.6430 0.0000 0.0000 0.0000
# 2 2.2788 21.7245 -12.0210 0.0000 0.0000 0.0000
# 3 -4.6430 -12.0210 116.7013 0.0000 0.0000 0.0000
# 4 0.0000 0.0000 0.0000 5.0534 0.0000 0.0000
# 5 0.0000 0.0000 0.0000 0.0000 17.3696 0.0000
# 6 0.0000 0.0000 0.0000 0.0000 0.0000 8.7419
#
#
#
# Elastic Compliance Matrix: (Units=1/GPa)
#
#
# Indices 1 2 3 4 5 6 
#
# 1 0.013634 -0.001198 0.000419 0.000000 0.000000 0.000000
# 2 -0.001198 0.048918 0.004991 0.000000 0.000000 0.000000
# 3 0.000419 0.004991 0.009100 0.000000 0.000000 0.000000
# 4 0.000000 0.000000 0.000000 0.197886 0.000000 0.000000
# 5 0.000000 0.000000 0.000000 0.000000 0.057572 0.000000
# 6 0.000000 0.000000 0.000000 0.000000 0.000000 0.114391
#
#
# Mechanical properties :
#
#
# Convention : Reuss Voigt Hill
#
# Bulk Modulus (GPa) = 12.48810 20.37149 16.42979
# Shear Modulus (GPa) = 10.87501 21.33292 16.10396
#
# Velocity S-wave (km/s) = 2.44820 3.42892 2.97919
# Velocity P-wave (km/s) = 3.85672 5.18693 4.57048
#
# Compressibility (1/GPa) = 0.08007625
#
# Stress axis : x y z
#
# Youngs Moduli (GPa) = 73.34501 20.44219 109.89386
#
# Poissons Ratio (x) = 0.02450 -0.04605
# Poissons Ratio (y) = 0.08789 -0.54851
# Poissons Ratio (z) = -0.03073 -0.10203
#
# Static dielectric constant tensor:
#      x y z
#    x 1.631530 0.000000 0.000000 
#    y 0.000000 1.566350 0.000000 
#    z 0.000000 0.000000 1.727760 
# 
# From -- ./inp_files/24357.got.cif
#   From: 2010.05.17/outbox.cif.g08.bks.cpg/sg58_13_cif.got.tgz:24357.got - 2010.06.03 14:20:14.
