data_PCOD9441828
_publ_section_title
;
Structure prediction by ZEFSAII (Michael W. Deem and Ramdas Pophale) SiO2 
 PCOD9441828
Probable space group: P N N M
;
_chemical_formula_sum "Si O2"
_cell_formula_units_Z 52
_cell_length_a 22.947595
_cell_length_b 9.283750
_cell_length_c 13.236754
_cell_angle_alpha 90.000000
_cell_angle_beta 90.000000
_cell_angle_gamma 90.000000
_cell_volume 2819.954565
_symmetry_space_group_name_H-M "P N N M"
_symmetry_group_IT_number 58
_symmetry_cell_setting 'orthorhombic'
loop_
_space_group_symop_operation_xyz
x,y,z
-x,-y,z
1/2+x,1/2-y,1/2-z
1/2-x,1/2+y,1/2-z
-x,-y,-z
x,y,-z
1/2-x,1/2+y,1/2+z
1/2+x,1/2-y,1/2+z
loop_
_atom_site_type_symbol
_atom_site_label
_atom_site_fract_x
_atom_site_fract_y
_atom_site_fract_z
Si Si1 0.688800 0.370924 0.887617
Si Si2 0.739165 0.046658 0.883718
Si Si3 0.594565 0.763654 0.388555
Si Si4 0.000000 0.500000 0.843389
Si Si5 0.306799 0.014629 0.325332
Si Si6 0.403062 0.808544 0.382084
Si Si7 0.370384 0.513942 0.307334
O O1 0.717435 0.212347 0.873463
O O2 0.744132 0.476222 0.876515
O O3 0.644227 0.417528 0.801268
O O4 0.663997 0.376914 0.000000
O O5 0.704006 0.967217 0.794424
O O6 0.807423 0.025157 0.857289
O O7 0.729141 0.002629 0.000000
O O8 0.599835 0.698574 0.500000
O O9 0.540227 0.872225 0.388567
O O10 0.593537 0.633707 0.309661
O O11 0.650880 0.861734 0.366761
O O12 0.946881 0.604068 0.808159
O O13 0.339182 0.867091 0.353548
O O14 0.415663 0.846810 0.500000
O O15 0.403099 0.638847 0.368241
#
# Coordination Sequence:
#
# PCOD9441828 Si02
#       7
#     8   8   8   4   8   8   8
#     4  10  19  34  53  78 112 149 179 213 261 317
#     4  10  19  33  51  79 114 146 178 218 260 311
#     4  11  20  36  56  77 110 144 176 222 273 320
#     4  10  23  38  56  78 105 144 181 222 278 334
#     4  10  19  32  52  76 106 150 182 205 260 324
#     4  11  20  34  52  79 109 138 181 224 267 318
#     4  11  22  33  53  84 108 144 182 218 265 317
#
# _framework density 18.440011999999999
#
# number of rings (size 3 to 8) (size 9 to 14) (size 15 to 20)
#    0.000    1.538    3.077    5.077    0.000    0.615 
#    0.000    3.846    0.000    0.000    0.000   20.462 
#    0.000    0.000    0.000    0.000    0.000    0.000 
#
# Total GULP energy -289490.841584 kJ/mol
# GULP energy per Si atom -5567.131569 kJ/mol
# Density = 1.839804 g / cm^3
# Si number density = 18.440012 Si / 1000 Ang^3
#
#
#
# Elastic Constant Matrix: (Units=GPa)
#
#
# Indices 1 2 3 4 5 6 
#
# 1 40.0242 6.5479 8.4185 0.0000 0.0000 0.0000
# 2 6.5479 76.2353 10.7225 0.0000 0.0000 0.0000
# 3 8.4185 10.7225 90.9061 0.0000 0.0000 0.0000
# 4 0.0000 0.0000 0.0000 22.7916 0.0000 0.0000
# 5 0.0000 0.0000 0.0000 0.0000 5.3214 0.0000
# 6 0.0000 0.0000 0.0000 0.0000 0.0000 24.3184
#
#
#
# Elastic Compliance Matrix: (Units=1/GPa)
#
#
# Indices 1 2 3 4 5 6 
#
# 1 0.025751 -0.001908 -0.002160 0.000000 0.000000 0.000000
# 2 -0.001908 0.013480 -0.001413 0.000000 0.000000 0.000000
# 3 -0.002160 -0.001413 0.011367 0.000000 0.000000 0.000000
# 4 0.000000 0.000000 0.000000 0.043876 0.000000 0.000000
# 5 0.000000 0.000000 0.000000 0.000000 0.187921 0.000000
# 6 0.000000 0.000000 0.000000 0.000000 0.000000 0.041121
#
#
# Mechanical properties :
#
#
# Convention : Reuss Voigt Hill
#
# Bulk Modulus (GPa) = 25.22941 28.72705 26.97823
# Shear Modulus (GPa) = 14.38062 22.58471 18.48266
#
# Velocity S-wave (km/s) = 2.79563 3.50346 3.16937
# Velocity P-wave (km/s) = 4.91246 5.65492 5.29672
#
# Compressibility (1/GPa) = 0.03963628
#
# Stress axis : x y z
#
# Youngs Moduli (GPa) = 38.83304 74.18422 87.97353
#
# Poissons Ratio (x) = 0.14155 0.18999
# Poissons Ratio (y) = 0.07410 0.12433
# Poissons Ratio (z) = 0.08387 0.10484
#
# Static dielectric constant tensor:
#      x y z
#    x 1.639100 0.000000 0.000000 
#    y 0.000000 1.663410 0.000000 
#    z 0.000000 0.000000 1.646130 
# 
# From -- ./inp_files/23483.got.cif
#   From: 2010.05.17/outbox.cif.g08.bks.cpg/sg58_12_cif.got.tgz:23483.got - 2010.06.03 14:20:14.
