data_PCOD9441941
_publ_section_title
;
Structure prediction by ZEFSAII (Michael W. Deem and Ramdas Pophale) SiO2 
 PCOD9441941
Probable space group: P N N M
;
_chemical_formula_sum "Si O2"
_cell_formula_units_Z 56
_cell_length_a 15.302761
_cell_length_b 20.868536
_cell_length_c 7.672424
_cell_angle_alpha 90.000000
_cell_angle_beta 90.000000
_cell_angle_gamma 90.000000
_cell_volume 2450.159594
_symmetry_space_group_name_H-M "P N N M"
_symmetry_group_IT_number 58
_symmetry_cell_setting 'orthorhombic'
loop_
_space_group_symop_operation_xyz
x,y,z
-x,-y,z
1/2+x,1/2-y,1/2-z
1/2-x,1/2+y,1/2-z
-x,-y,-z
x,y,-z
1/2-x,1/2+y,1/2+z
1/2+x,1/2-y,1/2+z
loop_
_atom_site_type_symbol
_atom_site_label
_atom_site_fract_x
_atom_site_fract_y
_atom_site_fract_z
Si Si1 0.285545 0.086600 0.295686
Si Si2 0.902591 0.924763 0.710673
Si Si3 0.905256 0.076182 0.289940
Si Si4 0.918394 0.303933 0.700258
Si Si5 0.202806 0.806876 0.797515
Si Si6 0.607821 0.175799 0.796128
Si Si7 0.595546 0.027614 0.287996
O O1 0.271508 0.073334 0.500000
O O2 0.189317 0.103578 0.224880
O O3 0.354922 0.143446 0.282340
O O4 0.331177 0.022418 0.224739
O O5 0.907610 0.916863 0.500000
O O6 0.997917 0.902551 0.773445
O O7 0.896306 0.000888 0.748052
O O8 0.901446 0.081998 0.500000
O O9 0.829577 0.120224 0.215559
O O10 0.929018 0.324456 0.500000
O O11 0.869111 0.236863 0.707405
O O12 0.015369 0.301321 0.779326
O O13 0.300135 0.800075 0.722059
O O14 0.203871 0.787661 0.000000
O O15 0.607297 0.098859 0.781685
O O16 0.609440 0.194584 0.000000
O O17 0.598868 0.030927 0.500000
O O18 0.500000 0.000000 0.241624
#
# Coordination Sequence:
#
# PCOD9441941 Si02
#       7
#     8   8   8   8   8   8   8
#     4  10  19  34  55  84 119 150 181 226 280 333
#     4   8  16  31  57  86 114 148 183 220 271 330
#     4   9  17  35  59  84 111 146 189 227 266 327
#     4  11  24  41  58  79 107 146 191 231 272 332
#     4  11  24  41  59  81 110 148 189 235 286 333
#     4  10  23  41  60  82 113 150 189 230 283 344
#     4  10  19  32  57  91 120 147 183 230 283 332
#
# _framework density 22.855653
#
# number of rings (size 3 to 8) (size 9 to 14) (size 15 to 20)
#    0.000    2.143    1.429    2.571    0.000    4.857 
#    0.000    8.571    0.000    0.000    0.000    0.000 
#    0.000    0.000    0.000    0.000    0.000    0.000 
#
# Total GULP energy -312768.354468 kJ/mol
# GULP energy per Si atom -5585.149187 kJ/mol
# Density = 2.280363 g / cm^3
# Si number density = 22.855653 Si / 1000 Ang^3
#
#
#
# Elastic Constant Matrix: (Units=GPa)
#
#
# Indices 1 2 3 4 5 6 
#
# 1 187.2982 21.1825 10.3119 0.0000 0.0000 0.0000
# 2 21.1825 31.6324 -10.0229 0.0000 0.0000 0.0000
# 3 10.3119 -10.0229 38.5058 0.0000 0.0000 0.0000
# 4 0.0000 0.0000 0.0000 19.0424 0.0000 0.0000
# 5 0.0000 0.0000 0.0000 0.0000 9.7008 0.0000
# 6 0.0000 0.0000 0.0000 0.0000 0.0000 17.0687
#
#
#
# Elastic Compliance Matrix: (Units=1/GPa)
#
#
# Indices 1 2 3 4 5 6 
#
# 1 0.006064 -0.004986 -0.002922 0.000000 0.000000 0.000000
# 2 -0.004986 0.038555 0.011371 0.000000 0.000000 0.000000
# 3 -0.002922 0.011371 0.029712 0.000000 0.000000 0.000000
# 4 0.000000 0.000000 0.000000 0.052514 0.000000 0.000000
# 5 0.000000 0.000000 0.000000 0.000000 0.103084 0.000000
# 6 0.000000 0.000000 0.000000 0.000000 0.000000 0.058587
#
#
# Mechanical properties :
#
#
# Convention : Reuss Voigt Hill
#
# Bulk Modulus (GPa) = 12.30660 33.37549 22.84105
# Shear Modulus (GPa) = 16.19817 24.89338 20.54578
#
# Velocity S-wave (km/s) = 2.66506 3.30382 3.00148
# Velocity P-wave (km/s) = 3.85568 5.40260 4.69331
#
# Compressibility (1/GPa) = 0.08125720
#
# Stress axis : x y z
#
# Youngs Moduli (GPa) = 164.91073 25.93678 33.65595
#
# Poissons Ratio (x) = 0.12933 0.09834
# Poissons Ratio (y) = 0.82232 -0.38271
# Poissons Ratio (z) = 0.48185 -0.29493
#
# Static dielectric constant tensor:
#      x y z
#    x 1.907270 0.000000 0.000000 
#    y 0.000000 1.801210 0.000000 
#    z 0.000000 0.000000 1.861570 
# 
# From -- ./inp_files/6480.got.cif
#   From: 2010.05.17/outbox.cif.g08.bks.cpg/sg58_4_cif.got.tgz:6480.got - 2010.06.03 14:20:14.
