data_PCOD9441254
_publ_section_title
;
Structure prediction by ZEFSAII (Michael W. Deem and Ramdas Pophale) SiO2 
 PCOD9441254
Probable space group: P N N M
;
_chemical_formula_sum "Si O2"
_cell_formula_units_Z 56
_cell_length_a 12.730475
_cell_length_b 17.574214
_cell_length_c 13.535663
_cell_angle_alpha 90.000000
_cell_angle_beta 90.000000
_cell_angle_gamma 90.000000
_cell_volume 3028.308057
_symmetry_space_group_name_H-M "P N N M"
_symmetry_group_IT_number 58
_symmetry_cell_setting 'orthorhombic'
loop_
_space_group_symop_operation_xyz
x,y,z
-x,-y,z
1/2+x,1/2-y,1/2-z
1/2-x,1/2+y,1/2-z
-x,-y,-z
x,y,-z
1/2-x,1/2+y,1/2+z
1/2+x,1/2-y,1/2+z
loop_
_atom_site_type_symbol
_atom_site_label
_atom_site_fract_x
_atom_site_fract_y
_atom_site_fract_z
Si Si1 0.342067 0.191094 0.891406
Si Si2 0.371951 0.931828 0.287042
Si Si3 0.673395 0.634104 0.888312
Si Si4 0.594530 0.181447 0.118084
Si Si5 0.418360 0.091252 0.614459
Si Si6 0.957439 0.914888 0.613830
Si Si7 0.271343 0.671348 0.807543
O O1 0.302326 0.277767 0.896107
O O2 0.467878 0.192532 0.871379
O O3 0.273328 0.160384 0.802242
O O4 0.327895 0.155522 0.000000
O O5 0.258579 0.909616 0.326846
O O6 0.382133 0.896799 0.177534
O O7 0.463225 0.890005 0.351805
O O8 0.388512 0.020745 0.312746
O O9 0.556509 0.630832 0.845286
O O10 0.669040 0.601302 0.000000
O O11 0.664549 0.250676 0.165877
O O12 0.615645 0.178921 0.000000
O O13 0.416493 0.066297 0.500000
O O14 0.333564 0.157915 0.627681
O O15 0.939061 0.891019 0.500000
O O16 0.851986 0.896309 0.669238
O O17 0.000000 0.000000 0.615657
#
# Coordination Sequence:
#
# PCOD9441254 Si02
#       7
#     8   8   8   8   8   8   8
#     4  10  21  37  57  84 117 154 198 241 297 358
#     4  11  21  37  56  83 123 160 196 243 301 366
#     4  10  18  32  54  78 113 156 192 234 293 359
#     4  11  22  39  60  86 119 159 204 249 297 356
#     4  11  23  37  57  90 123 156 196 255 313 355
#     4  10  20  33  55  87 118 152 191 240 301 359
#     4  12  21  38  64  90 121 152 202 255 305 353
#
# _framework density 18.492173999999999
#
# number of rings (size 3 to 8) (size 9 to 14) (size 15 to 20)
#    0.000    1.286    4.286    3.857    0.000    1.143 
#    0.000    2.143    0.000    1.286    0.000    0.000 
#    0.000    0.000    0.000    0.000    0.000    0.000 
#
# Total GULP energy -311970.344819 kJ/mol
# GULP energy per Si atom -5570.899015 kJ/mol
# Density = 1.845008 g / cm^3
# Si number density = 18.492174 Si / 1000 Ang^3
#
#
#
# Elastic Constant Matrix: (Units=GPa)
#
#
# Indices 1 2 3 4 5 6 
#
# 1 103.3112 11.3840 55.5701 0.0000 0.0000 0.0000
# 2 11.3840 31.2237 26.5178 0.0000 0.0000 0.0000
# 3 55.5701 26.5178 112.9019 0.0000 0.0000 0.0000
# 4 0.0000 0.0000 0.0000 23.9434 0.0000 0.0000
# 5 0.0000 0.0000 0.0000 0.0000 30.5845 0.0000
# 6 0.0000 0.0000 0.0000 0.0000 0.0000 27.7535
#
#
#
# Elastic Compliance Matrix: (Units=1/GPa)
#
#
# Indices 1 2 3 4 5 6 
#
# 1 0.013184 0.000880 -0.006696 0.000000 0.000000 0.000000
# 2 0.000880 0.040066 -0.009844 0.000000 0.000000 0.000000
# 3 -0.006696 -0.009844 0.014465 0.000000 0.000000 0.000000
# 4 0.000000 0.000000 0.000000 0.041765 0.000000 0.000000
# 5 0.000000 0.000000 0.000000 0.000000 0.032696 0.000000
# 6 0.000000 0.000000 0.000000 0.000000 0.000000 0.036031
#
#
# Mechanical properties :
#
#
# Convention : Reuss Voigt Hill
#
# Bulk Modulus (GPa) = 27.47551 48.26451 37.87001
# Shear Modulus (GPa) = 22.55712 26.72062 24.63887
#
# Velocity S-wave (km/s) = 3.49638 3.80540 3.65416
# Velocity P-wave (km/s) = 5.58478 6.74275 6.19090
#
# Compressibility (1/GPa) = 0.03639605
#
# Stress axis : x y z
#
# Youngs Moduli (GPa) = 75.84842 24.95872 69.13264
#
# Poissons Ratio (x) = -0.02196 0.46290
# Poissons Ratio (y) = -0.06673 0.68051
# Poissons Ratio (z) = 0.50787 0.24568
#
# Static dielectric constant tensor:
#      x y z
#    x 1.641590 0.000000 0.000000 
#    y 0.000000 1.701230 0.000000 
#    z 0.000000 0.000000 1.684500 
# 
# From -- ./inp_files/14593.got.cif
#   From: 2010.05.17/outbox.cif.g08.bks.cpg/sg58_8_cif.got.tgz:14593.got - 2010.06.03 14:20:14.
