data_PCOD9441183
_publ_section_title
;
Structure prediction by ZEFSAII (Michael W. Deem and Ramdas Pophale) SiO2 
 PCOD9441183
Probable space group: P N N M
;
_chemical_formula_sum "Si O2"
_cell_formula_units_Z 40
_cell_length_a 7.621897
_cell_length_b 12.563311
_cell_length_c 21.655038
_cell_angle_alpha 90.000000
_cell_angle_beta 90.000000
_cell_angle_gamma 90.000000
_cell_volume 2073.605501
_symmetry_space_group_name_H-M "P N N M"
_symmetry_group_IT_number 58
_symmetry_cell_setting 'orthorhombic'
loop_
_space_group_symop_operation_xyz
x,y,z
-x,-y,z
1/2+x,1/2-y,1/2-z
1/2-x,1/2+y,1/2-z
-x,-y,-z
x,y,-z
1/2-x,1/2+y,1/2+z
1/2+x,1/2-y,1/2+z
loop_
_atom_site_type_symbol
_atom_site_label
_atom_site_fract_x
_atom_site_fract_y
_atom_site_fract_z
Si Si1 0.709477 0.469541 0.808814
Si Si2 0.353749 0.758222 0.164122
Si Si3 0.258728 0.800686 0.303176
Si Si4 0.690597 0.050735 0.068677
Si Si5 0.344996 0.580137 0.324465
O O1 0.500000 0.500000 0.810995
O O2 0.726086 0.359751 0.845845
O O3 0.798087 0.580709 0.826611
O O4 0.766870 0.438011 0.738469
O O5 0.277567 0.803034 0.228850
O O6 0.562707 0.736912 0.176341
O O7 0.321029 0.842390 0.109972
O O8 0.382858 0.705140 0.325587
O O9 0.500000 0.000000 0.062100
O O10 0.781009 0.961023 0.110294
O O11 0.764616 0.068469 0.000000
O O12 0.500000 0.500000 0.311665
#
# Coordination Sequence:
#
# PCOD9441183 Si02
#       5
#     8   8   8   8   8
#     4   8  16  29  49  77 106 131 168 224 281 323
#     4  10  19  32  52  80 108 143 179 228 283 332
#     4  10  18  31  54  79 110 139 171 239 285 331
#     4  11  22  36  53  75 111 153 191 223 268 338
#     4  10  19  33  52  78 108 139 184 231 277 330
#
# _framework density 19.290074000000001
#
# number of rings (size 3 to 8) (size 9 to 14) (size 15 to 20)
#    0.000    2.200    4.000    1.200    0.000    0.400 
#    0.000    0.000    0.000    6.600    0.000    1.400 
#    0.000    0.000    0.000    0.000    0.000    0.000 
#
# Total GULP energy -222681.589832 kJ/mol
# GULP energy per Si atom -5567.039746 kJ/mol
# Density = 1.924617 g / cm^3
# Si number density = 19.290074 Si / 1000 Ang^3
#
#
#
# Elastic Constant Matrix: (Units=GPa)
#
#
# Indices 1 2 3 4 5 6 
#
# 1 13.4531 11.7806 5.1016 0.0000 0.0000 0.0000
# 2 11.7806 204.4668 59.0263 0.0000 0.0000 0.0000
# 3 5.1016 59.0263 114.1404 0.0000 0.0000 0.0000
# 4 0.0000 0.0000 0.0000 32.1305 0.0000 0.0000
# 5 0.0000 0.0000 0.0000 0.0000 13.5301 0.0000
# 6 0.0000 0.0000 0.0000 0.0000 0.0000 23.8189
#
#
#
# Elastic Compliance Matrix: (Units=1/GPa)
#
#
# Indices 1 2 3 4 5 6 
#
# 1 0.078465 -0.004124 -0.001374 0.000000 0.000000 0.000000
# 2 -0.004124 0.005966 -0.002901 0.000000 0.000000 0.000000
# 3 -0.001374 -0.002901 0.010323 0.000000 0.000000 0.000000
# 4 0.000000 0.000000 0.000000 0.031123 0.000000 0.000000
# 5 0.000000 0.000000 0.000000 0.000000 0.073910 0.000000
# 6 0.000000 0.000000 0.000000 0.000000 0.000000 0.041984
#
#
# Mechanical properties :
#
#
# Convention : Reuss Voigt Hill
#
# Bulk Modulus (GPa) = 12.82793 53.76415 33.29604
# Shear Modulus (GPa) = 17.57142 30.97265 24.27203
#
# Velocity S-wave (km/s) = 3.02139 4.01137 3.55105
# Velocity P-wave (km/s) = 4.34007 7.02757 5.84050
#
# Compressibility (1/GPa) = 0.07795488
#
# Stress axis : x y z
#
# Youngs Moduli (GPa) = 12.74455 167.62200 96.87393
#
# Poissons Ratio (x) = 0.69129 0.13314
# Poissons Ratio (y) = 0.05256 0.28101
# Poissons Ratio (z) = 0.01752 0.48624
#
# Static dielectric constant tensor:
#      x y z
#    x 1.682720 0.000000 0.000000 
#    y 0.000000 1.715550 0.000000 
#    z 0.000000 0.000000 1.698130 
# 
# From -- ./inp_files/24971.got.cif
#   From: 2010.05.17/outbox.cif.g08.bks.cpg/sg58_13_cif.got.tgz:24971.got - 2010.06.03 14:20:14.
