data_PCOD9441056
_publ_section_title
;
Structure prediction by ZEFSAII (Michael W. Deem and Ramdas Pophale) SiO2 
 PCOD9441056
Probable space group: P N N M
;
_chemical_formula_sum "Si O2"
_cell_formula_units_Z 64
_cell_length_a 19.923405
_cell_length_b 23.656281
_cell_length_c 7.768008
_cell_angle_alpha 90.000000
_cell_angle_beta 90.000000
_cell_angle_gamma 90.000000
_cell_volume 3661.168337
_symmetry_space_group_name_H-M "P N N M"
_symmetry_group_IT_number 58
_symmetry_cell_setting 'orthorhombic'
loop_
_space_group_symop_operation_xyz
x,y,z
-x,-y,z
1/2+x,1/2-y,1/2-z
1/2-x,1/2+y,1/2-z
-x,-y,-z
x,y,-z
1/2-x,1/2+y,1/2+z
1/2+x,1/2-y,1/2+z
loop_
_atom_site_type_symbol
_atom_site_label
_atom_site_fract_x
_atom_site_fract_y
_atom_site_fract_z
Si Si1 0.164543 0.244279 0.296968
Si Si2 0.644723 0.060061 0.291481
Si Si3 0.372482 0.282543 0.211345
Si Si4 0.213298 0.672718 0.707790
Si Si5 0.015638 0.245881 0.300470
Si Si6 0.250373 0.352616 0.201014
Si Si7 0.625069 0.930246 0.795415
Si Si8 0.987588 0.626494 0.798873
O O1 0.159417 0.257335 0.500000
O O2 0.213914 0.191338 0.273153
O O3 0.089652 0.235434 0.226128
O O4 0.201047 0.298271 0.213018
O O5 0.644689 0.062771 0.500000
O O6 0.709494 0.094496 0.225696
O O7 0.577417 0.092689 0.233200
O O8 0.641909 0.994896 0.241749
O O9 0.337849 0.222956 0.259544
O O10 0.448918 0.282989 0.273995
O O11 0.321586 0.331250 0.272847
O O12 0.373172 0.283485 0.000000
O O13 0.216699 0.672899 0.500000
O O14 0.182195 0.613498 0.766098
O O15 0.018884 0.228186 0.500000
O O16 0.003846 0.313424 0.292668
O O17 0.261995 0.364704 0.000000
O O18 0.553749 0.911443 0.718936
O O19 0.618809 0.922639 0.000000
O O20 0.976822 0.639381 0.000000
#
# Coordination Sequence:
#
# PCOD9441056 Si02
#       8
#     8   8   8   8   8   8   8   8
#     4  10  19  28  46  72  97 120 151 199 239 271
#     4  10  21  34  47  67  95 128 162 197 237 278
#     4   8  14  28  49  66  87 120 155 188 225 278
#     4   9  18  33  49  64  89 125 159 191 236 288
#     4  10  18  30  47  71  99 126 158 192 232 279
#     4   9  17  32  49  65  91 126 159 190 231 286
#     4  11  22  35  50  67  90 127 168 202 235 277
#     4  11  21  32  46  67  99 131 161 195 230 276
#
# _framework density 17.480757000000001
#
# number of rings (size 3 to 8) (size 9 to 14) (size 15 to 20)
#    0.000    2.250    2.500    2.250    0.000    4.500 
#    0.000    0.000    0.000    0.000    0.000    0.875 
#    0.000    7.000    0.000    0.000    0.000    0.000 
#
# Total GULP energy -356939.928137 kJ/mol
# GULP energy per Si atom -5577.186377 kJ/mol
# Density = 1.744097 g / cm^3
# Si number density = 17.480757 Si / 1000 Ang^3
#
#
#
# Elastic Constant Matrix: (Units=GPa)
#
#
# Indices 1 2 3 4 5 6 
#
# 1 100.6858 24.1440 -6.7115 0.0000 0.0000 0.0000
# 2 24.1440 49.8107 -7.4688 0.0000 0.0000 0.0000
# 3 -6.7115 -7.4688 25.6562 0.0000 0.0000 0.0000
# 4 0.0000 0.0000 0.0000 10.5502 0.0000 0.0000
# 5 0.0000 0.0000 0.0000 0.0000 23.1165 0.0000
# 6 0.0000 0.0000 0.0000 0.0000 0.0000 22.0954
#
#
#
# Elastic Compliance Matrix: (Units=1/GPa)
#
#
# Indices 1 2 3 4 5 6 
#
# 1 0.011288 -0.005258 0.001422 0.000000 0.000000 0.000000
# 2 -0.005258 0.023442 0.005449 0.000000 0.000000 0.000000
# 3 0.001422 0.005449 0.040935 0.000000 0.000000 0.000000
# 4 0.000000 0.000000 0.000000 0.094785 0.000000 0.000000
# 5 0.000000 0.000000 0.000000 0.000000 0.043259 0.000000
# 6 0.000000 0.000000 0.000000 0.000000 0.000000 0.045258
#
#
# Mechanical properties :
#
#
# Convention : Reuss Voigt Hill
#
# Bulk Modulus (GPa) = 12.67590 21.78666 17.23128
# Shear Modulus (GPa) = 17.72809 22.23167 19.97988
#
# Velocity S-wave (km/s) = 3.18803 3.57007 3.38444
# Velocity P-wave (km/s) = 4.56272 5.42993 5.01511
#
# Compressibility (1/GPa) = 0.07888985
#
# Stress axis : x y z
#
# Youngs Moduli (GPa) = 88.59337 42.65912 24.42888
#
# Poissons Ratio (x) = 0.22430 -0.03474
# Poissons Ratio (y) = 0.46582 -0.13310
# Poissons Ratio (z) = -0.12599 -0.23244
#
# Static dielectric constant tensor:
#      x y z
#    x 1.630400 0.000000 0.000000 
#    y 0.000000 1.565810 0.000000 
#    z 0.000000 0.000000 1.649620 
# 
# From -- ./inp_files/8468.got.cif
#   From: 2010.05.17/outbox.cif.g08.bks.cpg/sg58_5_cif.got.tgz:8468.got - 2010.06.03 14:20:14.
