data_PCOD9441541
_publ_section_title
;
Structure prediction by ZEFSAII (Michael W. Deem and Ramdas Pophale) SiO2 
 PCOD9441541
Probable space group: P N N M
;
_chemical_formula_sum "Si O2"
_cell_formula_units_Z 56
_cell_length_a 18.950480
_cell_length_b 21.082610
_cell_length_c 9.119094
_cell_angle_alpha 90.000000
_cell_angle_beta 90.000000
_cell_angle_gamma 90.000000
_cell_volume 3643.311312
_symmetry_space_group_name_H-M "P N N M"
_symmetry_group_IT_number 58
_symmetry_cell_setting 'orthorhombic'
loop_
_space_group_symop_operation_xyz
x,y,z
-x,-y,z
1/2+x,1/2-y,1/2-z
1/2-x,1/2+y,1/2-z
-x,-y,-z
x,y,-z
1/2-x,1/2+y,1/2+z
1/2+x,1/2-y,1/2+z
loop_
_atom_site_type_symbol
_atom_site_label
_atom_site_fract_x
_atom_site_fract_y
_atom_site_fract_z
Si Si1 0.349241 0.875518 0.175097
Si Si2 0.719443 0.680042 0.169636
Si Si3 0.083887 0.498295 0.825289
Si Si4 0.918827 0.245075 0.678576
Si Si5 0.078810 0.240481 0.324286
Si Si6 0.705709 0.318637 0.331640
Si Si7 0.151575 0.621122 0.322050
O O1 0.270047 0.863167 0.233165
O O2 0.383498 0.935394 0.253883
O O3 0.393532 0.811536 0.211222
O O4 0.350055 0.883561 0.000000
O O5 0.640131 0.693826 0.224033
O O6 0.755208 0.750047 0.169145
O O7 0.718416 0.658172 0.000000
O O8 0.119259 0.559710 0.752334
O O9 0.000000 0.500000 0.797865
O O10 0.095347 0.498229 0.000000
O O11 0.917973 0.244277 0.500000
O O12 0.892474 0.315622 0.719975
O O13 0.998462 0.232827 0.727957
O O14 0.079557 0.235228 0.500000
O O15 0.134777 0.191131 0.258987
O O16 0.688351 0.333541 0.500000
O O17 0.766652 0.366532 0.279879
O O18 0.148968 0.616181 0.500000
#
# Coordination Sequence:
#
# PCOD9441541 Si02
#       7
#     8   8   8   8   8   8   8
#     4  10  19  30  45  64  88 119 152 182 212 253
#     4   8  14  27  45  62  85 115 145 179 217 257
#     4  11  23  34  44  63  90 118 149 183 217 253
#     4   8  14  26  45  67  89 116 147 178 217 261
#     4   9  16  26  43  67  91 115 146 181 215 256
#     4   8  15  27  43  63  86 114 145 177 218 261
#     4   9  17  31  48  63  85 119 154 182 211 255
#
# _framework density 15.370632000000001
#
# number of rings (size 3 to 8) (size 9 to 14) (size 15 to 20)
#    0.000    3.000    0.000    3.429    0.000    3.429 
#    0.000    3.571    0.000    0.000    0.000    1.000 
#    0.000    8.000    0.000    0.000    0.000    0.000 
#
# Total GULP energy -311851.519405 kJ/mol
# GULP energy per Si atom -5568.777132 kJ/mol
# Density = 1.533565 g / cm^3
# Si number density = 15.370632 Si / 1000 Ang^3
#
#
#
# Elastic Constant Matrix: (Units=GPa)
#
#
# Indices 1 2 3 4 5 6 
#
# 1 160.9292 58.8480 52.2747 0.0000 0.0000 0.0000
# 2 58.8480 64.6182 38.3360 0.0000 0.0000 0.0000
# 3 52.2747 38.3360 36.6458 0.0000 0.0000 0.0000
# 4 0.0000 0.0000 0.0000 18.9392 0.0000 0.0000
# 5 0.0000 0.0000 0.0000 0.0000 22.7510 0.0000
# 6 0.0000 0.0000 0.0000 0.0000 0.0000 24.7663
#
#
#
# Elastic Compliance Matrix: (Units=1/GPa)
#
#
# Indices 1 2 3 4 5 6 
#
# 1 0.011675 -0.001982 -0.014580 0.000000 0.000000 0.000000
# 2 -0.001982 0.041130 -0.040199 0.000000 0.000000 0.000000
# 3 -0.014580 -0.040199 0.090140 0.000000 0.000000 0.000000
# 4 0.000000 0.000000 0.000000 0.052801 0.000000 0.000000
# 5 0.000000 0.000000 0.000000 0.000000 0.043954 0.000000
# 6 0.000000 0.000000 0.000000 0.000000 0.000000 0.040377
#
#
# Mechanical properties :
#
#
# Convention : Reuss Voigt Hill
#
# Bulk Modulus (GPa) = 33.98902 62.34563 48.16733
# Shear Modulus (GPa) = 12.39444 20.80693 16.60069
#
# Velocity S-wave (km/s) = 2.84275 3.68323 3.28994
# Velocity P-wave (km/s) = 5.73898 7.66406 6.77029
#
# Compressibility (1/GPa) = 0.02942126
#
# Stress axis : x y z
#
# Youngs Moduli (GPa) = 85.65356 24.31338 11.09388
#
# Poissons Ratio (x) = 0.04820 0.16175
# Poissons Ratio (y) = 0.16979 0.44596
# Poissons Ratio (z) = 1.24886 0.97737
#
# Static dielectric constant tensor:
#      x y z
#    x 1.532160 0.000000 0.000000 
#    y 0.000000 1.485400 0.000000 
#    z 0.000000 0.000000 1.512730 
# 
# From -- ./inp_files/8134.got.cif
#   From: 2010.05.17/outbox.cif.g08.bks.cpg/sg58_5_cif.got.tgz:8134.got - 2010.06.03 14:20:14.
