data_PCOD9441813
_publ_section_title
;
Structure prediction by ZEFSAII (Michael W. Deem and Ramdas Pophale) SiO2 
 PCOD9441813
Probable space group: P N N M
;
_chemical_formula_sum "Si O2"
_cell_formula_units_Z 56
_cell_length_a 25.175601
_cell_length_b 14.509528
_cell_length_c 9.130316
_cell_angle_alpha 90.000000
_cell_angle_beta 90.000000
_cell_angle_gamma 90.000000
_cell_volume 3335.177410
_symmetry_space_group_name_H-M "P N N M"
_symmetry_group_IT_number 58
_symmetry_cell_setting 'orthorhombic'
loop_
_space_group_symop_operation_xyz
x,y,z
-x,-y,z
1/2+x,1/2-y,1/2-z
1/2-x,1/2+y,1/2-z
-x,-y,-z
x,y,-z
1/2-x,1/2+y,1/2+z
1/2+x,1/2-y,1/2+z
loop_
_atom_site_type_symbol
_atom_site_label
_atom_site_fract_x
_atom_site_fract_y
_atom_site_fract_z
Si Si1 0.898940 0.296356 0.330271
Si Si2 0.998441 0.391322 0.176118
Si Si3 0.291193 0.731699 0.175375
Si Si4 0.285939 0.536294 0.670033
Si Si5 0.160766 0.513386 0.662819
Si Si6 0.681183 0.664142 0.323063
Si Si7 0.117587 0.348742 0.828017
O O1 0.909037 0.273318 0.500000
O O2 0.951654 0.335629 0.254016
O O3 0.858046 0.382135 0.326566
O O4 0.869114 0.214477 0.247115
O O5 0.000000 0.500000 0.220486
O O6 0.055310 0.344902 0.209177
O O7 0.990704 0.390079 0.000000
O O8 0.292466 0.627775 0.235448
O O9 0.236191 0.783509 0.220510
O O10 0.341976 0.785193 0.238991
O O11 0.292655 0.732729 0.000000
O O12 0.299729 0.556366 0.500000
O O13 0.223864 0.509208 0.672736
O O14 0.315781 0.443565 0.718595
O O15 0.144894 0.478483 0.500000
O O16 0.134556 0.452657 0.787662
O O17 0.678557 0.668780 0.500000
O O18 0.123906 0.331100 0.000000
#
# Coordination Sequence:
#
# PCOD9441813 Si02
#       7
#     8   8   8   8   8   8   8
#     4  11  22  34  54  82 113 147 183 227 275 323
#     4  10  21  37  55  79 111 146 186 225 269 330
#     4  11  22  36  55  82 113 146 183 226 276 326
#     4  10  20  37  55  78 113 150 186 224 268 326
#     4  10  19  32  51  80 116 146 180 225 267 321
#     4  10  21  36  55  78 111 150 184 222 272 326
#     4  11  22  35  55  80 110 150 187 224 270 326
#
# _framework density 16.790710000000001
#
# number of rings (size 3 to 8) (size 9 to 14) (size 15 to 20)
#    0.000    1.571    4.286    1.286    0.000    3.714 
#    0.000    0.000    0.000    0.857    0.000    6.000 
#    0.000    0.000    0.000    0.000    0.000    0.000 
#
# Total GULP energy -312499.550453 kJ/mol
# GULP energy per Si atom -5580.349115 kJ/mol
# Density = 1.675249 g / cm^3
# Si number density = 16.790710 Si / 1000 Ang^3
#
#
#
# Elastic Constant Matrix: (Units=GPa)
#
#
# Indices 1 2 3 4 5 6 
#
# 1 48.8366 3.3009 20.1341 0.0000 0.0000 0.0000
# 2 3.3009 56.7195 20.0418 0.0000 0.0000 0.0000
# 3 20.1341 20.0418 34.2547 0.0000 0.0000 0.0000
# 4 0.0000 0.0000 0.0000 30.9485 0.0000 0.0000
# 5 0.0000 0.0000 0.0000 0.0000 26.5585 0.0000
# 6 0.0000 0.0000 0.0000 0.0000 0.0000 29.3398
#
#
#
# Elastic Compliance Matrix: (Units=1/GPa)
#
#
# Indices 1 2 3 4 5 6 
#
# 1 0.028245 0.005323 -0.019716 0.000000 0.000000 0.000000
# 2 0.005323 0.023229 -0.016719 0.000000 0.000000 0.000000
# 3 -0.019716 -0.016719 0.050564 0.000000 0.000000 0.000000
# 4 0.000000 0.000000 0.000000 0.032312 0.000000 0.000000
# 5 0.000000 0.000000 0.000000 0.000000 0.037653 0.000000
# 6 0.000000 0.000000 0.000000 0.000000 0.000000 0.034083
#
#
# Mechanical properties :
#
#
# Convention : Reuss Voigt Hill
#
# Bulk Modulus (GPa) = 25.11769 25.19603 25.15686
# Shear Modulus (GPa) = 17.75687 23.79163 20.77425
#
# Velocity S-wave (km/s) = 3.25551 3.76833 3.52127
# Velocity P-wave (km/s) = 5.39656 5.82857 5.61672
#
# Compressibility (1/GPa) = 0.03981258
#
# Stress axis : x y z
#
# Youngs Moduli (GPa) = 35.40438 43.05043 19.77697
#
# Poissons Ratio (x) = -0.22915 0.38992
# Poissons Ratio (y) = -0.18845 0.33066
# Poissons Ratio (z) = 0.69804 0.71977
#
# Static dielectric constant tensor:
#      x y z
#    x 1.554940 0.000000 0.000000 
#    y 0.000000 1.561180 0.000000 
#    z 0.000000 0.000000 1.574120 
# 
# From -- ./inp_files/8961.got.cif
#   From: 2010.05.17/outbox.cif.g08.bks.cpg/sg58_5_cif.got.tgz:8961.got - 2010.06.03 14:20:14.
