data_PCOD9441096
_publ_section_title
;
Structure prediction by ZEFSAII (Michael W. Deem and Ramdas Pophale) SiO2 
 PCOD9441096
Probable space group: P N N M
;
_chemical_formula_sum "Si O2"
_cell_formula_units_Z 64
_cell_length_a 14.908558
_cell_length_b 28.454796
_cell_length_c 8.851493
_cell_angle_alpha 90.000000
_cell_angle_beta 90.000000
_cell_angle_gamma 90.000000
_cell_volume 3754.980153
_symmetry_space_group_name_H-M "P N N M"
_symmetry_group_IT_number 58
_symmetry_cell_setting 'orthorhombic'
loop_
_space_group_symop_operation_xyz
x,y,z
-x,-y,z
1/2+x,1/2-y,1/2-z
1/2-x,1/2+y,1/2-z
-x,-y,-z
x,y,-z
1/2-x,1/2+y,1/2+z
1/2+x,1/2-y,1/2+z
loop_
_atom_site_type_symbol
_atom_site_label
_atom_site_fract_x
_atom_site_fract_y
_atom_site_fract_z
Si Si1 0.396737 0.947598 0.683317
Si Si2 0.221927 0.637126 0.679007
Si Si3 0.102819 0.175518 0.679453
Si Si4 0.733207 0.135072 0.317656
Si Si5 0.602354 0.782774 0.321254
Si Si6 0.408732 0.326739 0.680381
Si Si7 0.893251 0.722965 0.820516
Si Si8 0.898297 0.444025 0.817148
O O1 0.397055 0.946529 0.500000
O O2 0.322673 0.910462 0.733950
O O3 0.498238 0.934042 0.728069
O O4 0.379851 0.001719 0.725546
O O5 0.229765 0.634678 0.500000
O O6 0.319327 0.643324 0.752731
O O7 0.164023 0.682760 0.726800
O O8 0.169123 0.592335 0.743199
O O9 0.101774 0.172594 0.500000
O O10 0.123006 0.229221 0.730335
O O11 0.005084 0.163770 0.745963
O O12 0.742170 0.133358 0.500000
O O13 0.829823 0.141033 0.243418
O O14 0.673749 0.181114 0.281309
O O15 0.620964 0.789742 0.500000
O O16 0.615505 0.727841 0.284164
O O17 0.496564 0.792420 0.296450
O O18 0.416409 0.330118 0.500000
O O19 0.884815 0.733454 0.000000
O O20 0.893098 0.440176 0.000000
#
# Coordination Sequence:
#
# PCOD9441096 Si02
#       8
#     8   8   8   8   8   8   8   8
#     4   8  16  32  56  81 104 132 168 207 244 294
#     4  12  23  33  49  75 105 135 169 211 256 300
#     4  11  22  36  53  71  96 134 176 214 252 297
#     4  10  18  30  51  78 104 133 169 205 246 297
#     4   9  18  33  51  72 101 137 174 208 245 295
#     4  10  21  36  51  71 101 135 170 210 253 295
#     4   9  18  32  51  76 107 137 167 208 250 291
#     4   9  17  34  57  78 102 135 171 205 247 297
#
# _framework density 17.044032000000001
#
# number of rings (size 3 to 8) (size 9 to 14) (size 15 to 20)
#    0.000    2.250    0.000    5.625    0.000    7.000 
#    0.000    3.750    0.000    0.750    0.000    5.250 
#    0.000    0.000    0.000    0.000    0.000    0.000 
#
# Total GULP energy -357333.362414 kJ/mol
# GULP energy per Si atom -5583.333788 kJ/mol
# Density = 1.700524 g / cm^3
# Si number density = 17.044032 Si / 1000 Ang^3
#
#
#
# Elastic Constant Matrix: (Units=GPa)
#
#
# Indices 1 2 3 4 5 6 
#
# 1 141.0996 100.6252 63.9973 0.0000 0.0000 0.0000
# 2 100.6252 92.8636 52.7995 0.0000 0.0000 0.0000
# 3 63.9973 52.7995 63.2720 0.0000 0.0000 0.0000
# 4 0.0000 0.0000 0.0000 16.8595 0.0000 0.0000
# 5 0.0000 0.0000 0.0000 0.0000 28.6560 0.0000
# 6 0.0000 0.0000 0.0000 0.0000 0.0000 29.2450
#
#
#
# Elastic Compliance Matrix: (Units=1/GPa)
#
#
# Indices 1 2 3 4 5 6 
#
# 1 0.032595 -0.031538 -0.006651 0.000000 0.000000 0.000000
# 2 -0.031538 0.051006 -0.010664 0.000000 0.000000 0.000000
# 3 -0.006651 -0.010664 0.031431 0.000000 0.000000 0.000000
# 4 0.000000 0.000000 0.000000 0.059314 0.000000 0.000000
# 5 0.000000 0.000000 0.000000 0.000000 0.034897 0.000000
# 6 0.000000 0.000000 0.000000 0.000000 0.000000 0.034194
#
#
# Mechanical properties :
#
#
# Convention : Reuss Voigt Hill
#
# Bulk Modulus (GPa) = 57.71649 81.34212 69.52930
# Shear Modulus (GPa) = 14.41272 20.27298 17.34285
#
# Velocity S-wave (km/s) = 2.91110 3.45258 3.19334
# Velocity P-wave (km/s) = 6.72578 7.98261 7.38099
#
# Compressibility (1/GPa) = 0.01732607
#
# Stress axis : x y z
#
# Youngs Moduli (GPa) = 30.67955 19.60572 31.81612
#
# Poissons Ratio (x) = 0.61832 0.21160
# Poissons Ratio (y) = 0.96757 0.33928
# Poissons Ratio (z) = 0.20404 0.20907
#
# Static dielectric constant tensor:
#      x y z
#    x 1.571760 0.000000 0.000000 
#    y 0.000000 1.565270 0.000000 
#    z 0.000000 0.000000 1.569360 
# 
# From -- ./inp_files/7148.got.cif
#   From: 2010.05.17/outbox.cif.g08.bks.cpg/sg58_4_cif.got.tgz:7148.got - 2010.06.03 14:20:14.
