data_PCOD9441165
_publ_section_title
;
Structure prediction by ZEFSAII (Michael W. Deem and Ramdas Pophale) SiO2 
 PCOD9441165
Probable space group: P N N M
;
_chemical_formula_sum "Si O2"
_cell_formula_units_Z 48
_cell_length_a 18.645457
_cell_length_b 17.260458
_cell_length_c 7.635054
_cell_angle_alpha 90.000000
_cell_angle_beta 90.000000
_cell_angle_gamma 90.000000
_cell_volume 2457.182767
_symmetry_space_group_name_H-M "P N N M"
_symmetry_group_IT_number 58
_symmetry_cell_setting 'orthorhombic'
loop_
_space_group_symop_operation_xyz
x,y,z
-x,-y,z
1/2+x,1/2-y,1/2-z
1/2-x,1/2+y,1/2-z
-x,-y,-z
x,y,-z
1/2-x,1/2+y,1/2+z
1/2+x,1/2-y,1/2+z
loop_
_atom_site_type_symbol
_atom_site_label
_atom_site_fract_x
_atom_site_fract_y
_atom_site_fract_z
Si Si1 0.404123 0.678233 0.213504
Si Si2 0.051581 0.742100 0.710550
Si Si3 0.919610 0.990009 0.291561
Si Si4 0.327848 0.359802 0.293802
Si Si5 0.978308 0.585619 0.285995
Si Si6 0.668675 0.165995 0.785576
O O1 0.484766 0.703420 0.266043
O O2 0.388088 0.591497 0.274577
O O3 0.351880 0.746889 0.270436
O O4 0.402664 0.679784 0.000000
O O5 0.050243 0.740791 0.500000
O O6 0.125469 0.782541 0.761860
O O7 0.031937 0.655074 0.769979
O O8 0.927106 0.980089 0.500000
O O9 0.872437 0.065838 0.266777
O O10 0.000000 0.000000 0.219404
O O11 0.320529 0.368346 0.500000
O O12 0.247334 0.356200 0.220650
O O13 0.979381 0.585045 0.500000
O O14 0.897949 0.611360 0.233477
O O15 0.000000 0.500000 0.226540
O O16 0.669228 0.165156 0.000000
#
# Coordination Sequence:
#
# PCOD9441165 Si02
#       6
#     8   8   8   8   8   8
#     4   8  14  29  51  68  86 123 167 198 225 275
#     4   9  16  30  52  73  92 122 168 204 231 278
#     4  10  18  31  53  75  94 122 169 210 233 274
#     4  11  21  31  45  71 108 134 152 190 251 307
#     4   8  14  28  53  77  92 118 166 215 245 272
#     4   8  16  30  46  66  97 131 158 190 243 299
#
# _framework density 19.534565000000001
#
# number of rings (size 3 to 8) (size 9 to 14) (size 15 to 20)
#    0.000    3.000    1.667    2.500    0.000    0.333 
#    3.000    0.000    0.000    9.500    0.000    0.000 
#    0.000    0.000    0.000    0.000    0.000    0.000 
#
# Total GULP energy -267528.694092 kJ/mol
# GULP energy per Si atom -5573.514460 kJ/mol
# Density = 1.949010 g / cm^3
# Si number density = 19.534565 Si / 1000 Ang^3
#
#
#
# Elastic Constant Matrix: (Units=GPa)
#
#
# Indices 1 2 3 4 5 6 
#
# 1 133.1588 87.4179 -8.1569 0.0000 0.0000 0.0000
# 2 87.4179 173.0462 -4.2756 0.0000 0.0000 0.0000
# 3 -8.1569 -4.2756 27.7293 0.0000 0.0000 0.0000
# 4 0.0000 0.0000 0.0000 -0.8473 0.0000 0.0000
# 5 0.0000 0.0000 0.0000 0.0000 8.0937 0.0000
# 6 0.0000 0.0000 0.0000 0.0000 0.0000 22.7057
#
#
#
# Elastic Compliance Matrix: (Units=1/GPa)
#
#
# Indices 1 2 3 4 5 6 
#
# 1 0.011403 -0.005699 0.002476 0.000000 0.000000 0.000000
# 2 -0.005699 0.008649 -0.000343 0.000000 0.000000 0.000000
# 3 0.002476 -0.000343 0.036738 0.000000 0.000000 0.000000
# 4 0.000000 0.000000 0.000000 -1.180210 0.000000 0.000000
# 5 0.000000 0.000000 0.000000 0.000000 0.123553 0.000000
# 6 0.000000 0.000000 0.000000 0.000000 0.000000 0.044042
#
#
# Mechanical properties :
#
#
# Convention : Reuss Voigt Hill
#
# Bulk Modulus (GPa) = 20.13791 53.76723 36.95257
# Shear Modulus (GPa) = -5.36401 23.25368 8.94483
#
# Velocity S-wave (km/s) = -1.65888 3.45394 2.14218
# Velocity P-wave (km/s) = 2.58110 6.59471 5.00761
#
# Compressibility (1/GPa) = 0.04965758
#
# Stress axis : x y z
#
# Youngs Moduli (GPa) = 87.69581 115.61401 27.21955
#
# Poissons Ratio (x) = 0.65892 -0.06738
# Poissons Ratio (y) = 0.49981 0.00933
# Poissons Ratio (z) = -0.21710 0.03964
#
# Static dielectric constant tensor:
#      x y z
#    x 1.681570 0.000000 0.000000 
#    y 0.000000 1.709200 0.000000 
#    z 0.000000 0.000000 1.732130 
# 
# From -- ./inp_files/7873.got.cif
#   From: 2010.05.17/outbox.cif.g08.bks.cpg/sg58_4_cif.got.tgz:7873.got - 2010.06.03 14:20:14.
