data_PCOD9441273
_publ_section_title
;
Structure prediction by ZEFSAII (Michael W. Deem and Ramdas Pophale) SiO2 
 PCOD9441273
Probable space group: P N N M
;
_chemical_formula_sum "Si O2"
_cell_formula_units_Z 64
_cell_length_a 15.057315
_cell_length_b 25.519810
_cell_length_c 7.448214
_cell_angle_alpha 90.000000
_cell_angle_beta 90.000000
_cell_angle_gamma 90.000000
_cell_volume 2862.049355
_symmetry_space_group_name_H-M "P N N M"
_symmetry_group_IT_number 58
_symmetry_cell_setting 'orthorhombic'
loop_
_space_group_symop_operation_xyz
x,y,z
-x,-y,z
1/2+x,1/2-y,1/2-z
1/2-x,1/2+y,1/2-z
-x,-y,-z
x,y,-z
1/2-x,1/2+y,1/2+z
1/2+x,1/2-y,1/2+z
loop_
_atom_site_type_symbol
_atom_site_label
_atom_site_fract_x
_atom_site_fract_y
_atom_site_fract_z
Si Si1 0.624638 0.227927 0.280119
Si Si2 0.952265 0.946130 0.719402
Si Si3 0.746064 0.436711 0.794907
Si Si4 0.703047 0.115942 0.718589
Si Si5 0.924060 0.256067 0.790758
Si Si6 0.247255 0.681059 0.703545
Si Si7 0.099686 0.865839 0.717048
Si Si8 0.400094 0.987722 0.280171
O O1 0.627168 0.228961 0.500000
O O2 0.668264 0.173063 0.224520
O O3 0.522776 0.232068 0.222700
O O4 0.681141 0.278154 0.218599
O O5 0.949544 0.943157 0.500000
O O6 0.851418 0.945162 0.785637
O O7 0.014412 0.898321 0.779947
O O8 0.000000 0.000000 0.767091
O O9 0.761930 0.374664 0.796220
O O10 0.829256 0.468468 0.719034
O O11 0.738996 0.456123 0.000000
O O12 0.702575 0.115829 0.500000
O O13 0.805763 0.109971 0.774688
O O14 0.639490 0.068573 0.775082
O O15 0.845718 0.288540 0.701828
O O16 0.905624 0.194447 0.772542
O O17 0.922004 0.270503 0.000000
O O18 0.274850 0.669171 0.500000
O O19 0.099350 0.866903 0.500000
O O20 0.403203 0.988001 0.500000
O O21 0.500000 0.000000 0.219670
#
# Coordination Sequence:
#
# PCOD9441273 Si02
#       8
#     8   8   8   8   8   8   8   8
#     4   9  19  34  54  79 108 142 182 223 269 325
#     4   9  17  30  53  85 115 143 180 232 284 325
#     4  10  20  34  53  83 114 141 183 235 279 321
#     4   9  16  30  52  76 103 139 181 218 257 317
#     4  11  22  35  55  82 109 139 181 234 277 319
#     4  11  22  39  58  80 111 150 186 219 276 345
#     4  10  18  32  55  79 109 146 180 217 271 338
#     4   9  18  30  50  79 107 138 180 227 267 309
#
# _framework density 22.361598999999998
#
# number of rings (size 3 to 8) (size 9 to 14) (size 15 to 20)
#    0.000    2.250    1.250    2.250    1.750    3.000 
#    0.000    1.875    0.000    4.125    0.000    0.000 
#    0.000    0.000    0.000    0.000    0.000    0.000 
#
# Total GULP energy -357718.853926 kJ/mol
# GULP energy per Si atom -5589.357093 kJ/mol
# Density = 2.231070 g / cm^3
# Si number density = 22.361599 Si / 1000 Ang^3
#
#
#
# Elastic Constant Matrix: (Units=GPa)
#
#
# Indices 1 2 3 4 5 6 
#
# 1 182.7013 63.5984 0.9220 0.0000 0.0000 0.0000
# 2 63.5984 115.7234 -8.1089 0.0000 0.0000 0.0000
# 3 0.9220 -8.1089 67.4035 0.0000 0.0000 0.0000
# 4 0.0000 0.0000 0.0000 14.5302 0.0000 0.0000
# 5 0.0000 0.0000 0.0000 0.0000 -4.6395 0.0000
# 6 0.0000 0.0000 0.0000 0.0000 0.0000 44.1713
#
#
#
# Elastic Compliance Matrix: (Units=1/GPa)
#
#
# Indices 1 2 3 4 5 6 
#
# 1 0.006788 -0.003769 -0.000546 0.000000 0.000000 0.000000
# 2 -0.003769 0.010807 0.001352 0.000000 0.000000 0.000000
# 3 -0.000546 0.001352 0.015006 0.000000 0.000000 0.000000
# 4 0.000000 0.000000 0.000000 0.068822 0.000000 0.000000
# 5 0.000000 0.000000 0.000000 0.000000 -0.215541 0.000000
# 6 0.000000 0.000000 0.000000 0.000000 0.000000 0.022639
#
#
# Mechanical properties :
#
#
# Convention : Reuss Voigt Hill
#
# Bulk Modulus (GPa) = 37.48870 53.18348 45.33609
# Shear Modulus (GPa) = -65.22285 31.44018 -16.89134
#
# Velocity S-wave (km/s) = -5.40654 3.75372 -2.75139
# Velocity P-wave (km/s) = 4.70883 6.52857 3.19759
#
# Compressibility (1/GPa) = 0.02667470
#
# Stress axis : x y z
#
# Youngs Moduli (GPa) = 147.31650 92.53037 66.63953
#
# Poissons Ratio (x) = 0.34873 0.03640
# Poissons Ratio (y) = 0.55521 -0.09008
# Poissons Ratio (z) = 0.08047 -0.12507
#
# Static dielectric constant tensor:
#      x y z
#    x 1.796540 0.000000 0.000000 
#    y 0.000000 1.777040 0.000000 
#    z 0.000000 0.000000 1.872080 
# 
# From -- ./inp_files/6810.got.cif
#   From: 2010.05.17/outbox.cif.g08.bks.cpg/sg58_4_cif.got.tgz:6810.got - 2010.06.03 14:20:14.
