data_PCOD9441537
_publ_section_title
;
Structure prediction by ZEFSAII (Michael W. Deem and Ramdas Pophale) SiO2 
 PCOD9441537
Probable space group: P N N M
;
_chemical_formula_sum "Si O2"
_cell_formula_units_Z 48
_cell_length_a 12.024553
_cell_length_b 20.542431
_cell_length_c 9.194924
_cell_angle_alpha 90.000000
_cell_angle_beta 90.000000
_cell_angle_gamma 90.000000
_cell_volume 2271.270822
_symmetry_space_group_name_H-M "P N N M"
_symmetry_group_IT_number 58
_symmetry_cell_setting 'orthorhombic'
loop_
_space_group_symop_operation_xyz
x,y,z
-x,-y,z
1/2+x,1/2-y,1/2-z
1/2-x,1/2+y,1/2-z
-x,-y,-z
x,y,-z
1/2-x,1/2+y,1/2+z
1/2+x,1/2-y,1/2+z
loop_
_atom_site_type_symbol
_atom_site_label
_atom_site_fract_x
_atom_site_fract_y
_atom_site_fract_z
Si Si1 0.768803 0.409259 0.830712
Si Si2 0.963892 0.611090 0.832216
Si Si3 0.365066 0.327427 0.328047
Si Si4 0.733396 0.041855 0.827313
Si Si5 0.008829 0.263597 0.661393
Si Si6 0.744652 0.783280 0.838327
O O1 0.734939 0.475942 0.753889
O O2 0.718466 0.347216 0.746669
O O3 0.904854 0.405793 0.824611
O O4 0.738625 0.407341 0.000000
O O5 0.885484 0.566349 0.733603
O O6 0.945785 0.684953 0.777163
O O7 0.929425 0.604109 0.000000
O O8 0.381449 0.317659 0.500000
O O9 0.321334 0.399863 0.300814
O O10 0.473678 0.304037 0.238429
O O11 0.269037 0.278107 0.269795
O O12 0.725717 0.031536 0.000000
O O13 0.060425 0.258256 0.500000
O O14 0.886788 0.294516 0.637837
O O15 0.793237 0.773012 0.000000
#
# Coordination Sequence:
#
# PCOD9441537 Si02
#       6
#     8   8   8   8   8   8
#     4  10  19  30  44  62  88 122 154 183 217 265
#     4  10  19  30  44  62  88 122 154 183 217 265
#     4   9  17  30  44  60  83 114 148 187 224 254
#     4  11  22  30  41  64  95 121 150 189 223 257
#     4   8  15  27  45  61  77 109 148 181 215 259
#     4   8  15  27  45  61  77 109 148 181 215 259
#
# _framework density 21.133545000000002
#
# number of rings (size 3 to 8) (size 9 to 14) (size 15 to 20)
#    1.000    1.667    0.000    3.000    0.000    6.667 
#    0.000    0.000    0.000    0.000    0.000    0.000 
#    0.000    1.333    0.000   14.000    0.000    6.000 
#
# Total GULP energy -267215.107642 kJ/mol
# GULP energy per Si atom -5566.981409 kJ/mol
# Density = 2.108544 g / cm^3
# Si number density = 21.133545 Si / 1000 Ang^3
#
#
#
# Elastic Constant Matrix: (Units=GPa)
#
#
# Indices 1 2 3 4 5 6 
#
# 1 123.2213 -195.0637 -71.8311 0.0000 0.0000 0.0000
# 2 -195.0637 573.7493 246.5020 0.0000 0.0000 0.0000
# 3 -71.8311 246.5020 204.7658 0.0000 0.0000 0.0000
# 4 0.0000 0.0000 0.0000 34.7400 0.0000 0.0000
# 5 0.0000 0.0000 0.0000 0.0000 -210.2591 0.0000
# 6 0.0000 0.0000 0.0000 0.0000 0.0000 55.3885
#
#
#
# Elastic Compliance Matrix: (Units=1/GPa)
#
#
# Indices 1 2 3 4 5 6 
#
# 1 0.018033 0.007069 -0.002184 0.000000 0.000000 0.000000
# 2 0.007069 0.006381 -0.005202 0.000000 0.000000 0.000000
# 3 -0.002184 -0.005202 0.010380 0.000000 0.000000 0.000000
# 4 0.000000 0.000000 0.000000 0.028785 0.000000 0.000000
# 5 0.000000 0.000000 0.000000 0.000000 -0.004756 0.000000
# 6 0.000000 0.000000 0.000000 0.000000 0.000000 0.018054
#
#
# Mechanical properties :
#
#
# Convention : Reuss Voigt Hill
#
# Bulk Modulus (GPa) = 29.27362 95.66121 62.46742
# Shear Modulus (GPa) = 56.24352 37.44916 46.84634
#
# Velocity S-wave (km/s) = 5.16441 4.21411 4.71327
# Velocity P-wave (km/s) = 7.03160 8.30913 7.69692
#
# Compressibility (1/GPa) = 0.03416045
#
# Stress axis : x y z
#
# Youngs Moduli (GPa) = 55.45294 156.70472 96.34029
#
# Poissons Ratio (x) = -1.10782 0.21044
# Poissons Ratio (y) = -0.39202 0.50118
# Poissons Ratio (z) = 0.12113 0.81521
#
# Static dielectric constant tensor:
#      x y z
#    x 1.849830 0.000000 0.000000 
#    y 0.000000 1.746070 0.000000 
#    z 0.000000 0.000000 1.776450 
# 
# From -- ./inp_files/8855.got.cif
#   From: 2010.05.17/outbox.cif.g08.bks.cpg/sg58_5_cif.got.tgz:8855.got - 2010.06.03 14:20:14.
