data_PCOD9441605
_publ_section_title
;
Structure prediction by ZEFSAII (Michael W. Deem and Ramdas Pophale) SiO2 
 PCOD9441605
Probable space group: P N N M
;
_chemical_formula_sum "Si O2"
_cell_formula_units_Z 64
_cell_length_a 15.000599
_cell_length_b 28.688489
_cell_length_c 8.167549
_cell_angle_alpha 90.000000
_cell_angle_beta 90.000000
_cell_angle_gamma 90.000000
_cell_volume 3514.859949
_symmetry_space_group_name_H-M "P N N M"
_symmetry_group_IT_number 58
_symmetry_cell_setting 'orthorhombic'
loop_
_space_group_symop_operation_xyz
x,y,z
-x,-y,z
1/2+x,1/2-y,1/2-z
1/2-x,1/2+y,1/2-z
-x,-y,-z
x,y,-z
1/2-x,1/2+y,1/2+z
1/2+x,1/2-y,1/2+z
loop_
_atom_site_type_symbol
_atom_site_label
_atom_site_fract_x
_atom_site_fract_y
_atom_site_fract_z
Si Si1 0.394791 0.279916 0.699404
Si Si2 0.914271 0.944651 0.688510
Si Si3 0.776962 0.133921 0.197004
Si Si4 0.099739 0.220637 0.800798
Si Si5 0.098120 0.326275 0.197571
Si Si6 0.394935 0.173991 0.302240
Si Si7 0.716369 0.366057 0.304868
Si Si8 0.606185 0.548119 0.691663
O O1 0.391865 0.279623 0.500000
O O2 0.329053 0.320065 0.759113
O O3 0.497388 0.290015 0.745193
O O4 0.373559 0.227161 0.753186
O O5 0.938505 0.938765 0.500000
O O6 0.834405 0.910394 0.733459
O O7 0.004106 0.934476 0.790385
O O8 0.889075 0.998391 0.720486
O O9 0.674044 0.139221 0.242057
O O10 0.826632 0.087405 0.255641
O O11 0.785238 0.133850 0.000000
O O12 0.120387 0.273324 0.745861
O O13 0.165984 0.180661 0.742503
O O14 0.102807 0.221134 0.000000
O O15 0.996530 0.336522 0.249317
O O16 0.098824 0.325969 0.000000
O O17 0.393452 0.173896 0.500000
O O18 0.319542 0.139519 0.239491
O O19 0.706906 0.367740 0.500000
O O20 0.623881 0.539949 0.500000
#
# Coordination Sequence:
#
# PCOD9441605 Si02
#       8
#     8   8   8   8   8   8   8   8
#     4   8  14  27  46  69 100 134 165 199 240 287
#     4  11  22  36  54  77 104 131 161 200 247 298
#     4  10  19  30  50  76 100 130 166 204 245 292
#     4   8  15  28  46  70 100 134 169 202 242 292
#     4   9  18  32  49  69  99 137 172 208 247 289
#     4   9  18  32  48  68  98 136 173 207 244 285
#     4  11  20  31  51  75 100 132 169 208 249 294
#     4  10  20  36  56  78 104 132 162 198 246 299
#
# _framework density 18.208406
#
# number of rings (size 3 to 8) (size 9 to 14) (size 15 to 20)
#    0.000    2.500    0.000    5.625    0.000    3.500 
#    0.000    0.625    0.000    4.500    0.000    5.250 
#    0.000    0.000    0.000    0.000    0.000    0.000 
#
# Total GULP energy -357121.992373 kJ/mol
# GULP energy per Si atom -5580.031131 kJ/mol
# Density = 1.816696 g / cm^3
# Si number density = 18.208406 Si / 1000 Ang^3
#
#
#
# Elastic Constant Matrix: (Units=GPa)
#
#
# Indices 1 2 3 4 5 6 
#
# 1 105.3586 71.9320 -2.2960 0.0000 0.0000 0.0000
# 2 71.9320 77.2109 4.4017 0.0000 0.0000 0.0000
# 3 -2.2960 4.4017 13.2400 0.0000 0.0000 0.0000
# 4 0.0000 0.0000 0.0000 13.8333 0.0000 0.0000
# 5 0.0000 0.0000 0.0000 0.0000 23.1193 0.0000
# 6 0.0000 0.0000 0.0000 0.0000 0.0000 33.2650
#
#
#
# Elastic Compliance Matrix: (Units=1/GPa)
#
#
# Indices 1 2 3 4 5 6 
#
# 1 0.028414 -0.027269 0.013993 0.000000 0.000000 0.000000
# 2 -0.027269 0.039372 -0.017818 0.000000 0.000000 0.000000
# 3 0.013993 -0.017818 0.083879 0.000000 0.000000 0.000000
# 4 0.000000 0.000000 0.000000 0.072289 0.000000 0.000000
# 5 0.000000 0.000000 0.000000 0.000000 0.043254 0.000000
# 6 0.000000 0.000000 0.000000 0.000000 0.000000 0.030062
#
#
# Mechanical properties :
#
#
# Convention : Reuss Voigt Hill
#
# Bulk Modulus (GPa) = 11.17607 38.20944 24.69276
# Shear Modulus (GPa) = 12.84412 22.16166 17.50289
#
# Velocity S-wave (km/s) = 2.65881 3.49250 3.10377
# Velocity P-wave (km/s) = 3.94676 6.10684 5.14151
#
# Compressibility (1/GPa) = 0.08947686
#
# Stress axis : x y z
#
# Youngs Moduli (GPa) = 35.19426 25.39888 11.92189
#
# Poissons Ratio (x) = 0.69260 -0.16682
# Poissons Ratio (y) = 0.95971 0.21243
# Poissons Ratio (z) = -0.49248 0.45257
#
# Static dielectric constant tensor:
#      x y z
#    x 1.623920 0.000000 0.000000 
#    y 0.000000 1.618630 0.000000 
#    z 0.000000 0.000000 1.636720 
# 
# From -- ./inp_files/7171.got.cif
#   From: 2010.05.17/outbox.cif.g08.bks.cpg/sg58_4_cif.got.tgz:7171.got - 2010.06.03 14:20:14.
