data_PCOD9441578
_publ_section_title
;
Structure prediction by ZEFSAII (Michael W. Deem and Ramdas Pophale) SiO2 
 PCOD9441578
Probable space group: P N N M
;
_chemical_formula_sum "Si O2"
_cell_formula_units_Z 64
_cell_length_a 21.463465
_cell_length_b 5.259191
_cell_length_c 32.620545
_cell_angle_alpha 90.000000
_cell_angle_beta 90.000000
_cell_angle_gamma 90.000000
_cell_volume 3682.222189
_symmetry_space_group_name_H-M "P N N M"
_symmetry_group_IT_number 58
_symmetry_cell_setting 'orthorhombic'
loop_
_space_group_symop_operation_xyz
x,y,z
-x,-y,z
1/2+x,1/2-y,1/2-z
1/2-x,1/2+y,1/2-z
-x,-y,-z
x,y,-z
1/2-x,1/2+y,1/2+z
1/2+x,1/2-y,1/2+z
loop_
_atom_site_type_symbol
_atom_site_label
_atom_site_fract_x
_atom_site_fract_y
_atom_site_fract_z
Si Si1 0.873784 0.952509 0.410988
Si Si2 0.160922 0.975520 0.047080
Si Si3 0.924912 0.997760 0.124570
Si Si4 0.073740 0.548612 0.452492
Si Si5 0.424514 0.997048 0.231101
Si Si6 0.075744 0.502607 0.175056
Si Si7 0.255437 0.975044 0.452608
Si Si8 0.575597 0.502382 0.819881
O O1 0.910788 0.173744 0.435164
O O2 0.891663 0.980993 0.363620
O O3 0.893001 0.674068 0.427061
O O4 0.801865 0.997493 0.421926
O O5 0.208545 0.209961 0.052676
O O6 0.107097 0.998414 0.080480
O O7 0.197445 0.710438 0.052378
O O8 0.138050 0.987119 0.000000
O O9 0.906000 0.246169 0.150366
O O10 0.905974 0.748453 0.150179
O O11 0.000000 0.000000 0.120647
O O12 0.093288 0.532430 0.500000
O O13 0.000000 0.500000 0.450068
O O14 0.407044 0.241198 0.204201
O O15 0.500000 0.000000 0.233064
O O16 0.401964 0.005778 0.277981
O O17 0.407458 0.738396 0.208145
O O18 0.000000 0.500000 0.176564
O O19 0.232049 0.984485 0.500000
O O20 0.500000 0.500000 0.825937
#
# Coordination Sequence:
#
# PCOD9441578 Si02
#       8
#     8   8   8   8   8   8   8   8
#     4  12  22  35  53  74  99 135 180 227 263 305
#     4  10  21  37  55  78 107 136 170 211 254 302
#     4  10  19  32  54  84 111 135 164 200 250 309
#     4  11  22  34  49  71 101 134 168 214 274 329
#     4   9  17  30  47  71 105 138 165 201 254 310
#     4   9  17  30  50  78 109 137 168 201 238 303
#     4  10  21  37  55  73  97 136 184 224 253 292
#     4  10  19  30  47  73 103 133 166 211 269 317
#
# _framework density 17.380807999999998
#
# number of rings (size 3 to 8) (size 9 to 14) (size 15 to 20)
#    0.000    1.875    0.000    5.250    0.000    6.250 
#    0.000    0.000    0.000    4.500    0.000   17.500 
#    0.000    0.000    0.000    0.000    0.000    0.000 
#
# Total GULP energy -357338.267034 kJ/mol
# GULP energy per Si atom -5583.410422 kJ/mol
# Density = 1.734125 g / cm^3
# Si number density = 17.380808 Si / 1000 Ang^3
#
#
#
# Elastic Constant Matrix: (Units=GPa)
#
#
# Indices 1 2 3 4 5 6 
#
# 1 26.3877 4.1430 36.7080 0.0000 0.0000 0.0000
# 2 4.1430 85.3303 28.8318 0.0000 0.0000 0.0000
# 3 36.7080 28.8318 142.9692 0.0000 0.0000 0.0000
# 4 0.0000 0.0000 0.0000 57.6098 0.0000 0.0000
# 5 0.0000 0.0000 0.0000 0.0000 63.7325 0.0000
# 6 0.0000 0.0000 0.0000 0.0000 0.0000 10.2891
#
#
#
# Elastic Compliance Matrix: (Units=1/GPa)
#
#
# Indices 1 2 3 4 5 6 
#
# 1 0.059421 0.002436 -0.015748 0.000000 0.000000 0.000000
# 2 0.002436 0.012676 -0.003182 0.000000 0.000000 0.000000
# 3 -0.015748 -0.003182 0.011679 0.000000 0.000000 0.000000
# 4 0.000000 0.000000 0.000000 0.017358 0.000000 0.000000
# 5 0.000000 0.000000 0.000000 0.000000 0.015691 0.000000
# 6 0.000000 0.000000 0.000000 0.000000 0.000000 0.097191
#
#
# Mechanical properties :
#
#
# Convention : Reuss Voigt Hill
#
# Bulk Modulus (GPa) = 19.68925 43.78363 31.73644
# Shear Modulus (GPa) = 18.94421 38.65988 28.80205
#
# Velocity S-wave (km/s) = 3.30502 4.72135 4.07519
# Velocity P-wave (km/s) = 5.09087 7.41397 6.35940
#
# Compressibility (1/GPa) = 0.05078914
#
# Stress axis : x y z
#
# Youngs Moduli (GPa) = 16.82908 78.88951 85.62017
#
# Poissons Ratio (x) = -0.19217 1.34833
# Poissons Ratio (y) = -0.04099 0.27242
# Poissons Ratio (z) = 0.26502 0.25101
#
# Static dielectric constant tensor:
#      x y z
#    x 1.583110 0.000000 0.000000 
#    y 0.000000 1.591280 0.000000 
#    z 0.000000 0.000000 1.575610 
# 
# From -- ./inp_files/33859.got.cif
#   From: 2010.05.17/outbox.cif.g08.bks.cpg/sg58_17_cif.got.tgz:33859.got - 2010.06.03 14:20:14.
