data_PCOD9441896
_publ_section_title
;
Structure prediction by ZEFSAII (Michael W. Deem and Ramdas Pophale) SiO2 
 PCOD9441896
Probable space group: P N N M
;
_chemical_formula_sum "Si O2"
_cell_formula_units_Z 56
_cell_length_a 14.263275
_cell_length_b 20.024111
_cell_length_c 7.436356
_cell_angle_alpha 90.000000
_cell_angle_beta 90.000000
_cell_angle_gamma 90.000000
_cell_volume 2123.893189
_symmetry_space_group_name_H-M "P N N M"
_symmetry_group_IT_number 58
_symmetry_cell_setting 'orthorhombic'
loop_
_space_group_symop_operation_xyz
x,y,z
-x,-y,z
1/2+x,1/2-y,1/2-z
1/2-x,1/2+y,1/2-z
-x,-y,-z
x,y,-z
1/2-x,1/2+y,1/2+z
1/2+x,1/2-y,1/2+z
loop_
_atom_site_type_symbol
_atom_site_label
_atom_site_fract_x
_atom_site_fract_y
_atom_site_fract_z
Si Si1 0.726772 0.292368 0.782525
Si Si2 0.047805 0.568394 0.280601
Si Si3 0.727701 0.002698 0.220449
Si Si4 0.052493 0.710156 0.292609
Si Si5 0.208833 0.354666 0.296910
Si Si6 0.603002 0.423212 0.291281
Si Si7 0.921606 0.147271 0.291010
O O1 0.833938 0.296760 0.715052
O O2 0.689556 0.219009 0.721943
O O3 0.663535 0.354820 0.727446
O O4 0.729642 0.290440 0.000000
O O5 0.041874 0.570269 0.500000
O O6 0.155953 0.555792 0.231453
O O7 0.014494 0.640681 0.215010
O O8 0.000000 0.500000 0.222805
O O9 0.830339 0.981349 0.284673
O O10 0.687310 0.073332 0.286221
O O11 0.729153 0.005812 0.000000
O O12 0.022157 0.713085 0.500000
O O13 0.033606 0.783487 0.217308
O O14 0.171072 0.355476 0.500000
O O15 0.322746 0.361265 0.304503
O O16 0.590145 0.437894 0.500000
O O17 0.500230 0.408938 0.218131
O O18 0.897309 0.157676 0.500000
#
# Coordination Sequence:
#
# PCOD9441896 Si02
#       7
#     8   8   8   8   8   8   8
#     4  10  19  32  54  80 106 139 178 224 273 323
#     4   9  16  28  52  83 107 132 174 226 269 308
#     4   9  18  33  54  79 106 142 186 227 266 319
#     4   9  17  33  54  76 104 138 177 219 267 322
#     4   9  19  36  56  78 108 144 183 227 274 323
#     4  11  21  35  56  79 108 145 188 227 268 326
#     4  10  21  35  53  80 110 141 182 230 277 323
#
# _framework density 26.366674
#
# number of rings (size 3 to 8) (size 9 to 14) (size 15 to 20)
#    0.000    2.429    1.429    1.286    0.000    2.857 
#    0.000    8.571    0.000    0.429    0.000    0.000 
#    0.000    0.000    0.000    0.000    0.000    0.000 
#
# Total GULP energy -313055.720581 kJ/mol
# GULP energy per Si atom -5590.280725 kJ/mol
# Density = 2.630666 g / cm^3
# Si number density = 26.366674 Si / 1000 Ang^3
#
#
#
# Elastic Constant Matrix: (Units=GPa)
#
#
# Indices 1 2 3 4 5 6 
#
# 1 90.2065 6.9169 -0.5833 0.0000 0.0000 0.0000
# 2 6.9169 123.9380 -8.0420 0.0000 0.0000 0.0000
# 3 -0.5833 -8.0420 100.2775 0.0000 0.0000 0.0000
# 4 0.0000 0.0000 0.0000 10.4693 0.0000 0.0000
# 5 0.0000 0.0000 0.0000 0.0000 6.3407 0.0000
# 6 0.0000 0.0000 0.0000 0.0000 0.0000 54.2958
#
#
#
# Elastic Compliance Matrix: (Units=1/GPa)
#
#
# Indices 1 2 3 4 5 6 
#
# 1 0.011133 -0.000620 0.000015 0.000000 0.000000 0.000000
# 2 -0.000620 0.008145 0.000650 0.000000 0.000000 0.000000
# 3 0.000015 0.000650 0.010025 0.000000 0.000000 0.000000
# 4 0.000000 0.000000 0.000000 0.095517 0.000000 0.000000
# 5 0.000000 0.000000 0.000000 0.000000 0.157710 0.000000
# 6 0.000000 0.000000 0.000000 0.000000 0.000000 0.018418
#
#
# Mechanical properties :
#
#
# Convention : Reuss Voigt Hill
#
# Bulk Modulus (GPa) = 34.02320 34.55613 34.28966
# Shear Modulus (GPa) = 16.09492 35.29654 25.69573
#
# Velocity S-wave (km/s) = 2.47336 3.66277 3.12517
# Velocity P-wave (km/s) = 4.59223 5.56976 5.10445
#
# Compressibility (1/GPa) = 0.02939171
#
# Stress axis : x y z
#
# Youngs Moduli (GPa) = 89.82034 122.76982 99.75545
#
# Poissons Ratio (x) = 0.07616 -0.00150
# Poissons Ratio (y) = 0.05572 -0.06480
# Poissons Ratio (z) = -0.00135 -0.07975
#
# Static dielectric constant tensor:
#      x y z
#    x 2.078990 0.000000 0.000000 
#    y 0.000000 2.080470 0.000000 
#    z 0.000000 0.000000 2.028780 
# 
# From -- ./inp_files/6274.got.cif
#   From: 2010.05.17/outbox.cif.g08.bks.cpg/sg58_4_cif.got.tgz:6274.got - 2010.06.03 14:20:14.
