data_PCOD9441159
_publ_section_title
;
Structure prediction by ZEFSAII (Michael W. Deem and Ramdas Pophale) SiO2 
 PCOD9441159
Probable space group: P N N M
;
_chemical_formula_sum "Si O2"
_cell_formula_units_Z 64
_cell_length_a 11.596944
_cell_length_b 17.704386
_cell_length_c 19.146765
_cell_angle_alpha 90.000000
_cell_angle_beta 90.000000
_cell_angle_gamma 90.000000
_cell_volume 3931.152003
_symmetry_space_group_name_H-M "P N N M"
_symmetry_group_IT_number 58
_symmetry_cell_setting 'orthorhombic'
loop_
_space_group_symop_operation_xyz
x,y,z
-x,-y,z
1/2+x,1/2-y,1/2-z
1/2-x,1/2+y,1/2-z
-x,-y,-z
x,y,-z
1/2-x,1/2+y,1/2+z
1/2+x,1/2-y,1/2+z
loop_
_atom_site_type_symbol
_atom_site_label
_atom_site_fract_x
_atom_site_fract_y
_atom_site_fract_z
Si Si1 0.618767 0.698221 0.280366
Si Si2 0.295883 0.062010 0.764227
Si Si3 0.447701 0.174745 0.169113
Si Si4 0.842306 0.609424 0.747313
Si Si5 0.977212 0.417356 0.862420
Si Si6 0.161953 0.721105 0.921105
Si Si7 0.439232 0.697689 0.081028
Si Si8 0.956753 0.914590 0.292544
O O1 0.579947 0.768770 0.233377
O O2 0.744435 0.672080 0.255580
O O3 0.622444 0.722714 0.360377
O O4 0.533791 0.630041 0.263175
O O5 0.343929 0.113501 0.827865
O O6 0.390060 0.070499 0.702576
O O7 0.174071 0.088506 0.734477
O O8 0.291748 0.972000 0.773962
O O9 0.561348 0.129328 0.190679
O O10 0.485628 0.229524 0.105904
O O11 0.904826 0.607448 0.823124
O O12 0.913139 0.355326 0.909184
O O13 0.000000 0.500000 0.895198
O O14 0.300360 0.709752 0.911886
O O15 0.143598 0.747959 0.000000
O O16 0.468299 0.630310 0.134522
O O17 0.462272 0.680713 0.000000
O O18 0.000000 0.000000 0.299891
#
# Coordination Sequence:
#
# PCOD9441159 Si02
#       8
#     8   8   8   8   8   8   8   8
#     4  11  20  32  52  81 105 134 184 222 265 319
#     4  10  18  33  52  83 104 133 181 223 278 305
#     4  10  19  31  57  76 105 141 172 233 265 308
#     4  10  18  31  52  79 107 132 175 229 270 307
#     4   9  18  32  53  75 109 139 172 226 264 315
#     4  11  20  33  52  76 111 146 178 220 267 324
#     4  10  21  35  53  79 112 145 178 214 269 331
#     4  11  21  34  56  82 106 140 177 224 271 324
#
# _framework density 16.280214999999998
#
# number of rings (size 3 to 8) (size 9 to 14) (size 15 to 20)
#    0.000    1.750    6.250    1.125    1.750    0.500 
#    0.000    0.000    0.000    9.375    0.000    0.000 
#    0.000    0.000    0.000    0.000    0.000    0.000 
#
# Total GULP energy -356429.255231 kJ/mol
# GULP energy per Si atom -5569.207113 kJ/mol
# Density = 1.624316 g / cm^3
# Si number density = 16.280215 Si / 1000 Ang^3
#
#
#
# Elastic Constant Matrix: (Units=GPa)
#
#
# Indices 1 2 3 4 5 6 
#
# 1 53.2577 7.3001 32.4861 0.0000 0.0000 0.0000
# 2 7.3001 58.6699 44.9067 0.0000 0.0000 0.0000
# 3 32.4861 44.9067 92.6107 0.0000 0.0000 0.0000
# 4 0.0000 0.0000 0.0000 15.6041 0.0000 0.0000
# 5 0.0000 0.0000 0.0000 0.0000 15.7179 0.0000
# 6 0.0000 0.0000 0.0000 0.0000 0.0000 -75.4862
#
#
#
# Elastic Compliance Matrix: (Units=1/GPa)
#
#
# Indices 1 2 3 4 5 6 
#
# 1 0.025046 0.005738 -0.011568 0.000000 0.000000 0.000000
# 2 0.005738 0.028419 -0.015793 0.000000 0.000000 0.000000
# 3 -0.011568 -0.015793 0.022514 0.000000 0.000000 0.000000
# 4 0.000000 0.000000 0.000000 0.064086 0.000000 0.000000
# 5 0.000000 0.000000 0.000000 0.000000 0.063622 0.000000
# 6 0.000000 0.000000 0.000000 0.000000 0.000000 -0.013247
#
#
# Mechanical properties :
#
#
# Convention : Reuss Voigt Hill
#
# Bulk Modulus (GPa) = 30.55050 41.54712 36.04881
# Shear Modulus (GPa) = 20.44184 -0.84316 9.79934
#
# Velocity S-wave (km/s) = 3.54732 -0.72044 2.45606
# Velocity P-wave (km/s) = 5.96525 4.98832 5.49852
#
# Compressibility (1/GPa) = 0.03273269
#
# Stress axis : x y z
#
# Youngs Moduli (GPa) = 39.92577 35.18811 44.41730
#
# Poissons Ratio (x) = -0.20191 0.51383
# Poissons Ratio (y) = -0.22909 0.70148
# Poissons Ratio (z) = 0.46187 0.55572
#
# Static dielectric constant tensor:
#      x y z
#    x 1.564480 0.000000 0.000000 
#    y 0.000000 1.580110 0.000000 
#    z 0.000000 0.000000 1.543390 
# 
# From -- ./inp_files/26457.got.cif
#   From: 2010.05.17/outbox.cif.g08.bks.cpg/sg58_14_cif.got.tgz:26457.got - 2010.06.03 14:20:14.
