data_PCOD9441654
_publ_section_title
;
Structure prediction by ZEFSAII (Michael W. Deem and Ramdas Pophale) SiO2 
 PCOD9441654
Probable space group: P N N M
;
_chemical_formula_sum "Si O2"
_cell_formula_units_Z 60
_cell_length_a 11.732141
_cell_length_b 8.979239
_cell_length_c 31.651901
_cell_angle_alpha 90.000000
_cell_angle_beta 90.000000
_cell_angle_gamma 90.000000
_cell_volume 3334.391605
_symmetry_space_group_name_H-M "P N N M"
_symmetry_group_IT_number 58
_symmetry_cell_setting 'orthorhombic'
loop_
_space_group_symop_operation_xyz
x,y,z
-x,-y,z
1/2+x,1/2-y,1/2-z
1/2-x,1/2+y,1/2-z
-x,-y,-z
x,y,-z
1/2-x,1/2+y,1/2+z
1/2+x,1/2-y,1/2+z
loop_
_atom_site_type_symbol
_atom_site_label
_atom_site_fract_x
_atom_site_fract_y
_atom_site_fract_z
Si Si1 0.699421 0.394423 0.635843
Si Si2 0.795803 0.511709 0.770421
Si Si3 0.500000 0.500000 0.312560
Si Si4 0.623688 0.424375 0.452789
Si Si5 0.871589 0.557234 0.136091
Si Si6 0.627143 0.065752 0.545239
Si Si7 0.413470 0.684855 0.241982
Si Si8 0.920478 0.364427 0.306605
O O1 0.615472 0.505687 0.660476
O O2 0.705121 0.450313 0.587526
O O3 0.634128 0.236287 0.636572
O O4 0.815458 0.360137 0.661084
O O5 0.819192 0.501316 0.820175
O O6 0.667130 0.457376 0.764508
O O7 0.832022 0.675687 0.754069
O O8 0.871267 0.408156 0.739659
O O9 0.487333 0.643267 0.282729
O O10 0.500000 0.500000 0.444769
O O11 0.660537 0.473647 0.500000
O O12 0.614012 0.244836 0.454426
O O13 0.818885 0.516689 0.090026
O O14 0.000000 0.500000 0.135922
O O15 0.682058 0.024131 0.500000
O O16 0.500000 0.000000 0.544932
O O17 0.494834 0.727811 0.203060
O O18 0.000000 0.500000 0.320744
#
# Coordination Sequence:
#
# PCOD9441654 Si02
#       8
#     8   8   4   8   8   8   8   8
#     4  11  21  35  54  78 111 141 181 217 276 337
#     4  11  21  38  50  76 106 136 183 224 262 318
#     4  12  22  32  55  80 104 148 177 214 280 326
#     4   9  17  30  51  80 107 135 173 222 277 330
#     4  10  19  31  48  75 104 132 170 216 258 318
#     4   8  15  28  44  65  98 134 160 197 258 319
#     4  11  25  35  56  73 106 145 183 223 273 314
#     4  10  23  40  53  76 108 147 186 232 265 326
#
# _framework density 17.994287
#
# number of rings (size 3 to 8) (size 9 to 14) (size 15 to 20)
#    0.000    1.867    3.333    1.200    3.733    0.000 
#    0.000    0.000    0.000    0.400    0.000    0.933 
#    0.000    4.267    0.000    0.000    0.000    0.000 
#
# Total GULP energy -334023.098126 kJ/mol
# GULP energy per Si atom -5567.051635 kJ/mol
# Density = 1.795333 g / cm^3
# Si number density = 17.994287 Si / 1000 Ang^3
#
#
#
# Elastic Constant Matrix: (Units=GPa)
#
#
# Indices 1 2 3 4 5 6 
#
# 1 80.8573 35.1869 49.8385 0.0000 0.0000 0.0000
# 2 35.1869 38.1701 18.7910 0.0000 0.0000 0.0000
# 3 49.8385 18.7910 167.2468 0.0000 0.0000 0.0000
# 4 0.0000 0.0000 0.0000 11.8299 0.0000 0.0000
# 5 0.0000 0.0000 0.0000 0.0000 -22.8675 0.0000
# 6 0.0000 0.0000 0.0000 0.0000 0.0000 30.0102
#
#
#
# Elastic Compliance Matrix: (Units=1/GPa)
#
#
# Indices 1 2 3 4 5 6 
#
# 1 0.023964 -0.019664 -0.004932 0.000000 0.000000 0.000000
# 2 -0.019664 0.043867 0.000931 0.000000 0.000000 0.000000
# 3 -0.004932 0.000931 0.007344 0.000000 0.000000 0.000000
# 4 0.000000 0.000000 0.000000 0.084531 0.000000 0.000000
# 5 0.000000 0.000000 0.000000 0.000000 -0.043730 0.000000
# 6 0.000000 0.000000 0.000000 0.000000 0.000000 0.033322
#
#
# Mechanical properties :
#
#
# Convention : Reuss Voigt Hill
#
# Bulk Modulus (GPa) = 35.91105 54.87856 45.39481
# Shear Modulus (GPa) = 24.28248 15.95840 20.12044
#
# Velocity S-wave (km/s) = 3.67748 2.98125 3.34751
# Velocity P-wave (km/s) = 6.16701 6.51264 6.34218
#
# Compressibility (1/GPa) = 0.02784658
#
# Stress axis : x y z
#
# Youngs Moduli (GPa) = 41.72850 22.79623 136.16024
#
# Poissons Ratio (x) = 0.44825 0.67154
# Poissons Ratio (y) = 0.82053 -0.12676
# Poissons Ratio (z) = 0.20580 -0.02122
#
# Static dielectric constant tensor:
#      x y z
#    x 1.620370 0.000000 0.000000 
#    y 0.000000 1.679190 0.000000 
#    z 0.000000 0.000000 1.713530 
# 
# From -- ./inp_files/34910.got.cif
#   From: 2010.05.17/outbox.cif.g08.bks.cpg/sg58_18_cif.got.tgz:34910.got - 2010.06.03 14:20:14.
