data_PCOD9441723
_publ_section_title
;
Structure prediction by ZEFSAII (Michael W. Deem and Ramdas Pophale) SiO2 
 PCOD9441723
Probable space group: P N N M
;
_chemical_formula_sum "Si O2"
_cell_formula_units_Z 64
_cell_length_a 19.609593
_cell_length_b 19.499183
_cell_length_c 7.306306
_cell_angle_alpha 90.000000
_cell_angle_beta 90.000000
_cell_angle_gamma 90.000000
_cell_volume 2793.719842
_symmetry_space_group_name_H-M "P N N M"
_symmetry_group_IT_number 58
_symmetry_cell_setting 'orthorhombic'
loop_
_space_group_symop_operation_xyz
x,y,z
-x,-y,z
1/2+x,1/2-y,1/2-z
1/2-x,1/2+y,1/2-z
-x,-y,-z
x,y,-z
1/2-x,1/2+y,1/2+z
1/2+x,1/2-y,1/2+z
loop_
_atom_site_type_symbol
_atom_site_label
_atom_site_fract_x
_atom_site_fract_y
_atom_site_fract_z
Si Si1 0.037990 0.637497 0.722993
Si Si2 0.968747 0.105130 0.277305
Si Si3 0.396615 0.535293 0.777710
Si Si4 0.753163 0.906179 0.277828
Si Si5 0.616689 0.143582 0.223294
Si Si6 0.120235 0.767978 0.278871
Si Si7 0.116749 0.510746 0.289951
Si Si8 0.772175 0.751069 0.711431
O O1 0.040025 0.636164 0.500000
O O2 0.092817 0.694051 0.782661
O O3 0.059862 0.562142 0.788436
O O4 0.961601 0.658644 0.773205
O O5 0.969204 0.106219 0.500000
O O6 0.932566 0.174153 0.216889
O O7 0.046366 0.090687 0.220465
O O8 0.924401 0.038979 0.221860
O O9 0.320953 0.553431 0.719996
O O10 0.396299 0.535398 0.000000
O O11 0.749335 0.905762 0.500000
O O12 0.685801 0.944839 0.213017
O O13 0.761783 0.827737 0.212458
O O14 0.671044 0.199807 0.289140
O O15 0.629292 0.065157 0.285909
O O16 0.621570 0.144327 0.000000
O O17 0.120647 0.767927 0.500000
O O18 0.197192 0.782013 0.219207
O O19 0.095629 0.498539 0.500000
O O20 0.791759 0.762213 0.500000
#
# Coordination Sequence:
#
# PCOD9441723 Si02
#       8
#     8   8   8   8   8   8   8   8
#     4   9  17  31  52  77  99 125 168 216 252 283
#     4   8  15  27  46  72  98 123 159 207 248 284
#     4   8  15  28  45  70  99 126 160 203 247 287
#     4  10  20  32  50  73 102 136 165 199 248 303
#     4   9  19  33  53  77 101 131 171 212 248 293
#     4  10  19  31  52  77 100 129 165 207 250 293
#     4  10  19  34  54  76 100 131 169 211 255 294
#     4  10  21  35  49  72 104 136 165 198 245 304
#
# _framework density 22.908522999999999
#
# number of rings (size 3 to 8) (size 9 to 14) (size 15 to 20)
#    0.000    2.750    1.250    1.125    3.500    1.500 
#    0.000    0.000    0.000    4.500    0.000    1.750 
#    0.000    0.000    0.000    0.000    0.000    0.000 
#
# Total GULP energy -357484.125106 kJ/mol
# GULP energy per Si atom -5585.689455 kJ/mol
# Density = 2.285638 g / cm^3
# Si number density = 22.908523 Si / 1000 Ang^3
#
#
#
# Elastic Constant Matrix: (Units=GPa)
#
#
# Indices 1 2 3 4 5 6 
#
# 1 120.1410 34.1119 -12.1278 0.0000 0.0000 0.0000
# 2 34.1119 51.8731 -3.6311 0.0000 0.0000 0.0000
# 3 -12.1278 -3.6311 93.4273 0.0000 0.0000 0.0000
# 4 0.0000 0.0000 0.0000 -6.4685 0.0000 0.0000
# 5 0.0000 0.0000 0.0000 0.0000 11.1810 0.0000
# 6 0.0000 0.0000 0.0000 0.0000 0.0000 47.3999
#
#
#
# Elastic Compliance Matrix: (Units=1/GPa)
#
#
# Indices 1 2 3 4 5 6 
#
# 1 0.010342 -0.006725 0.001081 0.000000 0.000000 0.000000
# 2 -0.006725 0.023704 0.000048 0.000000 0.000000 0.000000
# 3 0.001081 0.000048 0.010846 0.000000 0.000000 0.000000
# 4 0.000000 0.000000 0.000000 -0.154596 0.000000 0.000000
# 5 0.000000 0.000000 0.000000 0.000000 0.089438 0.000000
# 6 0.000000 0.000000 0.000000 0.000000 0.000000 0.021097
#
#
# Mechanical properties :
#
#
# Convention : Reuss Voigt Hill
#
# Bulk Modulus (GPa) = 29.67380 33.57192 31.62286
# Shear Modulus (GPa) = 214.99614 26.89503 120.94558
#
# Velocity S-wave (km/s) = 9.69812 3.43011 7.27390
# Velocity P-wave (km/s) = 11.76376 5.51127 9.18586
#
# Compressibility (1/GPa) = 0.03369976
#
# Stress axis : x y z
#
# Youngs Moduli (GPa) = 96.69079 42.18725 92.20217
#
# Poissons Ratio (x) = 0.28373 -0.09968
# Poissons Ratio (y) = 0.65028 -0.00445
# Poissons Ratio (z) = -0.10454 -0.00203
#
# Static dielectric constant tensor:
#      x y z
#    x 1.801680 0.000000 0.000000 
#    y 0.000000 1.832810 0.000000 
#    z 0.000000 0.000000 2.036690 
# 
# From -- ./inp_files/9239.got.cif
#   From: 2010.05.17/outbox.cif.g08.bks.cpg/sg58_5_cif.got.tgz:9239.got - 2010.06.03 14:20:14.
