data_PCOD9441669
_publ_section_title
;
Structure prediction by ZEFSAII (Michael W. Deem and Ramdas Pophale) SiO2 
 PCOD9441669
Probable space group: P N N M
;
_chemical_formula_sum "Si O2"
_cell_formula_units_Z 48
_cell_length_a 16.111429
_cell_length_b 19.009816
_cell_length_c 9.286422
_cell_angle_alpha 90.000000
_cell_angle_beta 90.000000
_cell_angle_gamma 90.000000
_cell_volume 2844.201691
_symmetry_space_group_name_H-M "P N N M"
_symmetry_group_IT_number 58
_symmetry_cell_setting 'orthorhombic'
loop_
_space_group_symop_operation_xyz
x,y,z
-x,-y,z
1/2+x,1/2-y,1/2-z
1/2-x,1/2+y,1/2-z
-x,-y,-z
x,y,-z
1/2-x,1/2+y,1/2+z
1/2+x,1/2-y,1/2+z
loop_
_atom_site_type_symbol
_atom_site_label
_atom_site_fract_x
_atom_site_fract_y
_atom_site_fract_z
Si Si1 0.077643 0.050348 0.828821
Si Si2 0.752677 0.289520 0.165309
Si Si3 0.259210 0.539421 0.834778
Si Si4 0.429383 0.699531 0.827178
Si Si5 0.423049 0.050316 0.326892
Si Si6 0.583881 0.800229 0.171591
O O1 0.163521 0.020093 0.764328
O O2 0.063224 0.125786 0.754615
O O3 0.085695 0.059026 0.000000
O O4 0.000000 0.000000 0.798388
O O5 0.746703 0.375050 0.167552
O O6 0.660272 0.266463 0.210197
O O7 0.829861 0.270316 0.264828
O O8 0.768601 0.268376 0.000000
O O9 0.166735 0.516483 0.790066
O O10 0.275019 0.518208 0.000000
O O11 0.506574 0.749645 0.795969
O O12 0.426598 0.686329 0.000000
O O13 0.421073 0.063135 0.500000
O O14 0.430288 0.124186 0.245410
O O15 0.500000 0.000000 0.294349
O O16 0.590686 0.808388 0.000000
#
# Coordination Sequence:
#
# PCOD9441669 Si02
#       6
#     8   8   8   8   8   8
#     4  10  20  32  48  72  97 121 155 198 238 276
#     4   8  15  30  49  67  91 125 159 188 227 280
#     4   8  15  29  49  69  91 124 159 189 227 277
#     4   9  19  34  50  69  95 127 159 190 230 283
#     4   9  18  33  51  71  96 126 159 191 228 280
#     4  10  19  31  49  74  98 120 155 199 236 273
#
# _framework density 16.876441
#
# number of rings (size 3 to 8) (size 9 to 14) (size 15 to 20)
#    0.000    3.000    0.000    3.000    0.000    9.000 
#    0.000    1.667    0.000    8.000    0.000    0.000 
#    0.000    0.000    0.000    0.000    0.000    0.000 
#
# Total GULP energy -267351.706179 kJ/mol
# GULP energy per Si atom -5569.827212 kJ/mol
# Density = 1.683803 g / cm^3
# Si number density = 16.876441 Si / 1000 Ang^3
#
#
#
# Elastic Constant Matrix: (Units=GPa)
#
#
# Indices 1 2 3 4 5 6 
#
# 1 203.8632 62.0759 84.6170 0.0000 0.0000 0.0000
# 2 62.0759 39.2326 39.2387 0.0000 0.0000 0.0000
# 3 84.6170 39.2387 60.3879 0.0000 0.0000 0.0000
# 4 0.0000 0.0000 0.0000 5.0448 0.0000 0.0000
# 5 0.0000 0.0000 0.0000 0.0000 30.3757 0.0000
# 6 0.0000 0.0000 0.0000 0.0000 0.0000 26.9224
#
#
#
# Elastic Compliance Matrix: (Units=1/GPa)
#
#
# Indices 1 2 3 4 5 6 
#
# 1 0.012250 -0.006326 -0.013055 0.000000 0.000000 0.000000
# 2 -0.006326 0.076067 -0.040562 0.000000 0.000000 0.000000
# 3 -0.013055 -0.040562 0.061208 0.000000 0.000000 0.000000
# 4 0.000000 0.000000 0.000000 0.198224 0.000000 0.000000
# 5 0.000000 0.000000 0.000000 0.000000 0.032921 0.000000
# 6 0.000000 0.000000 0.000000 0.000000 0.000000 0.037144
#
#
# Mechanical properties :
#
#
# Convention : Reuss Voigt Hill
#
# Bulk Modulus (GPa) = 33.73860 75.03854 54.38857
# Shear Modulus (GPa) = 9.13107 20.30538 14.71823
#
# Velocity S-wave (km/s) = 2.32858 3.47245 2.95637
# Velocity P-wave (km/s) = 5.22156 7.78699 6.62955
#
# Compressibility (1/GPa) = 0.02963964
#
# Stress axis : x y z
#
# Youngs Moduli (GPa) = 81.63223 13.14626 16.33761
#
# Poissons Ratio (x) = 0.08317 0.21328
# Poissons Ratio (y) = 0.51642 0.66269
# Poissons Ratio (z) = 1.06567 0.53324
#
# Static dielectric constant tensor:
#      x y z
#    x 1.613980 0.000000 0.000000 
#    y 0.000000 1.541130 0.000000 
#    z 0.000000 0.000000 1.563300 
# 
# From -- ./inp_files/6033.got.cif
#   From: 2010.05.17/outbox.cif.g08.bks.cpg/sg58_4_cif.got.tgz:6033.got - 2010.06.03 14:20:14.
