data_PCOD9441083
_publ_section_title
;
Structure prediction by ZEFSAII (Michael W. Deem and Ramdas Pophale) SiO2 
 PCOD9441083
Probable space group: P N N M
;
_chemical_formula_sum "Si O2"
_cell_formula_units_Z 64
_cell_length_a 29.947999
_cell_length_b 11.562017
_cell_length_c 7.583910
_cell_angle_alpha 90.000000
_cell_angle_beta 90.000000
_cell_angle_gamma 90.000000
_cell_volume 2625.999167
_symmetry_space_group_name_H-M "P N N M"
_symmetry_group_IT_number 58
_symmetry_cell_setting 'orthorhombic'
loop_
_space_group_symop_operation_xyz
x,y,z
-x,-y,z
1/2+x,1/2-y,1/2-z
1/2-x,1/2+y,1/2-z
-x,-y,-z
x,y,-z
1/2-x,1/2+y,1/2+z
1/2+x,1/2-y,1/2+z
loop_
_atom_site_type_symbol
_atom_site_label
_atom_site_fract_x
_atom_site_fract_y
_atom_site_fract_z
Si Si1 0.597569 0.435734 0.703051
Si Si2 0.670541 0.817159 0.798530
Si Si3 0.649087 0.204750 0.789426
Si Si4 0.276375 0.958743 0.216694
Si Si5 0.569101 0.819325 0.707939
Si Si6 0.512118 0.313134 0.703462
Si Si7 0.440098 0.922890 0.208900
Si Si8 0.320729 0.434882 0.700627
O O1 0.588250 0.469165 0.500000
O O2 0.627676 0.318905 0.707044
O O3 0.549239 0.400197 0.781619
O O4 0.631869 0.528354 0.782986
O O5 0.617195 0.825895 0.794532
O O6 0.682727 0.702321 0.696316
O O7 0.694187 0.931673 0.730441
O O8 0.685226 0.800891 0.000000
O O9 0.696789 0.156742 0.728088
O O10 0.612441 0.103601 0.762116
O O11 0.651053 0.226088 0.000000
O O12 0.225969 0.974606 0.281435
O O13 0.275513 0.954349 0.000000
O O14 0.575336 0.797969 0.500000
O O15 0.536285 0.719082 0.779433
O O16 0.548878 0.948323 0.729607
O O17 0.505371 0.347286 0.500000
O O18 0.535666 0.186641 0.705273
O O19 0.448844 0.916001 0.000000
O O20 0.322049 0.480097 0.500000
#
# Coordination Sequence:
#
# PCOD9441083 Si02
#       8
#     8   8   8   8   8   8   8   8
#     4   9  19  36  57  81 112 147 189 236 279 331
#     4  11  23  41  61  84 117 150 189 237 286 339
#     4   9  17  32  53  78 111 147 179 219 275 333
#     4   9  19  37  58  81 113 146 177 225 283 337
#     4  11  21  34  54  79 112 152 194 240 290 342
#     4   9  19  34  52  79 113 151 195 241 287 340
#     4  10  18  30  50  79 116 153 185 228 288 345
#     4  10  22  40  61  83 111 148 188 232 283 338
#
# _framework density 24.371676999999998
#
# number of rings (size 3 to 8) (size 9 to 14) (size 15 to 20)
#    0.000    2.250    1.250    1.500    1.750    3.500 
#    0.000    1.875    0.000    3.750    0.000    0.000 
#    0.000    0.000    0.000    0.000    0.000    0.000 
#
# Total GULP energy -357396.371336 kJ/mol
# GULP energy per Si atom -5584.318302 kJ/mol
# Density = 2.431621 g / cm^3
# Si number density = 24.371677 Si / 1000 Ang^3
#
#
#
# Elastic Constant Matrix: (Units=GPa)
#
#
# Indices 1 2 3 4 5 6 
#
# 1 103.9913 12.9952 -2.6533 0.0000 0.0000 0.0000
# 2 12.9952 45.4501 -3.9739 0.0000 0.0000 0.0000
# 3 -2.6533 -3.9739 61.9578 0.0000 0.0000 0.0000
# 4 0.0000 0.0000 0.0000 17.1651 0.0000 0.0000
# 5 0.0000 0.0000 0.0000 0.0000 6.8142 0.0000
# 6 0.0000 0.0000 0.0000 0.0000 0.0000 26.3087
#
#
#
# Elastic Compliance Matrix: (Units=1/GPa)
#
#
# Indices 1 2 3 4 5 6 
#
# 1 0.009976 -0.002831 0.000246 0.000000 0.000000 0.000000
# 2 -0.002831 0.022930 0.001349 0.000000 0.000000 0.000000
# 3 0.000246 0.001349 0.016237 0.000000 0.000000 0.000000
# 4 0.000000 0.000000 0.000000 0.058258 0.000000 0.000000
# 5 0.000000 0.000000 0.000000 0.000000 0.146752 0.000000
# 6 0.000000 0.000000 0.000000 0.000000 0.000000 0.038010
#
#
# Mechanical properties :
#
#
# Convention : Reuss Voigt Hill
#
# Bulk Modulus (GPa) = 21.42650 24.90390 23.16520
# Shear Modulus (GPa) = 16.11907 23.72636 19.92271
#
# Velocity S-wave (km/s) = 2.57453 3.12352 2.86222
# Velocity P-wave (km/s) = 4.20098 4.82172 4.52202
#
# Compressibility (1/GPa) = 0.04667117
#
# Stress axis : x y z
#
# Youngs Moduli (GPa) = 100.23831 43.61185 61.58736
#
# Poissons Ratio (x) = 0.12346 -0.01513
# Poissons Ratio (y) = 0.28377 -0.08311
# Poissons Ratio (z) = -0.02462 -0.05885
#
# Static dielectric constant tensor:
#      x y z
#    x 2.005950 0.000000 0.000000 
#    y 0.000000 1.916430 0.000000 
#    z 0.000000 0.000000 1.955950 
# 
# From -- ./inp_files/11003.got.cif
#   From: 2010.05.17/outbox.cif.g08.bks.cpg/sg58_6_cif.got.tgz:11003.got - 2010.06.03 14:20:14.
