data_PCOD9441867
_publ_section_title
;
Structure prediction by ZEFSAII (Michael W. Deem and Ramdas Pophale) SiO2 
 PCOD9441867
Probable space group: P N N M
;
_chemical_formula_sum "Si O2"
_cell_formula_units_Z 64
_cell_length_a 12.381157
_cell_length_b 8.113971
_cell_length_c 28.150222
_cell_angle_alpha 90.000000
_cell_angle_beta 90.000000
_cell_angle_gamma 90.000000
_cell_volume 2827.981122
_symmetry_space_group_name_H-M "P N N M"
_symmetry_group_IT_number 58
_symmetry_cell_setting 'orthorhombic'
loop_
_space_group_symop_operation_xyz
x,y,z
-x,-y,z
1/2+x,1/2-y,1/2-z
1/2-x,1/2+y,1/2-z
-x,-y,-z
x,y,-z
1/2-x,1/2+y,1/2+z
1/2+x,1/2-y,1/2+z
loop_
_atom_site_type_symbol
_atom_site_label
_atom_site_fract_x
_atom_site_fract_y
_atom_site_fract_z
Si Si1 0.263541 0.981923 0.284405
Si Si2 0.262011 0.915368 0.610068
Si Si3 0.121359 0.836473 0.211776
Si Si4 0.334241 0.303257 0.606751
Si Si5 0.036154 0.307014 0.946150
Si Si6 0.449012 0.322865 0.948329
Si Si7 0.404836 0.865195 0.124081
Si Si8 0.943200 0.678981 0.270667
O O1 0.224631 0.913073 0.334908
O O2 0.188037 0.975871 0.238477
O O3 0.355254 0.855205 0.268908
O O4 0.314722 0.161725 0.288006
O O5 0.367650 0.811958 0.593081
O O6 0.163704 0.849906 0.578513
O O7 0.293173 0.110485 0.604336
O O8 0.107051 0.856346 0.155884
O O9 0.023521 0.806472 0.247364
O O10 0.431170 0.301303 0.568355
O O11 0.219128 0.401905 0.608292
O O12 0.000000 0.500000 0.947241
O O13 0.072863 0.265982 0.000000
O O14 0.500000 0.500000 0.954966
O O15 0.540205 0.239288 0.916762
O O16 0.432976 0.242287 0.000000
O O17 0.400261 0.781580 0.176552
O O18 0.500000 0.000000 0.129318
O O19 0.000000 0.500000 0.274687
#
# Coordination Sequence:
#
# PCOD9441867 Si02
#       8
#     8   8   8   8   8   8   8   8
#     4  10  19  32  53  79 108 145 180 222 279 334
#     4  10  19  35  57  86 117 149 191 242 298 357
#     4  10  19  33  51  78 111 145 184 226 273 338
#     4  10  19  34  56  86 120 148 194 246 295 348
#     4   9  18  32  56  86 113 145 187 243 301 348
#     4  11  23  38  58  83 116 154 193 245 301 351
#     4  11  22  38  59  84 118 157 197 240 292 363
#     4   9  18  33  53  77 109 149 186 224 281 345
#
# _framework density 22.630986
#
# number of rings (size 3 to 8) (size 9 to 14) (size 15 to 20)
#    0.000    2.000    2.500    1.875    0.000    4.250 
#    0.000    0.625    0.000    0.750    0.000    1.750 
#    0.000    0.000    0.000    0.000    0.000    0.000 
#
# Total GULP energy -356517.310733 kJ/mol
# GULP energy per Si atom -5570.582980 kJ/mol
# Density = 2.257948 g / cm^3
# Si number density = 22.630986 Si / 1000 Ang^3
#
#
#
# Elastic Constant Matrix: (Units=GPa)
#
#
# Indices 1 2 3 4 5 6 
#
# 1 94.4197 19.8748 28.1396 0.0000 0.0000 0.0000
# 2 19.8748 23.1581 20.2024 0.0000 0.0000 0.0000
# 3 28.1396 20.2024 128.7956 0.0000 0.0000 0.0000
# 4 0.0000 0.0000 0.0000 7.0075 0.0000 0.0000
# 5 0.0000 0.0000 0.0000 0.0000 101.7986 0.0000
# 6 0.0000 0.0000 0.0000 0.0000 0.0000 31.7901
#
#
#
# Elastic Compliance Matrix: (Units=1/GPa)
#
#
# Indices 1 2 3 4 5 6 
#
# 1 0.013104 -0.010135 -0.001273 0.000000 0.000000 0.000000
# 2 -0.010135 0.057866 -0.006862 0.000000 0.000000 0.000000
# 3 -0.001273 -0.006862 0.009119 0.000000 0.000000 0.000000
# 4 0.000000 0.000000 0.000000 0.142703 0.000000 0.000000
# 5 0.000000 0.000000 0.000000 0.000000 0.009823 0.000000
# 6 0.000000 0.000000 0.000000 0.000000 0.000000 0.031456
#
#
# Mechanical properties :
#
#
# Convention : Reuss Voigt Hill
#
# Bulk Modulus (GPa) = 22.96354 42.53410 32.74882
# Shear Modulus (GPa) = 15.86651 39.99635 27.93143
#
# Velocity S-wave (km/s) = 2.65070 4.20852 3.51695
# Velocity P-wave (km/s) = 4.42009 6.51544 5.56723
#
# Compressibility (1/GPa) = 0.04354729
#
# Stress axis : x y z
#
# Youngs Moduli (GPa) = 76.31325 17.28124 109.66358
#
# Poissons Ratio (x) = 0.17515 0.13962
# Poissons Ratio (y) = 0.77346 0.75254
# Poissons Ratio (z) = 0.09716 0.11859
#
# Static dielectric constant tensor:
#      x y z
#    x 1.916690 0.000000 0.000000 
#    y 0.000000 1.758700 0.000000 
#    z 0.000000 0.000000 1.904710 
# 
# From -- ./inp_files/34931.got.cif
#   From: 2010.05.17/outbox.cif.g08.bks.cpg/sg58_18_cif.got.tgz:34931.got - 2010.06.03 14:20:14.
