data_PCOD9441972
_publ_section_title
;
Structure prediction by ZEFSAII (Michael W. Deem and Ramdas Pophale) SiO2 
 PCOD9441972
Probable space group: P N N M
;
_chemical_formula_sum "Si O2"
_cell_formula_units_Z 40
_cell_length_a 26.365473
_cell_length_b 9.940819
_cell_length_c 8.679527
_cell_angle_alpha 90.000000
_cell_angle_beta 90.000000
_cell_angle_gamma 90.000000
_cell_volume 2274.855377
_symmetry_space_group_name_H-M "P N N M"
_symmetry_group_IT_number 58
_symmetry_cell_setting 'orthorhombic'
loop_
_space_group_symop_operation_xyz
x,y,z
-x,-y,z
1/2+x,1/2-y,1/2-z
1/2-x,1/2+y,1/2-z
-x,-y,-z
x,y,-z
1/2-x,1/2+y,1/2+z
1/2+x,1/2-y,1/2+z
loop_
_atom_site_type_symbol
_atom_site_label
_atom_site_fract_x
_atom_site_fract_y
_atom_site_fract_z
Si Si1 0.220378 0.008453 0.315213
Si Si2 0.857803 0.199501 0.815427
Si Si3 0.166595 0.518680 0.315217
Si Si4 0.942387 0.983916 0.814441
Si Si5 0.365124 0.723424 0.185378
O O1 0.225544 0.006879 0.500000
O O2 0.190355 0.876459 0.258786
O O3 0.275036 0.018555 0.238718
O O4 0.184219 0.134245 0.270987
O O5 0.859799 0.351066 0.756541
O O6 0.906953 0.110948 0.771760
O O7 0.852386 0.196991 0.000000
O O8 0.164697 0.526264 0.500000
O O9 0.142083 0.377025 0.265306
O O10 0.913764 0.852685 0.751974
O O11 0.942955 0.976629 0.000000
O O12 0.000000 0.000000 0.759715
O O13 0.367965 0.720215 0.000000
#
# Coordination Sequence:
#
# PCOD9441972 Si02
#       5
#     8   8   8   8   8
#     4  10  19  33  53  76 104 139 176 210 251 301
#     4  10  20  34  52  76 105 136 172 211 255 307
#     4  11  21  33  50  76 110 141 172 210 252 301
#     4   9  19  37  59  78  96 125 169 217 261 308
#     4   9  20  35  51  75 104 134 170 210 251 303
#
# _framework density 17.583535000000001
#
# number of rings (size 3 to 8) (size 9 to 14) (size 15 to 20)
#    0.000    2.200    0.000    3.000    0.000    5.200 
#    0.000    1.000    0.000    6.000    0.000    0.000 
#    0.000    0.000    0.000    0.000    0.000    0.000 
#
# Total GULP energy -223326.495879 kJ/mol
# GULP energy per Si atom -5583.162397 kJ/mol
# Density = 1.754351 g / cm^3
# Si number density = 17.583535 Si / 1000 Ang^3
#
#
#
# Elastic Constant Matrix: (Units=GPa)
#
#
# Indices 1 2 3 4 5 6 
#
# 1 104.5931 49.8560 13.4824 0.0000 0.0000 0.0000
# 2 49.8560 152.2591 21.6289 0.0000 0.0000 0.0000
# 3 13.4824 21.6289 18.6462 0.0000 0.0000 0.0000
# 4 0.0000 0.0000 0.0000 25.4811 0.0000 0.0000
# 5 0.0000 0.0000 0.0000 0.0000 22.6939 0.0000
# 6 0.0000 0.0000 0.0000 0.0000 0.0000 3.7289
#
#
#
# Elastic Compliance Matrix: (Units=1/GPa)
#
#
# Indices 1 2 3 4 5 6 
#
# 1 0.011677 -0.003142 -0.004799 0.000000 0.000000 0.000000
# 2 -0.003142 0.008709 -0.007830 0.000000 0.000000 0.000000
# 3 -0.004799 -0.007830 0.066183 0.000000 0.000000 0.000000
# 4 0.000000 0.000000 0.000000 0.039245 0.000000 0.000000
# 5 0.000000 0.000000 0.000000 0.000000 0.044065 0.000000
# 6 0.000000 0.000000 0.000000 0.000000 0.000000 0.268175
#
#
# Mechanical properties :
#
#
# Convention : Reuss Voigt Hill
#
# Bulk Modulus (GPa) = 18.17288 49.49253 33.83271
# Shear Modulus (GPa) = 10.24722 23.08286 16.66504
#
# Velocity S-wave (km/s) = 2.41669 3.62713 3.08192
# Velocity P-wave (km/s) = 4.25967 6.76384 5.65218
#
# Compressibility (1/GPa) = 0.05502704
#
# Stress axis : x y z
#
# Youngs Moduli (GPa) = 85.63800 114.82600 15.10968
#
# Poissons Ratio (x) = 0.36077 0.07251
# Poissons Ratio (y) = 0.26906 0.11831
# Poissons Ratio (z) = 0.41096 0.89910
#
# Static dielectric constant tensor:
#      x y z
#    x 1.575070 0.000000 0.000000 
#    y 0.000000 1.600480 0.000000 
#    z 0.000000 0.000000 1.590910 
# 
# From -- ./inp_files/2420.got.cif
#   From: 2010.05.17/outbox.cif.g08.bks.cpg/sg58_2_cif.got.tgz:2420.got - 2010.06.03 14:20:14.
