data_PCOD9441469
_publ_section_title
;
Structure prediction by ZEFSAII (Michael W. Deem and Ramdas Pophale) SiO2 
 PCOD9441469
Probable space group: P N N M
;
_chemical_formula_sum "Si O2"
_cell_formula_units_Z 56
_cell_length_a 14.827793
_cell_length_b 8.589767
_cell_length_c 20.683440
_cell_angle_alpha 90.000000
_cell_angle_beta 90.000000
_cell_angle_gamma 90.000000
_cell_volume 2634.393639
_symmetry_space_group_name_H-M "P N N M"
_symmetry_group_IT_number 58
_symmetry_cell_setting 'orthorhombic'
loop_
_space_group_symop_operation_xyz
x,y,z
-x,-y,z
1/2+x,1/2-y,1/2-z
1/2-x,1/2+y,1/2-z
-x,-y,-z
x,y,-z
1/2-x,1/2+y,1/2+z
1/2+x,1/2-y,1/2+z
loop_
_atom_site_type_symbol
_atom_site_label
_atom_site_fract_x
_atom_site_fract_y
_atom_site_fract_z
Si Si1 0.147365 0.079803 0.500000
Si Si2 0.749507 0.356437 0.421380
Si Si3 0.737251 0.503094 0.871404
Si Si4 0.423812 0.112392 0.866051
Si Si5 0.964824 0.245673 0.500000
Si Si6 0.047164 0.165707 0.072919
Si Si7 0.429782 0.131716 0.669829
Si Si8 0.912194 0.103499 0.274781
O O1 0.068516 0.203452 0.500000
O O2 0.201187 0.095611 0.567287
O O3 0.094379 0.912873 0.500000
O O4 0.758101 0.382861 0.500000
O O5 0.763735 0.175486 0.402890
O O6 0.820106 0.443470 0.373637
O O7 0.646192 0.377293 0.401624
O O8 0.838184 0.452366 0.853129
O O9 0.671433 0.509011 0.807885
O O10 0.436032 0.276266 0.831375
O O11 0.500000 0.000000 0.840345
O O12 0.443390 0.152120 0.939248
O O13 0.988429 0.285002 0.114029
O O14 0.058887 0.229132 0.000000
O O15 0.000000 0.000000 0.069811
O O16 0.398145 0.273497 0.716590
O O17 0.500000 0.000000 0.696420
O O18 0.000000 0.000000 0.259812
#
# Coordination Sequence:
#
# PCOD9441469 Si02
#       8
#     4   8   8   8   4   8   8   8
#     4  11  20  38  67 100 138 169 223 270 342 409
#     4  10  18  37  65  94 134 173 209 272 334 386
#     4  11  22  41  68 102 130 171 222 277 336 394
#     4  11  21  38  64 101 134 175 220 268 331 399
#     4  11  19  34  66  96 137 174 209 268 335 400
#     4  10  23  44  66  96 136 176 221 275 340 392
#     4  12  26  44  71 100 128 177 233 279 330 402
#     4  11  25  47  67  90 136 179 218 276 339 402
#
# _framework density 21.257262000000001
#
# number of rings (size 3 to 8) (size 9 to 14) (size 15 to 20)
#    0.000    1.143    5.714    1.929    1.000    1.429 
#   10.286    0.000    0.000    0.000    0.000    0.000 
#    0.000    0.000    0.000    0.000    0.000    0.000 
#
# Total GULP energy -312074.718989 kJ/mol
# GULP energy per Si atom -5572.762839 kJ/mol
# Density = 2.120888 g / cm^3
# Si number density = 21.257262 Si / 1000 Ang^3
#
#
#
# Elastic Constant Matrix: (Units=GPa)
#
#
# Indices 1 2 3 4 5 6 
#
# 1 159.4910 29.7848 26.7100 0.0000 0.0000 0.0000
# 2 29.7848 31.8956 9.8435 0.0000 0.0000 0.0000
# 3 26.7100 9.8435 70.5348 0.0000 0.0000 0.0000
# 4 0.0000 0.0000 0.0000 33.8791 0.0000 0.0000
# 5 0.0000 0.0000 0.0000 0.0000 17.9961 0.0000
# 6 0.0000 0.0000 0.0000 0.0000 0.0000 39.0415
#
#
#
# Elastic Compliance Matrix: (Units=1/GPa)
#
#
# Indices 1 2 3 4 5 6 
#
# 1 0.007866 -0.006715 -0.002041 0.000000 0.000000 0.000000
# 2 -0.006715 0.038496 -0.002829 0.000000 0.000000 0.000000
# 3 -0.002041 -0.002829 0.015345 0.000000 0.000000 0.000000
# 4 0.000000 0.000000 0.000000 0.029517 0.000000 0.000000
# 5 0.000000 0.000000 0.000000 0.000000 0.055567 0.000000
# 6 0.000000 0.000000 0.000000 0.000000 0.000000 0.025614
#
#
# Mechanical properties :
#
#
# Convention : Reuss Voigt Hill
#
# Bulk Modulus (GPa) = 25.95033 43.84423 34.89728
# Shear Modulus (GPa) = 23.98964 31.22221 27.60593
#
# Velocity S-wave (km/s) = 3.36302 3.83662 3.60760
# Velocity P-wave (km/s) = 5.22629 6.34796 5.81423
#
# Compressibility (1/GPa) = 0.03853515
#
# Stress axis : x y z
#
# Youngs Moduli (GPa) = 127.13067 25.97642 65.16639
#
# Poissons Ratio (x) = 0.17444 0.13304
# Poissons Ratio (y) = 0.85373 0.18438
# Poissons Ratio (z) = 0.25954 0.07350
#
# Static dielectric constant tensor:
#      x y z
#    x 1.925550 0.000000 0.000000 
#    y 0.000000 1.767600 0.000000 
#    z 0.000000 0.000000 1.858800 
# 
# From -- ./inp_files/30048.got.cif
#   From: 2010.05.17/outbox.cif.g08.bks.cpg/sg58_16_cif.got.tgz:30048.got - 2010.06.03 14:20:14.
