data_PCOD9441483
_publ_section_title
;
Structure prediction by ZEFSAII (Michael W. Deem and Ramdas Pophale) SiO2 
 PCOD9441483
Probable space group: P N N M
;
_chemical_formula_sum "Si O2"
_cell_formula_units_Z 58
_cell_length_a 10.727462
_cell_length_b 9.418777
_cell_length_c 26.320349
_cell_angle_alpha 90.000000
_cell_angle_beta 90.000000
_cell_angle_gamma 90.000000
_cell_volume 2659.396807
_symmetry_space_group_name_H-M "P N N M"
_symmetry_group_IT_number 58
_symmetry_cell_setting 'orthorhombic'
loop_
_space_group_symop_operation_xyz
x,y,z
-x,-y,z
1/2+x,1/2-y,1/2-z
1/2-x,1/2+y,1/2-z
-x,-y,-z
x,y,-z
1/2-x,1/2+y,1/2+z
1/2+x,1/2-y,1/2+z
loop_
_atom_site_type_symbol
_atom_site_label
_atom_site_fract_x
_atom_site_fract_y
_atom_site_fract_z
Si Si1 0.161287 0.181817 0.084577
Si Si2 0.061626 0.133814 0.556744
Si Si3 0.058026 0.649468 0.625204
Si Si4 0.000000 0.000000 0.000000
Si Si5 0.064909 0.149723 0.298292
Si Si6 0.924959 0.723046 0.191176
Si Si7 0.337560 0.015434 0.554871
Si Si8 0.333664 0.085812 0.664540
O O1 0.304745 0.143807 0.100145
O O2 0.095786 0.188103 0.139888
O O3 0.165852 0.345001 0.062507
O O4 0.088048 0.080556 0.045049
O O5 0.006318 0.143275 0.500000
O O6 0.031451 0.278616 0.583470
O O7 0.201761 0.084603 0.553057
O O8 0.000000 0.000000 0.585103
O O9 0.000000 0.500000 0.638964
O O10 0.036319 0.749798 0.673954
O O11 0.109697 0.205082 0.243704
O O12 0.191370 0.133958 0.331532
O O13 0.000000 0.000000 0.291086
O O14 0.849397 0.575846 0.183429
O O15 0.070745 0.682504 0.195004
O O16 0.391489 0.056395 0.500000
O O17 0.386784 0.083854 0.606672
#
# Coordination Sequence:
#
# PCOD9441483 Si02
#       8
#     8   8   8   2   8   8   8   8
#     4  11  25  48  69 104 145 198 253 306 373 469
#     4  10  19  36  68 103 137 184 237 293 376 445
#     4  12  27  44  70 110 152 192 247 321 388 451
#     4  12  28  48  74 100 148 208 252 304 388 464
#     4  12  26  45  76 107 142 198 250 312 384 455
#     4  10  26  45  71 102 145 194 244 308 375 437
#     4  10  18  39  72 103 138 183 238 302 361 445
#     4  10  23  45  70 107 145 181 248 312 364 456
#
# _framework density 21.809456999999998
#
# number of rings (size 3 to 8) (size 9 to 14) (size 15 to 20)
#    0.000    1.241    3.448    2.069    7.724    1.379 
#    1.241    1.379    0.000    0.000    0.000    0.000 
#    0.000    0.000    0.000    0.000    0.000    0.000 
#
# Total GULP energy -323140.520068 kJ/mol
# GULP energy per Si atom -5571.388277 kJ/mol
# Density = 2.175982 g / cm^3
# Si number density = 21.809457 Si / 1000 Ang^3
#
#
#
# Elastic Constant Matrix: (Units=GPa)
#
#
# Indices 1 2 3 4 5 6 
#
# 1 127.9150 29.5649 26.3456 0.0000 0.0000 0.0000
# 2 29.5649 82.0540 38.5955 0.0000 0.0000 0.0000
# 3 26.3456 38.5955 158.5398 0.0000 0.0000 0.0000
# 4 0.0000 0.0000 0.0000 1.3185 0.0000 0.0000
# 5 0.0000 0.0000 0.0000 0.0000 18.2453 0.0000
# 6 0.0000 0.0000 0.0000 0.0000 0.0000 22.8085
#
#
#
# Elastic Compliance Matrix: (Units=1/GPa)
#
#
# Indices 1 2 3 4 5 6 
#
# 1 0.008609 -0.002743 -0.000763 0.000000 0.000000 0.000000
# 2 -0.002743 0.014637 -0.003107 0.000000 0.000000 0.000000
# 3 -0.000763 -0.003107 0.007191 0.000000 0.000000 0.000000
# 4 0.000000 0.000000 0.000000 0.758466 0.000000 0.000000
# 5 0.000000 0.000000 0.000000 0.000000 0.054809 0.000000
# 6 0.000000 0.000000 0.000000 0.000000 0.000000 0.043843
#
#
# Mechanical properties :
#
#
# Convention : Reuss Voigt Hill
#
# Bulk Modulus (GPa) = 58.10552 61.94676 60.02614
# Shear Modulus (GPa) = 5.51561 26.74131 16.12846
#
# Velocity S-wave (km/s) = 1.59201 3.50542 2.72236
# Velocity P-wave (km/s) = 5.48448 6.69696 6.12081
#
# Compressibility (1/GPa) = 0.01721007
#
# Stress axis : x y z
#
# Youngs Moduli (GPa) = 116.16024 68.31955 139.06619
#
# Poissons Ratio (x) = 0.18740 0.10608
# Poissons Ratio (y) = 0.31863 0.43214
# Poissons Ratio (z) = 0.08861 0.21230
#
# Static dielectric constant tensor:
#      x y z
#    x 2.078800 0.000000 0.000000 
#    y 0.000000 1.789950 0.000000 
#    z 0.000000 0.000000 1.831180 
# 
# From -- ./inp_files/33595.got.cif
#   From: 2010.05.17/outbox.cif.g08.bks.cpg/sg58_17_cif.got.tgz:33595.got - 2010.06.03 14:20:14.
