data_PCOD9441732
_publ_section_title
;
Structure prediction by ZEFSAII (Michael W. Deem and Ramdas Pophale) SiO2 
 PCOD9441732
Probable space group: P N N M
;
_chemical_formula_sum "Si O2"
_cell_formula_units_Z 48
_cell_length_a 18.504089
_cell_length_b 16.976132
_cell_length_c 8.706374
_cell_angle_alpha 90.000000
_cell_angle_beta 90.000000
_cell_angle_gamma 90.000000
_cell_volume 2734.914610
_symmetry_space_group_name_H-M "P N N M"
_symmetry_group_IT_number 58
_symmetry_cell_setting 'orthorhombic'
loop_
_space_group_symop_operation_xyz
x,y,z
-x,-y,z
1/2+x,1/2-y,1/2-z
1/2-x,1/2+y,1/2-z
-x,-y,-z
x,y,-z
1/2-x,1/2+y,1/2+z
1/2+x,1/2-y,1/2+z
loop_
_atom_site_type_symbol
_atom_site_label
_atom_site_fract_x
_atom_site_fract_y
_atom_site_fract_z
Si Si1 0.053966 0.259892 0.815874
Si Si2 0.829467 0.852105 0.314170
Si Si3 0.092890 0.827435 0.183877
Si Si4 0.478477 0.088390 0.184084
Si Si5 0.417003 0.493705 0.184883
Si Si6 0.335935 0.164273 0.685230
O O1 0.126907 0.222232 0.751331
O O2 0.987541 0.201763 0.769750
O O3 0.032014 0.345403 0.752542
O O4 0.055696 0.263021 0.000000
O O5 0.832181 0.848161 0.500000
O O6 0.745693 0.854342 0.268306
O O7 0.870645 0.931448 0.263173
O O8 0.111940 0.909870 0.259555
O O9 0.144845 0.754804 0.224223
O O10 0.093262 0.836515 0.000000
O O11 0.398230 0.110980 0.241063
O O12 0.500000 0.000000 0.230931
O O13 0.480986 0.093341 0.000000
O O14 0.500000 0.500000 0.239593
O O15 0.417648 0.494629 0.000000
O O16 0.341974 0.156879 0.500000
#
# Coordination Sequence:
#
# PCOD9441732 Si02
#       6
#     8   8   8   8   8   8
#     4  10  20  34  56  82 107 140 183 223 271 328
#     4  10  20  36  55  78 114 149 179 223 277 326
#     4   9  18  33  52  75 102 138 177 217 263 316
#     4  10  21  38  60  83 107 141 187 233 278 328
#     4  10  19  31  52  81 108 140 178 216 262 318
#     4   9  20  38  57  78 109 147 182 224 280 327
#
# _framework density 17.550820999999999
#
# number of rings (size 3 to 8) (size 9 to 14) (size 15 to 20)
#    0.000    2.333    1.667    2.000    0.000    5.667 
#    3.000    0.000    0.000    0.000    0.000    0.000 
#    0.000    0.000    0.000    0.000    0.000    0.000 
#
# Total GULP energy -267787.503186 kJ/mol
# GULP energy per Si atom -5578.906316 kJ/mol
# Density = 1.751087 g / cm^3
# Si number density = 17.550821 Si / 1000 Ang^3
#
#
#
# Elastic Constant Matrix: (Units=GPa)
#
#
# Indices 1 2 3 4 5 6 
#
# 1 132.9756 86.8044 32.0825 0.0000 0.0000 0.0000
# 2 86.8044 152.6464 33.7809 0.0000 0.0000 0.0000
# 3 32.0825 33.7809 18.1648 0.0000 0.0000 0.0000
# 4 0.0000 0.0000 0.0000 27.5012 0.0000 0.0000
# 5 0.0000 0.0000 0.0000 0.0000 10.8444 0.0000
# 6 0.0000 0.0000 0.0000 0.0000 0.0000 21.9712
#
#
#
# Elastic Compliance Matrix: (Units=1/GPa)
#
#
# Indices 1 2 3 4 5 6 
#
# 1 0.014682 -0.004436 -0.017681 0.000000 0.000000 0.000000
# 2 -0.004436 0.012473 -0.015361 0.000000 0.000000 0.000000
# 3 -0.017681 -0.015361 0.114847 0.000000 0.000000 0.000000
# 4 0.000000 0.000000 0.000000 0.036362 0.000000 0.000000
# 5 0.000000 0.000000 0.000000 0.000000 0.092213 0.000000
# 6 0.000000 0.000000 0.000000 0.000000 0.000000 0.045514
#
#
# Mechanical properties :
#
#
# Convention : Reuss Voigt Hill
#
# Bulk Modulus (GPa) = 14.91535 67.68026 41.29781
# Shear Modulus (GPa) = 12.09492 22.13798 17.11645
#
# Velocity S-wave (km/s) = 2.62799 3.55542 3.12629
# Velocity P-wave (km/s) = 4.21014 7.44989 6.05087
#
# Compressibility (1/GPa) = 0.06704502
#
# Stress axis : x y z
#
# Youngs Moduli (GPa) = 68.11106 80.17147 8.70725
#
# Poissons Ratio (x) = 0.35566 0.15395
# Poissons Ratio (y) = 0.30215 0.13375
# Poissons Ratio (z) = 1.20428 1.23153
#
# Static dielectric constant tensor:
#      x y z
#    x 1.589150 0.000000 0.000000 
#    y 0.000000 1.583350 0.000000 
#    z 0.000000 0.000000 1.592250 
# 
# From -- ./inp_files/7726.got.cif
#   From: 2010.05.17/outbox.cif.g08.bks.cpg/sg58_4_cif.got.tgz:7726.got - 2010.06.03 14:20:14.
