data_PCOD9441574
_publ_section_title
;
Structure prediction by ZEFSAII (Michael W. Deem and Ramdas Pophale) SiO2 
 PCOD9441574
Probable space group: P N N M
;
_chemical_formula_sum "Si O2"
_cell_formula_units_Z 64
_cell_length_a 18.886667
_cell_length_b 21.893594
_cell_length_c 9.318814
_cell_angle_alpha 90.000000
_cell_angle_beta 90.000000
_cell_angle_gamma 90.000000
_cell_volume 3853.301813
_symmetry_space_group_name_H-M "P N N M"
_symmetry_group_IT_number 58
_symmetry_cell_setting 'orthorhombic'
loop_
_space_group_symop_operation_xyz
x,y,z
-x,-y,z
1/2+x,1/2-y,1/2-z
1/2-x,1/2+y,1/2-z
-x,-y,-z
x,y,-z
1/2-x,1/2+y,1/2+z
1/2+x,1/2-y,1/2+z
loop_
_atom_site_type_symbol
_atom_site_label
_atom_site_fract_x
_atom_site_fract_y
_atom_site_fract_z
Si Si1 0.329271 0.123439 0.169101
Si Si2 0.374992 0.237884 0.663902
Si Si3 0.963999 0.685386 0.165668
Si Si4 0.171312 0.095458 0.829101
Si Si5 0.580735 0.522458 0.331395
Si Si6 0.017408 0.569816 0.672005
Si Si7 0.916297 0.801941 0.670032
Si Si8 0.423139 0.351813 0.168838
O O1 0.330373 0.185478 0.259400
O O2 0.255210 0.089976 0.193804
O O3 0.400043 0.085143 0.203234
O O4 0.333815 0.138847 0.000000
O O5 0.353538 0.247650 0.500000
O O6 0.455671 0.212057 0.664643
O O7 0.377556 0.300141 0.752256
O O8 0.919664 0.736157 0.252222
O O9 0.970920 0.620317 0.244993
O O10 0.941176 0.679677 0.000000
O O11 0.139191 0.152424 0.743200
O O12 0.130943 0.033522 0.788283
O O13 0.158674 0.105226 0.000000
O O14 0.500000 0.500000 0.316788
O O15 0.592901 0.536215 0.500000
O O16 0.590191 0.582799 0.238698
O O17 0.006995 0.577024 0.500000
O O18 0.000000 0.500000 0.710221
O O19 0.904136 0.795128 0.500000
O O20 0.994143 0.832952 0.689020
O O21 0.409131 0.352015 0.000000
#
# Coordination Sequence:
#
# PCOD9441574 Si02
#       8
#     8   8   8   8   8   8   8   8
#     4   9  18  33  52  74 100 129 165 208 256 308
#     4   9  17  30  50  73  96 123 160 204 249 298
#     4   9  17  29  48  74 100 125 158 203 251 298
#     4  10  20  33  50  71  99 136 171 208 256 307
#     4  10  19  31  48  71 101 137 176 212 248 299
#     4   9  17  31  53  78 102 130 166 209 257 308
#     4  10  19  30  47  72 100 129 165 208 252 297
#     4  10  19  30  48  73 100 129 166 212 254 291
#
# _framework density 16.609131999999999
#
# number of rings (size 3 to 8) (size 9 to 14) (size 15 to 20)
#    0.000    2.500    1.250    1.500    0.000    5.500 
#    0.000    0.000    2.750    0.000    0.000    0.000 
#    0.000    0.000    0.000    0.000    0.000    0.000 
#
# Total GULP energy -356811.079810 kJ/mol
# GULP energy per Si atom -5575.173122 kJ/mol
# Density = 1.657133 g / cm^3
# Si number density = 16.609132 Si / 1000 Ang^3
#
#
#
# Elastic Constant Matrix: (Units=GPa)
#
#
# Indices 1 2 3 4 5 6 
#
# 1 47.6089 43.4588 38.9835 0.0000 0.0000 0.0000
# 2 43.4588 156.7162 82.3571 0.0000 0.0000 0.0000
# 3 38.9835 82.3571 80.9838 0.0000 0.0000 0.0000
# 4 0.0000 0.0000 0.0000 33.5193 0.0000 0.0000
# 5 0.0000 0.0000 0.0000 0.0000 21.0188 0.0000
# 6 0.0000 0.0000 0.0000 0.0000 0.0000 22.8129
#
#
#
# Elastic Compliance Matrix: (Units=1/GPa)
#
#
# Indices 1 2 3 4 5 6 
#
# 1 0.034911 -0.001825 -0.014949 0.000000 0.000000 0.000000
# 2 -0.001825 0.013801 -0.013157 0.000000 0.000000 0.000000
# 3 -0.014949 -0.013157 0.032924 0.000000 0.000000 0.000000
# 4 0.000000 0.000000 0.000000 0.029834 0.000000 0.000000
# 5 0.000000 0.000000 0.000000 0.000000 0.047576 0.000000
# 6 0.000000 0.000000 0.000000 0.000000 0.000000 0.043835
#
#
# Mechanical properties :
#
#
# Convention : Reuss Voigt Hill
#
# Bulk Modulus (GPa) = 45.92536 68.32307 57.12422
# Shear Modulus (GPa) = 18.51840 23.50417 21.01128
#
# Velocity S-wave (km/s) = 3.34271 3.76591 3.56060
# Velocity P-wave (km/s) = 6.52756 7.75465 7.16741
#
# Compressibility (1/GPa) = 0.02177446
#
# Stress axis : x y z
#
# Youngs Moduli (GPa) = 28.64391 72.45813 30.37291
#
# Poissons Ratio (x) = 0.13224 0.45406
# Poissons Ratio (y) = 0.05228 0.39960
# Poissons Ratio (z) = 0.42821 0.95330
#
# Static dielectric constant tensor:
#      x y z
#    x 1.551480 0.000000 0.000000 
#    y 0.000000 1.534760 0.000000 
#    z 0.000000 0.000000 1.559070 
# 
# From -- ./inp_files/8285.got.cif
#   From: 2010.05.17/outbox.cif.g08.bks.cpg/sg58_5_cif.got.tgz:8285.got - 2010.06.03 14:20:14.
