data_PCOD9441117
_publ_section_title
;
Structure prediction by ZEFSAII (Michael W. Deem and Ramdas Pophale) SiO2 
 PCOD9441117
Probable space group: P N N M
;
_chemical_formula_sum "Si O2"
_cell_formula_units_Z 60
_cell_length_a 25.534080
_cell_length_b 5.253366
_cell_length_c 28.153628
_cell_angle_alpha 90.000000
_cell_angle_beta 90.000000
_cell_angle_gamma 90.000000
_cell_volume 3776.523936
_symmetry_space_group_name_H-M "P N N M"
_symmetry_group_IT_number 58
_symmetry_cell_setting 'orthorhombic'
loop_
_space_group_symop_operation_xyz
x,y,z
-x,-y,z
1/2+x,1/2-y,1/2-z
1/2-x,1/2+y,1/2-z
-x,-y,-z
x,y,-z
1/2-x,1/2+y,1/2+z
1/2+x,1/2-y,1/2+z
loop_
_atom_site_type_symbol
_atom_site_label
_atom_site_fract_x
_atom_site_fract_y
_atom_site_fract_z
Si Si1 0.802354 0.961687 0.791920
Si Si2 0.136860 0.380950 0.445749
Si Si3 0.751313 0.255027 0.945159
Si Si4 0.349903 0.245014 0.144193
Si Si5 0.060902 0.982665 0.408169
Si Si6 0.464703 0.244560 0.000000
Si Si7 0.764619 0.734764 0.886623
Si Si8 0.819639 0.466432 0.741081
O O1 0.800871 0.849312 0.845053
O O2 0.830569 0.747407 0.760268
O O3 0.741252 0.972383 0.775810
O O4 0.823539 0.243325 0.780574
O O5 0.137763 0.482948 0.500000
O O6 0.188227 0.194953 0.444978
O O7 0.146647 0.554453 0.400219
O O8 0.084465 0.224234 0.435433
O O9 0.778688 0.478883 0.915114
O O10 0.757800 0.973981 0.922465
O O11 0.768082 0.255643 0.000000
O O12 0.398502 0.430328 0.134165
O O13 0.290347 0.345070 0.139401
O O14 0.352615 0.110365 0.194916
O O15 0.064040 0.768881 0.449580
O O16 0.000000 0.000000 0.394027
O O17 0.500000 0.500000 0.000000
O O18 0.500000 0.000000 0.000000
#
# Coordination Sequence:
#
# PCOD9441117 Si02
#       8
#     8   8   8   8   8   4   8   8
#     4   9  17  29  47  65  83 103 130 164 210 262
#     4  10  21  33  45  62  80 109 143 181 224 273
#     4  10  19  30  44  64  91 116 144 170 210 253
#     4  10  22  30  47  59  84 105 135 177 225 273
#     4  11  23  33  46  60  79 107 140 182 228 269
#     4  10  24  38  48  60  76 102 140 184 226 268
#     4  10  18  31  46  65  86 111 139 173 210 255
#     4   9  18  30  45  65  83 102 127 165 217 268
#
# _framework density 15.887627
#
# number of rings (size 3 to 8) (size 9 to 14) (size 15 to 20)
#    0.000    2.133    2.000    1.200    6.533    3.733 
#    0.000    0.000    0.000    0.000    0.000    0.000 
#    0.000    0.000    0.000    0.000    0.000    0.000 
#
# Total GULP energy -334126.632342 kJ/mol
# GULP energy per Si atom -5568.777206 kJ/mol
# Density = 1.585147 g / cm^3
# Si number density = 15.887627 Si / 1000 Ang^3
#
#
#
# Elastic Constant Matrix: (Units=GPa)
#
#
# Indices 1 2 3 4 5 6 
#
# 1 15.6938 -4.1255 7.7582 0.0000 0.0000 0.0000
# 2 -4.1255 47.7930 -9.9147 0.0000 0.0000 0.0000
# 3 7.7582 -9.9147 40.3873 0.0000 0.0000 0.0000
# 4 0.0000 0.0000 0.0000 22.0238 0.0000 0.0000
# 5 0.0000 0.0000 0.0000 0.0000 12.6306 0.0000
# 6 0.0000 0.0000 0.0000 0.0000 0.0000 11.4565
#
#
#
# Elastic Compliance Matrix: (Units=1/GPa)
#
#
# Indices 1 2 3 4 5 6 
#
# 1 0.070949 0.003474 -0.012776 0.000000 0.000000 0.000000
# 2 0.003474 0.022216 0.004787 0.000000 0.000000 0.000000
# 3 -0.012776 0.004787 0.028390 0.000000 0.000000 0.000000
# 4 0.000000 0.000000 0.000000 0.045405 0.000000 0.000000
# 5 0.000000 0.000000 0.000000 0.000000 0.079173 0.000000
# 6 0.000000 0.000000 0.000000 0.000000 0.000000 0.087287
#
#
# Mechanical properties :
#
#
# Convention : Reuss Voigt Hill
#
# Bulk Modulus (GPa) = 8.88705 10.14557 9.51631
# Shear Modulus (GPa) = 13.15931 16.56590 14.86261
#
# Velocity S-wave (km/s) = 2.88110 3.23258 3.06188
# Velocity P-wave (km/s) = 4.08332 4.50915 4.30151
#
# Compressibility (1/GPa) = 0.11252331
#
# Stress axis : x y z
#
# Youngs Moduli (GPa) = 14.09471 45.01175 35.22421
#
# Poissons Ratio (x) = -0.15637 0.45003
# Poissons Ratio (y) = -0.04896 -0.16860
# Poissons Ratio (z) = 0.18008 -0.21545
#
# Static dielectric constant tensor:
#      x y z
#    x 1.546890 0.000000 0.000000 
#    y 0.000000 1.621100 0.000000 
#    z 0.000000 0.000000 1.571020 
# 
# From -- ./inp_files/32510.got.cif
#   From: 2010.05.17/outbox.cif.g08.bks.cpg/sg58_17_cif.got.tgz:32510.got - 2010.06.03 14:20:14.
