data_PCOD9441111
_publ_section_title
;
Structure prediction by ZEFSAII (Michael W. Deem and Ramdas Pophale) SiO2 
 PCOD9441111
Probable space group: P N N M
;
_chemical_formula_sum "Si O2"
_cell_formula_units_Z 64
_cell_length_a 17.131413
_cell_length_b 21.055574
_cell_length_c 8.909876
_cell_angle_alpha 90.000000
_cell_angle_beta 90.000000
_cell_angle_gamma 90.000000
_cell_volume 3213.896823
_symmetry_space_group_name_H-M "P N N M"
_symmetry_group_IT_number 58
_symmetry_cell_setting 'orthorhombic'
loop_
_space_group_symop_operation_xyz
x,y,z
-x,-y,z
1/2+x,1/2-y,1/2-z
1/2-x,1/2+y,1/2-z
-x,-y,-z
x,y,-z
1/2-x,1/2+y,1/2+z
1/2+x,1/2-y,1/2+z
loop_
_atom_site_type_symbol
_atom_site_label
_atom_site_fract_x
_atom_site_fract_y
_atom_site_fract_z
Si Si1 0.145944 0.106395 0.177232
Si Si2 0.616938 0.936724 0.821929
Si Si3 0.219642 0.673648 0.822541
Si Si4 0.329558 0.472538 0.821149
Si Si5 0.521542 0.608946 0.176668
Si Si6 0.679938 0.078051 0.179906
Si Si7 0.029423 0.356316 0.319373
Si Si8 0.589601 0.748259 0.178220
O O1 0.195749 0.163016 0.250567
O O2 0.056354 0.107845 0.227262
O O3 0.179090 0.039742 0.239597
O O4 0.154536 0.108262 0.000000
O O5 0.669762 0.888069 0.728817
O O6 0.527858 0.916177 0.790329
O O7 0.639246 0.009248 0.794580
O O8 0.630236 0.924484 0.000000
O O9 0.168818 0.731926 0.760322
O O10 0.226145 0.676628 0.000000
O O11 0.415285 0.444975 0.787571
O O12 0.262371 0.425503 0.762709
O O13 0.322833 0.480495 0.000000
O O14 0.564457 0.676121 0.197548
O O15 0.500216 0.602624 0.000000
O O16 0.616736 0.129701 0.234791
O O17 0.691997 0.084660 0.000000
O O18 0.036212 0.351189 0.500000
O O19 0.980852 0.294730 0.268393
O O20 0.600173 0.760317 0.000000
#
# Coordination Sequence:
#
# PCOD9441111 Si02
#       8
#     8   8   8   8   8   8   8   8
#     4  12  24  40  64  91 117 151 199 249 299 356
#     4   9  16  29  51  79 114 153 193 236 291 350
#     4  11  21  35  59  89 121 155 196 243 292 347
#     4  11  23  39  59  86 121 156 191 243 305 358
#     4  10  23  43  64  86 118 158 197 244 305 359
#     4  10  18  30  52  82 117 151 190 239 291 351
#     4   8  15  29  53  83 111 149 195 236 279 339
#     4   9  19  40  64  84 117 159 200 238 290 354
#
# _framework density 19.913520999999999
#
# number of rings (size 3 to 8) (size 9 to 14) (size 15 to 20)
#    0.000    2.000    1.250    4.125    0.000    4.500 
#    2.250    2.500    0.000    3.750    0.000    0.000 
#    0.000    0.000    0.000    0.000    0.000    0.000 
#
# Total GULP energy -357414.814935 kJ/mol
# GULP energy per Si atom -5584.606483 kJ/mol
# Density = 1.986820 g / cm^3
# Si number density = 19.913521 Si / 1000 Ang^3
#
#
#
# Elastic Constant Matrix: (Units=GPa)
#
#
# Indices 1 2 3 4 5 6 
#
# 1 96.0842 -3.6053 44.7348 0.0000 0.0000 0.0000
# 2 -3.6053 18.3794 11.4379 0.0000 0.0000 0.0000
# 3 44.7348 11.4379 69.0555 0.0000 0.0000 0.0000
# 4 0.0000 0.0000 0.0000 55.2585 0.0000 0.0000
# 5 0.0000 0.0000 0.0000 0.0000 24.1986 0.0000
# 6 0.0000 0.0000 0.0000 0.0000 0.0000 11.2736
#
#
#
# Elastic Compliance Matrix: (Units=1/GPa)
#
#
# Indices 1 2 3 4 5 6 
#
# 1 0.016738 0.011184 -0.012695 0.000000 0.000000 0.000000
# 2 0.011184 0.068135 -0.018531 0.000000 0.000000 0.000000
# 3 -0.012695 -0.018531 0.025775 0.000000 0.000000 0.000000
# 4 0.000000 0.000000 0.000000 0.018097 0.000000 0.000000
# 5 0.000000 0.000000 0.000000 0.000000 0.041325 0.000000
# 6 0.000000 0.000000 0.000000 0.000000 0.000000 0.088702
#
#
# Mechanical properties :
#
#
# Convention : Reuss Voigt Hill
#
# Bulk Modulus (GPa) = 14.17166 32.07266 23.12216
# Shear Modulus (GPa) = 15.50982 26.87626 21.19304
#
# Velocity S-wave (km/s) = 2.79383 3.67774 3.26583
# Velocity P-wave (km/s) = 4.18800 5.84597 5.08501
#
# Compressibility (1/GPa) = 0.07056337
#
# Stress axis : x y z
#
# Youngs Moduli (GPa) = 59.74454 14.67679 38.79781
#
# Poissons Ratio (x) = -0.16415 0.49256
# Poissons Ratio (y) = -0.66819 0.71895
# Poissons Ratio (z) = 0.75848 0.27197
#
# Static dielectric constant tensor:
#      x y z
#    x 1.727520 0.000000 0.000000 
#    y 0.000000 1.705980 0.000000 
#    z 0.000000 0.000000 1.662560 
# 
# From -- ./inp_files/6973.got.cif
#   From: 2010.05.17/outbox.cif.g08.bks.cpg/sg58_4_cif.got.tgz:6973.got - 2010.06.03 14:20:14.
