data_PCOD9441638
_publ_section_title
;
Structure prediction by ZEFSAII (Michael W. Deem and Ramdas Pophale) SiO2 
 PCOD9441638
Probable space group: P N N M
;
_chemical_formula_sum "Si O2"
_cell_formula_units_Z 40
_cell_length_a 26.208851
_cell_length_b 6.964242
_cell_length_c 9.578808
_cell_angle_alpha 90.000000
_cell_angle_beta 90.000000
_cell_angle_gamma 90.000000
_cell_volume 1748.369832
_symmetry_space_group_name_H-M "P N N M"
_symmetry_group_IT_number 58
_symmetry_cell_setting 'orthorhombic'
loop_
_space_group_symop_operation_xyz
x,y,z
-x,-y,z
1/2+x,1/2-y,1/2-z
1/2-x,1/2+y,1/2-z
-x,-y,-z
x,y,-z
1/2-x,1/2+y,1/2+z
1/2+x,1/2-y,1/2+z
loop_
_atom_site_type_symbol
_atom_site_label
_atom_site_fract_x
_atom_site_fract_y
_atom_site_fract_z
Si Si1 0.889374 0.641658 0.838921
Si Si2 0.485128 0.772541 0.159074
Si Si3 0.299674 0.981357 0.839251
Si Si4 0.686268 0.654721 0.660264
Si Si5 0.423455 0.312244 0.344157
O O1 0.935707 0.740185 0.756936
O O2 0.835466 0.650483 0.757902
O O3 0.905500 0.412982 0.840268
O O4 0.885001 0.698434 0.000000
O O5 0.533812 0.669088 0.227581
O O6 0.500000 0.000000 0.156708
O O7 0.475043 0.715051 0.000000
O O8 0.238873 0.958319 0.827213
O O9 0.310664 0.192351 0.783411
O O10 0.314349 0.953145 0.000000
O O11 0.687795 0.737339 0.500000
O O12 0.629408 0.571175 0.672244
O O13 0.444371 0.346806 0.500000
#
# Coordination Sequence:
#
# PCOD9441638 Si02
#       5
#     8   8   8   8   8
#     4   9  16  26  40  59  86 118 148 181 225 272
#     4   9  15  22  35  58  85 111 143 182 222 266
#     4  10  19  31  48  69  93 122 156 192 227 267
#     4   9  19  33  47  67  95 124 154 189 229 272
#     4   8  14  25  39  56  83 116 145 177 221 269
#
# _framework density 22.878456
#
# number of rings (size 3 to 8) (size 9 to 14) (size 15 to 20)
#    0.000    3.000    0.000    3.000    0.000    8.800 
#    0.000    0.000    0.000    0.000    0.000    1.400 
#    0.000   11.200    0.000    0.000    0.000    0.000 
#
# Total GULP energy -223367.350502 kJ/mol
# GULP energy per Si atom -5584.183763 kJ/mol
# Density = 2.282638 g / cm^3
# Si number density = 22.878456 Si / 1000 Ang^3
#
#
#
# Elastic Constant Matrix: (Units=GPa)
#
#
# Indices 1 2 3 4 5 6 
#
# 1 162.4708 24.7423 118.5139 0.0000 0.0000 0.0000
# 2 24.7423 48.1715 23.7921 0.0000 0.0000 0.0000
# 3 118.5139 23.7921 192.0090 0.0000 0.0000 0.0000
# 4 0.0000 0.0000 0.0000 10.1481 0.0000 0.0000
# 5 0.0000 0.0000 0.0000 0.0000 49.5189 0.0000
# 6 0.0000 0.0000 0.0000 0.0000 0.0000 39.0453
#
#
#
# Elastic Compliance Matrix: (Units=1/GPa)
#
#
# Indices 1 2 3 4 5 6 
#
# 1 0.011483 -0.002554 -0.006771 0.000000 0.000000 0.000000
# 2 -0.002554 0.022680 -0.001234 0.000000 0.000000 0.000000
# 3 -0.006771 -0.001234 0.009540 0.000000 0.000000 0.000000
# 4 0.000000 0.000000 0.000000 0.098541 0.000000 0.000000
# 5 0.000000 0.000000 0.000000 0.000000 0.020194 0.000000
# 6 0.000000 0.000000 0.000000 0.000000 0.000000 0.025611
#
#
# Mechanical properties :
#
#
# Convention : Reuss Voigt Hill
#
# Bulk Modulus (GPa) = 44.27586 81.86089 63.06837
# Shear Modulus (GPa) = 23.07368 35.44932 29.26150
#
# Velocity S-wave (km/s) = 3.17919 3.94059 3.58019
# Velocity P-wave (km/s) = 5.73332 7.52083 6.68707
#
# Compressibility (1/GPa) = 0.02258567
#
# Stress axis : x y z
#
# Youngs Moduli (GPa) = 87.08382 44.09102 104.81639
#
# Poissons Ratio (x) = 0.11260 0.70975
# Poissons Ratio (y) = 0.22239 0.12936
# Poissons Ratio (z) = 0.58967 0.05441
#
# Static dielectric constant tensor:
#      x y z
#    x 1.848340 0.000000 0.000000 
#    y 0.000000 1.982540 0.000000 
#    z 0.000000 0.000000 1.772790 
# 
# From -- ./inp_files/2442.got.cif
#   From: 2010.05.17/outbox.cif.g08.bks.cpg/sg58_2_cif.got.tgz:2442.got - 2010.06.03 14:20:14.
