data_PCOD9441387
_publ_section_title
;
Structure prediction by ZEFSAII (Michael W. Deem and Ramdas Pophale) SiO2 
 PCOD9441387
Probable space group: P N N M
;
_chemical_formula_sum "Si O2"
_cell_formula_units_Z 40
_cell_length_a 23.507794
_cell_length_b 8.474541
_cell_length_c 11.083168
_cell_angle_alpha 90.000000
_cell_angle_beta 90.000000
_cell_angle_gamma 90.000000
_cell_volume 2207.963948
_symmetry_space_group_name_H-M "P N N M"
_symmetry_group_IT_number 58
_symmetry_cell_setting 'orthorhombic'
loop_
_space_group_symop_operation_xyz
x,y,z
-x,-y,z
1/2+x,1/2-y,1/2-z
1/2-x,1/2+y,1/2-z
-x,-y,-z
x,y,-z
1/2-x,1/2+y,1/2+z
1/2+x,1/2-y,1/2+z
loop_
_atom_site_type_symbol
_atom_site_label
_atom_site_fract_x
_atom_site_fract_y
_atom_site_fract_z
Si Si1 0.700038 0.861756 0.139867
Si Si2 0.071591 0.705659 0.630938
Si Si3 0.696285 0.116983 0.356832
Si Si4 0.422581 0.715268 0.631940
Si Si5 0.500000 0.000000 0.689573
Si Si6 0.500000 0.500000 0.202382
O O1 0.638820 0.775556 0.149553
O O2 0.750692 0.736184 0.150429
O O3 0.702417 0.985926 0.251149
O O4 0.702885 0.927305 0.000000
O O5 0.063742 0.629945 0.500000
O O6 0.045979 0.590689 0.729690
O O7 0.035857 0.866637 0.634468
O O8 0.692664 0.062229 0.500000
O O9 0.638445 0.215106 0.331471
O O10 0.415971 0.641443 0.500000
O O11 0.465108 0.864120 0.624417
O O12 0.453024 0.592579 0.719104
#
# Coordination Sequence:
#
# PCOD9441387 Si02
#       6
#     8   8   8   8   4   4
#     4  10  22  40  61  84 114 149 190 236 283 334
#     4  10  20  36  55  81 112 145 185 231 280 335
#     4  10  22  40  61  84 114 149 190 236 283 334
#     4  10  20  36  55  81 112 145 185 231 280 335
#     4  10  18  34  58  80 104 146 182 232 278 342
#     4  10  22  34  54  84 112 150 182 228 280 336
#
# _framework density 18.116237999999999
#
# number of rings (size 3 to 8) (size 9 to 14) (size 15 to 20)
#    0.000    2.000    2.000    1.200    2.800    0.800 
#    0.000    2.000    0.000    0.000    0.000    0.000 
#    0.000    0.000    0.000    0.000    0.000    0.000 
#
# Total GULP energy -222722.066064 kJ/mol
# GULP energy per Si atom -5568.051652 kJ/mol
# Density = 1.807501 g / cm^3
# Si number density = 18.116238 Si / 1000 Ang^3
#
#
#
# Elastic Constant Matrix: (Units=GPa)
#
#
# Indices 1 2 3 4 5 6 
#
# 1 118.6109 17.7751 41.1349 0.0000 0.0000 0.0000
# 2 17.7751 45.5217 44.7296 0.0000 0.0000 0.0000
# 3 41.1349 44.7296 116.5486 0.0000 0.0000 0.0000
# 4 0.0000 0.0000 0.0000 -1.2944 0.0000 0.0000
# 5 0.0000 0.0000 0.0000 0.0000 16.4171 0.0000
# 6 0.0000 0.0000 0.0000 0.0000 0.0000 25.0802
#
#
#
# Elastic Compliance Matrix: (Units=1/GPa)
#
#
# Indices 1 2 3 4 5 6 
#
# 1 0.009620 -0.000675 -0.003136 0.000000 0.000000 0.000000
# 2 -0.000675 0.035314 -0.013315 0.000000 0.000000 0.000000
# 3 -0.003136 -0.013315 0.014797 0.000000 0.000000 0.000000
# 4 0.000000 0.000000 0.000000 -0.772534 0.000000 0.000000
# 5 0.000000 0.000000 0.000000 0.000000 0.060912 0.000000
# 6 0.000000 0.000000 0.000000 0.000000 0.000000 0.039872
#
#
# Mechanical properties :
#
#
# Convention : Reuss Voigt Hill
#
# Bulk Modulus (GPa) = 39.24739 54.21784 46.73261
# Shear Modulus (GPa) = -8.78312 19.84335 5.53012
#
# Velocity S-wave (km/s) = -2.20425 3.31318 1.74906
# Velocity P-wave (km/s) = 3.90294 6.68049 5.47092
#
# Compressibility (1/GPa) = 0.02547940
#
# Stress axis : x y z
#
# Youngs Moduli (GPa) = 103.95323 28.31719 67.58054
#
# Poissons Ratio (x) = 0.01910 0.21196
# Poissons Ratio (y) = 0.07012 0.89984
# Poissons Ratio (z) = 0.32603 0.37704
#
# Static dielectric constant tensor:
#      x y z
#    x 1.612870 0.000000 0.000000 
#    y 0.000000 1.583730 0.000000 
#    z 0.000000 0.000000 1.647540 
# 
# From -- ./inp_files/16903.got.cif
#   From: 2010.05.17/outbox.cif.g08.bks.cpg/sg58_9_cif.got.tgz:16903.got - 2010.06.03 14:20:14.
