data_PCOD9441411
_publ_section_title
;
Structure prediction by ZEFSAII (Michael W. Deem and Ramdas Pophale) SiO2 
 PCOD9441411
Probable space group: P N N M
;
_chemical_formula_sum "Si O2"
_cell_formula_units_Z 64
_cell_length_a 25.672979
_cell_length_b 7.616302
_cell_length_c 15.082272
_cell_angle_alpha 90.000000
_cell_angle_beta 90.000000
_cell_angle_gamma 90.000000
_cell_volume 2949.084324
_symmetry_space_group_name_H-M "P N N M"
_symmetry_group_IT_number 58
_symmetry_cell_setting 'orthorhombic'
loop_
_space_group_symop_operation_xyz
x,y,z
-x,-y,z
1/2+x,1/2-y,1/2-z
1/2-x,1/2+y,1/2-z
-x,-y,-z
x,y,-z
1/2-x,1/2+y,1/2+z
1/2+x,1/2-y,1/2+z
loop_
_atom_site_type_symbol
_atom_site_label
_atom_site_fract_x
_atom_site_fract_y
_atom_site_fract_z
Si Si1 0.449628 0.375495 0.095264
Si Si2 0.249524 0.579736 0.399499
Si Si3 0.948954 0.384137 0.238787
Si Si4 0.164212 0.601326 0.737235
Si Si5 0.651974 0.489982 0.278626
Si Si6 0.766849 0.502735 0.905248
Si Si7 0.943142 0.084348 0.896168
Si Si8 0.149144 0.138623 0.597305
O O1 0.500000 0.500000 0.098850
O O2 0.452808 0.250176 0.179005
O O3 0.397579 0.493983 0.094800
O O4 0.450592 0.279269 0.000000
O O5 0.250895 0.512041 0.500000
O O6 0.195170 0.542683 0.350273
O O7 0.296800 0.516158 0.339126
O O8 0.257640 0.789183 0.401414
O O9 0.893383 0.475887 0.252766
O O10 0.945196 0.276045 0.147595
O O11 0.000000 0.500000 0.238612
O O12 0.156252 0.813703 0.736182
O O13 0.199925 0.558405 0.821819
O O14 0.601201 0.484820 0.340521
O O15 0.648629 0.336482 0.205018
O O16 0.709171 0.422791 0.907026
O O17 0.792845 0.459212 0.000000
O O18 0.930474 0.086724 0.000000
O O19 0.000000 0.000000 0.884248
O O20 0.141046 0.233783 0.500000
#
# Coordination Sequence:
#
# PCOD9441411 Si02
#       8
#     8   8   8   8   8   8   8   8
#     4  10  20  38  64  89 114 151 197 240 288 347
#     4  11  21  36  58  86 115 150 192 235 280 334
#     4  11  24  39  59  88 118 156 191 240 298 351
#     4  11  21  39  57  82 114 155 188 228 286 349
#     4  11  21  36  61  88 115 147 192 243 284 335
#     4  10  21  37  57  82 116 152 188 228 283 347
#     4  10  22  41  62  84 113 155 202 249 294 339
#     4  10  18  34  61  89 115 149 190 232 285 344
#
# _framework density 21.701650000000001
#
# number of rings (size 3 to 8) (size 9 to 14) (size 15 to 20)
#    0.000    1.500    5.000    0.750    0.000    4.500 
#    0.000    1.250    0.000    0.000    0.000    0.000 
#    0.000    0.000    0.000    0.000    0.000    0.000 
#
# Total GULP energy -356996.101689 kJ/mol
# GULP energy per Si atom -5578.064089 kJ/mol
# Density = 2.165226 g / cm^3
# Si number density = 21.701650 Si / 1000 Ang^3
#
#
#
# Elastic Constant Matrix: (Units=GPa)
#
#
# Indices 1 2 3 4 5 6 
#
# 1 148.1628 22.0929 75.4937 0.0000 0.0000 0.0000
# 2 22.0929 22.6343 7.0585 0.0000 0.0000 0.0000
# 3 75.4937 7.0585 157.3035 0.0000 0.0000 0.0000
# 4 0.0000 0.0000 0.0000 8.2041 0.0000 0.0000
# 5 0.0000 0.0000 0.0000 0.0000 34.2984 0.0000
# 6 0.0000 0.0000 0.0000 0.0000 0.0000 28.0869
#
#
#
# Elastic Compliance Matrix: (Units=1/GPa)
#
#
# Indices 1 2 3 4 5 6 
#
# 1 0.010389 -0.008708 -0.004595 0.000000 0.000000 0.000000
# 2 -0.008708 0.052106 0.001841 0.000000 0.000000 0.000000
# 3 -0.004595 0.001841 0.008480 0.000000 0.000000 0.000000
# 4 0.000000 0.000000 0.000000 0.121891 0.000000 0.000000
# 5 0.000000 0.000000 0.000000 0.000000 0.029156 0.000000
# 6 0.000000 0.000000 0.000000 0.000000 0.000000 0.035604
#
#
# Mechanical properties :
#
#
# Convention : Reuss Voigt Hill
#
# Bulk Modulus (GPa) = 20.81118 59.71010 40.26064
# Shear Modulus (GPa) = 16.85960 29.01490 22.93725
#
# Velocity S-wave (km/s) = 2.79028 3.66045 3.25458
# Velocity P-wave (km/s) = 4.47117 6.74085 5.71972
#
# Compressibility (1/GPa) = 0.04805110
#
# Stress axis : x y z
#
# Youngs Moduli (GPa) = 96.25374 19.19163 117.92553
#
# Poissons Ratio (x) = 0.16711 0.54190
# Poissons Ratio (y) = 0.83814 -0.21709
# Poissons Ratio (z) = 0.44231 -0.03533
#
# Static dielectric constant tensor:
#      x y z
#    x 1.766230 0.000000 0.000000 
#    y 0.000000 1.822200 0.000000 
#    z 0.000000 0.000000 1.856810 
# 
# From -- ./inp_files/23526.got.cif
#   From: 2010.05.17/outbox.cif.g08.bks.cpg/sg58_12_cif.got.tgz:23526.got - 2010.06.03 14:20:14.
