data_PCOD9441946
_publ_section_title
;
Structure prediction by ZEFSAII (Michael W. Deem and Ramdas Pophale) SiO2 
 PCOD9441946
Probable space group: P N N M
;
_chemical_formula_sum "Si O2"
_cell_formula_units_Z 64
_cell_length_a 9.237086
_cell_length_b 21.413234
_cell_length_c 19.296261
_cell_angle_alpha 90.000000
_cell_angle_beta 90.000000
_cell_angle_gamma 90.000000
_cell_volume 3816.721002
_symmetry_space_group_name_H-M "P N N M"
_symmetry_group_IT_number 58
_symmetry_cell_setting 'orthorhombic'
loop_
_space_group_symop_operation_xyz
x,y,z
-x,-y,z
1/2+x,1/2-y,1/2-z
1/2-x,1/2+y,1/2-z
-x,-y,-z
x,y,-z
1/2-x,1/2+y,1/2+z
1/2+x,1/2-y,1/2+z
loop_
_atom_site_type_symbol
_atom_site_label
_atom_site_fract_x
_atom_site_fract_y
_atom_site_fract_z
Si Si1 0.842068 0.177418 0.292722
Si Si2 0.329950 0.722968 0.210235
Si Si3 0.275731 0.641139 0.337170
Si Si4 0.953850 0.428086 0.577955
Si Si5 0.815734 0.731196 0.081801
Si Si6 0.652908 0.753677 0.420403
Si Si7 0.773985 0.108860 0.077646
Si Si8 0.940402 0.066789 0.798525
O O1 0.726622 0.211940 0.242592
O O2 0.776084 0.185026 0.369318
O O3 0.873980 0.108841 0.262825
O O4 0.997200 0.213362 0.288283
O O5 0.259270 0.671851 0.261509
O O6 0.264917 0.718289 0.133947
O O7 0.280181 0.699242 0.390350
O O8 0.426446 0.605068 0.331760
O O9 0.153681 0.594951 0.363597
O O10 0.890656 0.421174 0.500000
O O11 0.100686 0.387878 0.580880
O O12 0.000000 0.500000 0.585503
O O13 0.988613 0.724798 0.093695
O O14 0.787182 0.725425 0.000000
O O15 0.688691 0.768150 0.500000
O O16 0.661725 0.678253 0.413174
O O17 0.827718 0.063760 0.138150
O O18 0.812481 0.086567 0.000000
O O19 0.000000 0.000000 0.776104
#
# Coordination Sequence:
#
# PCOD9441946 Si02
#       8
#     8   8   8   8   8   8   8   8
#     4  10  21  34  52  77 104 132 177 216 264 320
#     4  10  19  33  50  73 100 132 166 216 264 305
#     4  10  20  33  50  73 103 133 174 214 254 306
#     4  10  21  34  46  69 105 143 182 212 241 294
#     4  10  20  34  54  76 101 130 166 218 268 321
#     4  10  19  33  51  76 105 130 166 210 265 320
#     4  10  20  32  48  71 102 139 178 214 248 298
#     4  11  21  35  53  73 104 143 181 216 255 308
#
# _framework density 16.768319999999999
#
# number of rings (size 3 to 8) (size 9 to 14) (size 15 to 20)
#    0.000    1.875    2.500    2.625    3.500    2.250 
#    0.000    0.000    0.000    0.375    0.000    0.000 
#    0.000    8.500    0.000    0.000    0.000    0.000 
#
# Total GULP energy -356937.483239 kJ/mol
# GULP energy per Si atom -5577.148176 kJ/mol
# Density = 1.673015 g / cm^3
# Si number density = 16.768320 Si / 1000 Ang^3
#
#
#
# Elastic Constant Matrix: (Units=GPa)
#
#
# Indices 1 2 3 4 5 6 
#
# 1 51.2582 20.5847 40.8057 0.0000 0.0000 0.0000
# 2 20.5847 39.2518 26.6586 0.0000 0.0000 0.0000
# 3 40.8057 26.6586 91.9432 0.0000 0.0000 0.0000
# 4 0.0000 0.0000 0.0000 14.5601 0.0000 0.0000
# 5 0.0000 0.0000 0.0000 0.0000 28.5364 0.0000
# 6 0.0000 0.0000 0.0000 0.0000 0.0000 19.1325
#
#
#
# Elastic Compliance Matrix: (Units=1/GPa)
#
#
# Indices 1 2 3 4 5 6 
#
# 1 0.032555 -0.009040 -0.011827 0.000000 0.000000 0.000000
# 2 -0.009040 0.034234 -0.005914 0.000000 0.000000 0.000000
# 3 -0.011827 -0.005914 0.017840 0.000000 0.000000 0.000000
# 4 0.000000 0.000000 0.000000 0.068681 0.000000 0.000000
# 5 0.000000 0.000000 0.000000 0.000000 0.035043 0.000000
# 6 0.000000 0.000000 0.000000 0.000000 0.000000 0.052267
#
#
# Mechanical properties :
#
#
# Convention : Reuss Voigt Hill
#
# Bulk Modulus (GPa) = 32.18886 39.83902 36.01394
# Shear Modulus (GPa) = 16.41835 18.73941 17.57888
#
# Velocity S-wave (km/s) = 3.13250 3.34660 3.24132
# Velocity P-wave (km/s) = 5.68518 6.22439 5.96089
#
# Compressibility (1/GPa) = 0.03106665
#
# Stress axis : x y z
#
# Youngs Moduli (GPa) = 30.71753 29.21081 56.05359
#
# Poissons Ratio (x) = 0.26406 0.66295
# Poissons Ratio (y) = 0.27768 0.33150
# Poissons Ratio (z) = 0.36330 0.17275
#
# Static dielectric constant tensor:
#      x y z
#    x 1.595430 0.000000 0.000000 
#    y 0.000000 1.566380 0.000000 
#    z 0.000000 0.000000 1.580760 
# 
# From -- ./inp_files/27553.got.cif
#   From: 2010.05.17/outbox.cif.g08.bks.cpg/sg58_14_cif.got.tgz:27553.got - 2010.06.03 14:20:14.
