data_PCOD9441898
_publ_section_title
;
Structure prediction by ZEFSAII (Michael W. Deem and Ramdas Pophale) SiO2 
 PCOD9441898
Probable space group: P N N M
;
_chemical_formula_sum "Si O2"
_cell_formula_units_Z 64
_cell_length_a 20.930848
_cell_length_b 15.382211
_cell_length_c 9.090871
_cell_angle_alpha 90.000000
_cell_angle_beta 90.000000
_cell_angle_gamma 90.000000
_cell_volume 2926.921557
_symmetry_space_group_name_H-M "P N N M"
_symmetry_group_IT_number 58
_symmetry_cell_setting 'orthorhombic'
loop_
_space_group_symop_operation_xyz
x,y,z
-x,-y,z
1/2+x,1/2-y,1/2-z
1/2-x,1/2+y,1/2-z
-x,-y,-z
x,y,-z
1/2-x,1/2+y,1/2+z
1/2+x,1/2-y,1/2+z
loop_
_atom_site_type_symbol
_atom_site_label
_atom_site_fract_x
_atom_site_fract_y
_atom_site_fract_z
Si Si1 0.180081 0.116494 0.177016
Si Si2 0.001763 0.906005 0.333766
Si Si3 0.326352 0.312831 0.660412
Si Si4 0.641667 0.535731 0.162597
Si Si5 0.806481 0.500861 0.677202
Si Si6 0.053919 0.568178 0.676506
Si Si7 0.028841 0.744622 0.834795
Si Si8 0.791839 0.690752 0.172221
O O1 0.248365 0.067214 0.213775
O O2 0.174449 0.218579 0.214740
O O3 0.131764 0.061316 0.278582
O O4 0.170876 0.108582 0.000000
O O5 0.973989 0.909566 0.500000
O O6 0.078638 0.907164 0.356963
O O7 0.988858 0.821865 0.239097
O O8 0.000000 0.000000 0.256148
O O9 0.296651 0.297413 0.500000
O O10 0.328310 0.415411 0.697009
O O11 0.396797 0.274327 0.656727
O O12 0.281715 0.282088 0.792132
O O13 0.673653 0.534943 0.000000
O O14 0.806278 0.510007 0.500000
O O15 0.874420 0.458410 0.723987
O O16 0.804444 0.598819 0.746511
O O17 0.055181 0.571208 0.500000
O O18 0.030899 0.659647 0.737772
O O19 0.000000 0.500000 0.723379
O O20 0.006152 0.728026 0.000000
O O21 0.801164 0.676704 0.000000
#
# Coordination Sequence:
#
# PCOD9441898 Si02
#       8
#     8   8   8   8   8   8   8   8
#     4  10  21  36  54  80 118 154 183 227 290 351
#     4   9  19  37  59  84 116 152 193 240 288 343
#     4  10  19  33  54  81 115 149 183 230 285 339
#     4  10  19  32  54  81 108 144 187 231 277 336
#     4  10  21  39  61  84 114 154 196 246 298 348
#     4  10  22  42  65  86 112 155 207 254 299 350
#     4  10  21  36  59  90 118 152 196 243 297 350
#     4  11  22  35  55  85 116 151 190 230 283 347
#
# _framework density 21.865977000000001
#
# number of rings (size 3 to 8) (size 9 to 14) (size 15 to 20)
#    0.000    2.000    1.250    2.250    0.000    5.000 
#    2.250    0.000    0.000    0.000    0.000    0.000 
#    0.000    0.000    0.000    0.000    0.000    0.000 
#
# Total GULP energy -356314.369069 kJ/mol
# GULP energy per Si atom -5567.412017 kJ/mol
# Density = 2.181621 g / cm^3
# Si number density = 21.865977 Si / 1000 Ang^3
#
#
#
# Elastic Constant Matrix: (Units=GPa)
#
#
# Indices 1 2 3 4 5 6 
#
# 1 24.3516 4.3630 1.7983 0.0000 0.0000 0.0000
# 2 4.3630 112.1763 8.4795 0.0000 0.0000 0.0000
# 3 1.7983 8.4795 10.0941 0.0000 0.0000 0.0000
# 4 0.0000 0.0000 0.0000 29.6067 0.0000 0.0000
# 5 0.0000 0.0000 0.0000 0.0000 212.6015 0.0000
# 6 0.0000 0.0000 0.0000 0.0000 0.0000 28.8472
#
#
#
# Elastic Compliance Matrix: (Units=1/GPa)
#
#
# Indices 1 2 3 4 5 6 
#
# 1 0.041747 -0.001133 -0.006485 0.000000 0.000000 0.000000
# 2 -0.001133 0.009550 -0.007820 0.000000 0.000000 0.000000
# 3 -0.006485 -0.007820 0.106792 0.000000 0.000000 0.000000
# 4 0.000000 0.000000 0.000000 0.033776 0.000000 0.000000
# 5 0.000000 0.000000 0.000000 0.000000 0.004704 0.000000
# 6 0.000000 0.000000 0.000000 0.000000 0.000000 0.034665
#
#
# Mechanical properties :
#
#
# Convention : Reuss Voigt Hill
#
# Bulk Modulus (GPa) = 7.86094 19.54483 13.70288
# Shear Modulus (GPa) = 16.41951 63.00983 39.71467
#
# Velocity S-wave (km/s) = 2.74326 5.37391 4.26640
# Velocity P-wave (km/s) = 3.69281 6.88935 5.52720
#
# Compressibility (1/GPa) = 0.12721123
#
# Stress axis : x y z
#
# Youngs Moduli (GPa) = 23.95376 104.71469 9.36399
#
# Poissons Ratio (x) = 0.11869 0.06073
# Poissons Ratio (y) = 0.02715 0.07323
# Poissons Ratio (z) = 0.15534 0.81889
#
# Static dielectric constant tensor:
#      x y z
#    x 2.014810 0.000000 0.000000 
#    y 0.000000 1.829770 0.000000 
#    z 0.000000 0.000000 1.790440 
# 
# From -- ./inp_files/10034.got.cif
#   From: 2010.05.17/outbox.cif.g08.bks.cpg/sg58_6_cif.got.tgz:10034.got - 2010.06.03 14:20:14.
