data_PCOD9441468
_publ_section_title
;
Structure prediction by ZEFSAII (Michael W. Deem and Ramdas Pophale) SiO2 
 PCOD9441468
Probable space group: P N N M
;
_chemical_formula_sum "Si O2"
_cell_formula_units_Z 48
_cell_length_a 8.483890
_cell_length_b 14.415872
_cell_length_c 18.670614
_cell_angle_alpha 90.000000
_cell_angle_beta 90.000000
_cell_angle_gamma 90.000000
_cell_volume 2283.465986
_symmetry_space_group_name_H-M "P N N M"
_symmetry_group_IT_number 58
_symmetry_cell_setting 'orthorhombic'
loop_
_space_group_symop_operation_xyz
x,y,z
-x,-y,z
1/2+x,1/2-y,1/2-z
1/2-x,1/2+y,1/2-z
-x,-y,-z
x,y,-z
1/2-x,1/2+y,1/2+z
1/2+x,1/2-y,1/2+z
loop_
_atom_site_type_symbol
_atom_site_label
_atom_site_fract_x
_atom_site_fract_y
_atom_site_fract_z
Si Si1 0.186799 0.979086 0.157698
Si Si2 0.383617 0.413299 0.000000
Si Si3 0.627294 0.791382 0.000000
Si Si4 0.340278 0.438142 0.500000
Si Si5 0.865065 0.331701 0.665364
Si Si6 0.672348 0.170601 0.744499
Si Si7 0.496741 0.754698 0.500000
Si Si8 0.909580 0.591201 0.898085
O O1 0.288525 0.067925 0.182835
O O2 0.209591 0.888326 0.206265
O O3 0.000000 0.000000 0.156813
O O4 0.239622 0.960061 0.075525
O O5 0.500000 0.500000 0.000000
O O6 0.264172 0.413412 0.067318
O O7 0.455311 0.310205 0.000000
O O8 0.601439 0.831421 0.920409
O O9 0.818114 0.782784 0.000000
O O10 0.500000 0.500000 0.500000
O O11 0.387102 0.330408 0.500000
O O12 0.744666 0.254035 0.696996
O O13 0.027067 0.305773 0.704494
O O14 0.604394 0.100585 0.685638
O O15 0.501968 0.821430 0.568575
O O16 0.000000 0.500000 0.919472
#
# Coordination Sequence:
#
# PCOD9441468 Si02
#       8
#     8   4   4   4   8   8   4   8
#     4  11  24  43  68 101 133 175 226 277 338 404
#     4  10  20  39  65  93 133 164 230 268 335 394
#     4  10  20  43  65  94 131 184 221 279 344 392
#     4  10  22  37  68 100 127 171 232 270 330 409
#     4  12  24  46  70  96 141 181 227 285 341 410
#     4  12  26  43  67 100 134 178 225 277 348 405
#     4  10  18  37  65  91 128 176 226 263 330 408
#     4  10  21  41  64  91 130 179 220 270 332 405
#
# _framework density 21.020676000000002
#
# number of rings (size 3 to 8) (size 9 to 14) (size 15 to 20)
#    0.000    1.333    3.333    6.000    2.333    1.333 
#    6.000    3.333    0.000    0.000    0.000    0.000 
#    0.000    0.000    0.000    0.000    0.000    0.000 
#
# Total GULP energy -267818.873120 kJ/mol
# GULP energy per Si atom -5579.559857 kJ/mol
# Density = 2.097283 g / cm^3
# Si number density = 21.020676 Si / 1000 Ang^3
#
#
#
# Elastic Constant Matrix: (Units=GPa)
#
#
# Indices 1 2 3 4 5 6 
#
# 1 49.7609 30.6137 17.8500 0.0000 0.0000 0.0000
# 2 30.6137 104.2814 18.4365 0.0000 0.0000 0.0000
# 3 17.8500 18.4365 128.9996 0.0000 0.0000 0.0000
# 4 0.0000 0.0000 0.0000 22.8168 0.0000 0.0000
# 5 0.0000 0.0000 0.0000 0.0000 25.8520 0.0000
# 6 0.0000 0.0000 0.0000 0.0000 0.0000 38.4186
#
#
#
# Elastic Compliance Matrix: (Units=1/GPa)
#
#
# Indices 1 2 3 4 5 6 
#
# 1 0.025289 -0.006982 -0.002501 0.000000 0.000000 0.000000
# 2 -0.006982 0.011766 -0.000715 0.000000 0.000000 0.000000
# 3 -0.002501 -0.000715 0.008200 0.000000 0.000000 0.000000
# 4 0.000000 0.000000 0.000000 0.043827 0.000000 0.000000
# 5 0.000000 0.000000 0.000000 0.000000 0.038682 0.000000
# 6 0.000000 0.000000 0.000000 0.000000 0.000000 0.026029
#
#
# Mechanical properties :
#
#
# Convention : Reuss Voigt Hill
#
# Bulk Modulus (GPa) = 40.22951 46.31580 43.27265
# Shear Modulus (GPa) = 27.40093 31.82694 29.61393
#
# Velocity S-wave (km/s) = 3.61435 3.89534 3.75747
# Velocity P-wave (km/s) = 6.04960 6.50483 6.28134
#
# Compressibility (1/GPa) = 0.02485737
#
# Stress axis : x y z
#
# Youngs Moduli (GPa) = 39.54342 84.99403 121.94610
#
# Poissons Ratio (x) = 0.59340 0.30504
# Poissons Ratio (y) = 0.27608 0.08725
# Poissons Ratio (z) = 0.09892 0.06081
#
# Static dielectric constant tensor:
#      x y z
#    x 1.801860 0.000000 0.000000 
#    y 0.000000 1.929760 0.000000 
#    z 0.000000 0.000000 1.764040 
# 
# From -- ./inp_files/25368.got.cif
#   From: 2010.05.17/outbox.cif.g08.bks.cpg/sg58_13_cif.got.tgz:25368.got - 2010.06.03 14:20:14.
