data_PCOD9441002
_publ_section_title
;
Structure prediction by ZEFSAII (Michael W. Deem and Ramdas Pophale) SiO2 
 PCOD9441002
Probable space group: P N N M
;
_chemical_formula_sum "Si O2"
_cell_formula_units_Z 64
_cell_length_a 26.013642
_cell_length_b 10.618174
_cell_length_c 13.615111
_cell_angle_alpha 90.000000
_cell_angle_beta 90.000000
_cell_angle_gamma 90.000000
_cell_volume 3760.730250
_symmetry_space_group_name_H-M "P N N M"
_symmetry_group_IT_number 58
_symmetry_cell_setting 'orthorhombic'
loop_
_space_group_symop_operation_xyz
x,y,z
-x,-y,z
1/2+x,1/2-y,1/2-z
1/2-x,1/2+y,1/2-z
-x,-y,-z
x,y,-z
1/2-x,1/2+y,1/2+z
1/2+x,1/2-y,1/2+z
loop_
_atom_site_type_symbol
_atom_site_label
_atom_site_fract_x
_atom_site_fract_y
_atom_site_fract_z
Si Si1 0.095429 0.207562 0.385796
Si Si2 0.510028 0.814574 0.886621
Si Si3 0.722205 0.763384 0.388310
Si Si4 0.680444 0.149957 0.207178
Si Si5 0.753452 0.559034 0.884774
Si Si6 0.113222 0.573931 0.617360
Si Si7 0.447482 0.448913 0.180452
Si Si8 0.846084 0.176318 0.287366
O O1 0.108658 0.236522 0.500000
O O2 0.142828 0.232403 0.313810
O O3 0.047977 0.295775 0.350299
O O4 0.074390 0.065619 0.381587
O O5 0.553848 0.907905 0.846763
O O6 0.534184 0.673887 0.879280
O O7 0.504045 0.847712 0.000000
O O8 0.706099 0.743988 0.500000
O O9 0.770454 0.674894 0.361814
O O10 0.678467 0.732018 0.310659
O O11 0.738619 0.909010 0.376265
O O12 0.704151 0.126668 0.315007
O O13 0.646541 0.032083 0.170888
O O14 0.697560 0.595459 0.842371
O O15 0.757493 0.592947 0.000000
O O16 0.112745 0.552267 0.500000
O O17 0.139254 0.707777 0.641802
O O18 0.500000 0.500000 0.230672
O O19 0.397784 0.399999 0.238129
#
# Coordination Sequence:
#
# PCOD9441002 Si02
#       8
#     8   8   8   8   8   8   8   8
#     4  10  18  29  47  73 104 138 165 197 242 292
#     4   8  16  28  45  71 103 135 166 194 237 299
#     4  10  20  35  52  71  96 128 168 210 247 290
#     4  11  21  32  49  74 101 130 167 203 248 299
#     4  10  21  37  54  71  96 132 173 211 246 289
#     4  10  18  30  46  72 106 134 158 196 245 297
#     4   9  17  30  50  75 104 132 167 203 242 295
#     4  10  19  32  52  75  98 130 168 201 248 299
#
# _framework density 17.017970999999999
#
# number of rings (size 3 to 8) (size 9 to 14) (size 15 to 20)
#    0.000    2.250    1.250    2.625    0.000    4.500 
#    0.000    1.875    0.000    0.375    0.000    8.750 
#    0.000    0.000    0.000    0.000    0.000    0.000 
#
# Total GULP energy -356423.699649 kJ/mol
# GULP energy per Si atom -5569.120307 kJ/mol
# Density = 1.697924 g / cm^3
# Si number density = 17.017971 Si / 1000 Ang^3
#
#
#
# Elastic Constant Matrix: (Units=GPa)
#
#
# Indices 1 2 3 4 5 6 
#
# 1 96.4524 15.4277 33.7637 0.0000 0.0000 0.0000
# 2 15.4277 59.4161 16.3455 0.0000 0.0000 0.0000
# 3 33.7637 16.3455 76.8879 0.0000 0.0000 0.0000
# 4 0.0000 0.0000 0.0000 18.4260 0.0000 0.0000
# 5 0.0000 0.0000 0.0000 0.0000 14.4104 0.0000
# 6 0.0000 0.0000 0.0000 0.0000 0.0000 35.7284
#
#
#
# Elastic Compliance Matrix: (Units=1/GPa)
#
#
# Indices 1 2 3 4 5 6 
#
# 1 0.012436 -0.001834 -0.005071 0.000000 0.000000 0.000000
# 2 -0.001834 0.018146 -0.003052 0.000000 0.000000 0.000000
# 3 -0.005071 -0.003052 0.015882 0.000000 0.000000 0.000000
# 4 0.000000 0.000000 0.000000 0.054271 0.000000 0.000000
# 5 0.000000 0.000000 0.000000 0.000000 0.069394 0.000000
# 6 0.000000 0.000000 0.000000 0.000000 0.000000 0.027989
#
#
# Mechanical properties :
#
#
# Convention : Reuss Voigt Hill
#
# Bulk Modulus (GPa) = 37.66585 40.42556 39.04571
# Shear Modulus (GPa) = 22.03768 24.86092 23.44930
#
# Velocity S-wave (km/s) = 3.60247 3.82627 3.71605
# Velocity P-wave (km/s) = 6.28369 6.58230 6.43473
#
# Compressibility (1/GPa) = 0.02654925
#
# Stress axis : x y z
#
# Youngs Moduli (GPa) = 80.40921 55.10739 62.96529
#
# Poissons Ratio (x) = 0.10107 0.31931
# Poissons Ratio (y) = 0.14748 0.19219
# Poissons Ratio (z) = 0.40778 0.16821
#
# Static dielectric constant tensor:
#      x y z
#    x 1.617340 0.000000 0.000000 
#    y 0.000000 1.634520 0.000000 
#    z 0.000000 0.000000 1.526530 
# 
# From -- ./inp_files/17552.got.cif
#   From: 2010.05.17/outbox.cif.g08.bks.cpg/sg58_9_cif.got.tgz:17552.got - 2010.06.03 14:20:14.
