data_PCOD9441720
_publ_section_title
;
Structure prediction by ZEFSAII (Michael W. Deem and Ramdas Pophale) SiO2 
 PCOD9441720
Probable space group: P N N M
;
_chemical_formula_sum "Si O2"
_cell_formula_units_Z 64
_cell_length_a 12.213882
_cell_length_b 29.909291
_cell_length_c 8.949673
_cell_angle_alpha 90.000000
_cell_angle_beta 90.000000
_cell_angle_gamma 90.000000
_cell_volume 3269.392075
_symmetry_space_group_name_H-M "P N N M"
_symmetry_group_IT_number 58
_symmetry_cell_setting 'orthorhombic'
loop_
_space_group_symop_operation_xyz
x,y,z
-x,-y,z
1/2+x,1/2-y,1/2-z
1/2-x,1/2+y,1/2-z
-x,-y,-z
x,y,-z
1/2-x,1/2+y,1/2+z
1/2+x,1/2-y,1/2+z
loop_
_atom_site_type_symbol
_atom_site_label
_atom_site_fract_x
_atom_site_fract_y
_atom_site_fract_z
Si Si1 0.653551 0.618327 0.322157
Si Si2 0.763396 0.526869 0.679120
Si Si3 0.043359 0.721263 0.678952
Si Si4 0.977408 0.566473 0.827836
Si Si5 0.207370 0.570568 0.676474
Si Si6 0.239636 0.665401 0.822903
Si Si7 0.636521 0.162555 0.327500
Si Si8 0.988786 0.819547 0.322148
O O1 0.657775 0.622524 0.500000
O O2 0.678303 0.566440 0.284407
O O3 0.751437 0.647548 0.250430
O O4 0.541820 0.638563 0.260536
O O5 0.785352 0.529299 0.500000
O O6 0.874124 0.538899 0.767462
O O7 0.730610 0.475854 0.711707
O O8 0.041658 0.718135 0.500000
O O9 0.144831 0.693217 0.742226
O O10 0.047814 0.773389 0.721857
O O11 0.931591 0.700306 0.743260
O O12 0.939523 0.618182 0.824681
O O13 0.081408 0.561469 0.721910
O O14 0.003560 0.555116 0.000000
O O15 0.216024 0.579462 0.500000
O O16 0.240844 0.614320 0.766884
O O17 0.359843 0.684910 0.792609
O O18 0.218414 0.666260 0.000000
O O19 0.656723 0.174675 0.500000
O O20 0.002461 0.825712 0.500000
#
# Coordination Sequence:
#
# PCOD9441720 Si02
#       8
#     8   8   8   8   8   8   8   8
#     4  10  21  39  63  88 119 159 205 250 298 356
#     4   9  20  36  55  84 120 159 202 249 302 358
#     4  11  23  40  63  91 119 154 198 245 302 367
#     4  10  19  31  51  83 121 157 195 242 295 355
#     4  11  21  35  57  84 119 160 202 251 302 357
#     4  11  24  43  63  88 123 159 198 250 306 362
#     4  10  20  35  57  87 123 159 193 240 297 353
#     4  10  25  45  63  87 121 157 200 252 304 361
#
# _framework density 19.575505
#
# number of rings (size 3 to 8) (size 9 to 14) (size 15 to 20)
#    0.000    1.750    1.250    2.625    1.750    6.000 
#    0.000    0.625    0.000    3.750    0.000    0.000 
#    0.000    0.000    0.000    0.000    0.000    0.000 
#
# Total GULP energy -357560.093492 kJ/mol
# GULP energy per Si atom -5586.876461 kJ/mol
# Density = 1.953095 g / cm^3
# Si number density = 19.575505 Si / 1000 Ang^3
#
#
#
# Elastic Constant Matrix: (Units=GPa)
#
#
# Indices 1 2 3 4 5 6 
#
# 1 23.8521 25.5594 19.8303 0.0000 0.0000 0.0000
# 2 25.5594 101.6811 33.4579 0.0000 0.0000 0.0000
# 3 19.8303 33.4579 49.3930 0.0000 0.0000 0.0000
# 4 0.0000 0.0000 0.0000 44.0739 0.0000 0.0000
# 5 0.0000 0.0000 0.0000 0.0000 29.8695 0.0000
# 6 0.0000 0.0000 0.0000 0.0000 0.0000 12.3873
#
#
#
# Elastic Compliance Matrix: (Units=1/GPa)
#
#
# Indices 1 2 3 4 5 6 
#
# 1 0.071278 -0.010939 -0.021207 0.000000 0.000000 0.000000
# 2 -0.010939 0.014334 -0.005318 0.000000 0.000000 0.000000
# 3 -0.021207 -0.005318 0.032362 0.000000 0.000000 0.000000
# 4 0.000000 0.000000 0.000000 0.022689 0.000000 0.000000
# 5 0.000000 0.000000 0.000000 0.000000 0.033479 0.000000
# 6 0.000000 0.000000 0.000000 0.000000 0.000000 0.080728
#
#
# Mechanical properties :
#
#
# Convention : Reuss Voigt Hill
#
# Bulk Modulus (GPa) = 23.23045 36.95791 30.09418
# Shear Modulus (GPa) = 14.52865 23.67138 19.10002
#
# Velocity S-wave (km/s) = 2.72726 3.48118 3.12702
# Velocity P-wave (km/s) = 4.67013 5.92273 5.33334
#
# Compressibility (1/GPa) = 0.04304694
#
# Stress axis : x y z
#
# Youngs Moduli (GPa) = 14.02954 69.76308 30.90020
#
# Poissons Ratio (x) = 0.76314 0.65530
# Poissons Ratio (y) = 0.15347 0.16433
# Poissons Ratio (z) = 0.29752 0.37100
#
# Static dielectric constant tensor:
#      x y z
#    x 1.664180 0.000000 0.000000 
#    y 0.000000 1.707270 0.000000 
#    z 0.000000 0.000000 1.653590 
# 
# From -- ./inp_files/4642.got.cif
#   From: 2010.05.17/outbox.cif.g08.bks.cpg/sg58_3_cif.got.tgz:4642.got - 2010.06.03 14:20:14.
