data_PCOD9441956
_publ_section_title
;
Structure prediction by ZEFSAII (Michael W. Deem and Ramdas Pophale) SiO2 
 PCOD9441956
Probable space group: P N N M
;
_chemical_formula_sum "Si O2"
_cell_formula_units_Z 64
_cell_length_a 9.284224
_cell_length_b 16.946919
_cell_length_c 20.774744
_cell_angle_alpha 90.000000
_cell_angle_beta 90.000000
_cell_angle_gamma 90.000000
_cell_volume 3268.677282
_symmetry_space_group_name_H-M "P N N M"
_symmetry_group_IT_number 58
_symmetry_cell_setting 'orthorhombic'
loop_
_space_group_symop_operation_xyz
x,y,z
-x,-y,z
1/2+x,1/2-y,1/2-z
1/2-x,1/2+y,1/2-z
-x,-y,-z
x,y,-z
1/2-x,1/2+y,1/2+z
1/2+x,1/2-y,1/2+z
loop_
_atom_site_type_symbol
_atom_site_label
_atom_site_fract_x
_atom_site_fract_y
_atom_site_fract_z
Si Si1 0.414410 0.420777 0.606363
Si Si2 0.007702 0.088305 0.642992
Si Si3 0.055767 0.745611 0.378505
Si Si4 0.261075 0.086021 0.250564
Si Si5 0.978149 0.697756 0.241043
Si Si6 0.137883 0.190582 0.866035
Si Si7 0.577631 0.080156 0.925007
Si Si8 0.713633 0.589752 0.256724
O O1 0.500000 0.500000 0.591355
O O2 0.522771 0.350655 0.587572
O O3 0.250827 0.423630 0.581978
O O4 0.395790 0.410694 0.683702
O O5 0.003567 0.168498 0.600840
O O6 0.867745 0.091620 0.689216
O O7 0.141860 0.091873 0.693050
O O8 0.000000 0.000000 0.612795
O O9 0.038235 0.747781 0.300691
O O10 0.222558 0.732217 0.396182
O O11 0.975936 0.664101 0.397237
O O12 0.403398 0.131619 0.271178
O O13 0.204947 0.125948 0.184233
O O14 0.290783 0.994622 0.238386
O O15 0.946851 0.748458 0.178687
O O16 0.827715 0.659095 0.262024
O O17 0.500000 0.000000 0.898473
O O18 0.539632 0.082612 0.000000
#
# Coordination Sequence:
#
# PCOD9441956 Si02
#       8
#     8   8   8   8   8   8   8   8
#     4  12  21  36  58  77 109 150 191 234 280 347
#     4  10  19  33  51  80 121 154 185 224 270 330
#     4  11  21  36  58  77 113 157 185 235 291 333
#     4  10  20  29  44  71 115 154 186 226 258 313
#     4  11  21  28  48  78 117 145 195 221 265 334
#     4  11  21  32  48  85 114 150 190 224 269 341
#     4  11  27  45  62  85 108 138 192 256 304 344
#     4  11  18  33  46  76 114 154 189 221 264 331
#
# _framework density 19.579785999999999
#
# number of rings (size 3 to 8) (size 9 to 14) (size 15 to 20)
#    0.000    1.125    6.250    1.500    5.250    0.250 
#    0.000    0.625    0.000    0.375    0.000    0.000 
#    0.000    1.000    0.000    0.000    0.000    0.000 
#
# Total GULP energy -357178.220987 kJ/mol
# GULP energy per Si atom -5580.909703 kJ/mol
# Density = 1.953522 g / cm^3
# Si number density = 19.579786 Si / 1000 Ang^3
#
#
#
# Elastic Constant Matrix: (Units=GPa)
#
#
# Indices 1 2 3 4 5 6 
#
# 1 87.2691 29.3146 3.9318 0.0000 0.0000 0.0000
# 2 29.3146 130.0903 14.1058 0.0000 0.0000 0.0000
# 3 3.9318 14.1058 14.7281 0.0000 0.0000 0.0000
# 4 0.0000 0.0000 0.0000 1.1506 0.0000 0.0000
# 5 0.0000 0.0000 0.0000 0.0000 1.1908 0.0000
# 6 0.0000 0.0000 0.0000 0.0000 0.0000 29.0042
#
#
#
# Elastic Compliance Matrix: (Units=1/GPa)
#
#
# Indices 1 2 3 4 5 6 
#
# 1 0.012404 -0.002718 -0.000708 0.000000 0.000000 0.000000
# 2 -0.002718 0.009173 -0.008060 0.000000 0.000000 0.000000
# 3 -0.000708 -0.008060 0.075806 0.000000 0.000000 0.000000
# 4 0.000000 0.000000 0.000000 0.869087 0.000000 0.000000
# 5 0.000000 0.000000 0.000000 0.000000 0.839758 0.000000
# 6 0.000000 0.000000 0.000000 0.000000 0.000000 0.034478
#
#
# Mechanical properties :
#
#
# Convention : Reuss Voigt Hill
#
# Bulk Modulus (GPa) = 13.43896 36.31023 24.87459
# Shear Modulus (GPa) = 2.64763 18.58482 10.61622
#
# Velocity S-wave (km/s) = 1.16411 3.08423 2.33105
# Velocity P-wave (km/s) = 2.94711 5.59180 4.46955
#
# Compressibility (1/GPa) = 0.07441054
#
# Stress axis : x y z
#
# Youngs Moduli (GPa) = 80.62034 109.00968 13.19156
#
# Poissons Ratio (x) = 0.29632 0.00934
# Poissons Ratio (y) = 0.21915 0.10633
# Poissons Ratio (z) = 0.05707 0.87864
#
# Static dielectric constant tensor:
#      x y z
#    x 1.704190 0.000000 0.000000 
#    y 0.000000 1.763110 0.000000 
#    z 0.000000 0.000000 1.670760 
# 
# From -- ./inp_files/31617.got.cif
#   From: 2010.05.17/outbox.cif.g08.bks.cpg/sg58_16_cif.got.tgz:31617.got - 2010.06.03 14:20:14.
