data_PCOD9441216
_publ_section_title
;
Structure prediction by ZEFSAII (Michael W. Deem and Ramdas Pophale) SiO2 
 PCOD9441216
Probable space group: P N N M
;
_chemical_formula_sum "Si O2"
_cell_formula_units_Z 56
_cell_length_a 20.223660
_cell_length_b 18.037134
_cell_length_c 7.562418
_cell_angle_alpha 90.000000
_cell_angle_beta 90.000000
_cell_angle_gamma 90.000000
_cell_volume 2758.595133
_symmetry_space_group_name_H-M "P N N M"
_symmetry_group_IT_number 58
_symmetry_cell_setting 'orthorhombic'
loop_
_space_group_symop_operation_xyz
x,y,z
-x,-y,z
1/2+x,1/2-y,1/2-z
1/2-x,1/2+y,1/2-z
-x,-y,-z
x,y,-z
1/2-x,1/2+y,1/2+z
1/2+x,1/2-y,1/2+z
loop_
_atom_site_type_symbol
_atom_site_label
_atom_site_fract_x
_atom_site_fract_y
_atom_site_fract_z
Si Si1 0.108438 0.791943 0.291697
Si Si2 0.456715 0.690614 0.702852
Si Si3 0.690834 0.569137 0.216222
Si Si4 0.569327 0.472371 0.204179
Si Si5 0.098124 0.624949 0.212976
Si Si6 0.837147 0.526796 0.783309
Si Si7 0.447554 0.855445 0.716459
O O1 0.098747 0.804065 0.500000
O O2 0.163515 0.850073 0.230928
O O3 0.124824 0.705961 0.262435
O O4 0.036800 0.808285 0.208287
O O5 0.435196 0.686701 0.500000
O O6 0.430667 0.616240 0.791149
O O7 0.435799 0.770804 0.776070
O O8 0.635024 0.510654 0.276982
O O9 0.764080 0.548940 0.276887
O O10 0.694021 0.567785 0.000000
O O11 0.500000 0.500000 0.286256
O O12 0.567553 0.497552 0.000000
O O13 0.139921 0.554798 0.275025
O O14 0.021489 0.621396 0.272668
O O15 0.096692 0.622080 0.000000
O O16 0.891879 0.586947 0.728485
O O17 0.837183 0.526551 0.000000
O O18 0.448315 0.853840 0.500000
#
# Coordination Sequence:
#
# PCOD9441216 Si02
#       7
#     8   8   8   8   8   8   8
#     4  10  18  32  51  72  99 133 167 201 247 298
#     4  10  19  31  50  79 102 122 162 209 256 295
#     4   9  18  31  48  69  94 134 174 198 235 297
#     4  10  18  32  51  70  97 132 169 205 240 292
#     4   9  17  30  52  79  99 122 163 211 254 291
#     4   9  16  30  51  73  98 129 169 208 244 295
#     4   8  15  28  48  74 100 124 157 205 250 290
#
# _framework density 20.300187999999999
#
# number of rings (size 3 to 8) (size 9 to 14) (size 15 to 20)
#    0.000    2.714    1.429    2.143    0.000    2.000 
#    2.571    0.000    0.000    9.429    0.000    0.000 
#    0.000    0.000    0.000    0.000    0.000    0.000 
#
# Total GULP energy -312457.787657 kJ/mol
# GULP energy per Si atom -5579.603351 kJ/mol
# Density = 2.025398 g / cm^3
# Si number density = 20.300188 Si / 1000 Ang^3
#
#
#
# Elastic Constant Matrix: (Units=GPa)
#
#
# Indices 1 2 3 4 5 6 
#
# 1 134.8117 119.2023 2.2385 0.0000 0.0000 0.0000
# 2 119.2023 197.7556 -2.7128 0.0000 0.0000 0.0000
# 3 2.2385 -2.7128 45.7721 0.0000 0.0000 0.0000
# 4 0.0000 0.0000 0.0000 21.8714 0.0000 0.0000
# 5 0.0000 0.0000 0.0000 0.0000 5.0117 0.0000
# 6 0.0000 0.0000 0.0000 0.0000 0.0000 21.5945
#
#
#
# Elastic Compliance Matrix: (Units=1/GPa)
#
#
# Indices 1 2 3 4 5 6 
#
# 1 0.015966 -0.009643 -0.001352 0.000000 0.000000 0.000000
# 2 -0.009643 0.010884 0.001117 0.000000 0.000000 0.000000
# 3 -0.001352 0.001117 0.021980 0.000000 0.000000 0.000000
# 4 0.000000 0.000000 0.000000 0.045722 0.000000 0.000000
# 5 0.000000 0.000000 0.000000 0.000000 0.199534 0.000000
# 6 0.000000 0.000000 0.000000 0.000000 0.000000 0.046308
#
#
# Mechanical properties :
#
#
# Convention : Reuss Voigt Hill
#
# Bulk Modulus (GPa) = 34.39523 68.42171 51.40847
# Shear Modulus (GPa) = 13.51927 27.00295 20.26111
#
# Velocity S-wave (km/s) = 2.58343 3.65112 3.16266
# Velocity P-wave (km/s) = 5.08713 7.18000 6.22219
#
# Compressibility (1/GPa) = 0.02907380
#
# Stress axis : x y z
#
# Youngs Moduli (GPa) = 62.63141 91.87407 45.49656
#
# Poissons Ratio (x) = 0.88592 0.06153
# Poissons Ratio (y) = 0.60394 -0.05080
# Poissons Ratio (z) = 0.08470 -0.10259
#
# Static dielectric constant tensor:
#      x y z
#    x 1.684810 0.000000 0.000000 
#    y 0.000000 1.711940 0.000000 
#    z 0.000000 0.000000 1.786650 
# 
# From -- ./inp_files/8176.got.cif
#   From: 2010.05.17/outbox.cif.g08.bks.cpg/sg58_5_cif.got.tgz:8176.got - 2010.06.03 14:20:14.
