data_PCOD9441768
_publ_section_title
;
Structure prediction by ZEFSAII (Michael W. Deem and Ramdas Pophale) SiO2 
 PCOD9441768
Probable space group: P N N M
;
_chemical_formula_sum "Si O2"
_cell_formula_units_Z 56
_cell_length_a 13.920104
_cell_length_b 29.822833
_cell_length_c 8.624386
_cell_angle_alpha 90.000000
_cell_angle_beta 90.000000
_cell_angle_gamma 90.000000
_cell_volume 3580.301187
_symmetry_space_group_name_H-M "P N N M"
_symmetry_group_IT_number 58
_symmetry_cell_setting 'orthorhombic'
loop_
_space_group_symop_operation_xyz
x,y,z
-x,-y,z
1/2+x,1/2-y,1/2-z
1/2-x,1/2+y,1/2-z
-x,-y,-z
x,y,-z
1/2-x,1/2+y,1/2+z
1/2+x,1/2-y,1/2+z
loop_
_atom_site_type_symbol
_atom_site_label
_atom_site_fract_x
_atom_site_fract_y
_atom_site_fract_z
Si Si1 0.883686 0.496178 0.321344
Si Si2 0.205785 0.683702 0.685097
Si Si3 0.786249 0.682505 0.814251
Si Si4 0.612275 0.095458 0.812807
Si Si5 0.398892 0.270327 0.314272
Si Si6 0.890578 0.769724 0.685749
Si Si7 0.604455 0.902350 0.683252
O O1 0.854283 0.488796 0.500000
O O2 0.851284 0.545513 0.268603
O O3 0.000000 0.500000 0.320903
O O4 0.859620 0.452566 0.222335
O O5 0.207393 0.688199 0.500000
O O6 0.134280 0.721326 0.754541
O O7 0.310030 0.695892 0.753321
O O8 0.168605 0.635235 0.735210
O O9 0.822375 0.634925 0.752538
O O10 0.681291 0.695835 0.751410
O O11 0.856826 0.721220 0.749367
O O12 0.787220 0.683870 0.000000
O O13 0.504270 0.101291 0.748207
O O14 0.608014 0.097007 0.000000
O O15 0.397459 0.270817 0.500000
O O16 0.504383 0.280196 0.250392
O O17 0.890507 0.768750 0.500000
O O18 0.603312 0.894946 0.500000
#
# Coordination Sequence:
#
# PCOD9441768 Si02
#       7
#     8   8   8   8   8   8   8
#     4   8  16  30  46  65  92 125 158 192 234 282
#     4  11  21  34  50  70  95 126 162 196 234 279
#     4  11  21  33  49  72  97 125 161 196 234 279
#     4  10  19  32  48  68  96 129 161 195 236 281
#     4  11  21  35  51  70  96 126 159 195 236 279
#     4  11  21  35  51  70  96 125 158 197 238 278
#     4  11  20  30  46  70  98 127 159 196 237 281
#
# _framework density 15.641142
#
# number of rings (size 3 to 8) (size 9 to 14) (size 15 to 20)
#    0.000    1.571    0.000   10.286    0.000    3.143 
#    0.000    0.000    0.000    0.000    0.000    1.000 
#    0.000    8.000    0.000    0.000    0.000    0.000 
#
# Total GULP energy -312696.272432 kJ/mol
# GULP energy per Si atom -5583.862008 kJ/mol
# Density = 1.560554 g / cm^3
# Si number density = 15.641142 Si / 1000 Ang^3
#
#
#
# Elastic Constant Matrix: (Units=GPa)
#
#
# Indices 1 2 3 4 5 6 
#
# 1 83.3759 50.5423 39.9818 0.0000 0.0000 0.0000
# 2 50.5423 116.5969 46.8245 0.0000 0.0000 0.0000
# 3 39.9818 46.8245 142.4716 0.0000 0.0000 0.0000
# 4 0.0000 0.0000 0.0000 28.1830 0.0000 0.0000
# 5 0.0000 0.0000 0.0000 0.0000 25.9348 0.0000
# 6 0.0000 0.0000 0.0000 0.0000 0.0000 17.9123
#
#
#
# Elastic Compliance Matrix: (Units=1/GPa)
#
#
# Indices 1 2 3 4 5 6 
#
# 1 0.017143 -0.006335 -0.002729 0.000000 0.000000 0.000000
# 2 -0.006335 0.012222 -0.002239 0.000000 0.000000 0.000000
# 3 -0.002729 -0.002239 0.008521 0.000000 0.000000 0.000000
# 4 0.000000 0.000000 0.000000 0.035482 0.000000 0.000000
# 5 0.000000 0.000000 0.000000 0.000000 0.038558 0.000000
# 6 0.000000 0.000000 0.000000 0.000000 0.000000 0.055828
#
#
# Mechanical properties :
#
#
# Convention : Reuss Voigt Hill
#
# Bulk Modulus (GPa) = 65.44712 68.57129 67.00920
# Shear Modulus (GPa) = 25.58169 28.07907 26.83038
#
# Velocity S-wave (km/s) = 4.04857 4.24158 4.14620
# Velocity P-wave (km/s) = 7.98676 8.24157 8.11517
#
# Compressibility (1/GPa) = 0.01527951
#
# Stress axis : x y z
#
# Youngs Moduli (GPa) = 58.33368 81.82036 117.36344
#
# Poissons Ratio (x) = 0.51835 0.32024
# Poissons Ratio (y) = 0.36956 0.26277
# Poissons Ratio (z) = 0.15917 0.18319
#
# Static dielectric constant tensor:
#      x y z
#    x 1.497950 0.000000 0.000000 
#    y 0.000000 1.528700 0.000000 
#    z 0.000000 0.000000 1.520200 
# 
# From -- ./inp_files/7101.got.cif
#   From: 2010.05.17/outbox.cif.g08.bks.cpg/sg58_4_cif.got.tgz:7101.got - 2010.06.03 14:20:14.
