data_PCOD9441675
_publ_section_title
;
Structure prediction by ZEFSAII (Michael W. Deem and Ramdas Pophale) SiO2 
 PCOD9441675
Probable space group: P N N M
;
_chemical_formula_sum "Si O2"
_cell_formula_units_Z 64
_cell_length_a 12.155441
_cell_length_b 30.106523
_cell_length_c 8.983830
_cell_angle_alpha 90.000000
_cell_angle_beta 90.000000
_cell_angle_gamma 90.000000
_cell_volume 3287.705034
_symmetry_space_group_name_H-M "P N N M"
_symmetry_group_IT_number 58
_symmetry_cell_setting 'orthorhombic'
loop_
_space_group_symop_operation_xyz
x,y,z
-x,-y,z
1/2+x,1/2-y,1/2-z
1/2-x,1/2+y,1/2-z
-x,-y,-z
x,y,-z
1/2-x,1/2+y,1/2+z
1/2+x,1/2-y,1/2+z
loop_
_atom_site_type_symbol
_atom_site_label
_atom_site_fract_x
_atom_site_fract_y
_atom_site_fract_z
Si Si1 0.018841 0.227062 0.321724
Si Si2 0.629068 0.107290 0.677570
Si Si3 0.463054 0.181815 0.320386
Si Si4 0.135745 0.849653 0.676690
Si Si5 0.037002 0.933601 0.173919
Si Si6 0.723074 0.022070 0.825513
Si Si7 0.811807 0.939538 0.677656
Si Si8 0.283057 0.662606 0.819022
O O1 0.026897 0.232813 0.500000
O O2 0.019050 0.274429 0.244493
O O3 0.118467 0.194958 0.271993
O O4 0.906197 0.199748 0.290344
O O5 0.623649 0.099773 0.500000
O O6 0.525665 0.136800 0.725304
O O7 0.737925 0.137642 0.705451
O O8 0.646060 0.060097 0.756160
O O9 0.468022 0.183531 0.500000
O O10 0.336043 0.180333 0.273585
O O11 0.114614 0.857563 0.500000
O O12 0.063085 0.883980 0.770350
O O13 0.934960 0.951111 0.268275
O O14 0.152511 0.958811 0.193788
O O15 0.007789 0.935437 0.000000
O O16 0.726421 0.974556 0.745970
O O17 0.701570 0.017290 0.000000
O O18 0.805606 0.941522 0.500000
O O19 0.794028 0.888671 0.728139
O O20 0.286902 0.661784 0.000000
#
# Coordination Sequence:
#
# PCOD9441675 Si02
#       8
#     8   8   8   8   8   8   8   8
#     4  10  20  36  57  81 112 145 180 225 281 336
#     4   9  19  36  57  80 108 144 188 232 271 323
#     4  10  22  39  59  82 109 143 188 234 273 325
#     4   9  17  32  53  77 107 142 179 220 268 324
#     4  10  19  31  49  78 115 146 176 224 278 326
#     4  10  21  35  53  81 115 147 184 231 283 335
#     4  11  20  34  56  79 109 152 192 228 277 332
#     4   9  20  39  58  80 112 148 185 227 275 331
#
# _framework density 19.466467000000002
#
# number of rings (size 3 to 8) (size 9 to 14) (size 15 to 20)
#    0.000    2.250    1.250    1.500    1.750    4.000 
#    0.000    1.875    0.000    3.750    0.000    0.000 
#    0.000    0.000    0.000    0.000    0.000    0.000 
#
# Total GULP energy -357171.157698 kJ/mol
# GULP energy per Si atom -5580.799339 kJ/mol
# Density = 1.942216 g / cm^3
# Si number density = 19.466467 Si / 1000 Ang^3
#
#
#
# Elastic Constant Matrix: (Units=GPa)
#
#
# Indices 1 2 3 4 5 6 
#
# 1 44.0596 16.1397 10.2934 0.0000 0.0000 0.0000
# 2 16.1397 88.8758 24.6858 0.0000 0.0000 0.0000
# 3 10.2934 24.6858 19.8830 0.0000 0.0000 0.0000
# 4 0.0000 0.0000 0.0000 29.2444 0.0000 0.0000
# 5 0.0000 0.0000 0.0000 0.0000 12.7873 0.0000
# 6 0.0000 0.0000 0.0000 0.0000 0.0000 18.8852
#
#
#
# Elastic Compliance Matrix: (Units=1/GPa)
#
#
# Indices 1 2 3 4 5 6 
#
# 1 0.025949 -0.001497 -0.011575 0.000000 0.000000 0.000000
# 2 -0.001497 0.017261 -0.020655 0.000000 0.000000 0.000000
# 3 -0.011575 -0.020655 0.081930 0.000000 0.000000 0.000000
# 4 0.000000 0.000000 0.000000 0.034195 0.000000 0.000000
# 5 0.000000 0.000000 0.000000 0.000000 0.078203 0.000000
# 6 0.000000 0.000000 0.000000 0.000000 0.000000 0.052952
#
#
# Mechanical properties :
#
#
# Convention : Reuss Voigt Hill
#
# Bulk Modulus (GPa) = 17.33513 28.33956 22.83735
# Shear Modulus (GPa) = 13.25659 18.96334 16.10996
#
# Velocity S-wave (km/s) = 2.61242 3.12453 2.87988
# Velocity P-wave (km/s) = 4.24548 5.25420 4.77655
#
# Compressibility (1/GPa) = 0.05768631
#
# Stress axis : x y z
#
# Youngs Moduli (GPa) = 38.53686 57.93574 12.20555
#
# Poissons Ratio (x) = 0.08675 0.14128
# Poissons Ratio (y) = 0.05770 0.25210
# Poissons Ratio (z) = 0.44605 1.19664
#
# Static dielectric constant tensor:
#      x y z
#    x 1.689440 0.000000 0.000000 
#    y 0.000000 1.681060 0.000000 
#    z 0.000000 0.000000 1.652740 
# 
# From -- ./inp_files/4729.got.cif
#   From: 2010.05.17/outbox.cif.g08.bks.cpg/sg58_3_cif.got.tgz:4729.got - 2010.06.03 14:20:14.
