data_PCOD9441019
_publ_section_title
;
Structure prediction by ZEFSAII (Michael W. Deem and Ramdas Pophale) SiO2 
 PCOD9441019
Probable space group: P N N M
;
_chemical_formula_sum "Si O2"
_cell_formula_units_Z 64
_cell_length_a 26.157232
_cell_length_b 14.763108
_cell_length_c 7.389935
_cell_angle_alpha 90.000000
_cell_angle_beta 90.000000
_cell_angle_gamma 90.000000
_cell_volume 2853.712382
_symmetry_space_group_name_H-M "P N N M"
_symmetry_group_IT_number 58
_symmetry_cell_setting 'orthorhombic'
loop_
_space_group_symop_operation_xyz
x,y,z
-x,-y,z
1/2+x,1/2-y,1/2-z
1/2-x,1/2+y,1/2-z
-x,-y,-z
x,y,-z
1/2-x,1/2+y,1/2+z
1/2+x,1/2-y,1/2+z
loop_
_atom_site_type_symbol
_atom_site_label
_atom_site_fract_x
_atom_site_fract_y
_atom_site_fract_z
Si Si1 0.139263 0.078254 0.284772
Si Si2 0.207481 0.775146 0.281450
Si Si3 0.346720 0.959140 0.721032
Si Si4 0.550370 0.946729 0.283336
Si Si5 0.236802 0.983667 0.281025
Si Si6 0.408742 0.251187 0.783673
Si Si7 0.819391 0.742112 0.215324
Si Si8 0.449285 0.446350 0.778568
O O1 0.139871 0.064394 0.500000
O O2 0.193891 0.049288 0.209318
O O3 0.137375 0.184358 0.253311
O O4 0.096417 0.011435 0.216889
O O5 0.206010 0.765005 0.500000
O O6 0.150775 0.746137 0.215962
O O7 0.261912 0.733923 0.215105
O O8 0.217444 0.881768 0.241268
O O9 0.348274 0.960654 0.500000
O O10 0.338299 0.855618 0.779357
O O11 0.398172 0.005008 0.786122
O O12 0.293875 0.005617 0.780242
O O13 0.549665 0.957084 0.500000
O O14 0.558696 0.839603 0.250977
O O15 0.500000 0.000000 0.215792
O O16 0.238392 0.987984 0.500000
O O17 0.436833 0.343525 0.719682
O O18 0.404548 0.260233 0.000000
O O19 0.813860 0.733853 0.000000
O O20 0.500000 0.500000 0.721822
O O21 0.450617 0.443675 0.000000
#
# Coordination Sequence:
#
# PCOD9441019 Si02
#       8
#     8   8   8   8   8   8   8   8
#     4  10  18  29  49  77 105 133 167 208 252 300
#     4   8  14  28  49  72  98 130 167 205 248 303
#     4   8  16  32  51  69  94 135 175 204 245 304
#     4  10  22  38  54  74 102 136 175 216 256 299
#     4   8  13  25  47  71  95 126 166 204 240 297
#     4  10  19  34  56  78  99 129 171 214 254 301
#     4   9  18  31  49  73 103 137 170 206 255 309
#     4   9  18  33  53  78 107 138 171 207 252 307
#
# _framework density 22.426926000000002
#
# number of rings (size 3 to 8) (size 9 to 14) (size 15 to 20)
#    0.000    3.000    1.250    1.500    1.750    1.250 
#    0.000    1.250    0.000    3.750    0.000    0.000 
#    0.000    0.000    0.000    0.000    0.000    0.000 
#
# Total GULP energy -356849.939809 kJ/mol
# GULP energy per Si atom -5575.780310 kJ/mol
# Density = 2.237588 g / cm^3
# Si number density = 22.426926 Si / 1000 Ang^3
#
#
#
# Elastic Constant Matrix: (Units=GPa)
#
#
# Indices 1 2 3 4 5 6 
#
# 1 169.7693 105.0616 9.9718 0.0000 0.0000 0.0000
# 2 105.0616 132.5571 -1.5736 0.0000 0.0000 0.0000
# 3 9.9718 -1.5736 77.9984 0.0000 0.0000 0.0000
# 4 0.0000 0.0000 0.0000 0.0146 0.0000 0.0000
# 5 0.0000 0.0000 0.0000 0.0000 -10.6270 0.0000
# 6 0.0000 0.0000 0.0000 0.0000 0.0000 30.6785
#
#
#
# Elastic Compliance Matrix: (Units=1/GPa)
#
#
# Indices 1 2 3 4 5 6 
#
# 1 0.011781 -0.009357 -0.001695 0.000000 0.000000 0.000000
# 2 -0.009357 0.014978 0.001498 0.000000 0.000000 0.000000
# 3 -0.001695 0.001498 0.013068 0.000000 0.000000 0.000000
# 4 0.000000 0.000000 0.000000 68.667321 0.000000 0.000000
# 5 0.000000 0.000000 0.000000 0.000000 -0.094100 0.000000
# 6 0.000000 0.000000 0.000000 0.000000 0.000000 0.032596
#
#
# Mechanical properties :
#
#
# Convention : Reuss Voigt Hill
#
# Bulk Modulus (GPa) = 48.26465 67.47160 57.86812
# Shear Modulus (GPa) = 0.07281 21.80420 10.93850
#
# Velocity S-wave (km/s) = 0.18038 3.12145 2.21088
# Velocity P-wave (km/s) = 4.64876 6.56823 5.69002
#
# Compressibility (1/GPa) = 0.02071910
#
# Stress axis : x y z
#
# Youngs Moduli (GPa) = 84.88590 66.76500 76.52462
#
# Poissons Ratio (x) = 0.62473 0.12970
# Poissons Ratio (y) = 0.79428 -0.11467
# Poissons Ratio (z) = 0.14387 -0.10004
#
# Static dielectric constant tensor:
#      x y z
#    x 1.836170 0.000000 0.000000 
#    y 0.000000 1.843510 0.000000 
#    z 0.000000 0.000000 1.863000 
# 
# From -- ./inp_files/10086.got.cif
#   From: 2010.05.17/outbox.cif.g08.bks.cpg/sg58_6_cif.got.tgz:10086.got - 2010.06.03 14:20:14.
