data_PCOD9441646
_publ_section_title
;
Structure prediction by ZEFSAII (Michael W. Deem and Ramdas Pophale) SiO2 
 PCOD9441646
Probable space group: P N N M
;
_chemical_formula_sum "Si O2"
_cell_formula_units_Z 56
_cell_length_a 19.524980
_cell_length_b 20.175840
_cell_length_c 7.693018
_cell_angle_alpha 90.000000
_cell_angle_beta 90.000000
_cell_angle_gamma 90.000000
_cell_volume 3030.532679
_symmetry_space_group_name_H-M "P N N M"
_symmetry_group_IT_number 58
_symmetry_cell_setting 'orthorhombic'
loop_
_space_group_symop_operation_xyz
x,y,z
-x,-y,z
1/2+x,1/2-y,1/2-z
1/2-x,1/2+y,1/2-z
-x,-y,-z
x,y,-z
1/2-x,1/2+y,1/2+z
1/2+x,1/2-y,1/2+z
loop_
_atom_site_type_symbol
_atom_site_label
_atom_site_fract_x
_atom_site_fract_y
_atom_site_fract_z
Si Si1 0.480948 0.701481 0.707851
Si Si2 0.288353 0.520732 0.714226
Si Si3 0.056541 0.053350 0.787761
Si Si4 0.752472 0.123885 0.797420
Si Si5 0.339429 0.758058 0.206115
Si Si6 0.727676 0.844811 0.798590
Si Si7 0.363616 0.273065 0.794704
O O1 0.481922 0.699319 0.500000
O O2 0.462997 0.627230 0.771362
O O3 0.419515 0.749530 0.763256
O O4 0.555831 0.722943 0.767893
O O5 0.288395 0.520958 0.500000
O O6 0.367070 0.533124 0.766457
O O7 0.262044 0.449392 0.776099
O O8 0.242763 0.582787 0.775340
O O9 0.056201 0.053961 0.000000
O O10 0.000000 0.000000 0.731807
O O11 0.695226 0.174304 0.725414
O O12 0.823660 0.164435 0.785207
O O13 0.735496 0.114627 0.000000
O O14 0.298581 0.696587 0.289473
O O15 0.325753 0.754395 0.000000
O O16 0.671240 0.794392 0.723469
O O17 0.709125 0.855107 0.000000
O O18 0.348575 0.275673 0.000000
#
# Coordination Sequence:
#
# PCOD9441646 Si02
#       7
#     8   8   8   8   8   8   8
#     4  11  20  32  51  71  95 132 170 200 242 292
#     4   9  15  28  50  73  95 123 167 205 232 279
#     4   9  16  25  44  72  96 120 155 196 231 278
#     4   9  18  32  52  74  97 129 164 200 240 289
#     4  10  19  31  48  73 102 127 159 202 246 290
#     4   9  17  32  52  71  93 129 170 203 239 287
#     4  10  20  32  48  72 102 129 160 205 250 290
#
# _framework density 18.478598999999999
#
# number of rings (size 3 to 8) (size 9 to 14) (size 15 to 20)
#    0.000    2.429    1.429    2.143    0.000    3.429 
#    0.000    0.714    0.000    2.571    0.000    6.000 
#    0.000    0.000    0.000    0.000    0.000    0.000 
#
# Total GULP energy -312387.050448 kJ/mol
# GULP energy per Si atom -5578.340187 kJ/mol
# Density = 1.843654 g / cm^3
# Si number density = 18.478599 Si / 1000 Ang^3
#
#
#
# Elastic Constant Matrix: (Units=GPa)
#
#
# Indices 1 2 3 4 5 6 
#
# 1 89.8411 80.4954 -8.9106 0.0000 0.0000 0.0000
# 2 80.4954 170.8148 -0.1401 0.0000 0.0000 0.0000
# 3 -8.9106 -0.1401 34.6293 0.0000 0.0000 0.0000
# 4 0.0000 0.0000 0.0000 7.2807 0.0000 0.0000
# 5 0.0000 0.0000 0.0000 0.0000 15.7923 0.0000
# 6 0.0000 0.0000 0.0000 0.0000 0.0000 20.7983
#
#
#
# Elastic Compliance Matrix: (Units=1/GPa)
#
#
# Indices 1 2 3 4 5 6 
#
# 1 0.020141 -0.009487 0.005144 0.000000 0.000000 0.000000
# 2 -0.009487 0.010323 -0.002399 0.000000 0.000000 0.000000
# 3 0.005144 -0.002399 0.030191 0.000000 0.000000 0.000000
# 4 0.000000 0.000000 0.000000 0.137349 0.000000 0.000000
# 5 0.000000 0.000000 0.000000 0.000000 0.063322 0.000000
# 6 0.000000 0.000000 0.000000 0.000000 0.000000 0.048081
#
#
# Mechanical properties :
#
#
# Convention : Reuss Voigt Hill
#
# Bulk Modulus (GPa) = 21.19957 48.68609 34.94283
# Shear Modulus (GPa) = 14.76597 23.69694 19.23145
#
# Velocity S-wave (km/s) = 2.82988 3.58495 3.22955
# Velocity P-wave (km/s) = 4.70903 6.59850 5.73216
#
# Compressibility (1/GPa) = 0.04717077
#
# Stress axis : x y z
#
# Youngs Moduli (GPa) = 49.64914 96.86969 33.12222
#
# Poissons Ratio (x) = 0.91903 -0.17039
# Poissons Ratio (y) = 0.47103 0.07947
# Poissons Ratio (z) = -0.25541 0.23243
#
# Static dielectric constant tensor:
#      x y z
#    x 1.612610 0.000000 0.000000 
#    y 0.000000 1.654520 0.000000 
#    z 0.000000 0.000000 1.703150 
# 
# From -- ./inp_files/6438.got.cif
#   From: 2010.05.17/outbox.cif.g08.bks.cpg/sg58_4_cif.got.tgz:6438.got - 2010.06.03 14:20:14.
