data_PCOD9441402
_publ_section_title
;
Structure prediction by ZEFSAII (Michael W. Deem and Ramdas Pophale) SiO2 
 PCOD9441402
Probable space group: P N N M
;
_chemical_formula_sum "Si O2"
_cell_formula_units_Z 36
_cell_length_a 6.690884
_cell_length_b 13.924720
_cell_length_c 17.826660
_cell_angle_alpha 90.000000
_cell_angle_beta 90.000000
_cell_angle_gamma 90.000000
_cell_volume 1660.886492
_symmetry_space_group_name_H-M "P N N M"
_symmetry_group_IT_number 58
_symmetry_cell_setting 'orthorhombic'
loop_
_space_group_symop_operation_xyz
x,y,z
-x,-y,z
1/2+x,1/2-y,1/2-z
1/2-x,1/2+y,1/2-z
-x,-y,-z
x,y,-z
1/2-x,1/2+y,1/2+z
1/2+x,1/2-y,1/2+z
loop_
_atom_site_type_symbol
_atom_site_label
_atom_site_fract_x
_atom_site_fract_y
_atom_site_fract_z
Si Si1 0.000000 0.000000 0.676410
Si Si2 0.621842 0.319677 0.913731
Si Si3 0.932649 0.158975 0.087017
Si Si4 0.805399 0.616045 0.278139
Si Si5 0.314707 0.197219 0.814522
O O1 0.888988 0.921045 0.626447
O O2 0.168214 0.948342 0.725869
O O3 0.460129 0.253262 0.871693
O O4 0.835198 0.265919 0.912402
O O5 0.562442 0.329184 0.000000
O O6 0.131241 0.158922 0.136914
O O7 0.773111 0.100710 0.137007
O O8 0.956029 0.130243 0.000000
O O9 0.757832 0.725415 0.247281
O O10 0.045360 0.615502 0.278094
#
# Coordination Sequence:
#
# PCOD9441402 Si02
#       5
#     4   8   8   8   8
#     4  10  21  36  59  92 128 158 188 246 307 370
#     4   9  19  35  57  88 124 155 188 240 307 369
#     4  10  20  36  60  86 113 154 207 252 290 346
#     4  10  20  35  58  85 117 154 201 243 296 352
#     4  10  18  34  60  83 111 158 204 246 286 354
#
# _framework density 21.675173000000001
#
# number of rings (size 3 to 8) (size 9 to 14) (size 15 to 20)
#    0.000    2.222    2.222    1.000    0.000    0.889 
#    0.000   10.556    0.000   13.333    0.000    0.000 
#    0.000    0.000    0.000    0.000    0.000    0.000 
#
# Total GULP energy -201078.501960 kJ/mol
# GULP energy per Si atom -5585.513943 kJ/mol
# Density = 2.162584 g / cm^3
# Si number density = 21.675173 Si / 1000 Ang^3
#
#
#
# Elastic Constant Matrix: (Units=GPa)
#
#
# Indices 1 2 3 4 5 6 
#
# 1 105.4783 6.1427 27.0073 0.0000 0.0000 0.0000
# 2 6.1427 40.4233 8.7355 0.0000 0.0000 0.0000
# 3 27.0073 8.7355 138.7171 0.0000 0.0000 0.0000
# 4 0.0000 0.0000 0.0000 26.6782 0.0000 0.0000
# 5 0.0000 0.0000 0.0000 0.0000 31.2336 0.0000
# 6 0.0000 0.0000 0.0000 0.0000 0.0000 16.9134
#
#
#
# Elastic Compliance Matrix: (Units=1/GPa)
#
#
# Indices 1 2 3 4 5 6 
#
# 1 0.010028 -0.001117 -0.001882 0.000000 0.000000 0.000000
# 2 -0.001117 0.025204 -0.001370 0.000000 0.000000 0.000000
# 3 -0.001882 -0.001370 0.007662 0.000000 0.000000 0.000000
# 4 0.000000 0.000000 0.000000 0.037484 0.000000 0.000000
# 5 0.000000 0.000000 0.000000 0.000000 0.032017 0.000000
# 6 0.000000 0.000000 0.000000 0.000000 0.000000 0.059125
#
#
# Mechanical properties :
#
#
# Convention : Reuss Voigt Hill
#
# Bulk Modulus (GPa) = 29.27777 40.93219 35.10498
# Shear Modulus (GPa) = 26.09044 31.14725 28.61885
#
# Velocity S-wave (km/s) = 3.47320 3.79489 3.63761
# Velocity P-wave (km/s) = 5.44252 6.17470 5.82014
#
# Compressibility (1/GPa) = 0.03415561
#
# Stress axis : x y z
#
# Youngs Moduli (GPa) = 99.72535 39.67632 130.52144
#
# Poissons Ratio (x) = 0.04432 0.24563
# Poissons Ratio (y) = 0.11140 0.17878
# Poissons Ratio (z) = 0.18768 0.05434
#
# Static dielectric constant tensor:
#      x y z
#    x 1.801900 0.000000 0.000000 
#    y 0.000000 1.842520 0.000000 
#    z 0.000000 0.000000 1.765310 
# 
# From -- ./inp_files/27999.got.cif
#   From: 2010.05.17/outbox.cif.g08.bks.cpg/sg58_14_cif.got.tgz:27999.got - 2010.06.03 14:20:14.
