data_PCOD9441569
_publ_section_title
;
Structure prediction by ZEFSAII (Michael W. Deem and Ramdas Pophale) SiO2 
 PCOD9441569
Probable space group: P N N M
;
_chemical_formula_sum "Si O2"
_cell_formula_units_Z 48
_cell_length_a 18.832823
_cell_length_b 16.665096
_cell_length_c 9.315518
_cell_angle_alpha 90.000000
_cell_angle_beta 90.000000
_cell_angle_gamma 90.000000
_cell_volume 2923.682807
_symmetry_space_group_name_H-M "P N N M"
_symmetry_group_IT_number 58
_symmetry_cell_setting 'orthorhombic'
loop_
_space_group_symop_operation_xyz
x,y,z
-x,-y,z
1/2+x,1/2-y,1/2-z
1/2-x,1/2+y,1/2-z
-x,-y,-z
x,y,-z
1/2-x,1/2+y,1/2+z
1/2+x,1/2-y,1/2+z
loop_
_atom_site_type_symbol
_atom_site_label
_atom_site_fract_x
_atom_site_fract_y
_atom_site_fract_z
Si Si1 0.330377 0.985172 0.827202
Si Si2 0.045679 0.917231 0.335609
Si Si3 0.414044 0.844414 0.670759
Si Si4 0.040261 0.586233 0.663503
Si Si5 0.577498 0.336956 0.329133
Si Si6 0.165537 0.004558 0.171707
O O1 0.362754 0.907804 0.748478
O O2 0.380314 0.061712 0.791528
O O3 0.248309 0.998475 0.791773
O O4 0.337142 0.974293 0.000000
O O5 0.058698 0.894096 0.500000
O O6 0.995305 0.854800 0.254324
O O7 0.117653 0.939301 0.253071
O O8 0.000000 0.000000 0.335132
O O9 0.412639 0.857458 0.500000
O O10 0.493266 0.860281 0.731771
O O11 0.394994 0.752154 0.701937
O O12 0.039968 0.617788 0.500000
O O13 0.000000 0.500000 0.660235
O O14 0.563690 0.342003 0.500000
O O15 0.633014 0.407725 0.293376
O O16 0.157993 0.993507 0.000000
#
# Coordination Sequence:
#
# PCOD9441569 Si02
#       6
#     8   8   8   8   8   8
#     4   9  18  32  50  70  93 125 161 193 232 286
#     4   9  17  29  47  71  94 117 151 193 232 271
#     4  10  19  30  47  71  97 123 156 201 244 278
#     4   8  15  29  47  66  89 119 156 191 226 278
#     4   9  18  32  49  69  94 126 161 194 233 283
#     4   9  17  32  52  69  91 126 161 191 229 284
#
# _framework density 16.417649000000001
#
# number of rings (size 3 to 8) (size 9 to 14) (size 15 to 20)
#    0.000    3.000    0.000    2.000    0.000    7.000 
#    0.000    1.667    0.000    2.000    0.000    0.000 
#    0.000    0.000    0.000    0.000    0.000    0.000 
#
# Total GULP energy -267305.238160 kJ/mol
# GULP energy per Si atom -5568.859128 kJ/mol
# Density = 1.638028 g / cm^3
# Si number density = 16.417649 Si / 1000 Ang^3
#
#
#
# Elastic Constant Matrix: (Units=GPa)
#
#
# Indices 1 2 3 4 5 6 
#
# 1 140.6381 40.5268 50.3218 0.0000 0.0000 0.0000
# 2 40.5268 69.1950 40.1470 0.0000 0.0000 0.0000
# 3 50.3218 40.1470 46.8193 0.0000 0.0000 0.0000
# 4 0.0000 0.0000 0.0000 19.0165 0.0000 0.0000
# 5 0.0000 0.0000 0.0000 0.0000 17.6736 0.0000
# 6 0.0000 0.0000 0.0000 0.0000 0.0000 15.0327
#
#
#
# Elastic Compliance Matrix: (Units=1/GPa)
#
#
# Indices 1 2 3 4 5 6 
#
# 1 0.011580 0.000874 -0.013196 0.000000 0.000000 0.000000
# 2 0.000874 0.028827 -0.025658 0.000000 0.000000 0.000000
# 3 -0.013196 -0.025658 0.057543 0.000000 0.000000 0.000000
# 4 0.000000 0.000000 0.000000 0.052586 0.000000 0.000000
# 5 0.000000 0.000000 0.000000 0.000000 0.056582 0.000000
# 6 0.000000 0.000000 0.000000 0.000000 0.000000 0.066522
#
#
# Mechanical properties :
#
#
# Convention : Reuss Voigt Hill
#
# Bulk Modulus (GPa) = 45.47448 57.62706 51.55077
# Shear Modulus (GPa) = 14.00838 18.72169 16.36503
#
# Velocity S-wave (km/s) = 2.92422 3.38055 3.16063
# Velocity P-wave (km/s) = 6.25780 7.10031 6.69233
#
# Compressibility (1/GPa) = 0.02199036
#
# Stress axis : x y z
#
# Youngs Moduli (GPa) = 86.35374 34.68991 17.37829
#
# Poissons Ratio (x) = -0.03031 0.22932
# Poissons Ratio (y) = -0.07546 0.44589
# Poissons Ratio (z) = 1.13951 0.89007
#
# Static dielectric constant tensor:
#      x y z
#    x 1.553340 0.000000 0.000000 
#    y 0.000000 1.550330 0.000000 
#    z 0.000000 0.000000 1.551240 
# 
# From -- ./inp_files/7859.got.cif
#   From: 2010.05.17/outbox.cif.g08.bks.cpg/sg58_4_cif.got.tgz:7859.got - 2010.06.03 14:20:14.
