data_PCOD9441322
_publ_section_title
;
Structure prediction by ZEFSAII (Michael W. Deem and Ramdas Pophale) SiO2 
 PCOD9441322
Probable space group: P N N M
;
_chemical_formula_sum "Si O2"
_cell_formula_units_Z 64
_cell_length_a 15.859777
_cell_length_b 9.190110
_cell_length_c 23.865436
_cell_angle_alpha 90.000000
_cell_angle_beta 90.000000
_cell_angle_gamma 90.000000
_cell_volume 3478.461165
_symmetry_space_group_name_H-M "P N N M"
_symmetry_group_IT_number 58
_symmetry_cell_setting 'orthorhombic'
loop_
_space_group_symop_operation_xyz
x,y,z
-x,-y,z
1/2+x,1/2-y,1/2-z
1/2-x,1/2+y,1/2-z
-x,-y,-z
x,y,-z
1/2-x,1/2+y,1/2+z
1/2+x,1/2-y,1/2+z
loop_
_atom_site_type_symbol
_atom_site_label
_atom_site_fract_x
_atom_site_fract_y
_atom_site_fract_z
Si Si1 0.199778 0.058409 0.727524
Si Si2 0.724114 0.535054 0.935519
Si Si3 0.632929 0.283501 0.435064
Si Si4 0.244777 0.033539 0.144705
Si Si5 0.523991 0.329560 0.226954
Si Si6 0.705592 0.781674 0.360126
Si Si7 0.485995 0.323430 0.647128
Si Si8 0.867019 0.202955 0.656473
O O1 0.202563 0.051590 0.794136
O O2 0.121781 0.163509 0.711809
O O3 0.280352 0.128394 0.697586
O O4 0.181570 0.897275 0.703014
O O5 0.801503 0.649967 0.932266
O O6 0.760365 0.389827 0.907462
O O7 0.648284 0.603677 0.898575
O O8 0.700646 0.515711 0.000000
O O9 0.613956 0.314126 0.500000
O O10 0.682325 0.413573 0.404084
O O11 0.549607 0.257590 0.398536
O O12 0.322303 0.144217 0.145816
O O13 0.261073 0.864168 0.138582
O O14 0.500000 0.500000 0.230708
O O15 0.509081 0.272287 0.289738
O O16 0.460140 0.271485 0.180384
O O17 0.609526 0.726430 0.364505
O O18 0.500000 0.500000 0.644743
#
# Coordination Sequence:
#
# PCOD9441322 Si02
#       8
#     8   8   8   8   8   8   8   8
#     4  10  18  33  54  80 112 143 179 229 279 336
#     4   9  21  40  56  78 109 143 188 238 280 325
#     4  10  21  36  55  77 108 150 189 224 262 315
#     4  11  18  34  52  79 111 143 187 226 272 330
#     4   9  16  31  55  80 110 143 179 226 274 326
#     4  11  22  33  55  79 105 149 183 228 285 329
#     4  11  19  34  52  80 113 147 186 225 268 324
#     4   9  19  32  58  79 103 148 185 225 276 334
#
# _framework density 18.398941000000001
#
# number of rings (size 3 to 8) (size 9 to 14) (size 15 to 20)
#    0.000    2.000    2.500    3.000    0.000    1.750 
#    0.000    1.875    2.750    9.375    0.000    0.000 
#    0.000   20.000    0.000    0.000    0.000    0.000 
#
# Total GULP energy -356807.915638 kJ/mol
# GULP energy per Si atom -5575.123682 kJ/mol
# Density = 1.835706 g / cm^3
# Si number density = 18.398941 Si / 1000 Ang^3
#
#
#
# Elastic Constant Matrix: (Units=GPa)
#
#
# Indices 1 2 3 4 5 6 
#
# 1 38.9091 0.1621 46.9863 0.0000 0.0000 0.0000
# 2 0.1621 59.8284 25.5677 0.0000 0.0000 0.0000
# 3 46.9863 25.5677 125.1838 0.0000 0.0000 0.0000
# 4 0.0000 0.0000 0.0000 12.1043 0.0000 0.0000
# 5 0.0000 0.0000 0.0000 0.0000 22.7837 0.0000
# 6 0.0000 0.0000 0.0000 0.0000 0.0000 14.4534
#
#
#
# Elastic Compliance Matrix: (Units=1/GPa)
#
#
# Indices 1 2 3 4 5 6 
#
# 1 0.050908 0.008795 -0.020904 0.000000 0.000000 0.000000
# 2 0.008795 0.019832 -0.007352 0.000000 0.000000 0.000000
# 3 -0.020904 -0.007352 0.017336 0.000000 0.000000 0.000000
# 4 0.000000 0.000000 0.000000 0.082615 0.000000 0.000000
# 5 0.000000 0.000000 0.000000 0.000000 0.043891 0.000000
# 6 0.000000 0.000000 0.000000 0.000000 0.000000 0.069188
#
#
# Mechanical properties :
#
#
# Convention : Reuss Voigt Hill
#
# Bulk Modulus (GPa) = 20.34370 41.03928 30.69149
# Shear Modulus (GPa) = 14.74593 19.94863 17.34728
#
# Velocity S-wave (km/s) = 2.83407 3.29633 3.07390
# Velocity P-wave (km/s) = 4.66800 6.06971 5.41441
#
# Compressibility (1/GPa) = 0.04915527
#
# Stress axis : x y z
#
# Youngs Moduli (GPa) = 19.64330 50.42232 57.68365
#
# Poissons Ratio (x) = -0.44349 1.20583
# Poissons Ratio (y) = -0.17277 0.42408
# Poissons Ratio (z) = 0.41063 0.37070
#
# Static dielectric constant tensor:
#      x y z
#    x 1.674100 0.000000 0.000000 
#    y 0.000000 1.632950 0.000000 
#    z 0.000000 0.000000 1.643860 
# 
# From -- ./inp_files/32354.got.cif
#   From: 2010.05.17/outbox.cif.g08.bks.cpg/sg58_17_cif.got.tgz:32354.got - 2010.06.03 14:20:14.
