data_PCOD9441518
_publ_section_title
;
Structure prediction by ZEFSAII (Michael W. Deem and Ramdas Pophale) SiO2 
 PCOD9441518
Probable space group: P N N M
;
_chemical_formula_sum "Si O2"
_cell_formula_units_Z 64
_cell_length_a 16.590589
_cell_length_b 5.665478
_cell_length_c 30.161794
_cell_angle_alpha 90.000000
_cell_angle_beta 90.000000
_cell_angle_gamma 90.000000
_cell_volume 2835.016113
_symmetry_space_group_name_H-M "P N N M"
_symmetry_group_IT_number 58
_symmetry_cell_setting 'orthorhombic'
loop_
_space_group_symop_operation_xyz
x,y,z
-x,-y,z
1/2+x,1/2-y,1/2-z
1/2-x,1/2+y,1/2-z
-x,-y,-z
x,y,-z
1/2-x,1/2+y,1/2+z
1/2+x,1/2-y,1/2+z
loop_
_atom_site_type_symbol
_atom_site_label
_atom_site_fract_x
_atom_site_fract_y
_atom_site_fract_z
Si Si1 0.834969 0.749359 0.218716
Si Si2 0.742718 0.748233 0.870439
Si Si3 0.697597 0.248372 0.103902
Si Si4 0.152744 0.750630 0.252518
Si Si5 0.367122 0.752909 0.553367
Si Si6 0.519222 0.250011 0.932035
Si Si7 0.632311 0.747128 0.446873
Si Si8 0.958424 0.249978 0.667614
O O1 0.810548 0.749302 0.167279
O O2 0.874359 0.496823 0.230431
O O3 0.750232 0.749322 0.246254
O O4 0.874355 0.001871 0.230449
O O5 0.700367 0.491849 0.868522
O O6 0.783632 0.747441 0.919403
O O7 0.700008 0.004111 0.868777
O O8 0.613845 0.249748 0.078404
O O9 0.777952 0.247653 0.073891
O O10 0.121459 0.750388 0.302767
O O11 0.355472 0.752964 0.500000
O O12 0.406448 0.502889 0.565570
O O13 0.406473 0.002895 0.565575
O O14 0.500000 0.500000 0.953441
O O15 0.466075 0.250118 0.886061
O O16 0.500000 0.000000 0.953437
O O17 0.637902 0.747064 0.500000
O O18 0.000000 0.500000 0.679846
O O19 0.000000 0.000000 0.679858
#
# Coordination Sequence:
#
# PCOD9441518 Si02
#       8
#     8   8   8   8   8   8   8   8
#     4  10  21  33  50  66  92 127 146 190 224 287
#     4  10  19  29  48  70  88 121 151 181 228 273
#     4  10  19  29  46  66  90 108 146 197 225 274
#     4  10  21  36  46  67  93 120 156 186 237 273
#     4   8  14  25  40  63  90 111 143 181 214 263
#     4  10  21  32  43  65  81 110 135 189 245 265
#     4   8  14  25  40  59  82 113 140 173 225 271
#     4  10  21  33  51  68  85 116 151 195 234 272
#
# _framework density 22.574829000000001
#
# number of rings (size 3 to 8) (size 9 to 14) (size 15 to 20)
#    0.000    2.500    0.000    2.250    7.000    0.000 
#    0.000    0.000    0.000    0.750    0.000    0.000 
#    0.000    0.000    0.000    0.000    0.000   12.500 
#
# Total GULP energy -356364.430320 kJ/mol
# GULP energy per Si atom -5568.194224 kJ/mol
# Density = 2.252345 g / cm^3
# Si number density = 22.574829 Si / 1000 Ang^3
#
#
#
# Elastic Constant Matrix: (Units=GPa)
#
#
# Indices 1 2 3 4 5 6 
#
# 1 64.0293 48.8736 33.0229 0.0000 0.0000 0.0000
# 2 48.8736 333.6525 49.2071 0.0000 0.0000 0.0000
# 3 33.0229 49.2071 54.7109 0.0000 0.0000 0.0000
# 4 0.0000 0.0000 0.0000 15.1069 0.0000 0.0000
# 5 0.0000 0.0000 0.0000 0.0000 99.1452 0.0000
# 6 0.0000 0.0000 0.0000 0.0000 0.0000 -156.9275
#
#
#
# Elastic Compliance Matrix: (Units=1/GPa)
#
#
# Indices 1 2 3 4 5 6 
#
# 1 0.023350 -0.001547 -0.012702 0.000000 0.000000 0.000000
# 2 -0.001547 0.003558 -0.002266 0.000000 0.000000 0.000000
# 3 -0.012702 -0.002266 0.027983 0.000000 0.000000 0.000000
# 4 0.000000 0.000000 0.000000 0.066195 0.000000 0.000000
# 5 0.000000 0.000000 0.000000 0.000000 0.010086 0.000000
# 6 0.000000 0.000000 0.000000 0.000000 0.000000 -0.006372
#
#
# Mechanical properties :
#
#
# Convention : Reuss Voigt Hill
#
# Bulk Modulus (GPa) = 45.74618 79.40000 62.57309
# Shear Modulus (GPa) = 30.28147 12.88421 21.58284
#
# Velocity S-wave (km/s) = 3.66646 2.39159 3.09537
# Velocity P-wave (km/s) = 6.18322 6.54787 6.36815
#
# Compressibility (1/GPa) = 0.02185975
#
# Stress axis : x y z
#
# Youngs Moduli (GPa) = 42.82688 281.05954 35.73573
#
# Poissons Ratio (x) = 0.43478 0.45393
# Poissons Ratio (y) = 0.06625 0.08099
# Poissons Ratio (z) = 0.54400 0.63697
#
# Static dielectric constant tensor:
#      x y z
#    x 1.829290 0.000000 0.000000 
#    y 0.000000 1.933360 0.000000 
#    z 0.000000 0.000000 1.809920 
# 
# From -- ./inp_files/35137.got.cif
#   From: 2010.05.17/outbox.cif.g08.bks.cpg/sg58_18_cif.got.tgz:35137.got - 2010.06.03 14:20:14.
