data_PCOD9441272
_publ_section_title
;
Structure prediction by ZEFSAII (Michael W. Deem and Ramdas Pophale) SiO2 
 PCOD9441272
Probable space group: P N N M
;
_chemical_formula_sum "Si O2"
_cell_formula_units_Z 48
_cell_length_a 10.503030
_cell_length_b 30.169438
_cell_length_c 8.605496
_cell_angle_alpha 90.000000
_cell_angle_beta 90.000000
_cell_angle_gamma 90.000000
_cell_volume 2726.827927
_symmetry_space_group_name_H-M "P N N M"
_symmetry_group_IT_number 58
_symmetry_cell_setting 'orthorhombic'
loop_
_space_group_symop_operation_xyz
x,y,z
-x,-y,z
1/2+x,1/2-y,1/2-z
1/2-x,1/2+y,1/2-z
-x,-y,-z
x,y,-z
1/2-x,1/2+y,1/2+z
1/2+x,1/2-y,1/2+z
loop_
_atom_site_type_symbol
_atom_site_label
_atom_site_fract_x
_atom_site_fract_y
_atom_site_fract_z
Si Si1 0.518817 0.882276 0.315310
Si Si2 0.264366 0.384547 0.312151
Si Si3 0.481689 0.214938 0.813903
Si Si4 0.872985 0.023976 0.810477
Si Si5 0.723788 0.716318 0.687448
Si Si6 0.378368 0.029443 0.812340
O O1 0.517937 0.881344 0.500000
O O2 0.376943 0.892498 0.252400
O O3 0.551695 0.833619 0.251511
O O4 0.608298 0.921497 0.254843
O O5 0.255113 0.385248 0.500000
O O6 0.354089 0.424966 0.262459
O O7 0.304035 0.334829 0.267262
O O8 0.379246 0.250583 0.757614
O O9 0.628617 0.225296 0.765890
O O10 0.481444 0.212618 0.000000
O O11 0.749124 0.995962 0.764515
O O12 0.876096 0.024091 0.000000
O O13 0.000000 0.000000 0.754739
O O14 0.717723 0.719372 0.500000
O O15 0.500000 0.000000 0.764424
O O16 0.380254 0.032287 0.000000
#
# Coordination Sequence:
#
# PCOD9441272 Si02
#       6
#     8   8   8   8   8   8
#     4  11  21  33  54  81 109 138 181 228 271 316
#     4   9  17  34  56  78 108 144 182 219 266 321
#     4  10  21  38  59  81 110 144 182 223 272 331
#     4   9  17  31  53  79 108 140 178 219 259 315
#     4   9  19  35  56  81 110 141 180 229 274 320
#     4  10  18  32  55  79 105 139 180 220 261 315
#
# _framework density 17.602871
#
# number of rings (size 3 to 8) (size 9 to 14) (size 15 to 20)
#    0.000    2.333    1.667    3.000    0.000    3.667 
#    3.000    0.000    0.000    2.000    0.000    0.000 
#    0.000    0.000    0.000    0.000    0.000    0.000 
#
# Total GULP energy -267745.068738 kJ/mol
# GULP energy per Si atom -5578.022265 kJ/mol
# Density = 1.756281 g / cm^3
# Si number density = 17.602871 Si / 1000 Ang^3
#
#
#
# Elastic Constant Matrix: (Units=GPa)
#
#
# Indices 1 2 3 4 5 6 
#
# 1 119.0502 98.7276 24.7073 0.0000 0.0000 0.0000
# 2 98.7276 165.5788 33.7400 0.0000 0.0000 0.0000
# 3 24.7073 33.7400 20.4042 0.0000 0.0000 0.0000
# 4 0.0000 0.0000 0.0000 25.2450 0.0000 0.0000
# 5 0.0000 0.0000 0.0000 0.0000 8.6716 0.0000
# 6 0.0000 0.0000 0.0000 0.0000 0.0000 35.1398
#
#
#
# Elastic Compliance Matrix: (Units=1/GPa)
#
#
# Indices 1 2 3 4 5 6 
#
# 1 0.017057 -0.008991 -0.005787 0.000000 0.000000 0.000000
# 2 -0.008991 0.013848 -0.012011 0.000000 0.000000 0.000000
# 3 -0.005787 -0.012011 0.075878 0.000000 0.000000 0.000000
# 4 0.000000 0.000000 0.000000 0.039612 0.000000 0.000000
# 5 0.000000 0.000000 0.000000 0.000000 0.115318 0.000000
# 6 0.000000 0.000000 0.000000 0.000000 0.000000 0.028458
#
#
# Mechanical properties :
#
#
# Convention : Reuss Voigt Hill
#
# Bulk Modulus (GPa) = 18.79529 68.82033 43.80781
# Shear Modulus (GPa) = 13.83183 23.66850 18.75016
#
# Velocity S-wave (km/s) = 2.80620 3.67083 3.26724
# Velocity P-wave (km/s) = 4.60438 7.55961 6.25891
#
# Compressibility (1/GPa) = 0.05320482
#
# Stress axis : x y z
#
# Youngs Moduli (GPa) = 58.62613 72.21177 13.17904
#
# Poissons Ratio (x) = 0.64928 0.07626
# Poissons Ratio (y) = 0.52713 0.15830
# Poissons Ratio (z) = 0.33924 0.86736
#
# Static dielectric constant tensor:
#      x y z
#    x 1.583140 0.000000 0.000000 
#    y 0.000000 1.601320 0.000000 
#    z 0.000000 0.000000 1.594890 
# 
# From -- ./inp_files/2847.got.cif
#   From: 2010.05.17/outbox.cif.g08.bks.cpg/sg58_2_cif.got.tgz:2847.got - 2010.06.03 14:20:14.
