data_PCOD9441231
_publ_section_title
;
Structure prediction by ZEFSAII (Michael W. Deem and Ramdas Pophale) SiO2 
 PCOD9441231
Probable space group: P N N M
;
_chemical_formula_sum "Si O2"
_cell_formula_units_Z 64
_cell_length_a 20.827922
_cell_length_b 20.598770
_cell_length_c 7.550019
_cell_angle_alpha 90.000000
_cell_angle_beta 90.000000
_cell_angle_gamma 90.000000
_cell_volume 3239.181442
_symmetry_space_group_name_H-M "P N N M"
_symmetry_group_IT_number 58
_symmetry_cell_setting 'orthorhombic'
loop_
_space_group_symop_operation_xyz
x,y,z
-x,-y,z
1/2+x,1/2-y,1/2-z
1/2-x,1/2+y,1/2-z
-x,-y,-z
x,y,-z
1/2-x,1/2+y,1/2+z
1/2+x,1/2-y,1/2+z
loop_
_atom_site_type_symbol
_atom_site_label
_atom_site_fract_x
_atom_site_fract_y
_atom_site_fract_z
Si Si1 0.413569 0.326742 0.788263
Si Si2 0.699762 0.582584 0.784651
Si Si3 0.524250 0.429665 0.286623
Si Si4 0.484039 0.929225 0.795062
Si Si5 0.665495 0.434703 0.291950
Si Si6 0.305062 0.090259 0.214378
Si Si7 0.079805 0.680353 0.283097
Si Si8 0.340940 0.942619 0.292341
O O1 0.348777 0.361955 0.722482
O O2 0.473051 0.374370 0.754477
O O3 0.424667 0.254175 0.719885
O O4 0.406095 0.321930 0.000000
O O5 0.673027 0.512544 0.725933
O O6 0.773758 0.587019 0.724428
O O7 0.700573 0.581710 0.000000
O O8 0.500000 0.500000 0.221398
O O9 0.528590 0.434599 0.500000
O O10 0.596103 0.415973 0.217936
O O11 0.523780 0.868572 0.721412
O O12 0.407720 0.920233 0.789590
O O13 0.500000 0.000000 0.714042
O O14 0.505287 0.933576 0.000000
O O15 0.664872 0.418254 0.500000
O O16 0.731904 0.405819 0.218202
O O17 0.353072 0.146861 0.268805
O O18 0.333248 0.020239 0.268053
O O19 0.303276 0.089777 0.000000
O O20 0.077710 0.682438 0.500000
O O21 0.345378 0.928532 0.500000
#
# Coordination Sequence:
#
# PCOD9441231 Si02
#       8
#     8   8   8   8   8   8   8   8
#     4  10  20  34  52  72  97 134 172 205 247 301
#     4   9  18  31  47  71 101 128 160 202 248 293
#     4  10  19  32  49  75 107 132 161 208 253 295
#     4  10  18  32  53  75  98 129 169 210 247 291
#     4   9  17  29  50  75  97 125 164 205 247 288
#     4   9  16  31  52  72  94 127 169 206 243 291
#     4   9  18  33  52  73  97 127 170 214 247 289
#     4  10  19  30  47  75 105 127 156 204 256 297
#
# _framework density 19.758078999999999
#
# number of rings (size 3 to 8) (size 9 to 14) (size 15 to 20)
#    0.000    2.500    2.500    0.375    0.000    1.500 
#    0.000    2.500    0.000    3.000    0.000    0.000 
#    0.000    0.000    0.000    0.000    0.000    0.000 
#
# Total GULP energy -356986.021477 kJ/mol
# GULP energy per Si atom -5577.906586 kJ/mol
# Density = 1.971311 g / cm^3
# Si number density = 19.758079 Si / 1000 Ang^3
#
#
#
# Elastic Constant Matrix: (Units=GPa)
#
#
# Indices 1 2 3 4 5 6 
#
# 1 174.4694 100.4423 -5.5744 0.0000 0.0000 0.0000
# 2 100.4423 138.1392 -5.1876 0.0000 0.0000 0.0000
# 3 -5.5744 -5.1876 43.7158 0.0000 0.0000 0.0000
# 4 0.0000 0.0000 0.0000 8.7453 0.0000 0.0000
# 5 0.0000 0.0000 0.0000 0.0000 14.0520 0.0000
# 6 0.0000 0.0000 0.0000 0.0000 0.0000 22.5708
#
#
#
# Elastic Compliance Matrix: (Units=1/GPa)
#
#
# Indices 1 2 3 4 5 6 
#
# 1 0.009866 -0.007158 0.000409 0.000000 0.000000 0.000000
# 2 -0.007158 0.012465 0.000566 0.000000 0.000000 0.000000
# 3 0.000409 0.000566 0.022994 0.000000 0.000000 0.000000
# 4 0.000000 0.000000 0.000000 0.114347 0.000000 0.000000
# 5 0.000000 0.000000 0.000000 0.000000 0.071164 0.000000
# 6 0.000000 0.000000 0.000000 0.000000 0.000000 0.044305
#
#
# Mechanical properties :
#
#
# Convention : Reuss Voigt Hill
#
# Bulk Modulus (GPa) = 30.34077 59.52056 44.93066
# Shear Modulus (GPa) = 16.75079 26.84989 21.80034
#
# Velocity S-wave (km/s) = 2.91485 3.69037 3.32529
# Velocity P-wave (km/s) = 5.16894 6.95331 6.12644
#
# Compressibility (1/GPa) = 0.03295896
#
# Stress axis : x y z
#
# Youngs Moduli (GPa) = 101.36214 80.22448 43.48892
#
# Poissons Ratio (x) = 0.57425 -0.01777
# Poissons Ratio (y) = 0.72555 -0.02463
# Poissons Ratio (z) = -0.04142 -0.04544
#
# Static dielectric constant tensor:
#      x y z
#    x 1.718010 0.000000 0.000000 
#    y 0.000000 1.658720 0.000000 
#    z 0.000000 0.000000 1.739520 
# 
# From -- ./inp_files/9456.got.cif
#   From: 2010.05.17/outbox.cif.g08.bks.cpg/sg58_5_cif.got.tgz:9456.got - 2010.06.03 14:20:14.
