data_PCOD9441356
_publ_section_title
;
Structure prediction by ZEFSAII (Michael W. Deem and Ramdas Pophale) SiO2 
 PCOD9441356
Probable space group: P N N M
;
_chemical_formula_sum "Si O2"
_cell_formula_units_Z 64
_cell_length_a 31.411371
_cell_length_b 12.199135
_cell_length_c 7.877799
_cell_angle_alpha 90.000000
_cell_angle_beta 90.000000
_cell_angle_gamma 90.000000
_cell_volume 3018.706052
_symmetry_space_group_name_H-M "P N N M"
_symmetry_group_IT_number 58
_symmetry_cell_setting 'orthorhombic'
loop_
_space_group_symop_operation_xyz
x,y,z
-x,-y,z
1/2+x,1/2-y,1/2-z
1/2-x,1/2+y,1/2-z
-x,-y,-z
x,y,-z
1/2-x,1/2+y,1/2+z
1/2+x,1/2-y,1/2+z
loop_
_atom_site_type_symbol
_atom_site_label
_atom_site_fract_x
_atom_site_fract_y
_atom_site_fract_z
Si Si1 0.628219 0.171712 0.303603
Si Si2 0.449527 0.239928 0.207917
Si Si3 0.335562 0.482951 0.294636
Si Si4 0.040947 0.215984 0.298129
Si Si5 0.123329 0.575208 0.697729
Si Si6 0.288898 0.700444 0.705412
Si Si7 0.192848 0.743031 0.199539
Si Si8 0.431364 0.486052 0.800227
O O1 0.627373 0.204361 0.500000
O O2 0.584973 0.221464 0.229332
O O3 0.672054 0.223087 0.233589
O O4 0.628128 0.041187 0.286536
O O5 0.498446 0.222041 0.260781
O O6 0.415298 0.150652 0.266197
O O7 0.438493 0.363499 0.267400
O O8 0.446436 0.238579 0.000000
O O9 0.338910 0.482710 0.500000
O O10 0.301909 0.576429 0.248652
O O11 0.322211 0.362101 0.237069
O O12 0.381574 0.511857 0.221597
O O13 0.035745 0.204280 0.500000
O O14 0.043976 0.091472 0.228042
O O15 0.114933 0.551348 0.500000
O O16 0.165848 0.647730 0.712851
O O17 0.286190 0.708010 0.500000
O O18 0.243086 0.731401 0.775619
O O19 0.182958 0.736618 0.000000
O O20 0.441955 0.479411 0.000000
#
# Coordination Sequence:
#
# PCOD9441356 Si02
#       8
#     8   8   8   8   8   8   8   8
#     4  11  24  42  61  85 120 157 201 251 298 350
#     4   9  19  36  59  89 120 154 196 243 293 350
#     4  10  21  39  61  87 121 155 188 238 296 350
#     4  10  20  36  61  90 119 154 198 246 296 351
#     4  11  23  41  63  85 118 159 200 243 294 354
#     4  10  23  42  62  85 118 159 196 239 293 350
#     4  11  24  40  62  92 121 151 194 245 294 348
#     4  10  18  33  60  91 120 152 194 243 291 347
#
# _framework density 21.201136000000002
#
# number of rings (size 3 to 8) (size 9 to 14) (size 15 to 20)
#    0.000    1.750    2.500    1.500    1.750    4.000 
#    0.000    4.375    0.000    1.500    0.000    0.000 
#    0.000    0.000    0.000    0.000    0.000    0.000 
#
# Total GULP energy -357542.112714 kJ/mol
# GULP energy per Si atom -5586.595511 kJ/mol
# Density = 2.115288 g / cm^3
# Si number density = 21.201136 Si / 1000 Ang^3
#
#
#
# Elastic Constant Matrix: (Units=GPa)
#
#
# Indices 1 2 3 4 5 6 
#
# 1 103.5667 21.5732 -11.4487 0.0000 0.0000 0.0000
# 2 21.5732 94.3447 -8.9439 0.0000 0.0000 0.0000
# 3 -11.4487 -8.9439 19.6509 0.0000 0.0000 0.0000
# 4 0.0000 0.0000 0.0000 17.3471 0.0000 0.0000
# 5 0.0000 0.0000 0.0000 0.0000 16.0613 0.0000
# 6 0.0000 0.0000 0.0000 0.0000 0.0000 20.9810
#
#
#
# Elastic Compliance Matrix: (Units=1/GPa)
#
#
# Indices 1 2 3 4 5 6 
#
# 1 0.010646 -0.001930 0.005324 0.000000 0.000000 0.000000
# 2 -0.001930 0.011427 0.004077 0.000000 0.000000 0.000000
# 3 0.005324 0.004077 0.055846 0.000000 0.000000 0.000000
# 4 0.000000 0.000000 0.000000 0.057646 0.000000 0.000000
# 5 0.000000 0.000000 0.000000 0.000000 0.062261 0.000000
# 6 0.000000 0.000000 0.000000 0.000000 0.000000 0.047662
#
#
# Mechanical properties :
#
#
# Convention : Reuss Voigt Hill
#
# Bulk Modulus (GPa) = 10.76872 24.43593 17.60233
# Shear Modulus (GPa) = 19.12046 25.30335 22.21190
#
# Velocity S-wave (km/s) = 3.00636 3.45844 3.24029
# Velocity P-wave (km/s) = 4.14020 5.24390 4.72439
#
# Compressibility (1/GPa) = 0.09286151
#
# Stress axis : x y z
#
# Youngs Moduli (GPa) = 93.93091 87.51093 17.90651
#
# Poissons Ratio (x) = 0.16886 -0.09534
# Poissons Ratio (y) = 0.18125 -0.07300
# Poissons Ratio (z) = -0.50011 -0.35676
#
# Static dielectric constant tensor:
#      x y z
#    x 1.756050 0.000000 0.000000 
#    y 0.000000 1.750230 0.000000 
#    z 0.000000 0.000000 1.785920 
# 
# From -- ./inp_files/4675.got.cif
#   From: 2010.05.17/outbox.cif.g08.bks.cpg/sg58_3_cif.got.tgz:4675.got - 2010.06.03 14:20:14.
