data_PCOD9441627
_publ_section_title
;
Structure prediction by ZEFSAII (Michael W. Deem and Ramdas Pophale) SiO2 
 PCOD9441627
Probable space group: P N N M
;
_chemical_formula_sum "Si O2"
_cell_formula_units_Z 64
_cell_length_a 21.282164
_cell_length_b 17.924028
_cell_length_c 7.440272
_cell_angle_alpha 90.000000
_cell_angle_beta 90.000000
_cell_angle_gamma 90.000000
_cell_volume 2838.181807
_symmetry_space_group_name_H-M "P N N M"
_symmetry_group_IT_number 58
_symmetry_cell_setting 'orthorhombic'
loop_
_space_group_symop_operation_xyz
x,y,z
-x,-y,z
1/2+x,1/2-y,1/2-z
1/2-x,1/2+y,1/2-z
-x,-y,-z
x,y,-z
1/2-x,1/2+y,1/2+z
1/2+x,1/2-y,1/2+z
loop_
_atom_site_type_symbol
_atom_site_label
_atom_site_fract_x
_atom_site_fract_y
_atom_site_fract_z
Si Si1 0.741868 0.094092 0.717122
Si Si2 0.607325 0.065888 0.280800
Si Si3 0.489912 0.666894 0.704829
Si Si4 0.399682 0.544967 0.705668
Si Si5 0.374732 0.376670 0.795950
Si Si6 0.733956 0.419193 0.784629
Si Si7 0.497081 0.172193 0.279393
Si Si8 0.131408 0.605283 0.219259
O O1 0.743480 0.101306 0.500000
O O2 0.670822 0.109564 0.776318
O O3 0.804875 0.134704 0.783465
O O4 0.751485 0.006230 0.756469
O O5 0.607436 0.065348 0.500000
O O6 0.544058 0.106597 0.223916
O O7 0.613372 0.979522 0.226974
O O8 0.466116 0.668418 0.500000
O O9 0.455252 0.595165 0.785277
O O10 0.564705 0.656628 0.702058
O O11 0.478026 0.747995 0.784282
O O12 0.415049 0.524013 0.500000
O O13 0.385790 0.466373 0.798759
O O14 0.335419 0.593282 0.709723
O O15 0.375545 0.349010 0.000000
O O16 0.797166 0.377394 0.722599
O O17 0.729333 0.411689 0.000000
O O18 0.496700 0.173555 0.500000
O O19 0.425599 0.157289 0.222551
O O20 0.132815 0.605603 0.000000
#
# Coordination Sequence:
#
# PCOD9441627 Si02
#       8
#     8   8   8   8   8   8   8   8
#     4   7  12  23  40  65  91 109 136 184 230 262
#     4   8  12  21  41  68  94 117 145 186 230 266
#     4  10  21  33  43  63  96 126 152 187 230 274
#     4  10  19  31  47  67  92 121 153 191 233 277
#     4  10  19  32  51  71  89 115 153 194 234 276
#     4   8  14  26  45  69  94 117 146 188 230 267
#     4   9  16  26  41  63  94 128 155 183 226 274
#     4   8  13  23  43  70  94 117 152 194 227 261
#
# _framework density 22.549648999999999
#
# number of rings (size 3 to 8) (size 9 to 14) (size 15 to 20)
#    0.000    3.250    0.000    3.750    0.000    4.000 
#    0.000    1.250    0.000    2.250    0.000    8.750 
#    0.000   10.000    0.000    0.000    0.000    0.000 
#
# Total GULP energy -356723.228632 kJ/mol
# GULP energy per Si atom -5573.800447 kJ/mol
# Density = 2.249833 g / cm^3
# Si number density = 22.549649 Si / 1000 Ang^3
#
#
#
# Elastic Constant Matrix: (Units=GPa)
#
#
# Indices 1 2 3 4 5 6 
#
# 1 86.8740 -2.1333 -3.3004 0.0000 0.0000 0.0000
# 2 -2.1333 25.9350 -6.1820 0.0000 0.0000 0.0000
# 3 -3.3004 -6.1820 67.4416 0.0000 0.0000 0.0000
# 4 0.0000 0.0000 0.0000 -1.3163 0.0000 0.0000
# 5 0.0000 0.0000 0.0000 0.0000 5.9420 0.0000
# 6 0.0000 0.0000 0.0000 0.0000 0.0000 3.5023
#
#
#
# Elastic Compliance Matrix: (Units=1/GPa)
#
#
# Indices 1 2 3 4 5 6 
#
# 1 0.011564 0.001110 0.000668 0.000000 0.000000 0.000000
# 2 0.001110 0.039526 0.003677 0.000000 0.000000 0.000000
# 3 0.000668 0.003677 0.015197 0.000000 0.000000 0.000000
# 4 0.000000 0.000000 0.000000 -0.759711 0.000000 0.000000
# 5 0.000000 0.000000 0.000000 0.000000 0.168293 0.000000
# 6 0.000000 0.000000 0.000000 0.000000 0.000000 0.285527
#
#
# Mechanical properties :
#
#
# Convention : Reuss Voigt Hill
#
# Bulk Modulus (GPa) = 12.95375 17.44656 15.20015
# Shear Modulus (GPa) = -22.24368 14.41669 -3.91349
#
# Velocity S-wave (km/s) = -3.14416 2.53124 -1.31881
# Velocity P-wave (km/s) = 2.72469 4.03691 2.10627
#
# Compressibility (1/GPa) = 0.07719774
#
# Stress axis : x y z
#
# Youngs Moduli (GPa) = 86.47860 25.29990 65.80066
#
# Poissons Ratio (x) = -0.02809 -0.04393
# Poissons Ratio (y) = -0.09602 -0.24198
# Poissons Ratio (z) = -0.05774 -0.09304
#
# Static dielectric constant tensor:
#      x y z
#    x 1.879680 0.000000 0.000000 
#    y 0.000000 1.823050 0.000000 
#    z 0.000000 0.000000 1.864340 
# 
# From -- ./inp_files/9435.got.cif
#   From: 2010.05.17/outbox.cif.g08.bks.cpg/sg58_5_cif.got.tgz:9435.got - 2010.06.03 14:20:14.
