data_PCOD9441182
_publ_section_title
;
Structure prediction by ZEFSAII (Michael W. Deem and Ramdas Pophale) SiO2 
 PCOD9441182
Probable space group: P N N M
;
_chemical_formula_sum "Si O2"
_cell_formula_units_Z 64
_cell_length_a 13.053054
_cell_length_b 29.143982
_cell_length_c 7.544549
_cell_angle_alpha 90.000000
_cell_angle_beta 90.000000
_cell_angle_gamma 90.000000
_cell_volume 2870.082021
_symmetry_space_group_name_H-M "P N N M"
_symmetry_group_IT_number 58
_symmetry_cell_setting 'orthorhombic'
loop_
_space_group_symop_operation_xyz
x,y,z
-x,-y,z
1/2+x,1/2-y,1/2-z
1/2-x,1/2+y,1/2-z
-x,-y,-z
x,y,-z
1/2-x,1/2+y,1/2+z
1/2+x,1/2-y,1/2+z
loop_
_atom_site_type_symbol
_atom_site_label
_atom_site_fract_x
_atom_site_fract_y
_atom_site_fract_z
Si Si1 0.609436 0.484252 0.784020
Si Si2 0.595123 0.124520 0.198453
Si Si3 0.923198 0.159057 0.788472
Si Si4 0.785639 0.709670 0.282687
Si Si5 0.053952 0.545579 0.797380
Si Si6 0.154775 0.189513 0.288658
Si Si7 0.255608 0.596014 0.217308
Si Si8 0.795561 0.076123 0.705603
O O1 0.500000 0.500000 0.718143
O O2 0.647084 0.434623 0.730817
O O3 0.686429 0.524711 0.732301
O O4 0.606599 0.484724 0.000000
O O5 0.625349 0.174064 0.275522
O O6 0.523919 0.088391 0.296838
O O7 0.706186 0.100788 0.190439
O O8 0.553026 0.130214 0.000000
O O9 0.826829 0.190970 0.728403
O O10 0.896282 0.108084 0.718499
O O11 0.034981 0.177661 0.739411
O O12 0.918873 0.156879 0.000000
O O13 0.787135 0.708483 0.500000
O O14 0.811647 0.760715 0.221025
O O15 0.157045 0.567575 0.719227
O O16 0.000000 0.500000 0.718338
O O17 0.080435 0.532211 0.000000
O O18 0.169796 0.191146 0.500000
O O19 0.224829 0.147605 0.220892
O O20 0.249633 0.597387 0.000000
O O21 0.764521 0.074845 0.500000
#
# Coordination Sequence:
#
# PCOD9441182 Si02
#       8
#     8   8   8   8   8   8   8   8
#     4   9  16  27  47  76 103 126 161 211 261 304
#     4  10  20  35  53  75 106 139 174 221 274 322
#     4  10  20  35  53  77 110 140 170 218 275 319
#     4   8  18  35  53  74 102 137 174 217 266 317
#     4  10  20  35  55  79 109 144 184 230 276 329
#     4  10  19  35  57  77 101 137 180 220 264 320
#     4   9  18  31  50  78 106 132 170 223 272 315
#     4  10  18  31  54  78 100 133 176 215 255 313
#
# _framework density 22.299012999999999
#
# number of rings (size 3 to 8) (size 9 to 14) (size 15 to 20)
#    0.000    2.500    0.000    3.375    0.000    5.250 
#    0.000    5.625    0.000    8.250    0.000    0.000 
#    0.000    0.000    0.000    0.000    0.000    0.000 
#
# Total GULP energy -357192.770973 kJ/mol
# GULP energy per Si atom -5581.137046 kJ/mol
# Density = 2.224826 g / cm^3
# Si number density = 22.299013 Si / 1000 Ang^3
#
#
#
# Elastic Constant Matrix: (Units=GPa)
#
#
# Indices 1 2 3 4 5 6 
#
# 1 83.6637 44.2812 -4.9838 0.0000 0.0000 0.0000
# 2 44.2812 169.6900 6.1072 0.0000 0.0000 0.0000
# 3 -4.9838 6.1072 58.5906 0.0000 0.0000 0.0000
# 4 0.0000 0.0000 0.0000 7.2052 0.0000 0.0000
# 5 0.0000 0.0000 0.0000 0.0000 7.1159 0.0000
# 6 0.0000 0.0000 0.0000 0.0000 0.0000 32.0091
#
#
#
# Elastic Compliance Matrix: (Units=1/GPa)
#
#
# Indices 1 2 3 4 5 6 
#
# 1 0.014012 -0.003713 0.001579 0.000000 0.000000 0.000000
# 2 -0.003713 0.006899 -0.001035 0.000000 0.000000 0.000000
# 3 0.001579 -0.001035 0.017310 0.000000 0.000000 0.000000
# 4 0.000000 0.000000 0.000000 0.138789 0.000000 0.000000
# 5 0.000000 0.000000 0.000000 0.000000 0.140531 0.000000
# 6 0.000000 0.000000 0.000000 0.000000 0.000000 0.031241
#
#
# Mechanical properties :
#
#
# Convention : Reuss Voigt Hill
#
# Bulk Modulus (GPa) = 31.36532 44.75040 38.05786
# Shear Modulus (GPa) = 13.67060 27.03535 20.35297
#
# Velocity S-wave (km/s) = 2.47869 3.48573 3.02442
# Velocity P-wave (km/s) = 4.72104 6.02597 5.41297
#
# Compressibility (1/GPa) = 0.03188235
#
# Stress axis : x y z
#
# Youngs Moduli (GPa) = 71.36726 144.94123 57.77088
#
# Poissons Ratio (x) = 0.53821 -0.09122
# Poissons Ratio (y) = 0.26501 0.05979
# Poissons Ratio (z) = -0.11268 0.15002
#
# Static dielectric constant tensor:
#      x y z
#    x 1.831640 0.000000 0.000000 
#    y 0.000000 1.823720 0.000000 
#    z 0.000000 0.000000 1.844770 
# 
# From -- ./inp_files/4706.got.cif
#   From: 2010.05.17/outbox.cif.g08.bks.cpg/sg58_3_cif.got.tgz:4706.got - 2010.06.03 14:20:14.
