data_PCOD9441039
_publ_section_title
;
Structure prediction by ZEFSAII (Michael W. Deem and Ramdas Pophale) SiO2 
 PCOD9441039
Probable space group: P N N M
;
_chemical_formula_sum "Si O2"
_cell_formula_units_Z 48
_cell_length_a 17.210769
_cell_length_b 9.532006
_cell_length_c 13.339992
_cell_angle_alpha 90.000000
_cell_angle_beta 90.000000
_cell_angle_gamma 90.000000
_cell_volume 2188.467754
_symmetry_space_group_name_H-M "P N N M"
_symmetry_group_IT_number 58
_symmetry_cell_setting 'orthorhombic'
loop_
_space_group_symop_operation_xyz
x,y,z
-x,-y,z
1/2+x,1/2-y,1/2-z
1/2-x,1/2+y,1/2-z
-x,-y,-z
x,y,-z
1/2-x,1/2+y,1/2+z
1/2+x,1/2-y,1/2+z
loop_
_atom_site_type_symbol
_atom_site_label
_atom_site_fract_x
_atom_site_fract_y
_atom_site_fract_z
Si Si1 0.089483 0.041139 0.388529
Si Si2 0.293028 0.546766 0.385829
Si Si3 0.393036 0.300269 0.621200
Si Si4 0.937395 0.796352 0.193027
Si Si5 0.127677 0.474935 0.120258
Si Si6 0.784872 0.184655 0.621262
O O1 0.116546 0.087080 0.500000
O O2 0.093133 0.156569 0.301867
O O3 0.137120 0.901427 0.360454
O O4 0.000000 0.000000 0.395244
O O5 0.268553 0.521022 0.500000
O O6 0.319768 0.395567 0.345932
O O7 0.375035 0.631910 0.381560
O O8 0.232271 0.657827 0.339453
O O9 0.400889 0.315642 0.500000
O O10 0.474882 0.343298 0.670572
O O11 0.379863 0.137638 0.643465
O O12 0.931323 0.630548 0.174261
O O13 0.212637 0.415554 0.147258
O O14 0.116269 0.459897 0.000000
O O15 0.781519 0.200022 0.500000
#
# Coordination Sequence:
#
# PCOD9441039 Si02
#       6
#     8   8   8   8   8   8
#     4  10  21  37  57  77 101 148 211 261 297 332
#     4   9  17  30  53  85 115 142 172 216 280 348
#     4  10  18  29  52  89 127 155 178 212 278 367
#     4  11  19  31  52  82 118 153 191 232 274 331
#     4   9  18  33  57  88 121 155 181 216 287 366
#     4   8  16  34  56  78 106 137 180 239 292 342
#
# _framework density 21.933153000000001
#
# number of rings (size 3 to 8) (size 9 to 14) (size 15 to 20)
#    0.000    2.500    0.000    4.500    0.000    2.667 
#    0.000    6.667    0.000    4.000    0.000   14.000 
#    0.000    0.000    0.000    0.000    0.000    0.000 
#
# Total GULP energy -267907.337323 kJ/mol
# GULP energy per Si atom -5581.402861 kJ/mol
# Density = 2.188323 g / cm^3
# Si number density = 21.933153 Si / 1000 Ang^3
#
#
#
# Elastic Constant Matrix: (Units=GPa)
#
#
# Indices 1 2 3 4 5 6 
#
# 1 94.8274 45.9925 20.7216 0.0000 0.0000 0.0000
# 2 45.9925 183.3172 34.6376 0.0000 0.0000 0.0000
# 3 20.7216 34.6376 94.0120 0.0000 0.0000 0.0000
# 4 0.0000 0.0000 0.0000 7.4018 0.0000 0.0000
# 5 0.0000 0.0000 0.0000 0.0000 16.3080 0.0000
# 6 0.0000 0.0000 0.0000 0.0000 0.0000 29.7517
#
#
#
# Elastic Compliance Matrix: (Units=1/GPa)
#
#
# Indices 1 2 3 4 5 6 
#
# 1 0.012250 -0.002755 -0.001685 0.000000 0.000000 0.000000
# 2 -0.002755 0.006483 -0.001781 0.000000 0.000000 0.000000
# 3 -0.001685 -0.001781 0.011665 0.000000 0.000000 0.000000
# 4 0.000000 0.000000 0.000000 0.135102 0.000000 0.000000
# 5 0.000000 0.000000 0.000000 0.000000 0.061320 0.000000
# 6 0.000000 0.000000 0.000000 0.000000 0.000000 0.033612
#
#
# Mechanical properties :
#
#
# Convention : Reuss Voigt Hill
#
# Bulk Modulus (GPa) = 55.69549 63.87332 59.78441
# Shear Modulus (GPa) = 17.93029 28.74597 23.33813
#
# Velocity S-wave (km/s) = 2.86229 3.62417 3.26553
# Velocity P-wave (km/s) = 6.03092 6.83358 6.44476
#
# Compressibility (1/GPa) = 0.01795477
#
# Stress axis : x y z
#
# Youngs Moduli (GPa) = 81.63336 154.25446 85.72927
#
# Poissons Ratio (x) = 0.42497 0.14445
# Poissons Ratio (y) = 0.22490 0.15271
# Poissons Ratio (z) = 0.13755 0.27477
#
# Static dielectric constant tensor:
#      x y z
#    x 1.798110 0.000000 0.000000 
#    y 0.000000 1.834480 0.000000 
#    z 0.000000 0.000000 1.881390 
# 
# From -- ./inp_files/22762.got.cif
#   From: 2010.05.17/outbox.cif.g08.bks.cpg/sg58_12_cif.got.tgz:22762.got - 2010.06.03 14:20:14.
