data_PCOD9441652
_publ_section_title
;
Structure prediction by ZEFSAII (Michael W. Deem and Ramdas Pophale) SiO2 
 PCOD9441652
Probable space group: P N N M
;
_chemical_formula_sum "Si O2"
_cell_formula_units_Z 32
_cell_length_a 10.377998
_cell_length_b 14.042144
_cell_length_c 8.745697
_cell_angle_alpha 90.000000
_cell_angle_beta 90.000000
_cell_angle_gamma 90.000000
_cell_volume 1274.504672
_symmetry_space_group_name_H-M "P N N M"
_symmetry_group_IT_number 58
_symmetry_cell_setting 'orthorhombic'
loop_
_space_group_symop_operation_xyz
x,y,z
-x,-y,z
1/2+x,1/2-y,1/2-z
1/2-x,1/2+y,1/2-z
-x,-y,-z
x,y,-z
1/2-x,1/2+y,1/2+z
1/2+x,1/2-y,1/2+z
loop_
_atom_site_type_symbol
_atom_site_label
_atom_site_fract_x
_atom_site_fract_y
_atom_site_fract_z
Si Si1 0.192988 0.341201 0.676204
Si Si2 0.060932 0.631352 0.176891
Si Si3 0.951464 0.822419 0.825145
Si Si4 0.822137 0.988540 0.676075
O O1 0.199567 0.311558 0.500000
O O2 0.054286 0.394036 0.708675
O O3 0.165934 0.250792 0.785587
O O4 0.298482 0.419719 0.719110
O O5 0.068405 0.746941 0.193277
O O6 0.192091 0.575227 0.194683
O O7 0.016978 0.616019 0.000000
O O8 0.932809 0.913094 0.718723
O O9 0.944775 0.853873 0.000000
O O10 0.830406 0.018040 0.500000
#
# Coordination Sequence:
#
# PCOD9441652 Si02
#       4
#     8   8   8   8
#     4  10  19  31  48  74 101 127 162 201 239 285
#     4   8  18  33  48  70 102 128 157 199 244 287
#     4   9  19  34  47  70 100 129 161 201 241 287
#     4  11  19  31  52  74  98 132 160 196 249 288
#
# _framework density 25.107796
#
# number of rings (size 3 to 8) (size 9 to 14) (size 15 to 20)
#    1.500    1.000    0.000    3.750    0.000    5.000 
#    0.000    0.000    0.000    1.500    0.000   10.500 
#    0.000    0.000    0.000    0.000    0.000    0.000 
#
# Total GULP energy -178732.091606 kJ/mol
# GULP energy per Si atom -5585.377863 kJ/mol
# Density = 2.505065 g / cm^3
# Si number density = 25.107796 Si / 1000 Ang^3
#
#
#
# Elastic Constant Matrix: (Units=GPa)
#
#
# Indices 1 2 3 4 5 6 
#
# 1 75.8897 -10.3160 5.6070 0.0000 0.0000 0.0000
# 2 -10.3160 120.1057 15.6224 0.0000 0.0000 0.0000
# 3 5.6070 15.6224 50.7976 0.0000 0.0000 0.0000
# 4 0.0000 0.0000 0.0000 42.9460 0.0000 0.0000
# 5 0.0000 0.0000 0.0000 0.0000 28.9966 0.0000
# 6 0.0000 0.0000 0.0000 0.0000 0.0000 45.5602
#
#
#
# Elastic Compliance Matrix: (Units=1/GPa)
#
#
# Indices 1 2 3 4 5 6 
#
# 1 0.013511 0.001411 -0.001925 0.000000 0.000000 0.000000
# 2 0.001411 0.008820 -0.002868 0.000000 0.000000 0.000000
# 3 -0.001925 -0.002868 0.020781 0.000000 0.000000 0.000000
# 4 0.000000 0.000000 0.000000 0.023285 0.000000 0.000000
# 5 0.000000 0.000000 0.000000 0.000000 0.034487 0.000000
# 6 0.000000 0.000000 0.000000 0.000000 0.000000 0.021949
#
#
# Mechanical properties :
#
#
# Convention : Reuss Voigt Hill
#
# Bulk Modulus (GPa) = 27.51292 29.84664 28.67978
# Shear Modulus (GPa) = 35.28242 39.22588 37.25415
#
# Velocity S-wave (km/s) = 3.75272 3.95688 3.85615
# Velocity P-wave (km/s) = 5.45517 5.72617 5.59231
#
# Compressibility (1/GPa) = 0.03634656
#
# Stress axis : x y z
#
# Youngs Moduli (GPa) = 74.01353 113.37516 48.12178
#
# Poissons Ratio (x) = -0.15996 0.09265
# Poissons Ratio (y) = -0.10443 0.13803
# Poissons Ratio (z) = 0.14249 0.32520
#
# Static dielectric constant tensor:
#      x y z
#    x 2.240310 0.000000 0.000000 
#    y 0.000000 2.014460 0.000000 
#    z 0.000000 0.000000 1.815790 
# 
# From -- ./inp_files/3489.got.cif
#   From: 2010.05.17/outbox.cif.g08.bks.cpg/sg58_2_cif.got.tgz:3489.got - 2010.06.03 14:20:14.
