data_PCOD9441547
_publ_section_title
;
Structure prediction by ZEFSAII (Michael W. Deem and Ramdas Pophale) SiO2 
 PCOD9441547
Probable space group: P N N M
;
_chemical_formula_sum "Si O2"
_cell_formula_units_Z 64
_cell_length_a 22.386781
_cell_length_b 19.449555
_cell_length_c 7.826681
_cell_angle_alpha 90.000000
_cell_angle_beta 90.000000
_cell_angle_gamma 90.000000
_cell_volume 3407.838093
_symmetry_space_group_name_H-M "P N N M"
_symmetry_group_IT_number 58
_symmetry_cell_setting 'orthorhombic'
loop_
_space_group_symop_operation_xyz
x,y,z
-x,-y,z
1/2+x,1/2-y,1/2-z
1/2-x,1/2+y,1/2-z
-x,-y,-z
x,y,-z
1/2-x,1/2+y,1/2+z
1/2+x,1/2-y,1/2+z
loop_
_atom_site_type_symbol
_atom_site_label
_atom_site_fract_x
_atom_site_fract_y
_atom_site_fract_z
Si Si1 0.812417 0.041304 0.802939
Si Si2 0.433647 0.516779 0.294688
Si Si3 0.009215 0.576100 0.701570
Si Si4 0.386432 0.667705 0.793648
Si Si5 0.814479 0.584626 0.799147
Si Si6 0.233458 0.108193 0.293078
Si Si7 0.084703 0.315411 0.298734
Si Si8 0.358566 0.067317 0.706161
O O1 0.757134 0.084059 0.726550
O O2 0.879584 0.032513 0.728755
O O3 0.788704 0.963081 0.787567
O O4 0.817300 0.061891 0.000000
O O5 0.500000 0.500000 0.229781
O O6 0.433809 0.507956 0.500000
O O7 0.416925 0.596295 0.260259
O O8 0.994539 0.571265 0.500000
O O9 0.078818 0.591507 0.721526
O O10 0.000000 0.500000 0.777527
O O11 0.965038 0.633199 0.775863
O O12 0.316235 0.663375 0.745295
O O13 0.413524 0.738547 0.725873
O O14 0.388699 0.668746 0.000000
O O15 0.851727 0.646173 0.717129
O O16 0.841492 0.510822 0.737333
O O17 0.825923 0.587413 0.000000
O O18 0.231494 0.099112 0.500000
O O19 0.302458 0.115227 0.246001
O O20 0.071533 0.307590 0.500000
O O21 0.362951 0.065923 0.500000
#
# Coordination Sequence:
#
# PCOD9441547 Si02
#       8
#     8   8   8   8   8   8   8   8
#     4   9  16  27  47  73  97 122 153 194 242 291
#     4   9  18  33  54  79 104 129 163 208 253 302
#     4  10  19  30  45  68  98 131 168 205 239 284
#     4   9  18  33  53  74  98 129 166 208 252 304
#     4  10  19  30  46  70  98 127 160 205 249 290
#     4   8  15  29  47  69  93 117 151 197 242 287
#     4  10  20  33  49  70  97 134 173 207 249 302
#     4   9  17  28  45  68  93 120 156 199 242 285
#
# _framework density 18.780235000000001
#
# number of rings (size 3 to 8) (size 9 to 14) (size 15 to 20)
#    0.000    2.750    1.250    1.500    0.000    4.000 
#    0.000    0.000    2.750    0.000    0.000    0.000 
#    0.000    0.000    0.000    0.000    0.000    0.000 
#
# Total GULP energy -356332.271818 kJ/mol
# GULP energy per Si atom -5567.691747 kJ/mol
# Density = 1.873749 g / cm^3
# Si number density = 18.780235 Si / 1000 Ang^3
#
#
#
# Elastic Constant Matrix: (Units=GPa)
#
#
# Indices 1 2 3 4 5 6 
#
# 1 133.3235 45.7165 -7.9460 0.0000 0.0000 0.0000
# 2 45.7165 68.0239 -0.9590 0.0000 0.0000 0.0000
# 3 -7.9460 -0.9590 12.7704 0.0000 0.0000 0.0000
# 4 0.0000 0.0000 0.0000 8.4248 0.0000 0.0000
# 5 0.0000 0.0000 0.0000 0.0000 19.7783 0.0000
# 6 0.0000 0.0000 0.0000 0.0000 0.0000 17.6544
#
#
#
# Elastic Compliance Matrix: (Units=1/GPa)
#
#
# Indices 1 2 3 4 5 6 
#
# 1 0.010161 -0.006747 0.005816 0.000000 0.000000 0.000000
# 2 -0.006747 0.019196 -0.002756 0.000000 0.000000 0.000000
# 3 0.005816 -0.002756 0.081717 0.000000 0.000000 0.000000
# 4 0.000000 0.000000 0.000000 0.118698 0.000000 0.000000
# 5 0.000000 0.000000 0.000000 0.000000 0.050561 0.000000
# 6 0.000000 0.000000 0.000000 0.000000 0.000000 0.056643
#
#
# Mechanical properties :
#
#
# Convention : Reuss Voigt Hill
#
# Bulk Modulus (GPa) = 9.64328 31.97121 20.80725
# Shear Modulus (GPa) = 13.19551 20.99190 17.09371
#
# Velocity S-wave (km/s) = 2.65359 3.34693 3.02022
# Velocity P-wave (km/s) = 3.81243 5.65656 4.82345
#
# Compressibility (1/GPa) = 0.10369911
#
# Stress axis : x y z
#
# Youngs Moduli (GPa) = 98.41982 52.09420 12.23728
#
# Poissons Ratio (x) = 0.35146 -0.07117
# Poissons Ratio (y) = 0.66400 0.03373
# Poissons Ratio (z) = -0.57236 0.14359
#
# Static dielectric constant tensor:
#      x y z
#    x 1.703810 0.000000 0.000000 
#    y 0.000000 1.645220 0.000000 
#    z 0.000000 0.000000 1.678920 
# 
# From -- ./inp_files/9426.got.cif
#   From: 2010.05.17/outbox.cif.g08.bks.cpg/sg58_5_cif.got.tgz:9426.got - 2010.06.03 14:20:14.
