data_PCOD9441348
_publ_section_title
;
Structure prediction by ZEFSAII (Michael W. Deem and Ramdas Pophale) SiO2 
 PCOD9441348
Probable space group: P N N M
;
_chemical_formula_sum "Si O2"
_cell_formula_units_Z 64
_cell_length_a 5.308911
_cell_length_b 24.324642
_cell_length_c 23.240916
_cell_angle_alpha 90.000000
_cell_angle_beta 90.000000
_cell_angle_gamma 90.000000
_cell_volume 3001.270524
_symmetry_space_group_name_H-M "P N N M"
_symmetry_group_IT_number 58
_symmetry_cell_setting 'orthorhombic'
loop_
_space_group_symop_operation_xyz
x,y,z
-x,-y,z
1/2+x,1/2-y,1/2-z
1/2-x,1/2+y,1/2-z
-x,-y,-z
x,y,-z
1/2-x,1/2+y,1/2+z
1/2+x,1/2-y,1/2+z
loop_
_atom_site_type_symbol
_atom_site_label
_atom_site_fract_x
_atom_site_fract_y
_atom_site_fract_z
Si Si1 0.150547 0.688441 0.066791
Si Si2 0.125178 0.553241 0.625936
Si Si3 0.648959 0.753888 0.102091
Si Si4 0.120535 0.052175 0.760390
Si Si5 0.749664 0.701076 0.211960
Si Si6 0.412421 0.643091 0.564833
Si Si7 0.731448 0.641070 0.324843
Si Si8 0.256021 0.138768 0.323564
O O1 0.378625 0.729071 0.085744
O O2 0.190895 0.636503 0.108785
O O3 0.877562 0.715664 0.078531
O O4 0.174749 0.676442 0.000000
O O5 0.248159 0.528001 0.683181
O O6 0.312655 0.582964 0.582070
O O7 0.000000 0.500000 0.597436
O O8 0.966858 0.604078 0.654040
O O9 0.696382 0.754124 0.171714
O O10 0.691416 0.812362 0.072670
O O11 0.288185 0.085052 0.715066
O O12 0.935918 0.097140 0.789135
O O13 0.000000 0.000000 0.729884
O O14 0.740512 0.692633 0.280757
O O15 0.526091 0.661564 0.187503
O O16 0.030922 0.680971 0.197959
O O17 0.510863 0.645409 0.500000
O O18 0.602916 0.658258 0.615729
#
# Coordination Sequence:
#
# PCOD9441348 Si02
#       8
#     8   8   8   8   8   8   8   8
#     4  10  19  35  60  86 122 165 205 242 288 361
#     4  11  22  39  63  84 108 153 206 261 318 364
#     4  10  22  40  61  89 120 161 203 250 298 364
#     4  10  18  33  58  84 114 146 193 256 313 370
#     4   9  18  37  59  88 121 148 192 247 308 360
#     4  11  26  42  57  85 121 162 206 251 305 371
#     4  10  21  38  59  84 113 148 189 251 306 357
#     4   9  18  31  55  89 120 151 194 245 300 359
#
# _framework density 21.324304000000001
#
# number of rings (size 3 to 8) (size 9 to 14) (size 15 to 20)
#    0.000    2.000    2.500    1.125    1.750    0.750 
#    2.250    0.625    0.000    0.375    0.000    0.000 
#    0.000    9.000    0.000    0.000    0.000    1.625 
#
# Total GULP energy -356802.040170 kJ/mol
# GULP energy per Si atom -5575.031878 kJ/mol
# Density = 2.127577 g / cm^3
# Si number density = 21.324304 Si / 1000 Ang^3
#
#
#
# Elastic Constant Matrix: (Units=GPa)
#
#
# Indices 1 2 3 4 5 6 
#
# 1 60.0155 -3.9194 20.9745 0.0000 0.0000 0.0000
# 2 -3.9194 35.3788 45.8868 0.0000 0.0000 0.0000
# 3 20.9745 45.8868 168.0934 0.0000 0.0000 0.0000
# 4 0.0000 0.0000 0.0000 7.6603 0.0000 0.0000
# 5 0.0000 0.0000 0.0000 0.0000 16.6996 0.0000
# 6 0.0000 0.0000 0.0000 0.0000 0.0000 30.2608
#
#
#
# Elastic Compliance Matrix: (Units=1/GPa)
#
#
# Indices 1 2 3 4 5 6 
#
# 1 0.018752 0.007914 -0.004500 0.000000 0.000000 0.000000
# 2 0.007914 0.047099 -0.013845 0.000000 0.000000 0.000000
# 3 -0.004500 -0.013845 0.010290 0.000000 0.000000 0.000000
# 4 0.000000 0.000000 0.000000 0.130543 0.000000 0.000000
# 5 0.000000 0.000000 0.000000 0.000000 0.059882 0.000000
# 6 0.000000 0.000000 0.000000 0.000000 0.000000 0.033046
#
#
# Mechanical properties :
#
#
# Convention : Reuss Voigt Hill
#
# Bulk Modulus (GPa) = 18.08981 43.26351 30.67666
# Shear Modulus (GPa) = 14.75360 24.29387 19.52374
#
# Velocity S-wave (km/s) = 2.63319 3.37895 3.02911
# Velocity P-wave (km/s) = 4.21266 5.96284 5.16246
#
# Compressibility (1/GPa) = 0.05527975
#
# Stress axis : x y z
#
# Youngs Moduli (GPa) = 53.32753 21.23172 97.18101
#
# Poissons Ratio (x) = -0.16804 0.43735
# Poissons Ratio (y) = -0.42206 1.34546
# Poissons Ratio (z) = 0.23999 0.29395
#
# Static dielectric constant tensor:
#      x y z
#    x 1.892490 0.000000 0.000000 
#    y 0.000000 1.794680 0.000000 
#    z 0.000000 0.000000 1.789600 
# 
# From -- ./inp_files/28324.got.cif
#   From: 2010.05.17/outbox.cif.g08.bks.cpg/sg58_15_cif.got.tgz:28324.got - 2010.06.03 14:20:14.
