data_PCOD9441300
_publ_section_title
;
Structure prediction by ZEFSAII (Michael W. Deem and Ramdas Pophale) SiO2 
 PCOD9441300
Probable space group: P N N M
;
_chemical_formula_sum "Si O2"
_cell_formula_units_Z 64
_cell_length_a 18.807654
_cell_length_b 9.291573
_cell_length_c 19.641592
_cell_angle_alpha 90.000000
_cell_angle_beta 90.000000
_cell_angle_gamma 90.000000
_cell_volume 3432.421040
_symmetry_space_group_name_H-M "P N N M"
_symmetry_group_IT_number 58
_symmetry_cell_setting 'orthorhombic'
loop_
_space_group_symop_operation_xyz
x,y,z
-x,-y,z
1/2+x,1/2-y,1/2-z
1/2-x,1/2+y,1/2-z
-x,-y,-z
x,y,-z
1/2-x,1/2+y,1/2+z
1/2+x,1/2-y,1/2+z
loop_
_atom_site_type_symbol
_atom_site_label
_atom_site_fract_x
_atom_site_fract_y
_atom_site_fract_z
Si Si1 0.902555 0.200147 0.309332
Si Si2 0.546940 0.146785 0.426610
Si Si3 0.994656 0.826966 0.579313
Si Si4 0.975350 0.667296 0.777692
Si Si5 0.779959 0.415129 0.669343
Si Si6 0.794186 0.971979 0.690581
Si Si7 0.284313 0.829920 0.579549
Si Si8 0.363932 0.809674 0.838804
O O1 0.835108 0.300980 0.298498
O O2 0.873055 0.039748 0.305064
O O3 0.935362 0.231640 0.383328
O O4 0.965809 0.237534 0.259269
O O5 0.532279 0.218310 0.500000
O O6 0.529663 0.219187 0.355057
O O7 0.632311 0.128504 0.422420
O O8 0.500000 0.000000 0.426832
O O9 0.994852 0.798306 0.500000
O O10 0.925477 0.753864 0.612729
O O11 0.000000 0.000000 0.589556
O O12 0.902569 0.672021 0.734686
O O13 0.000000 0.500000 0.776125
O O14 0.738771 0.480275 0.734226
O O15 0.732453 0.324834 0.615509
O O16 0.828362 0.541721 0.638381
O O17 0.754081 0.058463 0.630825
O O18 0.802637 0.807635 0.669405
O O19 0.259631 0.832250 0.500000
#
# Coordination Sequence:
#
# PCOD9441300 Si02
#       8
#     8   8   8   8   8   8   8   8
#     4  10  21  36  56  88 116 155 196 239 301 356
#     4   9  18  34  58  87 111 146 199 248 300 358
#     4  10  21  38  59  83 118 156 200 251 296 353
#     4  10  18  32  58  82 119 150 193 250 298 342
#     4  11  22  38  59  86 122 160 202 249 300 363
#     4  11  22  37  60  88 123 157 203 245 299 362
#     4  10  23  41  61  88 123 161 198 246 309 368
#     4  11  21  36  57  89 117 156 206 244 291 359
#
# _framework density 18.645731999999999
#
# number of rings (size 3 to 8) (size 9 to 14) (size 15 to 20)
#    0.000    1.750    2.500    3.000    1.750    3.000 
#    0.000    0.625    0.000    0.750    0.000    2.625 
#    0.000    0.000    0.000    0.000    0.000    0.000 
#
# Total GULP energy -356616.536435 kJ/mol
# GULP energy per Si atom -5572.133382 kJ/mol
# Density = 1.860329 g / cm^3
# Si number density = 18.645732 Si / 1000 Ang^3
#
#
#
# Elastic Constant Matrix: (Units=GPa)
#
#
# Indices 1 2 3 4 5 6 
#
# 1 75.3543 24.0590 44.6321 0.0000 0.0000 0.0000
# 2 24.0590 65.9680 36.2673 0.0000 0.0000 0.0000
# 3 44.6321 36.2673 148.5062 0.0000 0.0000 0.0000
# 4 0.0000 0.0000 0.0000 21.0681 0.0000 0.0000
# 5 0.0000 0.0000 0.0000 0.0000 13.5165 0.0000
# 6 0.0000 0.0000 0.0000 0.0000 0.0000 28.0690
#
#
#
# Elastic Compliance Matrix: (Units=1/GPa)
#
#
# Indices 1 2 3 4 5 6 
#
# 1 0.016975 -0.003911 -0.004147 0.000000 0.000000 0.000000
# 2 -0.003911 0.018411 -0.003321 0.000000 0.000000 0.000000
# 3 -0.004147 -0.003321 0.008791 0.000000 0.000000 0.000000
# 4 0.000000 0.000000 0.000000 0.047465 0.000000 0.000000
# 5 0.000000 0.000000 0.000000 0.000000 0.073983 0.000000
# 6 0.000000 0.000000 0.000000 0.000000 0.000000 0.035626
#
#
# Mechanical properties :
#
#
# Convention : Reuss Voigt Hill
#
# Bulk Modulus (GPa) = 46.68533 55.52726 51.10630
# Shear Modulus (GPa) = 21.63098 24.85540 23.24319
#
# Velocity S-wave (km/s) = 3.40972 3.65503 3.53451
# Velocity P-wave (km/s) = 6.37135 6.90342 6.64271
#
# Compressibility (1/GPa) = 0.02142000
#
# Stress axis : x y z
#
# Youngs Moduli (GPa) = 58.90851 54.31539 113.75399
#
# Poissons Ratio (x) = 0.21245 0.47169
# Poissons Ratio (y) = 0.23041 0.37774
# Poissons Ratio (z) = 0.24427 0.18036
#
# Static dielectric constant tensor:
#      x y z
#    x 1.679450 0.000000 0.000000 
#    y 0.000000 1.654260 0.000000 
#    z 0.000000 0.000000 1.653670 
# 
# From -- ./inp_files/30284.got.cif
#   From: 2010.05.17/outbox.cif.g08.bks.cpg/sg58_16_cif.got.tgz:30284.got - 2010.06.03 14:20:14.
