data_PCOD9441001
_publ_section_title
;
Structure prediction by ZEFSAII (Michael W. Deem and Ramdas Pophale) SiO2 
 PCOD9441001
Probable space group: P N N M
;
_chemical_formula_sum "Si O2"
_cell_formula_units_Z 64
_cell_length_a 23.843561
_cell_length_b 16.123150
_cell_length_c 7.575091
_cell_angle_alpha 90.000000
_cell_angle_beta 90.000000
_cell_angle_gamma 90.000000
_cell_volume 2912.117311
_symmetry_space_group_name_H-M "P N N M"
_symmetry_group_IT_number 58
_symmetry_cell_setting 'orthorhombic'
loop_
_space_group_symop_operation_xyz
x,y,z
-x,-y,z
1/2+x,1/2-y,1/2-z
1/2-x,1/2+y,1/2-z
-x,-y,-z
x,y,-z
1/2-x,1/2+y,1/2+z
1/2+x,1/2-y,1/2+z
loop_
_atom_site_type_symbol
_atom_site_label
_atom_site_fract_x
_atom_site_fract_y
_atom_site_fract_z
Si Si1 0.310286 0.803508 0.789503
Si Si2 0.079068 0.063196 0.213421
Si Si3 0.199462 0.124990 0.294473
Si Si4 0.954798 0.116717 0.784159
Si Si5 0.097379 0.529022 0.214122
Si Si6 0.565374 0.150695 0.206617
Si Si7 0.276962 0.980366 0.712151
Si Si8 0.445567 0.203988 0.297987
O O1 0.288600 0.715960 0.717820
O O2 0.373389 0.823048 0.721956
O O3 0.272354 0.884146 0.761868
O O4 0.316476 0.794342 0.000000
O O5 0.133125 0.109857 0.283293
O O6 0.019649 0.102191 0.268466
O O7 0.078135 0.966318 0.268090
O O8 0.080897 0.065824 0.000000
O O9 0.216340 0.127977 0.500000
O O10 0.231392 0.045326 0.218224
O O11 0.933206 0.205583 0.719725
O O12 0.954582 0.118688 0.000000
O O13 0.062421 0.448914 0.273570
O O14 0.161333 0.510965 0.268589
O O15 0.077738 0.618610 0.281231
O O16 0.094125 0.529515 0.000000
O O17 0.512866 0.193393 0.297964
O O18 0.562165 0.171420 0.000000
O O19 0.276149 0.981064 0.500000
O O20 0.424887 0.205887 0.500000
#
# Coordination Sequence:
#
# PCOD9441001 Si02
#       8
#     8   8   8   8   8   8   8   8
#     4   9  19  35  53  75 101 131 167 208 251 300
#     4   9  17  32  53  75 100 131 166 204 248 296
#     4  10  20  35  54  77 104 131 166 212 257 298
#     4   8  16  31  49  73 104 130 160 207 248 286
#     4   9  18  32  48  66  92 128 167 203 245 294
#     4  10  19  30  47  71 100 129 161 201 247 296
#     4   9  19  36  53  71  99 132 166 210 255 294
#     4  10  18  29  47  71  97 128 166 202 241 295
#
# _framework density 21.977135000000001
#
# number of rings (size 3 to 8) (size 9 to 14) (size 15 to 20)
#    0.000    2.750    0.000    2.250    0.000    3.500 
#    2.250    1.875    0.000    0.000    0.000    0.000 
#    0.000    0.000    0.000    0.000    0.000    0.000 
#
# Total GULP energy -357180.414163 kJ/mol
# GULP energy per Si atom -5580.943971 kJ/mol
# Density = 2.192711 g / cm^3
# Si number density = 21.977135 Si / 1000 Ang^3
#
#
#
# Elastic Constant Matrix: (Units=GPa)
#
#
# Indices 1 2 3 4 5 6 
#
# 1 18.2761 28.9153 -2.6938 0.0000 0.0000 0.0000
# 2 28.9153 189.8646 0.9630 0.0000 0.0000 0.0000
# 3 -2.6938 0.9630 50.4093 0.0000 0.0000 0.0000
# 4 0.0000 0.0000 0.0000 14.1611 0.0000 0.0000
# 5 0.0000 0.0000 0.0000 0.0000 16.2794 0.0000
# 6 0.0000 0.0000 0.0000 0.0000 0.0000 19.5175
#
#
#
# Elastic Compliance Matrix: (Units=1/GPa)
#
#
# Indices 1 2 3 4 5 6 
#
# 1 0.072927 -0.011127 0.004110 0.000000 0.000000 0.000000
# 2 -0.011127 0.006965 -0.000728 0.000000 0.000000 0.000000
# 3 0.004110 -0.000728 0.020071 0.000000 0.000000 0.000000
# 4 0.000000 0.000000 0.000000 0.070616 0.000000 0.000000
# 5 0.000000 0.000000 0.000000 0.000000 0.061427 0.000000
# 6 0.000000 0.000000 0.000000 0.000000 0.000000 0.051236
#
#
# Mechanical properties :
#
#
# Convention : Reuss Voigt Hill
#
# Bulk Modulus (GPa) = 11.83813 34.76878 23.30345
# Shear Modulus (GPa) = 15.29564 25.41596 20.35580
#
# Velocity S-wave (km/s) = 2.64100 3.40438 3.04670
# Velocity P-wave (km/s) = 3.83381 5.59535 4.79615
#
# Compressibility (1/GPa) = 0.08447282
#
# Stress axis : x y z
#
# Youngs Moduli (GPa) = 13.71237 143.57072 49.82278
#
# Poissons Ratio (x) = 1.59754 -0.20476
# Poissons Ratio (y) = 0.15258 0.03626
# Poissons Ratio (z) = -0.05635 0.10447
#
# Static dielectric constant tensor:
#      x y z
#    x 1.772060 0.000000 0.000000 
#    y 0.000000 1.850310 0.000000 
#    z 0.000000 0.000000 1.840930 
# 
# From -- ./inp_files/9931.got.cif
#   From: 2010.05.17/outbox.cif.g08.bks.cpg/sg58_5_cif.got.tgz:9931.got - 2010.06.03 14:20:14.
