data_PCOD9441635
_publ_section_title
;
Structure prediction by ZEFSAII (Michael W. Deem and Ramdas Pophale) SiO2 
 PCOD9441635
Probable space group: P N N M
;
_chemical_formula_sum "Si O2"
_cell_formula_units_Z 56
_cell_length_a 25.923643
_cell_length_b 14.694716
_cell_length_c 7.422410
_cell_angle_alpha 90.000000
_cell_angle_beta 90.000000
_cell_angle_gamma 90.000000
_cell_volume 2827.497108
_symmetry_space_group_name_H-M "P N N M"
_symmetry_group_IT_number 58
_symmetry_cell_setting 'orthorhombic'
loop_
_space_group_symop_operation_xyz
x,y,z
-x,-y,z
1/2+x,1/2-y,1/2-z
1/2-x,1/2+y,1/2-z
-x,-y,-z
x,y,-z
1/2-x,1/2+y,1/2+z
1/2+x,1/2-y,1/2+z
loop_
_atom_site_type_symbol
_atom_site_label
_atom_site_fract_x
_atom_site_fract_y
_atom_site_fract_z
Si Si1 0.286938 0.253096 0.717813
Si Si2 0.179506 0.147271 0.214431
Si Si3 0.339080 0.969724 0.783440
Si Si4 0.221893 0.961425 0.219428
Si Si5 0.000722 0.606553 0.221377
Si Si6 0.898799 0.708758 0.791292
Si Si7 0.610758 0.845864 0.294763
O O1 0.288245 0.252378 0.500000
O O2 0.233694 0.201630 0.763794
O O3 0.287640 0.358132 0.778483
O O4 0.338814 0.202977 0.785344
O O5 0.131302 0.204855 0.288665
O O6 0.186434 0.044399 0.282859
O O7 0.171670 0.141145 0.000000
O O8 0.280320 0.986816 0.730326
O O9 0.357005 0.871904 0.718234
O O10 0.375024 0.047596 0.705459
O O11 0.342619 0.972012 0.000000
O O12 0.219937 0.960028 0.000000
O O13 0.053364 0.655548 0.283049
O O14 0.000000 0.500000 0.276751
O O15 0.950795 0.663133 0.283500
O O16 0.000714 0.605128 0.000000
O O17 0.910374 0.729368 0.000000
O O18 0.606592 0.812160 0.500000
#
# Coordination Sequence:
#
# PCOD9441635 Si02
#       7
#     8   8   8   8   8   8   8
#     4  10  19  31  48  68  92 122 154 186 229 277
#     4  10  19  31  48  68  92 122 154 186 229 277
#     4  11  19  28  46  69  99 126 148 186 235 278
#     4   9  18  31  44  65  97 125 142 181 238 273
#     4   9  16  28  46  67  93 121 152 195 233 262
#     4  10  19  31  48  68  92 125 161 189 221 276
#     4  10  19  31  48  68  92 125 161 189 221 276
#
# _framework density 19.805501
#
# number of rings (size 3 to 8) (size 9 to 14) (size 15 to 20)
#    0.000    2.143    4.286    0.429    0.000    0.000 
#    0.000    2.143    0.000    0.857    0.000    6.000 
#    0.000    0.000    0.000    5.143    0.000    5.714 
#
# Total GULP energy -312379.646139 kJ/mol
# GULP energy per Si atom -5578.207967 kJ/mol
# Density = 1.976042 g / cm^3
# Si number density = 19.805501 Si / 1000 Ang^3
#
#
#
# Elastic Constant Matrix: (Units=GPa)
#
#
# Indices 1 2 3 4 5 6 
#
# 1 75.9832 -2.7090 2.1931 0.0000 0.0000 0.0000
# 2 -2.7090 59.3536 -6.0685 0.0000 0.0000 0.0000
# 3 2.1931 -6.0685 67.0563 0.0000 0.0000 0.0000
# 4 0.0000 0.0000 0.0000 4.2129 0.0000 0.0000
# 5 0.0000 0.0000 0.0000 0.0000 6.4232 0.0000
# 6 0.0000 0.0000 0.0000 0.0000 0.0000 34.4705
#
#
#
# Elastic Compliance Matrix: (Units=1/GPa)
#
#
# Indices 1 2 3 4 5 6 
#
# 1 0.013192 0.000563 -0.000380 0.000000 0.000000 0.000000
# 2 0.000563 0.017030 0.001523 0.000000 0.000000 0.000000
# 3 -0.000380 0.001523 0.015063 0.000000 0.000000 0.000000
# 4 0.000000 0.000000 0.000000 0.237366 0.000000 0.000000
# 5 0.000000 0.000000 0.000000 0.000000 0.155686 0.000000
# 6 0.000000 0.000000 0.000000 0.000000 0.000000 0.029010
#
#
# Mechanical properties :
#
#
# Convention : Reuss Voigt Hill
#
# Bulk Modulus (GPa) = 20.53581 21.02492 20.78037
# Shear Modulus (GPa) = 10.41301 22.95314 16.68308
#
# Velocity S-wave (km/s) = 2.29544 3.40800 2.90547
# Velocity P-wave (km/s) = 4.17333 5.11123 4.66590
#
# Compressibility (1/GPa) = 0.04869543
#
# Stress axis : x y z
#
# Youngs Moduli (GPa) = 75.80434 58.72135 66.38747
#
# Poissons Ratio (x) = -0.03307 0.02526
# Poissons Ratio (y) = -0.04269 -0.10109
# Poissons Ratio (z) = 0.02884 -0.08942
#
# Static dielectric constant tensor:
#      x y z
#    x 1.708580 0.000000 0.000000 
#    y 0.000000 1.691200 0.000000 
#    z 0.000000 0.000000 1.767870 
# 
# From -- ./inp_files/17803.got.cif
#   From: 2010.05.17/outbox.cif.g08.bks.cpg/sg58_9_cif.got.tgz:17803.got - 2010.06.03 14:20:14.
