data_PCOD9441247
_publ_section_title
;
Structure prediction by ZEFSAII (Michael W. Deem and Ramdas Pophale) SiO2 
 PCOD9441247
Probable space group: P N N M
;
_chemical_formula_sum "Si O2"
_cell_formula_units_Z 58
_cell_length_a 25.861957
_cell_length_b 14.883821
_cell_length_c 7.636384
_cell_angle_alpha 90.000000
_cell_angle_beta 90.000000
_cell_angle_gamma 90.000000
_cell_volume 2939.433116
_symmetry_space_group_name_H-M "P N N M"
_symmetry_group_IT_number 58
_symmetry_cell_setting 'orthorhombic'
loop_
_space_group_symop_operation_xyz
x,y,z
-x,-y,z
1/2+x,1/2-y,1/2-z
1/2-x,1/2+y,1/2-z
-x,-y,-z
x,y,-z
1/2-x,1/2+y,1/2+z
1/2+x,1/2-y,1/2+z
loop_
_atom_site_type_symbol
_atom_site_label
_atom_site_fract_x
_atom_site_fract_y
_atom_site_fract_z
Si Si1 0.220265 0.256105 0.702934
Si Si2 0.403123 0.241555 0.204334
Si Si3 0.382779 0.858955 0.290988
Si Si4 0.232065 0.054538 0.286241
Si Si5 0.817308 0.125051 0.295776
Si Si6 0.147914 0.552457 0.211504
Si Si7 0.501905 0.149486 0.299697
Si Si8 0.000000 0.500000 0.500000
O O1 0.235742 0.249693 0.500000
O O2 0.165342 0.304996 0.715994
O O3 0.265432 0.314445 0.789167
O O4 0.217009 0.154440 0.772228
O O5 0.364814 0.317520 0.279294
O O6 0.373382 0.146127 0.219614
O O7 0.458498 0.225929 0.291040
O O8 0.411776 0.259784 0.000000
O O9 0.374449 0.861067 0.500000
O O10 0.439506 0.820298 0.257458
O O11 0.381737 0.962746 0.227951
O O12 0.229709 0.052385 0.500000
O O13 0.197617 0.971989 0.219771
O O14 0.292120 0.039882 0.240353
O O15 0.829557 0.110908 0.500000
O O16 0.144015 0.557306 0.000000
O O17 0.502442 0.113676 0.500000
O O18 0.488749 0.075633 0.154805
#
# Coordination Sequence:
#
# PCOD9441247 Si02
#       8
#     8   8   8   8   8   8   8   2
#     4  11  21  33  56  84 112 147 193 246 297 350
#     4  11  22  35  56  84 115 156 201 248 287 349
#     4  10  22  38  57  79 111 159 196 229 294 356
#     4   9  18  34  53  79 112 150 188 235 296 356
#     4  10  20  37  57  78 113 154 195 239 294 356
#     4  10  18  32  54  76 112 152 186 227 285 357
#     4  11  24  40  59  85 122 166 198 247 304 355
#     4  12  22  40  64  90 128 146 214 244 292 368
#
# _framework density 19.731695999999999
#
# number of rings (size 3 to 8) (size 9 to 14) (size 15 to 20)
#    0.000    1.655    3.448    1.862    0.966    2.207 
#    0.000    1.379    0.000    0.828    0.000    5.793 
#    0.000    0.000    0.000    0.000    0.000    0.000 
#
# Total GULP energy -323392.383483 kJ/mol
# GULP energy per Si atom -5575.730750 kJ/mol
# Density = 1.968679 g / cm^3
# Si number density = 19.731696 Si / 1000 Ang^3
#
#
#
# Elastic Constant Matrix: (Units=GPa)
#
#
# Indices 1 2 3 4 5 6 
#
# 1 55.5228 2.2389 -0.3713 0.0000 0.0000 0.0000
# 2 2.2389 70.7869 -5.7576 0.0000 0.0000 0.0000
# 3 -0.3713 -5.7576 64.3256 0.0000 0.0000 0.0000
# 4 0.0000 0.0000 0.0000 16.0914 0.0000 0.0000
# 5 0.0000 0.0000 0.0000 0.0000 14.7824 0.0000
# 6 0.0000 0.0000 0.0000 0.0000 0.0000 25.9404
#
#
#
# Elastic Compliance Matrix: (Units=1/GPa)
#
#
# Indices 1 2 3 4 5 6 
#
# 1 0.018034 -0.000566 0.000053 0.000000 0.000000 0.000000
# 2 -0.000566 0.014248 0.001272 0.000000 0.000000 0.000000
# 3 0.000053 0.001272 0.015660 0.000000 0.000000 0.000000
# 4 0.000000 0.000000 0.000000 0.062145 0.000000 0.000000
# 5 0.000000 0.000000 0.000000 0.000000 0.067648 0.000000
# 6 0.000000 0.000000 0.000000 0.000000 0.000000 0.038550
#
#
# Mechanical properties :
#
#
# Convention : Reuss Voigt Hill
#
# Bulk Modulus (GPa) = 20.21794 20.31726 20.26760
# Shear Modulus (GPa) = 21.62134 24.33121 22.97628
#
# Velocity S-wave (km/s) = 3.31383 3.51537 3.41608
# Velocity P-wave (km/s) = 4.99105 5.17650 5.08462
#
# Compressibility (1/GPa) = 0.04946103
#
# Stress axis : x y z
#
# Youngs Moduli (GPa) = 55.45142 70.18395 63.85668
#
# Poissons Ratio (x) = 0.03973 -0.00341
# Poissons Ratio (y) = 0.03139 -0.08123
# Poissons Ratio (z) = -0.00296 -0.08928
#
# Static dielectric constant tensor:
#      x y z
#    x 1.709610 0.000000 0.000000 
#    y 0.000000 1.693740 0.000000 
#    z 0.000000 0.000000 1.726310 
# 
# From -- ./inp_files/10500.got.cif
#   From: 2010.05.17/outbox.cif.g08.bks.cpg/sg58_6_cif.got.tgz:10500.got - 2010.06.03 14:20:14.
