data_PCOD9441989
_publ_section_title
;
Structure prediction by ZEFSAII (Michael W. Deem and Ramdas Pophale) SiO2 
 PCOD9441989
Probable space group: P N N M
;
_chemical_formula_sum "Si O2"
_cell_formula_units_Z 48
_cell_length_a 16.596059
_cell_length_b 7.679690
_cell_length_c 21.729514
_cell_angle_alpha 90.000000
_cell_angle_beta 90.000000
_cell_angle_gamma 90.000000
_cell_volume 2769.482803
_symmetry_space_group_name_H-M "P N N M"
_symmetry_group_IT_number 58
_symmetry_cell_setting 'orthorhombic'
loop_
_space_group_symop_operation_xyz
x,y,z
-x,-y,z
1/2+x,1/2-y,1/2-z
1/2-x,1/2+y,1/2-z
-x,-y,-z
x,y,-z
1/2-x,1/2+y,1/2+z
1/2+x,1/2-y,1/2+z
loop_
_atom_site_type_symbol
_atom_site_label
_atom_site_fract_x
_atom_site_fract_y
_atom_site_fract_z
Si Si1 0.091353 0.945644 0.281462
Si Si2 0.874985 0.154206 0.142329
Si Si3 0.281092 0.733238 0.802951
Si Si4 0.190578 0.641514 0.679937
Si Si5 0.977034 0.699941 0.930588
Si Si6 0.806090 0.835692 0.928103
O O1 0.152038 0.085658 0.311855
O O2 0.109898 0.938782 0.208020
O O3 0.110761 0.752559 0.306891
O O4 0.000000 0.000000 0.291001
O O5 0.801444 0.286647 0.157336
O O6 0.960027 0.218465 0.116833
O O7 0.839344 0.024918 0.091468
O O8 0.251299 0.711150 0.732753
O O9 0.312319 0.931372 0.813679
O O10 0.229529 0.691886 0.614969
O O11 0.000000 0.500000 0.934085
O O12 0.883638 0.717163 0.912993
O O13 0.985350 0.776388 0.000000
O O14 0.788242 0.822210 0.000000
#
# Coordination Sequence:
#
# PCOD9441989 Si02
#       6
#     8   8   8   8   8   8
#     4  11  22  36  55  82 108 140 180 229 277 323
#     4  10  20  34  53  77 106 148 178 216 271 327
#     4  10  19  35  54  78 108 143 177 226 268 316
#     4  10  20  35  56  78 109 143 182 220 270 324
#     4  10  21  32  47  80 117 148 184 217 256 323
#     4  10  19  33  54  76 109 147 179 218 262 325
#
# _framework density 17.331755000000001
#
# number of rings (size 3 to 8) (size 9 to 14) (size 15 to 20)
#    0.000    1.833    5.000    2.000    2.333    2.000 
#    0.000    0.000    0.000    0.500    0.000    4.667 
#    0.000    0.000    0.000    0.000    0.000    0.000 
#
# Total GULP energy -267441.841256 kJ/mol
# GULP energy per Si atom -5571.705026 kJ/mol
# Density = 1.729231 g / cm^3
# Si number density = 17.331755 Si / 1000 Ang^3
#
#
#
# Elastic Constant Matrix: (Units=GPa)
#
#
# Indices 1 2 3 4 5 6 
#
# 1 24.9905 5.8257 6.0040 0.0000 0.0000 0.0000
# 2 5.8257 52.1705 8.2292 0.0000 0.0000 0.0000
# 3 6.0040 8.2292 38.7119 0.0000 0.0000 0.0000
# 4 0.0000 0.0000 0.0000 13.9992 0.0000 0.0000
# 5 0.0000 0.0000 0.0000 0.0000 27.1162 0.0000
# 6 0.0000 0.0000 0.0000 0.0000 0.0000 28.8472
#
#
#
# Elastic Compliance Matrix: (Units=1/GPa)
#
#
# Indices 1 2 3 4 5 6 
#
# 1 0.042285 -0.003815 -0.005747 0.000000 0.000000 0.000000
# 2 -0.003815 0.020177 -0.003697 0.000000 0.000000 0.000000
# 3 -0.005747 -0.003697 0.027509 0.000000 0.000000 0.000000
# 4 0.000000 0.000000 0.000000 0.071433 0.000000 0.000000
# 5 0.000000 0.000000 0.000000 0.000000 0.036878 0.000000
# 6 0.000000 0.000000 0.000000 0.000000 0.000000 0.034665
#
#
# Mechanical properties :
#
#
# Convention : Reuss Voigt Hill
#
# Bulk Modulus (GPa) = 15.76001 17.33234 16.54617
# Shear Modulus (GPa) = 17.81777 20.38011 19.09894
#
# Velocity S-wave (km/s) = 3.20979 3.43284 3.32318
# Velocity P-wave (km/s) = 4.78015 5.07292 4.92871
#
# Compressibility (1/GPa) = 0.06345174
#
# Stress axis : x y z
#
# Youngs Moduli (GPa) = 23.64883 49.56093 36.35151
#
# Poissons Ratio (x) = 0.18909 0.20892
# Poissons Ratio (y) = 0.09023 0.13441
# Poissons Ratio (z) = 0.13591 0.18325
#
# Static dielectric constant tensor:
#      x y z
#    x 1.615490 0.000000 0.000000 
#    y 0.000000 1.622890 0.000000 
#    z 0.000000 0.000000 1.597350 
# 
# From -- ./inp_files/29919.got.cif
#   From: 2010.05.17/outbox.cif.g08.bks.cpg/sg58_15_cif.got.tgz:29919.got - 2010.06.03 14:20:14.
