data_PCOD9441005
_publ_section_title
;
Structure prediction by ZEFSAII (Michael W. Deem and Ramdas Pophale) SiO2 
 PCOD9441005
Probable space group: P N N M
;
_chemical_formula_sum "Si O2"
_cell_formula_units_Z 42
_cell_length_a 5.502972
_cell_length_b 19.454416
_cell_length_c 17.241885
_cell_angle_alpha 90.000000
_cell_angle_beta 90.000000
_cell_angle_gamma 90.000000
_cell_volume 1845.866319
_symmetry_space_group_name_H-M "P N N M"
_symmetry_group_IT_number 58
_symmetry_cell_setting 'orthorhombic'
loop_
_space_group_symop_operation_xyz
x,y,z
-x,-y,z
1/2+x,1/2-y,1/2-z
1/2-x,1/2+y,1/2-z
-x,-y,-z
x,y,-z
1/2-x,1/2+y,1/2+z
1/2+x,1/2-y,1/2+z
loop_
_atom_site_type_symbol
_atom_site_label
_atom_site_fract_x
_atom_site_fract_y
_atom_site_fract_z
Si Si1 0.261152 0.037343 0.659029
Si Si2 0.789777 0.710303 0.175456
Si Si3 0.791582 0.638557 0.345527
Si Si4 0.000000 0.500000 0.000000
Si Si5 0.208814 0.123072 0.808395
Si Si6 0.710891 0.286090 0.911209
O O1 0.216811 0.097038 0.720845
O O2 0.500000 0.000000 0.694603
O O3 0.349933 0.041918 0.569775
O O4 0.000000 0.000000 0.656126
O O5 0.792574 0.672462 0.258093
O O6 0.792275 0.792897 0.189478
O O7 0.544730 0.693202 0.128609
O O8 0.032731 0.692997 0.127720
O O9 0.539676 0.598926 0.347795
O O10 0.786808 0.703083 0.402957
O O11 0.046433 0.601005 0.351427
O O12 0.705609 0.306441 0.000000
#
# Coordination Sequence:
#
# PCOD9441005 Si02
#       6
#     8   8   8   2   8   8
#     4  10  20  35  55  73  99 133 173 215 255 304
#     4  10  19  33  52  70 103 138 165 210 262 305
#     4  10  19  33  53  71 102 136 167 211 261 305
#     4   8  22  36  58  68 106 144 156 228 278 296
#     4  10  18  31  54  72  93 130 176 205 244 310
#     4  10  18  29  48  69  97 130 168 203 237 300
#
# _framework density 22.753544999999999
#
# number of rings (size 3 to 8) (size 9 to 14) (size 15 to 20)
#    0.571    1.524    0.000    7.714    0.000    0.000 
#    0.000    0.000   23.048    0.000    0.000    0.000 
#    0.000  243.810    0.000    0.000    0.000    0.000 
#
# Total GULP energy -233838.932498 kJ/mol
# GULP energy per Si atom -5567.593631 kJ/mol
# Density = 2.270176 g / cm^3
# Si number density = 22.753545 Si / 1000 Ang^3
#
#
#
# Elastic Constant Matrix: (Units=GPa)
#
#
# Indices 1 2 3 4 5 6 
#
# 1 230.5028 25.3255 35.7977 0.0000 0.0000 0.0000
# 2 25.3255 27.9109 21.1971 0.0000 0.0000 0.0000
# 3 35.7977 21.1971 50.7136 0.0000 0.0000 0.0000
# 4 0.0000 0.0000 0.0000 9.1382 0.0000 0.0000
# 5 0.0000 0.0000 0.0000 0.0000 32.5139 0.0000
# 6 0.0000 0.0000 0.0000 0.0000 0.0000 12.3395
#
#
#
# Elastic Compliance Matrix: (Units=1/GPa)
#
#
# Indices 1 2 3 4 5 6 
#
# 1 0.005010 -0.002725 -0.002397 0.000000 0.000000 0.000000
# 2 -0.002725 0.053973 -0.020636 0.000000 0.000000 0.000000
# 3 -0.002397 -0.020636 0.030036 0.000000 0.000000 0.000000
# 4 0.000000 0.000000 0.000000 0.109431 0.000000 0.000000
# 5 0.000000 0.000000 0.000000 0.000000 0.030756 0.000000
# 6 0.000000 0.000000 0.000000 0.000000 0.000000 0.081040
#
#
# Mechanical properties :
#
#
# Convention : Reuss Voigt Hill
#
# Bulk Modulus (GPa) = 26.66498 52.64086 39.65292
# Shear Modulus (GPa) = 13.35955 25.91879 19.63917
#
# Velocity S-wave (km/s) = 2.42573 3.37873 2.94109
# Velocity P-wave (km/s) = 4.42606 6.19730 5.38501
#
# Compressibility (1/GPa) = 0.03750237
#
# Stress axis : x y z
#
# Youngs Moduli (GPa) = 199.59703 18.52779 33.29324
#
# Poissons Ratio (x) = 0.05049 0.07982
# Poissons Ratio (y) = 0.54395 0.68703
# Poissons Ratio (z) = 0.47852 0.38233
#
# Static dielectric constant tensor:
#      x y z
#    x 1.941940 0.000000 0.000000 
#    y 0.000000 1.909580 0.000000 
#    z 0.000000 0.000000 1.780780 
# 
# From -- ./inp_files/24308.got.cif
#   From: 2010.05.17/outbox.cif.g08.bks.cpg/sg58_13_cif.got.tgz:24308.got - 2010.06.03 14:20:14.
