data_PCOD9441444
_publ_section_title
;
Structure prediction by ZEFSAII (Michael W. Deem and Ramdas Pophale) SiO2 
 PCOD9441444
Probable space group: P N N M
;
_chemical_formula_sum "Si O2"
_cell_formula_units_Z 52
_cell_length_a 11.063205
_cell_length_b 20.609621
_cell_length_c 13.193178
_cell_angle_alpha 90.000000
_cell_angle_beta 90.000000
_cell_angle_gamma 90.000000
_cell_volume 3008.156226
_symmetry_space_group_name_H-M "P N N M"
_symmetry_group_IT_number 58
_symmetry_cell_setting 'orthorhombic'
loop_
_space_group_symop_operation_xyz
x,y,z
-x,-y,z
1/2+x,1/2-y,1/2-z
1/2-x,1/2+y,1/2-z
-x,-y,-z
x,y,-z
1/2-x,1/2+y,1/2+z
1/2+x,1/2-y,1/2+z
loop_
_atom_site_type_symbol
_atom_site_label
_atom_site_fract_x
_atom_site_fract_y
_atom_site_fract_z
Si Si1 0.161707 0.855313 0.882610
Si Si2 0.309480 0.650180 0.834265
Si Si3 0.691773 0.941214 0.500000
Si Si4 0.203806 0.914194 0.500000
Si Si5 0.426711 0.215757 0.695441
Si Si6 0.466799 0.858331 0.500000
Si Si7 0.453750 0.426101 0.795994
Si Si8 0.410620 0.785761 0.891997
O O1 0.102147 0.788442 0.841776
O O2 0.126747 0.910941 0.802893
O O3 0.303915 0.838276 0.882352
O O4 0.126507 0.867526 0.000000
O O5 0.252161 0.595234 0.905088
O O6 0.196924 0.679068 0.772755
O O7 0.427452 0.618904 0.785703
O O8 0.351318 0.714232 0.894066
O O9 0.549274 0.923952 0.500000
O O10 0.735202 0.014602 0.500000
O O11 0.322473 0.868319 0.500000
O O12 0.120301 0.908481 0.600868
O O13 0.488494 0.179800 0.600010
O O14 0.510092 0.214126 0.792683
O O15 0.500000 0.500000 0.803178
O O16 0.474437 0.795860 0.000000
#
# Coordination Sequence:
#
# PCOD9441444 Si02
#       8
#     8   8   4   4   8   4   8   8
#     4  10  21  38  57  79 108 151 187 225 272 330
#     4  10  19  33  54  81 111 149 179 222 284 334
#     4  10  18  36  54  79 120 152 180 220 284 343
#     4  12  23  34  55  90 116 142 186 235 279 333
#     4  10  19  35  58  80 112 147 180 227 280 334
#     4  10  21  35  56  84 114 150 187 226 280 337
#     4  12  23  36  57  81 116 148 189 233 279 334
#     4  10  19  34  59  83 110 143 184 228 283 333
#
# _framework density 17.286337
#
# number of rings (size 3 to 8) (size 9 to 14) (size 15 to 20)
#    0.000    1.538    4.615    1.846    0.000    0.308 
#    0.000    0.769    0.000    0.000    0.000    2.154 
#    0.000    0.000    0.000    0.000    0.000    0.000 
#
# Total GULP energy -289724.512796 kJ/mol
# GULP energy per Si atom -5571.625246 kJ/mol
# Density = 1.724699 g / cm^3
# Si number density = 17.286337 Si / 1000 Ang^3
#
#
#
# Elastic Constant Matrix: (Units=GPa)
#
#
# Indices 1 2 3 4 5 6 
#
# 1 84.0565 22.2130 53.2638 0.0000 0.0000 0.0000
# 2 22.2130 34.8484 9.7353 0.0000 0.0000 0.0000
# 3 53.2638 9.7353 133.4452 0.0000 0.0000 0.0000
# 4 0.0000 0.0000 0.0000 -31.8564 0.0000 0.0000
# 5 0.0000 0.0000 0.0000 0.0000 -71.6038 0.0000
# 6 0.0000 0.0000 0.0000 0.0000 0.0000 22.9903
#
#
#
# Elastic Compliance Matrix: (Units=1/GPa)
#
#
# Indices 1 2 3 4 5 6 
#
# 1 0.018883 -0.010137 -0.006797 0.000000 0.000000 0.000000
# 2 -0.010137 0.034735 0.001512 0.000000 0.000000 0.000000
# 3 -0.006797 0.001512 0.010097 0.000000 0.000000 0.000000
# 4 0.000000 0.000000 0.000000 -0.031391 0.000000 0.000000
# 5 0.000000 0.000000 0.000000 0.000000 -0.013966 0.000000
# 6 0.000000 0.000000 0.000000 0.000000 0.000000 0.043497
#
#
# Mechanical properties :
#
#
# Convention : Reuss Voigt Hill
#
# Bulk Modulus (GPa) = 30.42351 46.97492 38.69921
# Shear Modulus (GPa) = 48.23617 -4.95146 21.64236
#
# Velocity S-wave (km/s) = 5.28818 -1.69428 3.54219
# Velocity P-wave (km/s) = 7.41110 4.83799 6.25821
#
# Compressibility (1/GPa) = 0.03286931
#
# Stress axis : x y z
#
# Youngs Moduli (GPa) = 52.95749 28.78933 99.04358
#
# Poissons Ratio (x) = 0.29185 0.67325
# Poissons Ratio (y) = 0.53686 -0.14978
# Poissons Ratio (z) = 0.35998 -0.04354
#
# Static dielectric constant tensor:
#      x y z
#    x 1.619250 0.000000 0.000000 
#    y 0.000000 1.587670 0.000000 
#    z 0.000000 0.000000 1.575770 
# 
# From -- ./inp_files/20086.got.cif
#   From: 2010.05.17/outbox.cif.g08.bks.cpg/sg58_11_cif.got.tgz:20086.got - 2010.06.03 14:20:14.
