data_PCOD9441077
_publ_section_title
;
Structure prediction by ZEFSAII (Michael W. Deem and Ramdas Pophale) SiO2 
 PCOD9441077
Probable space group: P N N M
;
_chemical_formula_sum "Si O2"
_cell_formula_units_Z 64
_cell_length_a 31.076304
_cell_length_b 14.755756
_cell_length_c 8.925025
_cell_angle_alpha 90.000000
_cell_angle_beta 90.000000
_cell_angle_gamma 90.000000
_cell_volume 4092.609120
_symmetry_space_group_name_H-M "P N N M"
_symmetry_group_IT_number 58
_symmetry_cell_setting 'orthorhombic'
loop_
_space_group_symop_operation_xyz
x,y,z
-x,-y,z
1/2+x,1/2-y,1/2-z
1/2-x,1/2+y,1/2-z
-x,-y,-z
x,y,-z
1/2-x,1/2+y,1/2+z
1/2+x,1/2-y,1/2+z
loop_
_atom_site_type_symbol
_atom_site_label
_atom_site_fract_x
_atom_site_fract_y
_atom_site_fract_z
Si Si1 0.288629 0.218549 0.820609
Si Si2 0.326142 0.505107 0.830243
Si Si3 0.046321 0.108638 0.682034
Si Si4 0.630834 0.298620 0.823260
Si Si5 0.863771 0.164851 0.824103
Si Si6 0.776377 0.474764 0.174774
Si Si7 0.201546 0.325690 0.819264
Si Si8 0.448450 0.397785 0.819170
O O1 0.330484 0.266455 0.752520
O O2 0.286468 0.114911 0.767387
O O3 0.244994 0.271871 0.770697
O O4 0.290236 0.224115 0.000000
O O5 0.344737 0.605094 0.810199
O O6 0.344606 0.434352 0.713372
O O7 0.274911 0.509232 0.821263
O O8 0.338166 0.474454 0.000000
O O9 0.047574 0.109357 0.500000
O O10 0.082701 0.178826 0.733200
O O11 0.997176 0.127708 0.725998
O O12 0.057169 0.004350 0.723478
O O13 0.659497 0.225257 0.739444
O O14 0.629043 0.275775 0.000000
O O15 0.911324 0.161957 0.753500
O O16 0.865628 0.181085 0.000000
O O17 0.796668 0.569352 0.228805
O O18 0.788200 0.459819 0.000000
O O19 0.202008 0.325167 0.000000
O O20 0.445706 0.393034 0.000000
#
# Coordination Sequence:
#
# PCOD9441077 Si02
#       8
#     8   8   8   8   8   8   8   8
#     4  11  22  36  52  72  98 132 172 208 246 295
#     4  10  18  31  50  70  99 136 169 207 246 286
#     4   8  15  28  50  74  96 130 168 203 244 297
#     4  10  18  30  50  74  99 130 170 204 241 291
#     4  12  23  32  47  73 102 135 172 207 249 297
#     4  10  20  36  51  69  99 133 168 209 248 284
#     4  10  21  34  49  71 101 133 165 202 249 295
#     4   9  16  31  51  70  97 131 168 205 248 297
#
# _framework density 15.637945999999999
#
# number of rings (size 3 to 8) (size 9 to 14) (size 15 to 20)
#    0.000    2.000    3.750    2.250    0.000    2.000 
#    0.000    1.875    0.000    0.000    0.000    0.875 
#    0.000    7.000    0.000    0.000    0.000    0.000 
#
# Total GULP energy -356932.362187 kJ/mol
# GULP energy per Si atom -5577.068159 kJ/mol
# Density = 1.560235 g / cm^3
# Si number density = 15.637946 Si / 1000 Ang^3
#
#
#
# Elastic Constant Matrix: (Units=GPa)
#
#
# Indices 1 2 3 4 5 6 
#
# 1 97.9903 38.7198 25.2600 0.0000 0.0000 0.0000
# 2 38.7198 73.4577 28.2062 0.0000 0.0000 0.0000
# 3 25.2600 28.2062 37.7002 0.0000 0.0000 0.0000
# 4 0.0000 0.0000 0.0000 25.6201 0.0000 0.0000
# 5 0.0000 0.0000 0.0000 0.0000 20.8298 0.0000
# 6 0.0000 0.0000 0.0000 0.0000 0.0000 23.9563
#
#
#
# Elastic Compliance Matrix: (Units=1/GPa)
#
#
# Indices 1 2 3 4 5 6 
#
# 1 0.013594 -0.005147 -0.005258 0.000000 0.000000 0.000000
# 2 -0.005147 0.021049 -0.012300 0.000000 0.000000 0.000000
# 3 -0.005258 -0.012300 0.039250 0.000000 0.000000 0.000000
# 4 0.000000 0.000000 0.000000 0.039032 0.000000 0.000000
# 5 0.000000 0.000000 0.000000 0.000000 0.048008 0.000000
# 6 0.000000 0.000000 0.000000 0.000000 0.000000 0.041743
#
#
# Mechanical properties :
#
#
# Convention : Reuss Voigt Hill
#
# Bulk Modulus (GPa) = 35.10644 43.72446 39.41545
# Shear Modulus (GPa) = 19.41148 21.87873 20.64510
#
# Velocity S-wave (km/s) = 3.52704 3.74448 3.63739
# Velocity P-wave (km/s) = 6.25179 6.83492 6.54985
#
# Compressibility (1/GPa) = 0.02848480
#
# Stress axis : x y z
#
# Youngs Moduli (GPa) = 73.56151 47.50826 25.47746
#
# Poissons Ratio (x) = 0.24451 0.13396
# Poissons Ratio (y) = 0.37859 0.31337
# Poissons Ratio (z) = 0.38677 0.58435
#
# Static dielectric constant tensor:
#      x y z
#    x 1.536960 0.000000 0.000000 
#    y 0.000000 1.504820 0.000000 
#    z 0.000000 0.000000 1.531460 
# 
# From -- ./inp_files/7167.got.cif
#   From: 2010.05.17/outbox.cif.g08.bks.cpg/sg58_4_cif.got.tgz:7167.got - 2010.06.03 14:20:14.
