data_PCOD9441323
_publ_section_title
;
Structure prediction by ZEFSAII (Michael W. Deem and Ramdas Pophale) SiO2 
 PCOD9441323
Probable space group: P N N M
;
_chemical_formula_sum "Si O2"
_cell_formula_units_Z 52
_cell_length_a 9.741006
_cell_length_b 23.543895
_cell_length_c 12.427798
_cell_angle_alpha 90.000000
_cell_angle_beta 90.000000
_cell_angle_gamma 90.000000
_cell_volume 2850.206386
_symmetry_space_group_name_H-M "P N N M"
_symmetry_group_IT_number 58
_symmetry_cell_setting 'orthorhombic'
loop_
_space_group_symop_operation_xyz
x,y,z
-x,-y,z
1/2+x,1/2-y,1/2-z
1/2-x,1/2+y,1/2-z
-x,-y,-z
x,y,-z
1/2-x,1/2+y,1/2+z
1/2+x,1/2-y,1/2+z
loop_
_atom_site_type_symbol
_atom_site_label
_atom_site_fract_x
_atom_site_fract_y
_atom_site_fract_z
Si Si1 0.239581 0.357977 0.233650
Si Si2 0.491836 0.566832 0.789545
Si Si3 0.428371 0.272769 0.370920
Si Si4 0.439191 0.628647 0.000000
Si Si5 0.331150 0.637458 0.373346
Si Si6 0.990522 0.744974 0.500000
Si Si7 0.269861 0.323002 0.000000
Si Si8 0.464938 0.171997 0.206813
O O1 0.354997 0.406431 0.221834
O O2 0.314173 0.310839 0.308880
O O3 0.206094 0.331907 0.115597
O O4 0.088514 0.372429 0.275775
O O5 0.500000 0.500000 0.805510
O O6 0.408567 0.585874 0.684725
O O7 0.411132 0.596511 0.889604
O O8 0.404492 0.268304 0.500000
O O9 0.571001 0.307512 0.354641
O O10 0.438234 0.213465 0.308177
O O11 0.604982 0.632159 0.000000
O O12 0.405041 0.695912 0.000000
O O13 0.322922 0.628426 0.500000
O O14 0.180078 0.646518 0.326921
O O15 0.151242 0.763517 0.500000
O O16 0.977151 0.710833 0.390872
#
# Coordination Sequence:
#
# PCOD9441323 Si02
#       8
#     8   8   8   4   8   4   4   8
#     4  10  21  35  54  84 111 147 196 236 268 350
#     4  10  20  41  65  82 107 147 194 253 293 322
#     4  10  21  33  52  81 116 154 187 220 268 340
#     4   8  17  34  59  92 111 133 195 230 278 354
#     4  10  22  39  55  81 116 150 192 233 277 344
#     4  10  18  33  54  80 117 162 170 213 282 349
#     4   8  16  35  51  74 114 150 186 211 273 336
#     4  12  21  33  54  80 121 157 180 221 287 337
#
# _framework density 18.244292999999999
#
# number of rings (size 3 to 8) (size 9 to 14) (size 15 to 20)
#    0.462    1.538    2.308    2.077    2.154    0.308 
#    1.385    0.769    0.000    0.923    0.000    4.308 
#    0.000    0.000    0.000    0.000    0.000    0.000 
#
# Total GULP energy -289619.797018 kJ/mol
# GULP energy per Si atom -5569.611481 kJ/mol
# Density = 1.820277 g / cm^3
# Si number density = 18.244293 Si / 1000 Ang^3
#
#
#
# Elastic Constant Matrix: (Units=GPa)
#
#
# Indices 1 2 3 4 5 6 
#
# 1 98.3198 5.3657 28.6062 0.0000 0.0000 0.0000
# 2 5.3657 39.3037 9.1234 0.0000 0.0000 0.0000
# 3 28.6062 9.1234 95.4813 0.0000 0.0000 0.0000
# 4 0.0000 0.0000 0.0000 14.0451 0.0000 0.0000
# 5 0.0000 0.0000 0.0000 0.0000 9.4110 0.0000
# 6 0.0000 0.0000 0.0000 0.0000 0.0000 3.6585
#
#
#
# Elastic Compliance Matrix: (Units=1/GPa)
#
#
# Indices 1 2 3 4 5 6 
#
# 1 0.011165 -0.000765 -0.003272 0.000000 0.000000 0.000000
# 2 -0.000765 0.026072 -0.002262 0.000000 0.000000 0.000000
# 3 -0.003272 -0.002262 0.011670 0.000000 0.000000 0.000000
# 4 0.000000 0.000000 0.000000 0.071199 0.000000 0.000000
# 5 0.000000 0.000000 0.000000 0.000000 0.106258 0.000000
# 6 0.000000 0.000000 0.000000 0.000000 0.000000 0.273339
#
#
# Mechanical properties :
#
#
# Convention : Reuss Voigt Hill
#
# Bulk Modulus (GPa) = 27.54121 35.47727 31.50924
# Shear Modulus (GPa) = 9.53464 18.09022 13.81243
#
# Velocity S-wave (km/s) = 2.28855 3.15231 2.75450
# Velocity P-wave (km/s) = 4.70232 5.72165 5.23685
#
# Compressibility (1/GPa) = 0.03630923
#
# Stress axis : x y z
#
# Youngs Moduli (GPa) = 89.56912 38.35475 85.69233
#
# Poissons Ratio (x) = 0.02933 0.28037
# Poissons Ratio (y) = 0.06849 0.19385
# Poissons Ratio (z) = 0.29306 0.08676
#
# Static dielectric constant tensor:
#      x y z
#    x 1.654700 0.000000 0.000000 
#    y 0.000000 1.601380 0.000000 
#    z 0.000000 0.000000 1.708270 
# 
# From -- ./inp_files/13255.got.cif
#   From: 2010.05.17/outbox.cif.g08.bks.cpg/sg58_7_cif.got.tgz:13255.got - 2010.06.03 14:20:14.
