data_PCOD9441433
_publ_section_title
;
Structure prediction by ZEFSAII (Michael W. Deem and Ramdas Pophale) SiO2 
 PCOD9441433
Probable space group: P N N M
;
_chemical_formula_sum "Si O2"
_cell_formula_units_Z 64
_cell_length_a 20.798865
_cell_length_b 19.851660
_cell_length_c 8.745943
_cell_angle_alpha 90.000000
_cell_angle_beta 90.000000
_cell_angle_gamma 90.000000
_cell_volume 3611.129865
_symmetry_space_group_name_H-M "P N N M"
_symmetry_group_IT_number 58
_symmetry_cell_setting 'orthorhombic'
loop_
_space_group_symop_operation_xyz
x,y,z
-x,-y,z
1/2+x,1/2-y,1/2-z
1/2-x,1/2+y,1/2-z
-x,-y,-z
x,y,-z
1/2-x,1/2+y,1/2+z
1/2+x,1/2-y,1/2+z
loop_
_atom_site_type_symbol
_atom_site_label
_atom_site_fract_x
_atom_site_fract_y
_atom_site_fract_z
Si Si1 0.006710 0.825067 0.316714
Si Si2 0.431734 0.037904 0.180656
Si Si3 0.508843 0.826173 0.185301
Si Si4 0.313087 0.958370 0.319113
Si Si5 0.561956 0.544295 0.683952
Si Si6 0.691595 0.464509 0.684300
Si Si7 0.140582 0.322568 0.316460
Si Si8 0.863674 0.822421 0.816341
O O1 0.000817 0.827029 0.500000
O O2 0.027889 0.749519 0.271549
O O3 0.935903 0.835484 0.245152
O O4 0.053529 0.882978 0.258702
O O5 0.445704 0.113577 0.238010
O O6 0.500000 0.000000 0.191480
O O7 0.376914 0.998721 0.269486
O O8 0.414055 0.038884 0.000000
O O9 0.434156 0.835672 0.230985
O O10 0.509032 0.830217 0.000000
O O11 0.310597 0.950843 0.500000
O O12 0.317670 0.884483 0.243451
O O13 0.252386 0.000468 0.259839
O O14 0.500000 0.500000 0.729571
O O15 0.560181 0.551218 0.500000
O O16 0.626951 0.505545 0.725216
O O17 0.698433 0.467112 0.500000
O O18 0.679884 0.386448 0.727009
O O19 0.142264 0.320273 0.500000
O O20 0.158061 0.249302 0.250737
O O21 0.866208 0.818815 0.000000
#
# Coordination Sequence:
#
# PCOD9441433 Si02
#       8
#     8   8   8   8   8   8   8   8
#     4  10  19  31  52  85 119 150 185 230 288 344
#     4  10  18  35  61  82 107 148 192 230 281 345
#     4   8  16  31  53  82 111 143 184 228 274 337
#     4  12  25  38  55  85 120 151 193 242 285 335
#     4  10  19  36  58  82 110 144 189 237 286 338
#     4  10  22  40  60  80 112 156 194 232 288 348
#     4  10  19  36  59  84 113 148 190 231 284 347
#     4  10  19  35  58  85 113 146 190 238 287 336
#
# _framework density 17.722985000000001
#
# number of rings (size 3 to 8) (size 9 to 14) (size 15 to 20)
#    0.000    2.000    2.500    3.000    0.000    2.000 
#    0.000    2.500    0.000    4.500    0.000    0.000 
#    0.000    0.000    0.000    0.000    0.000    0.000 
#
# Total GULP energy -357192.153587 kJ/mol
# GULP energy per Si atom -5581.127400 kJ/mol
# Density = 1.768265 g / cm^3
# Si number density = 17.722985 Si / 1000 Ang^3
#
#
#
# Elastic Constant Matrix: (Units=GPa)
#
#
# Indices 1 2 3 4 5 6 
#
# 1 70.9741 59.1332 36.4767 0.0000 0.0000 0.0000
# 2 59.1332 173.6635 53.8430 0.0000 0.0000 0.0000
# 3 36.4767 53.8430 54.3270 0.0000 0.0000 0.0000
# 4 0.0000 0.0000 0.0000 31.5094 0.0000 0.0000
# 5 0.0000 0.0000 0.0000 0.0000 17.9505 0.0000
# 6 0.0000 0.0000 0.0000 0.0000 0.0000 28.2241
#
#
#
# Elastic Compliance Matrix: (Units=1/GPa)
#
#
# Indices 1 2 3 4 5 6 
#
# 1 0.023757 -0.004538 -0.011453 0.000000 0.000000 0.000000
# 2 -0.004538 0.009180 -0.006051 0.000000 0.000000 0.000000
# 3 -0.011453 -0.006051 0.032094 0.000000 0.000000 0.000000
# 4 0.000000 0.000000 0.000000 0.031737 0.000000 0.000000
# 5 0.000000 0.000000 0.000000 0.000000 0.055709 0.000000
# 6 0.000000 0.000000 0.000000 0.000000 0.000000 0.035431
#
#
# Mechanical properties :
#
#
# Convention : Reuss Voigt Hill
#
# Bulk Modulus (GPa) = 47.74174 66.43004 57.08589
# Shear Modulus (GPa) = 20.92287 25.50426 23.21356
#
# Velocity S-wave (km/s) = 3.43964 3.79760 3.62304
# Velocity P-wave (km/s) = 6.53996 7.53610 7.05563
#
# Compressibility (1/GPa) = 0.02094603
#
# Stress axis : x y z
#
# Youngs Moduli (GPa) = 42.09240 108.93793 31.15878
#
# Poissons Ratio (x) = 0.49441 0.35687
# Poissons Ratio (y) = 0.19103 0.18853
# Poissons Ratio (z) = 0.48209 0.65913
#
# Static dielectric constant tensor:
#      x y z
#    x 1.574160 0.000000 0.000000 
#    y 0.000000 1.624780 0.000000 
#    z 0.000000 0.000000 1.597840 
# 
# From -- ./inp_files/9246.got.cif
#   From: 2010.05.17/outbox.cif.g08.bks.cpg/sg58_5_cif.got.tgz:9246.got - 2010.06.03 14:20:14.
