data_PCOD9441634
_publ_section_title
;
Structure prediction by ZEFSAII (Michael W. Deem and Ramdas Pophale) SiO2 
 PCOD9441634
Probable space group: P N N M
;
_chemical_formula_sum "Si O2"
_cell_formula_units_Z 64
_cell_length_a 23.587903
_cell_length_b 16.852803
_cell_length_c 7.306369
_cell_angle_alpha 90.000000
_cell_angle_beta 90.000000
_cell_angle_gamma 90.000000
_cell_volume 2904.444481
_symmetry_space_group_name_H-M "P N N M"
_symmetry_group_IT_number 58
_symmetry_cell_setting 'orthorhombic'
loop_
_space_group_symop_operation_xyz
x,y,z
-x,-y,z
1/2+x,1/2-y,1/2-z
1/2-x,1/2+y,1/2-z
-x,-y,-z
x,y,-z
1/2-x,1/2+y,1/2+z
1/2+x,1/2-y,1/2+z
loop_
_atom_site_type_symbol
_atom_site_label
_atom_site_fract_x
_atom_site_fract_y
_atom_site_fract_z
Si Si1 0.337199 0.116656 0.276965
Si Si2 0.972056 0.761865 0.223574
Si Si3 0.601432 0.733160 0.276577
Si Si4 0.724884 0.039978 0.282770
Si Si5 0.441348 0.018218 0.706540
Si Si6 0.643064 0.561731 0.718848
Si Si7 0.873831 0.645808 0.793894
Si Si8 0.050957 0.057949 0.222515
O O1 0.333834 0.117257 0.500000
O O2 0.347210 0.207642 0.221286
O O3 0.292272 0.049178 0.216613
O O4 0.396916 0.078902 0.216284
O O5 0.919506 0.707157 0.287127
O O6 0.959295 0.852158 0.279536
O O7 0.037122 0.742709 0.278797
O O8 0.971958 0.756261 0.000000
O O9 0.600602 0.733481 0.500000
O O10 0.615316 0.643868 0.215549
O O11 0.712663 0.039117 0.500000
O O12 0.790598 0.056520 0.257212
O O13 0.684700 0.111519 0.209718
O O14 0.454371 0.048825 0.500000
O O15 0.409099 0.935519 0.692415
O O16 0.500000 0.000000 0.799993
O O17 0.636403 0.563100 0.500000
O O18 0.608596 0.484710 0.783514
O O19 0.860524 0.675842 0.000000
O O20 0.050571 0.060635 0.000000
O O21 0.000000 0.000000 0.277302
#
# Coordination Sequence:
#
# PCOD9441634 Si02
#       8
#     8   8   8   8   8   8   8   8
#     4   8  14  24  39  59  86 119 148 178 218 268
#     4   9  14  22  40  66  94 115 139 184 238 280
#     4   9  15  24  42  68  92 114 145 188 236 275
#     4   9  18  33  47  62  93 128 155 182 220 270
#     4   8  11  16  29  52  82 110 135 167 213 264
#     4  10  19  31  48  68  90 119 156 193 225 264
#     4   8  14  23  37  59  86 116 143 173 218 268
#     4   9  15  26  42  63  89 115 143 183 233 272
#
# _framework density 22.035194000000001
#
# number of rings (size 3 to 8) (size 9 to 14) (size 15 to 20)
#    0.000    3.250    1.250    2.250    0.000    3.000 
#    2.250    0.000    0.000    0.375    0.000    0.875 
#    0.000   17.000    0.000    0.000    0.000    0.000 
#
# Total GULP energy -356442.354380 kJ/mol
# GULP energy per Si atom -5569.411787 kJ/mol
# Density = 2.198504 g / cm^3
# Si number density = 22.035194 Si / 1000 Ang^3
#
#
#
# Elastic Constant Matrix: (Units=GPa)
#
#
# Indices 1 2 3 4 5 6 
#
# 1 139.1273 44.4301 -3.8988 0.0000 0.0000 0.0000
# 2 44.4301 122.5190 1.1373 0.0000 0.0000 0.0000
# 3 -3.8988 1.1373 86.0713 0.0000 0.0000 0.0000
# 4 0.0000 0.0000 0.0000 -8.7362 0.0000 0.0000
# 5 0.0000 0.0000 0.0000 0.0000 -221.7183 0.0000
# 6 0.0000 0.0000 0.0000 0.0000 0.0000 32.0962
#
#
#
# Elastic Compliance Matrix: (Units=1/GPa)
#
#
# Indices 1 2 3 4 5 6 
#
# 1 0.008143 -0.002957 0.000408 0.000000 0.000000 0.000000
# 2 -0.002957 0.009237 -0.000256 0.000000 0.000000 0.000000
# 3 0.000408 -0.000256 0.011640 0.000000 0.000000 0.000000
# 4 0.000000 0.000000 0.000000 -0.114466 0.000000 0.000000
# 5 0.000000 0.000000 0.000000 0.000000 -0.004510 0.000000
# 6 0.000000 0.000000 0.000000 0.000000 0.000000 0.031156
#
#
# Mechanical properties :
#
#
# Convention : Reuss Voigt Hill
#
# Bulk Modulus (GPa) = 42.71622 47.89497 45.30560
# Shear Modulus (GPa) = -110.16489 -19.26839 -64.71664
#
# Velocity S-wave (km/s) = -7.07838 -2.96030 -5.42526
# Velocity P-wave (km/s) = 6.88311 3.17780 4.31733
#
# Compressibility (1/GPa) = 0.02341031
#
# Stress axis : x y z
#
# Youngs Moduli (GPa) = 122.79924 108.26428 85.90963
#
# Poissons Ratio (x) = 0.32013 -0.03505
# Poissons Ratio (y) = 0.36310 0.02199
# Poissons Ratio (z) = -0.05009 0.02771
#
# Static dielectric constant tensor:
#      x y z
#    x -0.125550 0.000000 0.000000 
#    y 0.000000 1.810730 0.000000 
#    z 0.000000 0.000000 1.921950 
# 
# From -- ./inp_files/17219.got.cif
#   From: 2010.05.17/outbox.cif.g08.bks.cpg/sg58_9_cif.got.tgz:17219.got - 2010.06.03 14:20:14.
