data_PCOD9441925
_publ_section_title
;
Structure prediction by ZEFSAII (Michael W. Deem and Ramdas Pophale) SiO2 
 PCOD9441925
Probable space group: P N N M
;
_chemical_formula_sum "Si O2"
_cell_formula_units_Z 64
_cell_length_a 20.363232
_cell_length_b 16.823344
_cell_length_c 9.125375
_cell_angle_alpha 90.000000
_cell_angle_beta 90.000000
_cell_angle_gamma 90.000000
_cell_volume 3126.149586
_symmetry_space_group_name_H-M "P N N M"
_symmetry_group_IT_number 58
_symmetry_cell_setting 'orthorhombic'
loop_
_space_group_symop_operation_xyz
x,y,z
-x,-y,z
1/2+x,1/2-y,1/2-z
1/2-x,1/2+y,1/2-z
-x,-y,-z
x,y,-z
1/2-x,1/2+y,1/2+z
1/2+x,1/2-y,1/2+z
loop_
_atom_site_type_symbol
_atom_site_label
_atom_site_fract_x
_atom_site_fract_y
_atom_site_fract_z
Si Si1 0.298861 0.100555 0.674973
Si Si2 0.645911 0.438119 0.174966
Si Si3 0.614938 0.032658 0.166996
Si Si4 0.984465 0.642091 0.828211
Si Si5 0.220543 0.324910 0.665427
Si Si6 0.378800 0.716081 0.670428
Si Si7 0.850555 0.116323 0.324717
Si Si8 0.109824 0.714091 0.325366
O O1 0.306285 0.105366 0.500000
O O2 0.223716 0.075760 0.706404
O O3 0.323667 0.181210 0.751452
O O4 0.347624 0.034616 0.742094
O O5 0.607160 0.368322 0.255559
O O6 0.628055 0.527994 0.220197
O O7 0.637052 0.430340 0.000000
O O8 0.552776 0.069271 0.250831
O O9 0.666614 0.105153 0.157890
O O10 0.599638 0.007178 0.000000
O O11 0.936653 0.719129 0.817118
O O12 0.050462 0.665659 0.745265
O O13 0.995937 0.625883 0.000000
O O14 0.237966 0.300522 0.500000
O O15 0.183693 0.254239 0.748311
O O16 0.282355 0.360971 0.748703
O O17 0.363875 0.705103 0.500000
O O18 0.839698 0.113128 0.500000
O O19 0.897062 0.191680 0.295069
O O20 0.112600 0.702980 0.500000
#
# Coordination Sequence:
#
# PCOD9441925 Si02
#       8
#     8   8   8   8   8   8   8   8
#     4  11  22  37  59  87 122 155 189 232 285 346
#     4  10  21  37  59  88 120 151 188 234 286 345
#     4  10  20  35  58  88 118 150 189 234 283 337
#     4  10  22  41  61  82 113 153 199 241 285 340
#     4  10  19  32  55  85 115 148 186 229 283 343
#     4  10  21  36  58  84 112 149 191 238 287 338
#     4  10  21  38  58  83 116 152 189 235 289 343
#     4  11  24  40  59  83 114 152 195 242 288 338
#
# _framework density 20.472470000000001
#
# number of rings (size 3 to 8) (size 9 to 14) (size 15 to 20)
#    0.000    1.750    1.250    3.000    0.000    7.500 
#    0.000    3.125    0.000    3.750    0.000    0.000 
#    0.000    0.000    0.000    0.000    0.000    0.000 
#
# Total GULP energy -357741.791314 kJ/mol
# GULP energy per Si atom -5589.715489 kJ/mol
# Density = 2.042587 g / cm^3
# Si number density = 20.472470 Si / 1000 Ang^3
#
#
#
# Elastic Constant Matrix: (Units=GPa)
#
#
# Indices 1 2 3 4 5 6 
#
# 1 27.9281 -5.5454 12.2114 0.0000 0.0000 0.0000
# 2 -5.5454 90.4723 25.3497 0.0000 0.0000 0.0000
# 3 12.2114 25.3497 57.4181 0.0000 0.0000 0.0000
# 4 0.0000 0.0000 0.0000 30.2289 0.0000 0.0000
# 5 0.0000 0.0000 0.0000 0.0000 15.6938 0.0000
# 6 0.0000 0.0000 0.0000 0.0000 0.0000 23.7464
#
#
#
# Elastic Compliance Matrix: (Units=1/GPa)
#
#
# Indices 1 2 3 4 5 6 
#
# 1 0.041977 0.005791 -0.011484 0.000000 0.000000 0.000000
# 2 0.005791 0.013412 -0.007153 0.000000 0.000000 0.000000
# 3 -0.011484 -0.007153 0.023016 0.000000 0.000000 0.000000
# 4 0.000000 0.000000 0.000000 0.033081 0.000000 0.000000
# 5 0.000000 0.000000 0.000000 0.000000 0.063719 0.000000
# 6 0.000000 0.000000 0.000000 0.000000 0.000000 0.042112
#
#
# Mechanical properties :
#
#
# Convention : Reuss Voigt Hill
#
# Bulk Modulus (GPa) = 18.97050 26.65000 22.81025
# Shear Modulus (GPa) = 19.18782 23.52068 21.35425
#
# Velocity S-wave (km/s) = 3.06478 3.39321 3.23317
# Velocity P-wave (km/s) = 4.67015 5.32894 5.01038
#
# Compressibility (1/GPa) = 0.05271343
#
# Stress axis : x y z
#
# Youngs Moduli (GPa) = 23.82233 74.55868 43.44712
#
# Poissons Ratio (x) = -0.43175 0.49895
# Poissons Ratio (y) = -0.13795 0.31078
# Poissons Ratio (z) = 0.27358 0.53332
#
# Static dielectric constant tensor:
#      x y z
#    x 1.710940 0.000000 0.000000 
#    y 0.000000 1.775340 0.000000 
#    z 0.000000 0.000000 1.689730 
# 
# From -- ./inp_files/6872.got.cif
#   From: 2010.05.17/outbox.cif.g08.bks.cpg/sg58_4_cif.got.tgz:6872.got - 2010.06.03 14:20:14.
