data_PCOD9441238
_publ_section_title
;
Structure prediction by ZEFSAII (Michael W. Deem and Ramdas Pophale) SiO2 
 PCOD9441238
Probable space group: P N N M
;
_chemical_formula_sum "Si O2"
_cell_formula_units_Z 48
_cell_length_a 14.287476
_cell_length_b 19.032137
_cell_length_c 8.119986
_cell_angle_alpha 90.000000
_cell_angle_beta 90.000000
_cell_angle_gamma 90.000000
_cell_volume 2207.996342
_symmetry_space_group_name_H-M "P N N M"
_symmetry_group_IT_number 58
_symmetry_cell_setting 'orthorhombic'
loop_
_space_group_symop_operation_xyz
x,y,z
-x,-y,z
1/2+x,1/2-y,1/2-z
1/2-x,1/2+y,1/2-z
-x,-y,-z
x,y,-z
1/2-x,1/2+y,1/2+z
1/2+x,1/2-y,1/2+z
loop_
_atom_site_type_symbol
_atom_site_label
_atom_site_fract_x
_atom_site_fract_y
_atom_site_fract_z
Si Si1 0.821144 0.274218 0.797421
Si Si2 0.869617 0.843764 0.692900
Si Si3 0.530629 0.889233 0.309806
Si Si4 0.427578 0.358448 0.695348
Si Si5 0.154214 0.998370 0.196146
Si Si6 0.368395 0.974651 0.810141
O O1 0.719989 0.301259 0.741929
O O2 0.902746 0.328013 0.743517
O O3 0.851428 0.196974 0.742258
O O4 0.820342 0.276240 0.000000
O O5 0.878903 0.828791 0.500000
O O6 0.969042 0.829323 0.775257
O O7 0.850440 0.926607 0.718307
O O8 0.510516 0.874376 0.500000
O O9 0.432858 0.907107 0.222617
O O10 0.591250 0.960978 0.295814
O O11 0.412446 0.364426 0.500000
O O12 0.415152 0.437735 0.759139
O O13 0.258486 0.966996 0.216749
O O14 0.137755 0.011269 0.000000
O O15 0.381547 0.995887 0.000000
#
# Coordination Sequence:
#
# PCOD9441238 Si02
#       6
#     8   8   8   8   8   8
#     4   9  20  38  59  81 112 154 190 228 288 348
#     4  11  22  39  62  87 114 148 190 238 287 336
#     4  10  18  32  53  79 110 150 187 227 285 341
#     4  10  22  41  60  82 114 152 193 233 283 347
#     4  10  21  37  59  84 114 154 193 233 285 340
#     4  10  19  31  51  83 113 144 186 236 279 326
#
# _framework density 21.739166000000001
#
# number of rings (size 3 to 8) (size 9 to 14) (size 15 to 20)
#    0.000    2.000    1.667    3.000    0.000    4.667 
#    0.000    5.000    0.000    0.000    0.000    0.000 
#    0.000    0.000    0.000    0.000    0.000    0.000 
#
# Total GULP energy -268074.671096 kJ/mol
# GULP energy per Si atom -5584.888981 kJ/mol
# Density = 2.168969 g / cm^3
# Si number density = 21.739166 Si / 1000 Ang^3
#
#
#
# Elastic Constant Matrix: (Units=GPa)
#
#
# Indices 1 2 3 4 5 6 
#
# 1 80.6512 32.9003 -8.6512 0.0000 0.0000 0.0000
# 2 32.9003 80.2761 -4.0394 0.0000 0.0000 0.0000
# 3 -8.6512 -4.0394 12.1318 0.0000 0.0000 0.0000
# 4 0.0000 0.0000 0.0000 35.3227 0.0000 0.0000
# 5 0.0000 0.0000 0.0000 0.0000 29.6034 0.0000
# 6 0.0000 0.0000 0.0000 0.0000 0.0000 26.3473
#
#
#
# Elastic Compliance Matrix: (Units=1/GPa)
#
#
# Indices 1 2 3 4 5 6 
#
# 1 0.015857 -0.006031 0.009299 0.000000 0.000000 0.000000
# 2 -0.006031 0.014963 0.000682 0.000000 0.000000 0.000000
# 3 0.009299 0.000682 0.089286 0.000000 0.000000 0.000000
# 4 0.000000 0.000000 0.000000 0.028310 0.000000 0.000000
# 5 0.000000 0.000000 0.000000 0.000000 0.033780 0.000000
# 6 0.000000 0.000000 0.000000 0.000000 0.000000 0.037955
#
#
# Mechanical properties :
#
#
# Convention : Reuss Voigt Hill
#
# Bulk Modulus (GPa) = 7.81213 23.71983 15.76598
# Shear Modulus (GPa) = 19.61407 28.44464 24.02936
#
# Velocity S-wave (km/s) = 3.00700 3.62118 3.32829
# Velocity P-wave (km/s) = 3.95695 5.33092 4.69447
#
# Compressibility (1/GPa) = 0.12800600
#
# Stress axis : x y z
#
# Youngs Moduli (GPa) = 63.06468 66.83174 11.19996
#
# Poissons Ratio (x) = 0.40305 -0.10415
# Poissons Ratio (y) = 0.38033 -0.00763
# Poissons Ratio (z) = -0.58646 -0.04555
#
# Static dielectric constant tensor:
#      x y z
#    x 1.803630 0.000000 0.000000 
#    y 0.000000 1.807170 0.000000 
#    z 0.000000 0.000000 1.768320 
# 
# From -- ./inp_files/6049.got.cif
#   From: 2010.05.17/outbox.cif.g08.bks.cpg/sg58_4_cif.got.tgz:6049.got - 2010.06.03 14:20:14.
