data_PCOD9441217
_publ_section_title
;
Structure prediction by ZEFSAII (Michael W. Deem and Ramdas Pophale) SiO2 
 PCOD9441217
Probable space group: P N N M
;
_chemical_formula_sum "Si O2"
_cell_formula_units_Z 64
_cell_length_a 16.960822
_cell_length_b 5.379862
_cell_length_c 32.806399
_cell_angle_alpha 90.000000
_cell_angle_beta 90.000000
_cell_angle_gamma 90.000000
_cell_volume 2993.481611
_symmetry_space_group_name_H-M "P N N M"
_symmetry_group_IT_number 58
_symmetry_cell_setting 'orthorhombic'
loop_
_space_group_symop_operation_xyz
x,y,z
-x,-y,z
1/2+x,1/2-y,1/2-z
1/2-x,1/2+y,1/2-z
-x,-y,-z
x,y,-z
1/2-x,1/2+y,1/2+z
1/2+x,1/2-y,1/2+z
loop_
_atom_site_type_symbol
_atom_site_label
_atom_site_fract_x
_atom_site_fract_y
_atom_site_fract_z
Si Si1 0.004990 0.749228 0.343179
Si Si2 0.451751 0.262658 0.287666
Si Si3 0.421713 0.896700 0.572169
Si Si4 0.756528 0.118978 0.546956
Si Si5 0.897562 0.098433 0.122126
Si Si6 0.779111 0.609336 0.596075
Si Si7 0.164413 0.260024 0.317369
Si Si8 0.340142 0.252987 0.213712
O O1 0.085996 0.747731 0.318351
O O2 0.000000 0.500000 0.368330
O O3 0.931348 0.747694 0.311317
O O4 0.000000 0.000000 0.367816
O O5 0.500000 0.500000 0.270871
O O6 0.425092 0.355727 0.332123
O O7 0.377549 0.236989 0.257947
O O8 0.500000 0.000000 0.289282
O O9 0.339666 0.852812 0.548766
O O10 0.433048 0.645853 0.599175
O O11 0.500000 0.000000 0.548995
O O12 0.408700 0.134813 0.600840
O O13 0.780986 0.130411 0.500000
O O14 0.794059 0.349376 0.572501
O O15 0.773214 0.847117 0.566152
O O16 0.804461 0.056421 0.117961
O O17 0.830552 0.700862 0.634222
O O18 0.202896 0.497111 0.295996
O O19 0.200277 0.008839 0.299220
#
# Coordination Sequence:
#
# PCOD9441217 Si02
#       8
#     8   8   8   8   8   8   8   8
#     4   8  14  25  42  65  94 119 152 204 252 286
#     4  12  21  32  51  74 102 140 181 222 270 303
#     4  10  19  34  54  76 103 135 173 219 266 309
#     4  10  21  37  57  80 106 132 166 215 262 312
#     4  10  21  34  49  73 105 141 183 218 251 308
#     4  10  21  37  55  76 105 140 172 208 256 314
#     4  10  18  32  51  71 102 137 169 209 259 307
#     4  10  19  31  48  75 103 129 170 225 264 292
#
# _framework density 21.379787
#
# number of rings (size 3 to 8) (size 9 to 14) (size 15 to 20)
#    0.000    2.000    0.000    6.375    0.000    0.250 
#    0.000    1.250    0.000    4.500    0.000    0.000 
#    0.000   90.000    0.000    0.000    0.000    0.000 
#
# Total GULP energy -356480.132823 kJ/mol
# GULP energy per Si atom -5570.002075 kJ/mol
# Density = 2.133113 g / cm^3
# Si number density = 21.379787 Si / 1000 Ang^3
#
#
#
# Elastic Constant Matrix: (Units=GPa)
#
#
# Indices 1 2 3 4 5 6 
#
# 1 25.1265 7.2265 6.2916 0.0000 0.0000 0.0000
# 2 7.2265 214.1036 42.7711 0.0000 0.0000 0.0000
# 3 6.2916 42.7711 105.8024 0.0000 0.0000 0.0000
# 4 0.0000 0.0000 0.0000 6.8706 0.0000 0.0000
# 5 0.0000 0.0000 0.0000 0.0000 -15.8983 0.0000
# 6 0.0000 0.0000 0.0000 0.0000 0.0000 15.9744
#
#
#
# Elastic Compliance Matrix: (Units=1/GPa)
#
#
# Indices 1 2 3 4 5 6 
#
# 1 0.040583 -0.000966 -0.002023 0.000000 0.000000 0.000000
# 2 -0.000966 0.005104 -0.002006 0.000000 0.000000 0.000000
# 3 -0.002023 -0.002006 0.010383 0.000000 0.000000 0.000000
# 4 0.000000 0.000000 0.000000 0.145548 0.000000 0.000000
# 5 0.000000 0.000000 0.000000 0.000000 -0.062900 0.000000
# 6 0.000000 0.000000 0.000000 0.000000 0.000000 0.062600
#
#
# Mechanical properties :
#
#
# Convention : Reuss Voigt Hill
#
# Bulk Modulus (GPa) = 21.70110 50.84567 36.27338
# Shear Modulus (GPa) = 22.05878 20.63888 21.34883
#
# Velocity S-wave (km/s) = 3.21558 3.11037 3.16342
# Velocity P-wave (km/s) = 4.89479 6.06077 5.50872
#
# Compressibility (1/GPa) = 0.04608061
#
# Stress axis : x y z
#
# Youngs Moduli (GPa) = 24.64098 195.92723 96.31353
#
# Poissons Ratio (x) = 0.18920 0.19484
# Poissons Ratio (y) = 0.02379 0.19319
# Poissons Ratio (z) = 0.04985 0.39300
#
# Static dielectric constant tensor:
#      x y z
#    x 1.909460 0.000000 0.000000 
#    y 0.000000 1.969720 0.000000 
#    z 0.000000 0.000000 1.729580 
# 
# From -- ./inp_files/35136.got.cif
#   From: 2010.05.17/outbox.cif.g08.bks.cpg/sg58_18_cif.got.tgz:35136.got - 2010.06.03 14:20:14.
