data_PCOD9441617
_publ_section_title
;
Structure prediction by ZEFSAII (Michael W. Deem and Ramdas Pophale) SiO2 
 PCOD9441617
Probable space group: P N N M
;
_chemical_formula_sum "Si O2"
_cell_formula_units_Z 34
_cell_length_a 4.723609
_cell_length_b 18.256965
_cell_length_c 16.575723
_cell_angle_alpha 90.000000
_cell_angle_beta 90.000000
_cell_angle_gamma 90.000000
_cell_volume 1429.469867
_symmetry_space_group_name_H-M "P N N M"
_symmetry_group_IT_number 58
_symmetry_cell_setting 'orthorhombic'
loop_
_space_group_symop_operation_xyz
x,y,z
-x,-y,z
1/2+x,1/2-y,1/2-z
1/2-x,1/2+y,1/2-z
-x,-y,-z
x,y,-z
1/2-x,1/2+y,1/2+z
1/2+x,1/2-y,1/2+z
loop_
_atom_site_type_symbol
_atom_site_label
_atom_site_fract_x
_atom_site_fract_y
_atom_site_fract_z
Si Si1 0.664886 0.672848 0.175048
Si Si2 0.179814 0.279762 0.500000
Si Si3 0.174316 0.319416 0.000000
Si Si4 0.531079 0.594989 0.584638
Si Si5 0.500000 0.000000 0.000000
Si Si6 0.666391 0.843604 0.219870
O O1 0.696954 0.761353 0.183362
O O2 0.853455 0.641251 0.248290
O O3 0.748400 0.646794 0.086185
O O4 0.344227 0.656991 0.197290
O O5 0.349759 0.204405 0.500000
O O6 0.289552 0.329138 0.573956
O O7 0.856881 0.256851 0.500000
O O8 0.342787 0.589686 0.500000
O O9 0.321667 0.603047 0.658085
O O10 0.777139 0.536156 0.570390
#
# Coordination Sequence:
#
# PCOD9441617 Si02
#       6
#     8   4   4   8   2   8
#     4  10  21  29  46  69  96 133 171 210 242 316
#     4   9  20  25  52  64  92 140 160 203 244 295
#     4  12  18  34  44  71  96 135 174 201 252 299
#     4   8  16  32  50  76 101 140 171 217 255 308
#     4   6  16  32  56  78 100 140 184 216 252 324
#     4  10  19  31  45  70  99 128 173 207 251 299
#
# _framework density 23.785039999999999
#
# number of rings (size 3 to 8) (size 9 to 14) (size 15 to 20)
#    1.412    0.941    2.353    1.412    6.588    0.000 
#    0.000    0.000    0.000   25.412    0.000    0.000 
#    0.000    5.647    0.000    0.000    0.000    0.000 
#
# Total GULP energy -189461.360309 kJ/mol
# GULP energy per Si atom -5572.392950 kJ/mol
# Density = 2.373090 g / cm^3
# Si number density = 23.785040 Si / 1000 Ang^3
#
#
#
# Elastic Constant Matrix: (Units=GPa)
#
#
# Indices 1 2 3 4 5 6 
#
# 1 59.3391 -0.0702 17.9479 0.0000 0.0000 0.0000
# 2 -0.0702 21.4262 6.7366 0.0000 0.0000 0.0000
# 3 17.9479 6.7366 139.4031 0.0000 0.0000 0.0000
# 4 0.0000 0.0000 0.0000 25.1030 0.0000 0.0000
# 5 0.0000 0.0000 0.0000 0.0000 38.0827 0.0000
# 6 0.0000 0.0000 0.0000 0.0000 0.0000 25.4747
#
#
#
# Elastic Compliance Matrix: (Units=1/GPa)
#
#
# Indices 1 2 3 4 5 6 
#
# 1 0.017548 0.000780 -0.002297 0.000000 0.000000 0.000000
# 2 0.000780 0.047426 -0.002392 0.000000 0.000000 0.000000
# 3 -0.002297 -0.002392 0.007585 0.000000 0.000000 0.000000
# 4 0.000000 0.000000 0.000000 0.039836 0.000000 0.000000
# 5 0.000000 0.000000 0.000000 0.000000 0.026259 0.000000
# 6 0.000000 0.000000 0.000000 0.000000 0.000000 0.039255
#
#
# Mechanical properties :
#
#
# Convention : Reuss Voigt Hill
#
# Bulk Modulus (GPa) = 15.44636 29.93301 22.68968
# Shear Modulus (GPa) = 24.11877 30.76903 27.44390
#
# Velocity S-wave (km/s) = 3.18784 3.60061 3.40049
# Velocity P-wave (km/s) = 4.47862 5.46790 4.99780
#
# Compressibility (1/GPa) = 0.06474018
#
# Stress axis : x y z
#
# Youngs Moduli (GPa) = 56.98670 21.08527 131.84309
#
# Poissons Ratio (x) = -0.01644 0.30284
# Poissons Ratio (y) = -0.04443 0.31540
# Poissons Ratio (z) = 0.13090 0.05044
#
# Static dielectric constant tensor:
#      x y z
#    x 1.790190 0.000000 0.000000 
#    y 0.000000 1.969750 0.000000 
#    z 0.000000 0.000000 1.991910 
# 
# From -- ./inp_files/18461.got.cif
#   From: 2010.05.17/outbox.cif.g08.bks.cpg/sg58_10_cif.got.tgz:18461.got - 2010.06.03 14:20:14.
