data_PCOD9441392
_publ_section_title
;
Structure prediction by ZEFSAII (Michael W. Deem and Ramdas Pophale) SiO2 
 PCOD9441392
Probable space group: P N N M
;
_chemical_formula_sum "Si O2"
_cell_formula_units_Z 64
_cell_length_a 21.585804
_cell_length_b 18.176003
_cell_length_c 7.501047
_cell_angle_alpha 90.000000
_cell_angle_beta 90.000000
_cell_angle_gamma 90.000000
_cell_volume 2942.988071
_symmetry_space_group_name_H-M "P N N M"
_symmetry_group_IT_number 58
_symmetry_cell_setting 'orthorhombic'
loop_
_space_group_symop_operation_xyz
x,y,z
-x,-y,z
1/2+x,1/2-y,1/2-z
1/2-x,1/2+y,1/2-z
-x,-y,-z
x,y,-z
1/2-x,1/2+y,1/2+z
1/2+x,1/2-y,1/2+z
loop_
_atom_site_type_symbol
_atom_site_label
_atom_site_fract_x
_atom_site_fract_y
_atom_site_fract_z
Si Si1 0.937431 0.040607 0.284432
Si Si2 0.702193 0.970988 0.219569
Si Si3 0.902358 0.770416 0.707992
Si Si4 0.956189 0.207697 0.280696
Si Si5 0.983184 0.585001 0.206990
Si Si6 0.346912 0.874836 0.201566
Si Si7 0.163348 0.078775 0.206377
Si Si8 0.609551 0.845086 0.798879
O O1 0.937020 0.039915 0.500000
O O2 0.939965 0.124959 0.226880
O O3 0.879711 0.992592 0.223421
O O4 0.000000 0.000000 0.225203
O O5 0.688924 0.054730 0.281572
O O6 0.768963 0.941401 0.277193
O O7 0.651401 0.910407 0.279494
O O8 0.699219 0.974308 0.000000
O O9 0.909177 0.750783 0.500000
O O10 0.857074 0.706642 0.783934
O O11 0.871686 0.850641 0.715437
O O12 0.973091 0.773733 0.778803
O O13 0.956754 0.210024 0.500000
O O14 0.903573 0.264920 0.217754
O O15 0.917876 0.597424 0.298299
O O16 0.000000 0.500000 0.209725
O O17 0.039447 0.625405 0.300762
O O18 0.979101 0.608499 0.000000
O O19 0.322458 0.865399 0.000000
O O20 0.171732 0.097251 0.000000
O O21 0.633253 0.833953 0.000000
#
# Coordination Sequence:
#
# PCOD9441392 Si02
#       8
#     8   8   8   8   8   8   8   8
#     4  10  19  36  60  82 107 140 182 232 278 326
#     4   9  20  37  57  79 108 149 195 233 264 323
#     4  10  19  35  59  86 108 136 181 232 281 333
#     4   9  17  31  56  88 110 128 177 239 276 316
#     4  11  21  30  46  80 120 146 172 225 285 328
#     4  10  19  35  60  81 102 145 198 232 264 328
#     4  11  23  39  56  80 115 150 186 230 286 338
#     4  10  18  34  59  80 104 148 194 227 268 329
#
# _framework density 21.746607000000001
#
# number of rings (size 3 to 8) (size 9 to 14) (size 15 to 20)
#    0.000    2.000    3.750    0.750    0.000    1.250 
#    2.250    3.125    0.000    0.000    0.000    0.000 
#    0.000    0.000    0.000    0.000    0.000    0.000 
#
# Total GULP energy -357008.919323 kJ/mol
# GULP energy per Si atom -5578.264364 kJ/mol
# Density = 2.169711 g / cm^3
# Si number density = 21.746607 Si / 1000 Ang^3
#
#
#
# Elastic Constant Matrix: (Units=GPa)
#
#
# Indices 1 2 3 4 5 6 
#
# 1 81.7380 39.4516 -9.2604 0.0000 0.0000 0.0000
# 2 39.4516 178.2937 3.3189 0.0000 0.0000 0.0000
# 3 -9.2604 3.3189 63.1571 0.0000 0.0000 0.0000
# 4 0.0000 0.0000 0.0000 -35.5035 0.0000 0.0000
# 5 0.0000 0.0000 0.0000 0.0000 6.7828 0.0000
# 6 0.0000 0.0000 0.0000 0.0000 0.0000 21.2704
#
#
#
# Elastic Compliance Matrix: (Units=1/GPa)
#
#
# Indices 1 2 3 4 5 6 
#
# 1 0.014001 -0.003139 0.002218 0.000000 0.000000 0.000000
# 2 -0.003139 0.006318 -0.000792 0.000000 0.000000 0.000000
# 3 0.002218 -0.000792 0.016200 0.000000 0.000000 0.000000
# 4 0.000000 0.000000 0.000000 -0.028166 0.000000 0.000000
# 5 0.000000 0.000000 0.000000 0.000000 0.147431 0.000000
# 6 0.000000 0.000000 0.000000 0.000000 0.000000 0.047014
#
#
# Mechanical properties :
#
#
# Convention : Reuss Voigt Hill
#
# Bulk Modulus (GPa) = 30.21914 43.35657 36.78786
# Shear Modulus (GPa) = 23.01436 17.82186 20.41811
#
# Velocity S-wave (km/s) = 3.25668 2.86584 3.06749
# Velocity P-wave (km/s) = 5.29787 5.56158 5.43133
#
# Compressibility (1/GPa) = 0.03309161
#
# Stress axis : x y z
#
# Youngs Moduli (GPa) = 71.42519 158.27528 61.72704
#
# Poissons Ratio (x) = 0.49687 -0.13690
# Poissons Ratio (y) = 0.22422 0.04891
# Poissons Ratio (z) = -0.15841 0.12540
#
# Static dielectric constant tensor:
#      x y z
#    x 1.739940 0.000000 0.000000 
#    y 0.000000 1.842730 0.000000 
#    z 0.000000 0.000000 1.839690 
# 
# From -- ./inp_files/9302.got.cif
#   From: 2010.05.17/outbox.cif.g08.bks.cpg/sg58_5_cif.got.tgz:9302.got - 2010.06.03 14:20:14.
