data_PCOD9441482
_publ_section_title
;
Structure prediction by ZEFSAII (Michael W. Deem and Ramdas Pophale) SiO2 
 PCOD9441482
Probable space group: P N N M
;
_chemical_formula_sum "Si O2"
_cell_formula_units_Z 32
_cell_length_a 11.393627
_cell_length_b 7.486493
_cell_length_c 18.708109
_cell_angle_alpha 90.000000
_cell_angle_beta 90.000000
_cell_angle_gamma 90.000000
_cell_volume 1595.770058
_symmetry_space_group_name_H-M "P N N M"
_symmetry_group_IT_number 58
_symmetry_cell_setting 'orthorhombic'
loop_
_space_group_symop_operation_xyz
x,y,z
-x,-y,z
1/2+x,1/2-y,1/2-z
1/2-x,1/2+y,1/2-z
-x,-y,-z
x,y,-z
1/2-x,1/2+y,1/2+z
1/2+x,1/2-y,1/2+z
loop_
_atom_site_type_symbol
_atom_site_label
_atom_site_fract_x
_atom_site_fract_y
_atom_site_fract_z
Si Si1 0.190255 0.881642 0.876245
Si Si2 0.523529 0.782995 0.000000
Si Si3 0.943556 0.699661 0.344921
Si Si4 0.500000 0.500000 0.265752
Si Si5 0.464584 0.205211 0.500000
Si Si6 0.272245 0.645480 0.500000
O O1 0.302430 0.795445 0.838992
O O2 0.244847 0.027031 0.929818
O O3 0.110402 0.760664 0.929688
O O4 0.109801 0.976739 0.818307
O O5 0.469956 0.727077 0.924620
O O6 0.660691 0.726098 0.000000
O O7 0.500000 0.000000 0.000000
O O8 0.000000 0.500000 0.338654
O O9 0.994419 0.827098 0.284355
O O10 0.591374 0.301704 0.500000
O O11 0.500000 0.000000 0.500000
#
# Coordination Sequence:
#
# PCOD9441482 Si02
#       6
#     8   4   8   4   4   4
#     4  11  22  45  65  94 138 170 222 274 333 399
#     4  10  18  39  70  94 120 166 227 278 322 381
#     4  11  25  44  69  97 132 181 223 276 341 389
#     4  12  28  42  64 104 140 178 220 272 334 422
#     4  11  24  41  70 102 125 175 229 283 324 387
#     4  11  18  41  74  90 128 171 217 277 327 375
#
# _framework density 20.053013
#
# number of rings (size 3 to 8) (size 9 to 14) (size 15 to 20)
#    0.000    1.000    7.500    1.500    3.500    3.500 
#    0.000    0.000    0.000    0.000    0.000    0.000 
#    0.000    0.000    0.000    0.000    0.000    0.000 
#
# Total GULP energy -178559.793598 kJ/mol
# GULP energy per Si atom -5579.993550 kJ/mol
# Density = 2.000737 g / cm^3
# Si number density = 20.053013 Si / 1000 Ang^3
#
#
#
# Elastic Constant Matrix: (Units=GPa)
#
#
# Indices 1 2 3 4 5 6 
#
# 1 107.6858 1.9943 11.5436 0.0000 0.0000 0.0000
# 2 1.9943 60.0777 28.1346 0.0000 0.0000 0.0000
# 3 11.5436 28.1346 122.3103 0.0000 0.0000 0.0000
# 4 0.0000 0.0000 0.0000 114.1234 0.0000 0.0000
# 5 0.0000 0.0000 0.0000 0.0000 18.2024 0.0000
# 6 0.0000 0.0000 0.0000 0.0000 0.0000 -4.9328
#
#
#
# Elastic Compliance Matrix: (Units=1/GPa)
#
#
# Indices 1 2 3 4 5 6 
#
# 1 0.009382 0.000116 -0.000912 0.000000 0.000000 0.000000
# 2 0.000116 0.018656 -0.004302 0.000000 0.000000 0.000000
# 3 -0.000912 -0.004302 0.009252 0.000000 0.000000 0.000000
# 4 0.000000 0.000000 0.000000 0.008762 0.000000 0.000000
# 5 0.000000 0.000000 0.000000 0.000000 0.054938 0.000000
# 6 0.000000 0.000000 0.000000 0.000000 0.000000 -0.202724
#
#
# Mechanical properties :
#
#
# Convention : Reuss Voigt Hill
#
# Bulk Modulus (GPa) = 36.91092 41.49096 39.20094
# Shear Modulus (GPa) = -60.60168 42.03868 -9.28150
#
# Velocity S-wave (km/s) = -5.50330 4.58359 -2.15372
# Velocity P-wave (km/s) = 4.68350 6.98197 3.66147
#
# Compressibility (1/GPa) = 0.02709226
#
# Stress axis : x y z
#
# Youngs Moduli (GPa) = 106.58814 53.60185 108.08877
#
# Poissons Ratio (x) = -0.00620 0.09858
# Poissons Ratio (y) = -0.01233 0.46503
# Poissons Ratio (z) = 0.09722 0.23061
#
# Static dielectric constant tensor:
#      x y z
#    x 1.897060 0.000000 0.000000 
#    y 0.000000 1.760460 0.000000 
#    z 0.000000 0.000000 1.669660 
# 
# From -- ./inp_files/19219.got.cif
#   From: 2010.05.17/outbox.cif.g08.bks.cpg/sg58_10_cif.got.tgz:19219.got - 2010.06.03 14:20:14.
