data_PCOD9441786
_publ_section_title
;
Structure prediction by ZEFSAII (Michael W. Deem and Ramdas Pophale) SiO2 
 PCOD9441786
Probable space group: P N N M
;
_chemical_formula_sum "Si O2"
_cell_formula_units_Z 64
_cell_length_a 13.122120
_cell_length_b 29.963574
_cell_length_c 7.406876
_cell_angle_alpha 90.000000
_cell_angle_beta 90.000000
_cell_angle_gamma 90.000000
_cell_volume 2912.277085
_symmetry_space_group_name_H-M "P N N M"
_symmetry_group_IT_number 58
_symmetry_cell_setting 'orthorhombic'
loop_
_space_group_symop_operation_xyz
x,y,z
-x,-y,z
1/2+x,1/2-y,1/2-z
1/2-x,1/2+y,1/2-z
-x,-y,-z
x,y,-z
1/2-x,1/2+y,1/2+z
1/2+x,1/2-y,1/2+z
loop_
_atom_site_type_symbol
_atom_site_label
_atom_site_fract_x
_atom_site_fract_y
_atom_site_fract_z
Si Si1 0.066872 0.707073 0.783032
Si Si2 0.852110 0.390482 0.285952
Si Si3 0.369020 0.303075 0.288329
Si Si4 0.559668 0.069637 0.794356
Si Si5 0.142165 0.333942 0.783374
Si Si6 0.349939 0.562083 0.720337
Si Si7 0.763950 0.033378 0.220704
Si Si8 0.935433 0.102423 0.778933
O O1 0.127759 0.662098 0.735506
O O2 0.107372 0.754203 0.712301
O O3 0.950418 0.698130 0.727647
O O4 0.069182 0.708594 0.000000
O O5 0.852735 0.399204 0.500000
O O6 0.742718 0.406307 0.218865
O O7 0.949427 0.418451 0.212162
O O8 0.395353 0.300989 0.500000
O O9 0.250373 0.314922 0.271697
O O10 0.427582 0.346508 0.215744
O O11 0.616567 0.117685 0.796453
O O12 0.646973 0.037746 0.715029
O O13 0.541690 0.054490 0.000000
O O14 0.140053 0.338761 0.000000
O O15 0.353075 0.562564 0.500000
O O16 0.319107 0.512179 0.774023
O O17 0.460691 0.578537 0.779204
O O18 0.835876 0.074429 0.277069
O O19 0.759556 0.034021 0.000000
O O20 0.934155 0.102568 0.000000
#
# Coordination Sequence:
#
# PCOD9441786 Si02
#       8
#     8   8   8   8   8   8   8   8
#     4   9  20  35  51  71  97 131 166 200 244 299
#     4   9  18  31  48  72 102 131 161 206 253 290
#     4  10  19  33  52  73  95 126 166 203 245 294
#     4   9  16  29  49  71  97 130 165 200 242 290
#     4  10  19  32  50  73  99 126 160 205 248 287
#     4   9  17  27  43  73 106 131 159 203 253 294
#     4   9  15  25  45  72  99 130 166 202 244 295
#     4   9  16  27  45  69  99 129 160 201 245 294
#
# _framework density 21.975930000000002
#
# number of rings (size 3 to 8) (size 9 to 14) (size 15 to 20)
#    0.000    2.750    1.250    0.750    0.000    4.000 
#    0.000    5.000    0.000    1.500    0.000    4.375 
#    0.000    0.000    0.000    0.000    0.000    0.000 
#
# Total GULP energy -357233.961872 kJ/mol
# GULP energy per Si atom -5581.780654 kJ/mol
# Density = 2.192591 g / cm^3
# Si number density = 21.975930 Si / 1000 Ang^3
#
#
#
# Elastic Constant Matrix: (Units=GPa)
#
#
# Indices 1 2 3 4 5 6 
#
# 1 275.1418 9.2505 -3.2031 0.0000 0.0000 0.0000
# 2 9.2505 82.2082 -2.0819 0.0000 0.0000 0.0000
# 3 -3.2031 -2.0819 72.9838 0.0000 0.0000 0.0000
# 4 0.0000 0.0000 0.0000 5.1112 0.0000 0.0000
# 5 0.0000 0.0000 0.0000 0.0000 -1.8482 0.0000
# 6 0.0000 0.0000 0.0000 0.0000 0.0000 25.8316
#
#
#
# Elastic Compliance Matrix: (Units=1/GPa)
#
#
# Indices 1 2 3 4 5 6 
#
# 1 0.003650 -0.000407 0.000149 0.000000 0.000000 0.000000
# 2 -0.000407 0.012218 0.000331 0.000000 0.000000 0.000000
# 3 0.000149 0.000331 0.013718 0.000000 0.000000 0.000000
# 4 0.000000 0.000000 0.000000 0.195647 0.000000 0.000000
# 5 0.000000 0.000000 0.000000 0.000000 -0.541077 0.000000
# 6 0.000000 0.000000 0.000000 0.000000 0.000000 0.038712
#
#
# Mechanical properties :
#
#
# Convention : Reuss Voigt Hill
#
# Bulk Modulus (GPa) = 33.63541 48.69608 41.16575
# Shear Modulus (GPa) = -18.70095 34.24349 7.77127
#
# Velocity S-wave (km/s) = -2.92031 3.95172 1.88254
# Velocity P-wave (km/s) = 1.99194 6.55960 4.84749
#
# Compressibility (1/GPa) = 0.02973057
#
# Stress axis : x y z
#
# Youngs Moduli (GPa) = 273.98000 81.84378 72.89887
#
# Poissons Ratio (x) = 0.03331 -0.01083
# Poissons Ratio (y) = 0.11149 -0.02411
# Poissons Ratio (z) = -0.04071 -0.02706
#
# Static dielectric constant tensor:
#      x y z
#    x 1.782680 0.000000 0.000000 
#    y 0.000000 1.790240 0.000000 
#    z 0.000000 0.000000 1.878090 
# 
# From -- ./inp_files/4793.got.cif
#   From: 2010.05.17/outbox.cif.g08.bks.cpg/sg58_3_cif.got.tgz:4793.got - 2010.06.03 14:20:14.
