data_PCOD9441832
_publ_section_title
;
Structure prediction by ZEFSAII (Michael W. Deem and Ramdas Pophale) SiO2 
 PCOD9441832
Probable space group: P N N M
;
_chemical_formula_sum "Si O2"
_cell_formula_units_Z 40
_cell_length_a 7.440235
_cell_length_b 24.042598
_cell_length_c 13.479348
_cell_angle_alpha 90.000000
_cell_angle_beta 90.000000
_cell_angle_gamma 90.000000
_cell_volume 2411.220535
_symmetry_space_group_name_H-M "P N N M"
_symmetry_group_IT_number 58
_symmetry_cell_setting 'orthorhombic'
loop_
_space_group_symop_operation_xyz
x,y,z
-x,-y,z
1/2+x,1/2-y,1/2-z
1/2-x,1/2+y,1/2-z
-x,-y,-z
x,y,-z
1/2-x,1/2+y,1/2+z
1/2+x,1/2-y,1/2+z
loop_
_atom_site_type_symbol
_atom_site_label
_atom_site_fract_x
_atom_site_fract_y
_atom_site_fract_z
Si Si1 0.723193 0.308489 0.290173
Si Si2 0.437572 0.753028 0.118057
Si Si3 0.664896 0.923660 0.117578
Si Si4 0.864481 0.158998 0.882059
Si Si5 0.256479 0.456868 0.383551
O O1 0.671458 0.294391 0.177144
O O2 0.867639 0.265449 0.334976
O O3 0.793278 0.370003 0.317177
O O4 0.532127 0.305831 0.345333
O O5 0.319857 0.808635 0.137254
O O6 0.449217 0.744212 0.000000
O O7 0.453457 0.938759 0.120762
O O8 0.767444 0.979712 0.152436
O O9 0.706402 0.912368 0.000000
O O10 0.861464 0.096042 0.840271
O O11 0.877833 0.153971 0.000000
O O12 0.303121 0.461122 0.500000
#
# Coordination Sequence:
#
# PCOD9441832 Si02
#       5
#     8   8   8   8   8
#     4  12  21  35  54  75 103 144 179 212 264 314
#     4  11  23  37  51  76 109 137 178 225 257 305
#     4   9  16  28  50  78 109 140 168 209 264 324
#     4  10  19  32  52  77 108 139 170 214 263 316
#     4   8  15  28  47  77 112 137 163 208 266 323
#
# _framework density 16.589109000000001
#
# number of rings (size 3 to 8) (size 9 to 14) (size 15 to 20)
#    0.000    2.000    4.000    3.000    0.000    0.800 
#    0.000    3.000    0.000    0.000    0.000    5.600 
#    0.000    0.000    0.000    0.200    0.000    0.000 
#
# Total GULP energy -222792.581527 kJ/mol
# GULP energy per Si atom -5569.814538 kJ/mol
# Density = 1.655135 g / cm^3
# Si number density = 16.589109 Si / 1000 Ang^3
#
#
#
# Elastic Constant Matrix: (Units=GPa)
#
#
# Indices 1 2 3 4 5 6 
#
# 1 78.9173 19.6326 29.8387 0.0000 0.0000 0.0000
# 2 19.6326 92.2326 50.3278 0.0000 0.0000 0.0000
# 3 29.8387 50.3278 53.6615 0.0000 0.0000 0.0000
# 4 0.0000 0.0000 0.0000 20.4604 0.0000 0.0000
# 5 0.0000 0.0000 0.0000 0.0000 16.7488 0.0000
# 6 0.0000 0.0000 0.0000 0.0000 0.0000 30.4897
#
#
#
# Elastic Compliance Matrix: (Units=1/GPa)
#
#
# Indices 1 2 3 4 5 6 
#
# 1 0.016454 0.003052 -0.012011 0.000000 0.000000 0.000000
# 2 0.003052 0.022773 -0.023055 0.000000 0.000000 0.000000
# 3 -0.012011 -0.023055 0.046937 0.000000 0.000000 0.000000
# 4 0.000000 0.000000 0.000000 0.048875 0.000000 0.000000
# 5 0.000000 0.000000 0.000000 0.000000 0.059706 0.000000
# 6 0.000000 0.000000 0.000000 0.000000 0.000000 0.032798
#
#
# Mechanical properties :
#
#
# Convention : Reuss Voigt Hill
#
# Bulk Modulus (GPa) = 45.17852 47.15662 46.16757
# Shear Modulus (GPa) = 16.72523 21.87392 19.29958
#
# Velocity S-wave (km/s) = 3.17867 3.63515 3.41455
# Velocity P-wave (km/s) = 6.38474 6.79022 6.59060
#
# Compressibility (1/GPa) = 0.02213441
#
# Stress axis : x y z
#
# Youngs Moduli (GPa) = 60.77625 43.91215 21.30517
#
# Poissons Ratio (x) = -0.13401 0.25590
# Poissons Ratio (y) = -0.18548 0.49119
# Poissons Ratio (z) = 0.73001 1.01239
#
# Static dielectric constant tensor:
#      x y z
#    x 1.626250 0.000000 0.000000 
#    y 0.000000 1.622230 0.000000 
#    z 0.000000 0.000000 1.524380 
# 
# From -- ./inp_files/19945.got.cif
#   From: 2010.05.17/outbox.cif.g08.bks.cpg/sg58_10_cif.got.tgz:19945.got - 2010.06.03 14:20:14.
