data_PCOD9441448
_publ_section_title
;
Structure prediction by ZEFSAII (Michael W. Deem and Ramdas Pophale) SiO2 
 PCOD9441448
Probable space group: P N N M
;
_chemical_formula_sum "Si O2"
_cell_formula_units_Z 40
_cell_length_a 6.928902
_cell_length_b 14.994782
_cell_length_c 18.463675
_cell_angle_alpha 90.000000
_cell_angle_beta 90.000000
_cell_angle_gamma 90.000000
_cell_volume 1918.327365
_symmetry_space_group_name_H-M "P N N M"
_symmetry_group_IT_number 58
_symmetry_cell_setting 'orthorhombic'
loop_
_space_group_symop_operation_xyz
x,y,z
-x,-y,z
1/2+x,1/2-y,1/2-z
1/2-x,1/2+y,1/2-z
-x,-y,-z
x,y,-z
1/2-x,1/2+y,1/2+z
1/2+x,1/2-y,1/2+z
loop_
_atom_site_type_symbol
_atom_site_label
_atom_site_fract_x
_atom_site_fract_y
_atom_site_fract_z
Si Si1 0.694379 0.772672 0.580301
Si Si2 0.856523 0.583904 0.077122
Si Si3 0.924254 0.090273 0.151960
Si Si4 0.779780 0.827061 0.267616
Si Si5 0.661779 0.123094 0.730188
O O1 0.781428 0.777753 0.500000
O O2 0.497133 0.830186 0.578945
O O3 0.630381 0.672451 0.600674
O O4 0.822174 0.811538 0.646537
O O5 0.758241 0.583554 0.155184
O O6 0.000000 0.500000 0.076400
O O7 0.748126 0.583516 0.000000
O O8 0.736510 0.071200 0.200405
O O9 0.076594 0.122841 0.213741
O O10 0.000000 0.000000 0.116492
O O11 0.569365 0.871850 0.268376
O O12 0.767420 0.725638 0.237659
#
# Coordination Sequence:
#
# PCOD9441448 Si02
#       5
#     8   8   8   8   8
#     4   9  19  36  56  80 114 149 186 234 285 336
#     4   9  17  30  52  80 108 145 182 222 286 342
#     4  11  23  35  57  86 112 149 195 231 274 337
#     4  10  18  36  57  81 110 145 187 233 281 331
#     4  10  19  34  56  80 111 142 184 233 275 328
#
# _framework density 20.851496999999998
#
# number of rings (size 3 to 8) (size 9 to 14) (size 15 to 20)
#    0.000    2.200    6.000    0.000    5.600    0.400 
#    0.000    1.000    0.000    6.000    0.000    7.000 
#    0.000    0.000    0.000    0.000    0.000    0.000 
#
# Total GULP energy -222894.082525 kJ/mol
# GULP energy per Si atom -5572.352063 kJ/mol
# Density = 2.080404 g / cm^3
# Si number density = 20.851497 Si / 1000 Ang^3
#
#
#
# Elastic Constant Matrix: (Units=GPa)
#
#
# Indices 1 2 3 4 5 6 
#
# 1 39.3311 -4.0425 2.6797 0.0000 0.0000 0.0000
# 2 -4.0425 68.8476 -0.6671 0.0000 0.0000 0.0000
# 3 2.6797 -0.6671 76.1918 0.0000 0.0000 0.0000
# 4 0.0000 0.0000 0.0000 4.5662 0.0000 0.0000
# 5 0.0000 0.0000 0.0000 0.0000 15.6544 0.0000
# 6 0.0000 0.0000 0.0000 0.0000 0.0000 21.6421
#
#
#
# Elastic Compliance Matrix: (Units=1/GPa)
#
#
# Indices 1 2 3 4 5 6 
#
# 1 0.025640 0.001497 -0.000889 0.000000 0.000000 0.000000
# 2 0.001497 0.014613 0.000075 0.000000 0.000000 0.000000
# 3 -0.000889 0.000075 0.013157 0.000000 0.000000 0.000000
# 4 0.000000 0.000000 0.000000 0.218998 0.000000 0.000000
# 5 0.000000 0.000000 0.000000 0.000000 0.063880 0.000000
# 6 0.000000 0.000000 0.000000 0.000000 0.000000 0.046206
#
#
# Mechanical properties :
#
#
# Convention : Reuss Voigt Hill
#
# Bulk Modulus (GPa) = 18.25593 20.03453 19.14523
# Shear Modulus (GPa) = 12.51922 20.79923 16.65922
#
# Velocity S-wave (km/s) = 2.45296 3.16174 2.82963
# Velocity P-wave (km/s) = 4.09840 4.79143 4.45841
#
# Compressibility (1/GPa) = 0.05477673
#
# Stress axis : x y z
#
# Youngs Moduli (GPa) = 39.00220 68.43010 76.00702
#
# Poissons Ratio (x) = -0.10243 0.06754
# Poissons Ratio (y) = -0.05838 -0.00572
# Poissons Ratio (z) = 0.03466 -0.00515
#
# Static dielectric constant tensor:
#      x y z
#    x 1.806410 0.000000 0.000000 
#    y 0.000000 1.771270 0.000000 
#    z 0.000000 0.000000 1.798220 
# 
# From -- ./inp_files/25110.got.cif
#   From: 2010.05.17/outbox.cif.g08.bks.cpg/sg58_13_cif.got.tgz:25110.got - 2010.06.03 14:20:14.
