data_PCOD9441375
_publ_section_title
;
Structure prediction by ZEFSAII (Michael W. Deem and Ramdas Pophale) SiO2 
 PCOD9441375
Probable space group: P N N M
;
_chemical_formula_sum "Si O2"
_cell_formula_units_Z 64
_cell_length_a 31.336197
_cell_length_b 12.266048
_cell_length_c 7.739884
_cell_angle_alpha 90.000000
_cell_angle_beta 90.000000
_cell_angle_gamma 90.000000
_cell_volume 2974.989248
_symmetry_space_group_name_H-M "P N N M"
_symmetry_group_IT_number 58
_symmetry_cell_setting 'orthorhombic'
loop_
_space_group_symop_operation_xyz
x,y,z
-x,-y,z
1/2+x,1/2-y,1/2-z
1/2-x,1/2+y,1/2-z
-x,-y,-z
x,y,-z
1/2-x,1/2+y,1/2+z
1/2+x,1/2-y,1/2+z
loop_
_atom_site_type_symbol
_atom_site_label
_atom_site_fract_x
_atom_site_fract_y
_atom_site_fract_z
Si Si1 0.191709 0.491787 0.697526
Si Si2 0.049037 0.504741 0.711119
Si Si3 0.044535 0.049836 0.711132
Si Si4 0.877964 0.333346 0.288961
Si Si5 0.215068 0.038699 0.304904
Si Si6 0.081902 0.270703 0.291319
Si Si7 0.677927 0.251326 0.691980
Si Si8 0.129075 0.917633 0.288492
O O1 0.177791 0.472523 0.500000
O O2 0.161015 0.587726 0.765656
O O3 0.241035 0.523619 0.705322
O O4 0.186984 0.375897 0.787991
O O5 0.048710 0.506118 0.500000
O O6 0.078085 0.606997 0.764478
O O7 0.070926 0.391979 0.767557
O O8 0.000000 0.500000 0.767659
O O9 0.044396 0.046131 0.500000
O O10 0.086635 0.983055 0.766451
O O11 0.049322 0.176224 0.761185
O O12 0.000000 0.000000 0.771136
O O13 0.877573 0.330203 0.500000
O O14 0.873244 0.208451 0.232618
O O15 0.222548 0.997949 0.500000
O O16 0.203588 0.166220 0.310510
O O17 0.173214 0.975921 0.234863
O O18 0.082963 0.273314 0.500000
O O19 0.128079 0.235384 0.228170
O O20 0.688686 0.287066 0.500000
O O21 0.129159 0.920639 0.500000
#
# Coordination Sequence:
#
# PCOD9441375 Si02
#       8
#     8   8   8   8   8   8   8   8
#     4  11  23  40  61  88 120 154 195 245 301 357
#     4   9  17  28  49  82 116 150 188 236 294 355
#     4   9  17  28  49  82 116 150 188 236 294 355
#     4   9  18  32  51  79 117 152 184 231 288 349
#     4  11  23  40  61  88 120 154 195 245 301 357
#     4  10  18  34  56  83 116 151 195 249 302 352
#     4  12  24  40  62  85 114 157 207 251 298 354
#     4   9  18  32  51  79 117 152 184 231 288 349
#
# _framework density 21.512682000000002
#
# number of rings (size 3 to 8) (size 9 to 14) (size 15 to 20)
#    0.000    2.000    2.500    1.875    3.500    0.000 
#    0.000    0.000    0.000    0.750    0.000    0.000 
#    0.000    0.000    0.000    0.000    0.000    0.000 
#
# Total GULP energy -357458.842208 kJ/mol
# GULP energy per Si atom -5585.294410 kJ/mol
# Density = 2.146372 g / cm^3
# Si number density = 21.512682 Si / 1000 Ang^3
#
#
#
# Elastic Constant Matrix: (Units=GPa)
#
#
# Indices 1 2 3 4 5 6 
#
# 1 96.5861 21.9786 -4.4510 0.0000 0.0000 0.0000
# 2 21.9786 110.7358 1.3904 0.0000 0.0000 0.0000
# 3 -4.4510 1.3904 34.8900 0.0000 0.0000 0.0000
# 4 0.0000 0.0000 0.0000 4.8950 0.0000 0.0000
# 5 0.0000 0.0000 0.0000 0.0000 49.2577 0.0000
# 6 0.0000 0.0000 0.0000 0.0000 0.0000 35.8473
#
#
#
# Elastic Compliance Matrix: (Units=1/GPa)
#
#
# Indices 1 2 3 4 5 6 
#
# 1 0.010919 -0.002186 0.001480 0.000000 0.000000 0.000000
# 2 -0.002186 0.009473 -0.000656 0.000000 0.000000 0.000000
# 3 0.001480 -0.000656 0.028876 0.000000 0.000000 0.000000
# 4 0.000000 0.000000 0.000000 0.204290 0.000000 0.000000
# 5 0.000000 0.000000 0.000000 0.000000 0.020301 0.000000
# 6 0.000000 0.000000 0.000000 0.000000 0.000000 0.027896
#
#
# Mechanical properties :
#
#
# Convention : Reuss Voigt Hill
#
# Bulk Modulus (GPa) = 21.48505 31.11645 26.30075
# Shear Modulus (GPa) = 15.62528 32.88627 24.25577
#
# Velocity S-wave (km/s) = 2.69797 3.91409 3.36148
# Velocity P-wave (km/s) = 4.44007 5.90952 5.22670
#
# Compressibility (1/GPa) = 0.04654400
#
# Stress axis : x y z
#
# Youngs Moduli (GPa) = 91.58313 105.56791 34.63026
#
# Poissons Ratio (x) = 0.23075 -0.05125
# Poissons Ratio (y) = 0.20018 0.02273
# Poissons Ratio (z) = -0.13555 0.06929
#
# Static dielectric constant tensor:
#      x y z
#    x 1.750570 0.000000 0.000000 
#    y 0.000000 1.758980 0.000000 
#    z 0.000000 0.000000 1.786420 
# 
# From -- ./inp_files/4651.got.cif
#   From: 2010.05.17/outbox.cif.g08.bks.cpg/sg58_3_cif.got.tgz:4651.got - 2010.06.03 14:20:14.
