data_PCOD9441032
_publ_section_title
;
Structure prediction by ZEFSAII (Michael W. Deem and Ramdas Pophale) SiO2 
 PCOD9441032
Probable space group: P N N M
;
_chemical_formula_sum "Si O2"
_cell_formula_units_Z 48
_cell_length_a 9.793415
_cell_length_b 17.417112
_cell_length_c 13.263234
_cell_angle_alpha 90.000000
_cell_angle_beta 90.000000
_cell_angle_gamma 90.000000
_cell_volume 2262.349692
_symmetry_space_group_name_H-M "P N N M"
_symmetry_group_IT_number 58
_symmetry_cell_setting 'orthorhombic'
loop_
_space_group_symop_operation_xyz
x,y,z
-x,-y,z
1/2+x,1/2-y,1/2-z
1/2-x,1/2+y,1/2-z
-x,-y,-z
x,y,-z
1/2-x,1/2+y,1/2+z
1/2+x,1/2-y,1/2+z
loop_
_atom_site_type_symbol
_atom_site_label
_atom_site_fract_x
_atom_site_fract_y
_atom_site_fract_z
Si Si1 0.509448 0.841456 0.227980
Si Si2 0.711966 0.972693 0.198685
Si Si3 0.071946 0.138221 0.118099
Si Si4 0.701272 0.735455 0.885628
Si Si5 0.849581 0.580807 0.884875
Si Si6 0.256226 0.365561 0.613602
O O1 0.588854 0.913731 0.176890
O O2 0.601602 0.769888 0.198116
O O3 0.480703 0.873107 0.340124
O O4 0.359835 0.828380 0.182076
O O5 0.848684 0.922490 0.187545
O O6 0.685396 0.013222 0.306706
O O7 0.725724 0.043662 0.123172
O O8 0.156585 0.217329 0.124382
O O9 0.913339 0.145499 0.142898
O O10 0.080069 0.113011 0.000000
O O11 0.730994 0.645315 0.881021
O O12 0.650109 0.753156 0.000000
O O13 0.868119 0.556820 0.000000
O O14 0.239947 0.338266 0.500000
#
# Coordination Sequence:
#
# PCOD9441032 Si02
#       6
#     8   8   8   8   8   8
#     4  10  21  35  55  82 109 144 187 231 274 325
#     4  10  20  33  51  78 110 147 188 226 269 323
#     4   9  18  33  55  83 113 144 179 227 287 342
#     4   9  19  37  58  81 111 144 180 227 286 339
#     4  10  21  36  56  82 113 151 190 229 273 323
#     4  10  18  29  51  83 113 140 177 229 285 336
#
# _framework density 21.21688
#
# number of rings (size 3 to 8) (size 9 to 14) (size 15 to 20)
#    0.000    2.333    0.000    3.500    0.000    8.000 
#    0.000    0.000    0.000   12.000    0.000    4.667 
#    0.000    0.000    0.000    0.000    0.000    0.000 
#
# Total GULP energy -267861.991838 kJ/mol
# GULP energy per Si atom -5580.458163 kJ/mol
# Density = 2.116859 g / cm^3
# Si number density = 21.216880 Si / 1000 Ang^3
#
#
#
# Elastic Constant Matrix: (Units=GPa)
#
#
# Indices 1 2 3 4 5 6 
#
# 1 121.9490 20.8538 52.5528 0.0000 0.0000 0.0000
# 2 20.8538 78.6658 34.2880 0.0000 0.0000 0.0000
# 3 52.5528 34.2880 108.9135 0.0000 0.0000 0.0000
# 4 0.0000 0.0000 0.0000 23.0001 0.0000 0.0000
# 5 0.0000 0.0000 0.0000 0.0000 23.5950 0.0000
# 6 0.0000 0.0000 0.0000 0.0000 0.0000 20.8319
#
#
#
# Elastic Compliance Matrix: (Units=1/GPa)
#
#
# Indices 1 2 3 4 5 6 
#
# 1 0.010382 -0.000659 -0.004802 0.000000 0.000000 0.000000
# 2 -0.000659 0.014776 -0.004334 0.000000 0.000000 0.000000
# 3 -0.004802 -0.004334 0.012863 0.000000 0.000000 0.000000
# 4 0.000000 0.000000 0.000000 0.043478 0.000000 0.000000
# 5 0.000000 0.000000 0.000000 0.000000 0.042382 0.000000
# 6 0.000000 0.000000 0.000000 0.000000 0.000000 0.048003
#
#
# Mechanical properties :
#
#
# Convention : Reuss Voigt Hill
#
# Bulk Modulus (GPa) = 54.25597 58.32417 56.29007
# Shear Modulus (GPa) = 25.30137 26.94097 26.12117
#
# Velocity S-wave (km/s) = 3.45702 3.56728 3.51258
# Velocity P-wave (km/s) = 6.44688 6.67207 6.56044
#
# Compressibility (1/GPa) = 0.01843115
#
# Stress axis : x y z
#
# Youngs Moduli (GPa) = 96.31770 67.67909 77.74226
#
# Poissons Ratio (x) = 0.04461 0.37333
# Poissons Ratio (y) = 0.06349 0.33690
# Poissons Ratio (z) = 0.46253 0.29329
#
# Static dielectric constant tensor:
#      x y z
#    x 1.772420 0.000000 0.000000 
#    y 0.000000 1.782020 0.000000 
#    z 0.000000 0.000000 1.793740 
# 
# From -- ./inp_files/19813.got.cif
#   From: 2010.05.17/outbox.cif.g08.bks.cpg/sg58_10_cif.got.tgz:19813.got - 2010.06.03 14:20:14.
