data_PCOD9441846
_publ_section_title
;
Structure prediction by ZEFSAII (Michael W. Deem and Ramdas Pophale) SiO2 
 PCOD9441846
Probable space group: P N N M
;
_chemical_formula_sum "Si O2"
_cell_formula_units_Z 48
_cell_length_a 7.286167
_cell_length_b 27.968340
_cell_length_c 12.506133
_cell_angle_alpha 90.000000
_cell_angle_beta 90.000000
_cell_angle_gamma 90.000000
_cell_volume 2548.524744
_symmetry_space_group_name_H-M "P N N M"
_symmetry_group_IT_number 58
_symmetry_cell_setting 'orthorhombic'
loop_
_space_group_symop_operation_xyz
x,y,z
-x,-y,z
1/2+x,1/2-y,1/2-z
1/2-x,1/2+y,1/2-z
-x,-y,-z
x,y,-z
1/2-x,1/2+y,1/2+z
1/2+x,1/2-y,1/2+z
loop_
_atom_site_type_symbol
_atom_site_label
_atom_site_fract_x
_atom_site_fract_y
_atom_site_fract_z
Si Si1 0.882356 0.951403 0.622590
Si Si2 0.008062 0.206107 0.874869
Si Si3 0.038688 0.552566 0.719743
Si Si4 0.252291 0.401322 0.122388
Si Si5 0.158684 0.303070 0.779247
Si Si6 0.368056 0.151120 0.878278
O O1 0.816147 0.948074 0.500000
O O2 0.714573 0.950425 0.702724
O O3 0.032181 0.910069 0.641812
O O4 0.000000 0.000000 0.632599
O O5 0.113165 0.254407 0.840211
O O6 0.154056 0.163120 0.860824
O O7 0.832173 0.201325 0.799542
O O8 0.956590 0.208276 0.000000
O O9 0.080527 0.595740 0.639236
O O10 0.000000 0.500000 0.673614
O O11 0.867618 0.568453 0.794029
O O12 0.199411 0.346442 0.140168
O O13 0.215699 0.416537 0.000000
O O14 0.986871 0.319094 0.706383
O O15 0.411439 0.165543 0.000000
#
# Coordination Sequence:
#
# PCOD9441846 Si02
#       6
#     8   8   8   8   8   8
#     4  10  19  32  52  80 113 149 184 227 290 347
#     4  11  22  39  63  87 115 151 192 237 290 350
#     4  11  21  35  58  82 111 151 194 240 284 342
#     4  10  21  35  54  82 116 149 189 236 286 345
#     4  11  21  39  61  87 116 151 191 237 292 346
#     4  10  23  41  60  83 115 154 194 239 290 343
#
# _framework density 18.834427000000002
#
# number of rings (size 3 to 8) (size 9 to 14) (size 15 to 20)
#    0.000    1.500    3.333    2.500    0.000    1.000 
#    0.000    0.000    0.000    0.500    0.000    0.000 
#    0.000    0.000    0.000    0.000    0.000    0.000 
#
# Total GULP energy -268050.771972 kJ/mol
# GULP energy per Si atom -5584.391083 kJ/mol
# Density = 1.879156 g / cm^3
# Si number density = 18.834427 Si / 1000 Ang^3
#
#
#
# Elastic Constant Matrix: (Units=GPa)
#
#
# Indices 1 2 3 4 5 6 
#
# 1 43.8728 -12.3568 1.5747 0.0000 0.0000 0.0000
# 2 -12.3568 62.7033 -5.8073 0.0000 0.0000 0.0000
# 3 1.5747 -5.8073 38.8535 0.0000 0.0000 0.0000
# 4 0.0000 0.0000 0.0000 60.1133 0.0000 0.0000
# 5 0.0000 0.0000 0.0000 0.0000 47.0771 0.0000
# 6 0.0000 0.0000 0.0000 0.0000 0.0000 25.1328
#
#
#
# Elastic Compliance Matrix: (Units=1/GPa)
#
#
# Indices 1 2 3 4 5 6 
#
# 1 0.024135 0.004731 -0.000271 0.000000 0.000000 0.000000
# 2 0.004731 0.017099 0.002364 0.000000 0.000000 0.000000
# 3 -0.000271 0.002364 0.026102 0.000000 0.000000 0.000000
# 4 0.000000 0.000000 0.000000 0.016635 0.000000 0.000000
# 5 0.000000 0.000000 0.000000 0.000000 0.021242 0.000000
# 6 0.000000 0.000000 0.000000 0.000000 0.000000 0.039789
#
#
# Mechanical properties :
#
#
# Convention : Reuss Voigt Hill
#
# Bulk Modulus (GPa) = 12.34792 12.47232 12.41012
# Shear Modulus (GPa) = 31.57577 37.26589 34.42083
#
# Velocity S-wave (km/s) = 4.09894 4.45298 4.27962
# Velocity P-wave (km/s) = 5.38257 5.75110 5.56988
#
# Compressibility (1/GPa) = 0.08098531
#
# Stress axis : x y z
#
# Youngs Moduli (GPa) = 41.43284 58.48144 38.31118
#
# Poissons Ratio (x) = -0.27669 0.01038
# Poissons Ratio (y) = -0.19603 -0.09057
# Poissons Ratio (z) = 0.01123 -0.13825
#
# Static dielectric constant tensor:
#      x y z
#    x 1.637110 0.000000 0.000000 
#    y 0.000000 1.668410 0.000000 
#    z 0.000000 0.000000 1.610530 
# 
# From -- ./inp_files/18589.got.cif
#   From: 2010.05.17/outbox.cif.g08.bks.cpg/sg58_10_cif.got.tgz:18589.got - 2010.06.03 14:20:14.
