data_PCOD9441487
_publ_section_title
;
Structure prediction by ZEFSAII (Michael W. Deem and Ramdas Pophale) SiO2 
 PCOD9441487
Probable space group: P N N M
;
_chemical_formula_sum "Si O2"
_cell_formula_units_Z 34
_cell_length_a 9.471072
_cell_length_b 8.756108
_cell_length_c 18.375410
_cell_angle_alpha 90.000000
_cell_angle_beta 90.000000
_cell_angle_gamma 90.000000
_cell_volume 1523.867777
_symmetry_space_group_name_H-M "P N N M"
_symmetry_group_IT_number 58
_symmetry_cell_setting 'orthorhombic'
loop_
_space_group_symop_operation_xyz
x,y,z
-x,-y,z
1/2+x,1/2-y,1/2-z
1/2-x,1/2+y,1/2-z
-x,-y,-z
x,y,-z
1/2-x,1/2+y,1/2+z
1/2+x,1/2-y,1/2+z
loop_
_atom_site_type_symbol
_atom_site_label
_atom_site_fract_x
_atom_site_fract_y
_atom_site_fract_z
Si Si1 0.014419 0.181393 0.766239
Si Si2 0.000000 0.500000 0.000000
Si Si3 0.238287 0.192430 0.655784
Si Si4 0.799634 0.659009 0.500000
Si Si5 0.863937 0.317652 0.500000
Si Si6 0.199315 0.350605 0.118973
O O1 0.086595 0.235014 0.690613
O O2 0.130440 0.235532 0.824632
O O3 0.866099 0.250771 0.792923
O O4 0.000000 0.000000 0.766179
O O5 0.078380 0.399045 0.062918
O O6 0.254325 0.258040 0.573516
O O7 0.247651 0.008936 0.653302
O O8 0.777004 0.477102 0.500000
O O9 0.968775 0.667842 0.500000
O O10 0.820273 0.225733 0.428515
#
# Coordination Sequence:
#
# PCOD9441487 Si02
#       6
#     8   2   8   4   4   8
#     4  12  27  46  72 110 148 194 244 302 370 434
#     4  10  18  42  72 104 136 186 240 298 350 432
#     4  12  27  47  76 107 150 193 249 301 371 442
#     4  11  26  48  74 105 148 189 248 303 373 430
#     4  10  25  44  72 109 144 187 242 307 364 439
#     4  11  23  45  74 105 147 190 245 299 366 439
#
# _framework density 22.311647000000001
#
# number of rings (size 3 to 8) (size 9 to 14) (size 15 to 20)
#    0.000    0.706    2.353    4.235    6.588    0.941 
#    4.235    2.941    0.000    0.000    0.000    0.000 
#    0.000    0.000    0.000    0.000    0.000    0.000 
#
# Total GULP energy -189723.992901 kJ/mol
# GULP energy per Si atom -5580.117438 kJ/mol
# Density = 2.226087 g / cm^3
# Si number density = 22.311647 Si / 1000 Ang^3
#
#
#
# Elastic Constant Matrix: (Units=GPa)
#
#
# Indices 1 2 3 4 5 6 
#
# 1 98.0327 41.4571 64.2844 0.0000 0.0000 0.0000
# 2 41.4571 88.0325 25.0634 0.0000 0.0000 0.0000
# 3 64.2844 25.0634 131.2139 0.0000 0.0000 0.0000
# 4 0.0000 0.0000 0.0000 12.1605 0.0000 0.0000
# 5 0.0000 0.0000 0.0000 0.0000 67.4414 0.0000
# 6 0.0000 0.0000 0.0000 0.0000 0.0000 32.0901
#
#
#
# Elastic Compliance Matrix: (Units=1/GPa)
#
#
# Indices 1 2 3 4 5 6 
#
# 1 0.017758 -0.006224 -0.007511 0.000000 0.000000 0.000000
# 2 -0.006224 0.014194 0.000338 0.000000 0.000000 0.000000
# 3 -0.007511 0.000338 0.011236 0.000000 0.000000 0.000000
# 4 0.000000 0.000000 0.000000 0.082233 0.000000 0.000000
# 5 0.000000 0.000000 0.000000 0.000000 0.014828 0.000000
# 6 0.000000 0.000000 0.000000 0.000000 0.000000 0.031162
#
#
# Mechanical properties :
#
#
# Convention : Reuss Voigt Hill
#
# Bulk Modulus (GPa) = 60.99703 64.32100 62.65902
# Shear Modulus (GPa) = 24.54923 34.77001 29.65962
#
# Velocity S-wave (km/s) = 3.32066 3.95191 3.64996
# Velocity P-wave (km/s) = 6.48848 7.05085 6.77550
#
# Compressibility (1/GPa) = 0.01639424
#
# Stress axis : x y z
#
# Youngs Moduli (GPa) = 56.31132 70.45009 88.99595
#
# Poissons Ratio (x) = 0.43851 0.66847
# Poissons Ratio (y) = 0.35051 -0.03010
# Poissons Ratio (z) = 0.42297 -0.02383
#
# Static dielectric constant tensor:
#      x y z
#    x 1.864700 0.000000 0.000000 
#    y 0.000000 1.798750 0.000000 
#    z 0.000000 0.000000 1.808970 
# 
# From -- ./inp_files/28577.got.cif
#   From: 2010.05.17/outbox.cif.g08.bks.cpg/sg58_15_cif.got.tgz:28577.got - 2010.06.03 14:20:14.
