data_PCOD9441465
_publ_section_title
;
Structure prediction by ZEFSAII (Michael W. Deem and Ramdas Pophale) SiO2 
 PCOD9441465
Probable space group: P N N M
;
_chemical_formula_sum "Si O2"
_cell_formula_units_Z 40
_cell_length_a 21.147201
_cell_length_b 13.631986
_cell_length_c 7.534477
_cell_angle_alpha 90.000000
_cell_angle_beta 90.000000
_cell_angle_gamma 90.000000
_cell_volume 2172.026582
_symmetry_space_group_name_H-M "P N N M"
_symmetry_group_IT_number 58
_symmetry_cell_setting 'orthorhombic'
loop_
_space_group_symop_operation_xyz
x,y,z
-x,-y,z
1/2+x,1/2-y,1/2-z
1/2-x,1/2+y,1/2-z
-x,-y,-z
x,y,-z
1/2-x,1/2+y,1/2+z
1/2+x,1/2-y,1/2+z
loop_
_atom_site_type_symbol
_atom_site_label
_atom_site_fract_x
_atom_site_fract_y
_atom_site_fract_z
Si Si1 0.880646 0.102358 0.500000
Si Si2 0.536695 0.692916 0.286184
Si Si3 0.973388 0.602701 0.212205
Si Si4 0.171594 0.390478 0.691298
Si Si5 0.058662 0.109506 0.500000
Si Si6 0.756363 0.504412 0.000000
Si Si7 0.803179 0.793551 0.500000
O O1 0.900900 0.161228 0.322579
O O2 0.923477 0.004179 0.500000
O O3 0.809573 0.063868 0.500000
O O4 0.538072 0.674446 0.500000
O O5 0.520256 0.807038 0.254552
O O6 0.480727 0.637848 0.176853
O O7 0.903026 0.623336 0.279780
O O8 0.000000 0.500000 0.281613
O O9 0.967385 0.594579 0.000000
O O10 0.180627 0.438546 0.500000
O O11 0.202124 0.281792 0.666438
O O12 0.203254 0.458457 0.834586
O O13 0.124956 0.167089 0.500000
O O14 0.741021 0.388532 0.000000
#
# Coordination Sequence:
#
# PCOD9441465 Si02
#       7
#     4   8   8   8   4   4   4
#     4  10  24  37  53  86 123 156 196 247 299 359
#     4  10  19  35  58  86 119 155 190 243 307 362
#     4  10  20  37  62  95 126 158 197 260 321 367
#     4  10  21  42  64  89 120 162 218 256 308 385
#     4  10  18  37  59  83 118 148 192 244 303 359
#     4  11  23  46  61  85 132 168 212 269 305 360
#     4   9  21  42  63  88 119 163 212 262 302 387
#
# _framework density 18.415980000000001
#
# number of rings (size 3 to 8) (size 9 to 14) (size 15 to 20)
#    0.600    1.400    3.000    1.200    1.400    2.800 
#    5.400    2.000    0.000    0.000    0.000    0.000 
#    0.000    0.000    0.000    0.000    0.000    0.000 
#
# Total GULP energy -222788.067690 kJ/mol
# GULP energy per Si atom -5569.701692 kJ/mol
# Density = 1.837406 g / cm^3
# Si number density = 18.415980 Si / 1000 Ang^3
#
#
#
# Elastic Constant Matrix: (Units=GPa)
#
#
# Indices 1 2 3 4 5 6 
#
# 1 19.5036 29.3200 9.8898 0.0000 0.0000 0.0000
# 2 29.3200 121.7978 47.6952 0.0000 0.0000 0.0000
# 3 9.8898 47.6952 103.1370 0.0000 0.0000 0.0000
# 4 0.0000 0.0000 0.0000 66.4884 0.0000 0.0000
# 5 0.0000 0.0000 0.0000 0.0000 44.4131 0.0000
# 6 0.0000 0.0000 0.0000 0.0000 0.0000 31.7628
#
#
#
# Elastic Compliance Matrix: (Units=1/GPa)
#
#
# Indices 1 2 3 4 5 6 
#
# 1 0.080545 -0.019984 0.001518 0.000000 0.000000 0.000000
# 2 -0.019984 0.014984 -0.005013 0.000000 0.000000 0.000000
# 3 0.001518 -0.005013 0.011869 0.000000 0.000000 0.000000
# 4 0.000000 0.000000 0.000000 0.015040 0.000000 0.000000
# 5 0.000000 0.000000 0.000000 0.000000 0.022516 0.000000
# 6 0.000000 0.000000 0.000000 0.000000 0.000000 0.031483
#
#
# Mechanical properties :
#
#
# Convention : Reuss Voigt Hill
#
# Bulk Modulus (GPa) = 16.54544 46.47206 31.50875
# Shear Modulus (GPa) = 20.53044 39.03509 29.78276
#
# Velocity S-wave (km/s) = 3.34251 4.60894 4.02584
# Velocity P-wave (km/s) = 4.88879 7.32206 6.22546
#
# Compressibility (1/GPa) = 0.06043963
#
# Stress axis : x y z
#
# Youngs Moduli (GPa) = 12.41548 66.73768 84.25628
#
# Poissons Ratio (x) = 1.33367 -0.12790
# Poissons Ratio (y) = 0.24811 0.42238
# Poissons Ratio (z) = -0.01885 0.33456
#
# Static dielectric constant tensor:
#      x y z
#    x 1.629870 0.000000 0.000000 
#    y 0.000000 1.651160 0.000000 
#    z 0.000000 0.000000 1.597160 
# 
# From -- ./inp_files/8810.got.cif
#   From: 2010.05.17/outbox.cif.g08.bks.cpg/sg58_5_cif.got.tgz:8810.got - 2010.06.03 14:20:14.
