data_PCOD9441892
_publ_section_title
;
Structure prediction by ZEFSAII (Michael W. Deem and Ramdas Pophale) SiO2 
 PCOD9441892
Probable space group: P N N M
;
_chemical_formula_sum "Si O2"
_cell_formula_units_Z 56
_cell_length_a 21.019208
_cell_length_b 16.587686
_cell_length_c 7.536339
_cell_angle_alpha 90.000000
_cell_angle_beta 90.000000
_cell_angle_gamma 90.000000
_cell_volume 2627.620124
_symmetry_space_group_name_H-M "P N N M"
_symmetry_group_IT_number 58
_symmetry_cell_setting 'orthorhombic'
loop_
_space_group_symop_operation_xyz
x,y,z
-x,-y,z
1/2+x,1/2-y,1/2-z
1/2-x,1/2+y,1/2-z
-x,-y,-z
x,y,-z
1/2-x,1/2+y,1/2+z
1/2+x,1/2-y,1/2+z
loop_
_atom_site_type_symbol
_atom_site_label
_atom_site_fract_x
_atom_site_fract_y
_atom_site_fract_z
Si Si1 0.448687 0.566261 0.216736
Si Si2 0.322302 0.024028 0.214426
Si Si3 0.528788 0.251701 0.782321
Si Si4 0.794303 0.196078 0.203781
Si Si5 0.681291 0.512679 0.790860
Si Si6 0.898281 0.323552 0.295308
Si Si7 0.155608 0.341458 0.283101
O O1 0.500000 0.500000 0.272196
O O2 0.467057 0.655614 0.275191
O O3 0.378748 0.538039 0.274457
O O4 0.448516 0.567734 0.000000
O O5 0.248251 0.031855 0.263648
O O6 0.365689 0.096655 0.282827
O O7 0.343950 0.934974 0.272972
O O8 0.324467 0.024706 0.000000
O O9 0.464416 0.208784 0.718514
O O10 0.592508 0.204911 0.728357
O O11 0.527500 0.252175 0.000000
O O12 0.846340 0.252246 0.293287
O O13 0.722246 0.198103 0.276681
O O14 0.813619 0.101901 0.209382
O O15 0.792226 0.222849 0.000000
O O16 0.672401 0.526263 0.000000
O O17 0.912646 0.343726 0.500000
O O18 0.157666 0.341051 0.500000
#
# Coordination Sequence:
#
# PCOD9441892 Si02
#       7
#     8   8   8   8   8   8   8
#     4   9  17  28  46  75 106 131 167 221 265 303
#     4   9  19  34  50  76 109 137 171 217 269 315
#     4   9  17  30  50  76 103 134 179 226 263 304
#     4  10  20  34  54  77 107 138 171 219 270 320
#     4  10  19  32  54  79 102 135 179 218 265 319
#     4  10  20  33  53  78 105 138 175 218 266 316
#     4   8  16  31  50  73 101 134 173 220 265 302
#
# _framework density 21.312062000000001
#
# number of rings (size 3 to 8) (size 9 to 14) (size 15 to 20)
#    0.000    2.714    0.000    2.571    2.000    3.429 
#    0.000    2.857    0.000   12.000    0.000    5.000 
#    0.000    0.000    0.000    0.000    0.000    0.000 
#
# Total GULP energy -312698.505351 kJ/mol
# GULP energy per Si atom -5583.901881 kJ/mol
# Density = 2.126355 g / cm^3
# Si number density = 21.312062 Si / 1000 Ang^3
#
#
#
# Elastic Constant Matrix: (Units=GPa)
#
#
# Indices 1 2 3 4 5 6 
#
# 1 168.8533 80.2949 2.5773 0.0000 0.0000 0.0000
# 2 80.2949 72.6418 0.3780 0.0000 0.0000 0.0000
# 3 2.5773 0.3780 53.4471 0.0000 0.0000 0.0000
# 4 0.0000 0.0000 0.0000 8.9897 0.0000 0.0000
# 5 0.0000 0.0000 0.0000 0.0000 15.9215 0.0000
# 6 0.0000 0.0000 0.0000 0.0000 0.0000 35.2527
#
#
#
# Elastic Compliance Matrix: (Units=1/GPa)
#
#
# Indices 1 2 3 4 5 6 
#
# 1 0.012498 -0.013812 -0.000505 0.000000 0.000000 0.000000
# 2 -0.013812 0.029031 0.000461 0.000000 0.000000 0.000000
# 3 -0.000505 0.000461 0.018731 0.000000 0.000000 0.000000
# 4 0.000000 0.000000 0.000000 0.111239 0.000000 0.000000
# 5 0.000000 0.000000 0.000000 0.000000 0.062808 0.000000
# 6 0.000000 0.000000 0.000000 0.000000 0.000000 0.028367
#
#
# Mechanical properties :
#
#
# Convention : Reuss Voigt Hill
#
# Bulk Modulus (GPa) = 30.72429 51.27140 40.99784
# Shear Modulus (GPa) = 16.59826 26.14558 21.37192
#
# Velocity S-wave (km/s) = 2.79376 3.50637 3.17015
# Velocity P-wave (km/s) = 4.98543 6.36416 5.71651
#
# Compressibility (1/GPa) = 0.03254754
#
# Stress axis : x y z
#
# Youngs Moduli (GPa) = 80.01173 34.44565 53.38687
#
# Poissons Ratio (x) = 0.47577 0.02696
# Poissons Ratio (y) = 1.10514 -0.02460
# Poissons Ratio (z) = 0.04041 -0.01587
#
# Static dielectric constant tensor:
#      x y z
#    x 1.742540 0.000000 0.000000 
#    y 0.000000 1.729690 0.000000 
#    z 0.000000 0.000000 1.816430 
# 
# From -- ./inp_files/8968.got.cif
#   From: 2010.05.17/outbox.cif.g08.bks.cpg/sg58_5_cif.got.tgz:8968.got - 2010.06.03 14:20:14.
