data_PCOD9441012
_publ_section_title
;
Structure prediction by ZEFSAII (Michael W. Deem and Ramdas Pophale) SiO2 
 PCOD9441012
Probable space group: P N N M
;
_chemical_formula_sum "Si O2"
_cell_formula_units_Z 64
_cell_length_a 8.868326
_cell_length_b 24.251432
_cell_length_c 19.167035
_cell_angle_alpha 90.000000
_cell_angle_beta 90.000000
_cell_angle_gamma 90.000000
_cell_volume 4122.246645
_symmetry_space_group_name_H-M "P N N M"
_symmetry_group_IT_number 58
_symmetry_cell_setting 'orthorhombic'
loop_
_space_group_symop_operation_xyz
x,y,z
-x,-y,z
1/2+x,1/2-y,1/2-z
1/2-x,1/2+y,1/2-z
-x,-y,-z
x,y,-z
1/2-x,1/2+y,1/2+z
1/2+x,1/2-y,1/2+z
loop_
_atom_site_type_symbol
_atom_site_label
_atom_site_fract_x
_atom_site_fract_y
_atom_site_fract_z
Si Si1 0.343001 0.472696 0.582179
Si Si2 0.862271 0.421520 0.580841
Si Si3 0.658109 0.119242 0.151476
Si Si4 0.347603 0.289799 0.920945
Si Si5 0.289835 0.819163 0.285233
Si Si6 0.175533 0.259282 0.582479
Si Si7 0.931394 0.241770 0.181596
Si Si8 0.361224 0.680302 0.420669
O O1 0.500000 0.500000 0.605201
O O2 0.358796 0.459337 0.500000
O O3 0.213875 0.519145 0.589182
O O4 0.291558 0.418695 0.622494
O O5 0.915333 0.416404 0.500000
O O6 0.733523 0.375116 0.590723
O O7 0.001393 0.409446 0.630831
O O8 0.678302 0.130725 0.233294
O O9 0.657148 0.178989 0.113476
O O10 0.276570 0.328486 0.862010
O O11 0.520602 0.273782 0.906894
O O12 0.254184 0.232130 0.917997
O O13 0.334354 0.310847 0.000000
O O14 0.443229 0.784285 0.293021
O O15 0.165272 0.781930 0.245243
O O16 0.204896 0.262090 0.500000
O O17 0.313088 0.233582 0.625934
O O18 0.016403 0.193610 0.138120
O O19 0.424291 0.678352 0.500000
#
# Coordination Sequence:
#
# PCOD9441012 Si02
#       8
#     8   8   8   8   8   8   8   8
#     4  10  22  35  48  69  97 128 167 211 244 272
#     4  10  19  32  50  68  92 129 168 200 236 275
#     4  11  20  32  48  67  97 130 168 202 236 290
#     4   9  17  33  50  68  95 124 161 199 238 289
#     4  10  21  32  45  68  93 129 161 200 247 289
#     4  10  18  29  49  71  93 128 167 199 232 282
#     4  10  20  29  43  63  99 123 161 203 237 283
#     4   9  17  29  47  69  91 125 166 198 230 277
#
# _framework density 15.525513999999999
#
# number of rings (size 3 to 8) (size 9 to 14) (size 15 to 20)
#    0.000    2.125    1.250    3.375    5.250    1.500 
#    0.000    0.000    0.000    0.000    0.000    0.000 
#    0.000    2.500    0.000    0.000    0.000    0.125 
#
# Total GULP energy -357092.507140 kJ/mol
# GULP energy per Si atom -5579.570424 kJ/mol
# Density = 1.549018 g / cm^3
# Si number density = 15.525514 Si / 1000 Ang^3
#
#
#
# Elastic Constant Matrix: (Units=GPa)
#
#
# Indices 1 2 3 4 5 6 
#
# 1 88.3235 18.2739 48.6348 0.0000 0.0000 0.0000
# 2 18.2739 38.8891 31.0132 0.0000 0.0000 0.0000
# 3 48.6348 31.0132 97.8852 0.0000 0.0000 0.0000
# 4 0.0000 0.0000 0.0000 18.7314 0.0000 0.0000
# 5 0.0000 0.0000 0.0000 0.0000 32.9889 0.0000
# 6 0.0000 0.0000 0.0000 0.0000 0.0000 17.7166
#
#
#
# Elastic Compliance Matrix: (Units=1/GPa)
#
#
# Indices 1 2 3 4 5 6 
#
# 1 0.015655 -0.001543 -0.007289 0.000000 0.000000 0.000000
# 2 -0.001543 0.034560 -0.010183 0.000000 0.000000 0.000000
# 3 -0.007289 -0.010183 0.017064 0.000000 0.000000 0.000000
# 4 0.000000 0.000000 0.000000 0.053386 0.000000 0.000000
# 5 0.000000 0.000000 0.000000 0.000000 0.030313 0.000000
# 6 0.000000 0.000000 0.000000 0.000000 0.000000 0.056444
#
#
# Mechanical properties :
#
#
# Convention : Reuss Voigt Hill
#
# Bulk Modulus (GPa) = 34.19025 46.77130 40.48077
# Shear Modulus (GPa) = 19.59221 22.36577 20.97899
#
# Velocity S-wave (km/s) = 3.55623 3.79962 3.67994
# Velocity P-wave (km/s) = 6.23956 7.03138 6.64727
#
# Compressibility (1/GPa) = 0.02924810
#
# Stress axis : x y z
#
# Youngs Moduli (GPa) = 63.87656 28.93523 58.60246
#
# Poissons Ratio (x) = 0.04465 0.42718
# Poissons Ratio (y) = 0.09857 0.59675
# Poissons Ratio (z) = 0.46562 0.29465
#
# Static dielectric constant tensor:
#      x y z
#    x 1.555750 0.000000 0.000000 
#    y 0.000000 1.491460 0.000000 
#    z 0.000000 0.000000 1.531500 
# 
# From -- ./inp_files/27669.got.cif
#   From: 2010.05.17/outbox.cif.g08.bks.cpg/sg58_14_cif.got.tgz:27669.got - 2010.06.03 14:20:14.
