data_PCOD9441697
_publ_section_title
;
Structure prediction by ZEFSAII (Michael W. Deem and Ramdas Pophale) SiO2 
 PCOD9441697
Probable space group: P N N M
;
_chemical_formula_sum "Si O2"
_cell_formula_units_Z 56
_cell_length_a 21.260033
_cell_length_b 11.074510
_cell_length_c 14.041768
_cell_angle_alpha 90.000000
_cell_angle_beta 90.000000
_cell_angle_gamma 90.000000
_cell_volume 3306.056317
_symmetry_space_group_name_H-M "P N N M"
_symmetry_group_IT_number 58
_symmetry_cell_setting 'orthorhombic'
loop_
_space_group_symop_operation_xyz
x,y,z
-x,-y,z
1/2+x,1/2-y,1/2-z
1/2-x,1/2+y,1/2-z
-x,-y,-z
x,y,-z
1/2-x,1/2+y,1/2+z
1/2+x,1/2-y,1/2+z
loop_
_atom_site_type_symbol
_atom_site_label
_atom_site_fract_x
_atom_site_fract_y
_atom_site_fract_z
Si Si1 0.890408 0.321494 0.612124
Si Si2 0.793035 0.151809 0.296524
Si Si3 0.325136 0.968379 0.610142
Si Si4 0.526171 0.270873 0.888774
Si Si5 0.432511 0.953118 0.764595
Si Si6 0.135274 0.058799 0.389500
Si Si7 0.245585 0.724628 0.891871
O O1 0.880167 0.333709 0.500000
O O2 0.829734 0.266749 0.662558
O O3 0.908954 0.448095 0.659057
O O4 0.951125 0.233436 0.625943
O O5 0.731746 0.117578 0.357176
O O6 0.772402 0.180205 0.188996
O O7 0.840222 0.040304 0.315911
O O8 0.340787 0.948145 0.500000
O O9 0.382912 0.947371 0.680102
O O10 0.298490 0.105539 0.618745
O O11 0.555695 0.171482 0.819289
O O12 0.564806 0.393887 0.875187
O O13 0.536148 0.236085 0.000000
O O14 0.500000 0.000000 0.728581
O O15 0.141829 0.013885 0.500000
O O16 0.183637 0.171866 0.381465
O O17 0.238773 0.770267 0.000000
#
# Coordination Sequence:
#
# PCOD9441697 Si02
#       7
#     8   8   8   8   8   8   8
#     4  10  19  31  50  80 108 134 168 212 258 303
#     4  11  19  32  54  75 102 133 169 211 257 305
#     4  10  20  34  51  74 102 133 167 212 257 301
#     4   9  18  32  50  74 109 141 169 206 254 308
#     4  10  19  33  53  76 103 138 178 213 255 301
#     4   9  18  32  51  75 101 134 167 205 255 309
#     4   9  18  33  52  72  99 133 170 204 252 310
#
# _framework density 16.938610000000001
#
# number of rings (size 3 to 8) (size 9 to 14) (size 15 to 20)
#    0.000    2.286    1.429    3.429    0.000    2.571 
#    0.000    2.857    0.000    0.857    0.000    1.000 
#    0.000    0.000    0.000    0.000    0.000    0.000 
#
# Total GULP energy -312350.600680 kJ/mol
# GULP energy per Si atom -5577.689298 kJ/mol
# Density = 1.690006 g / cm^3
# Si number density = 16.938610 Si / 1000 Ang^3
#
#
#
# Elastic Constant Matrix: (Units=GPa)
#
#
# Indices 1 2 3 4 5 6 
#
# 1 52.8751 6.2356 26.5552 0.0000 0.0000 0.0000
# 2 6.2356 24.8825 18.5270 0.0000 0.0000 0.0000
# 3 26.5552 18.5270 91.1967 0.0000 0.0000 0.0000
# 4 0.0000 0.0000 0.0000 30.3564 0.0000 0.0000
# 5 0.0000 0.0000 0.0000 0.0000 23.1729 0.0000
# 6 0.0000 0.0000 0.0000 0.0000 0.0000 24.4270
#
#
#
# Elastic Compliance Matrix: (Units=1/GPa)
#
#
# Indices 1 2 3 4 5 6 
#
# 1 0.022168 -0.000883 -0.006276 0.000000 0.000000 0.000000
# 2 -0.000883 0.047387 -0.009370 0.000000 0.000000 0.000000
# 3 -0.006276 -0.009370 0.014696 0.000000 0.000000 0.000000
# 4 0.000000 0.000000 0.000000 0.032942 0.000000 0.000000
# 5 0.000000 0.000000 0.000000 0.000000 0.043154 0.000000
# 6 0.000000 0.000000 0.000000 0.000000 0.000000 0.040938
#
#
# Mechanical properties :
#
#
# Convention : Reuss Voigt Hill
#
# Bulk Modulus (GPa) = 19.53321 30.17666 24.85494
# Shear Modulus (GPa) = 19.88808 23.43369 21.66088
#
# Velocity S-wave (km/s) = 3.43027 3.72351 3.57989
# Velocity P-wave (km/s) = 5.21975 6.02827 5.63852
#
# Compressibility (1/GPa) = 0.05119487
#
# Stress axis : x y z
#
# Youngs Moduli (GPa) = 45.10914 21.10303 68.04445
#
# Poissons Ratio (x) = 0.01862 0.42704
# Poissons Ratio (y) = 0.03981 0.63756
# Poissons Ratio (z) = 0.28310 0.19773
#
# Static dielectric constant tensor:
#      x y z
#    x 1.586320 0.000000 0.000000 
#    y 0.000000 1.586930 0.000000 
#    z 0.000000 0.000000 1.538490 
# 
# From -- ./inp_files/14585.got.cif
#   From: 2010.05.17/outbox.cif.g08.bks.cpg/sg58_8_cif.got.tgz:14585.got - 2010.06.03 14:20:14.
