data_PCOD9441065
_publ_section_title
;
Structure prediction by ZEFSAII (Michael W. Deem and Ramdas Pophale) SiO2 
 PCOD9441065
Probable space group: P N N M
;
_chemical_formula_sum "Si O2"
_cell_formula_units_Z 64
_cell_length_a 14.905140
_cell_length_b 30.906770
_cell_length_c 8.799551
_cell_angle_alpha 90.000000
_cell_angle_beta 90.000000
_cell_angle_gamma 90.000000
_cell_volume 4053.686817
_symmetry_space_group_name_H-M "P N N M"
_symmetry_group_IT_number 58
_symmetry_cell_setting 'orthorhombic'
loop_
_space_group_symop_operation_xyz
x,y,z
-x,-y,z
1/2+x,1/2-y,1/2-z
1/2-x,1/2+y,1/2-z
-x,-y,-z
x,y,-z
1/2-x,1/2+y,1/2+z
1/2+x,1/2-y,1/2+z
loop_
_atom_site_type_symbol
_atom_site_label
_atom_site_fract_x
_atom_site_fract_y
_atom_site_fract_z
Si Si1 0.003220 0.814988 0.172830
Si Si2 0.401230 0.453034 0.316416
Si Si3 0.497352 0.224925 0.821583
Si Si4 0.900069 0.954246 0.681104
Si Si5 0.675406 0.371335 0.321107
Si Si6 0.309939 0.365921 0.677587
Si Si7 0.685423 0.204962 0.319031
Si Si8 0.204871 0.709008 0.685551
O O1 0.920087 0.847002 0.190402
O O2 0.998261 0.776163 0.290170
O O3 0.095608 0.840548 0.188111
O O4 0.997796 0.796939 0.000000
O O5 0.408931 0.453363 0.500000
O O6 0.500369 0.444564 0.248081
O O7 0.373326 0.499887 0.254669
O O8 0.333348 0.414657 0.272480
O O9 0.584358 0.205339 0.741948
O O10 0.398602 0.211028 0.765222
O O11 0.502260 0.215788 0.000000
O O12 0.905989 0.958080 0.500000
O O13 0.834439 0.915614 0.729889
O O14 0.690735 0.380779 0.500000
O O15 0.747164 0.335547 0.268528
O O16 0.284054 0.367072 0.500000
O O17 0.238202 0.337657 0.766971
O O18 0.684052 0.207253 0.500000
O O19 0.739339 0.248308 0.264198
O O20 0.206335 0.709998 0.500000
#
# Coordination Sequence:
#
# PCOD9441065 Si02
#       8
#     8   8   8   8   8   8   8   8
#     4  10  18  30  49  72 100 133 169 208 246 291
#     4  10  19  34  52  70  98 137 172 199 246 305
#     4  11  21  34  49  72 101 133 171 214 251 288
#     4  11  21  31  46  75 106 129 164 210 254 294
#     4  10  18  34  52  68  96 138 176 203 243 301
#     4  10  20  33  50  75 100 131 172 210 245 294
#     4  11  21  35  51  72 100 135 171 206 251 300
#     4   9  19  33  50  70  96 131 173 208 241 291
#
# _framework density 15.788097
#
# number of rings (size 3 to 8) (size 9 to 14) (size 15 to 20)
#    0.000    1.750    3.750    3.000    0.000    1.500 
#    0.000    1.250    0.000    0.000    0.000    0.875 
#    0.000    7.000    0.000    0.000    0.000    0.000 
#
# Total GULP energy -357043.315561 kJ/mol
# GULP energy per Si atom -5578.801806 kJ/mol
# Density = 1.575216 g / cm^3
# Si number density = 15.788097 Si / 1000 Ang^3
#
#
#
# Elastic Constant Matrix: (Units=GPa)
#
#
# Indices 1 2 3 4 5 6 
#
# 1 89.0606 44.6019 30.7034 0.0000 0.0000 0.0000
# 2 44.6019 110.2898 37.2937 0.0000 0.0000 0.0000
# 3 30.7034 37.2937 50.5997 0.0000 0.0000 0.0000
# 4 0.0000 0.0000 0.0000 23.9022 0.0000 0.0000
# 5 0.0000 0.0000 0.0000 0.0000 18.2463 0.0000
# 6 0.0000 0.0000 0.0000 0.0000 0.0000 19.2803
#
#
#
# Elastic Compliance Matrix: (Units=1/GPa)
#
#
# Indices 1 2 3 4 5 6 
#
# 1 0.015480 -0.004108 -0.006366 0.000000 0.000000 0.000000
# 2 -0.004108 0.013167 -0.007212 0.000000 0.000000 0.000000
# 3 -0.006366 -0.007212 0.028941 0.000000 0.000000 0.000000
# 4 0.000000 0.000000 0.000000 0.041837 0.000000 0.000000
# 5 0.000000 0.000000 0.000000 0.000000 0.054806 0.000000
# 6 0.000000 0.000000 0.000000 0.000000 0.000000 0.051866
#
#
# Mechanical properties :
#
#
# Convention : Reuss Voigt Hill
#
# Bulk Modulus (GPa) = 45.00974 52.79422 48.90198
# Shear Modulus (GPa) = 20.09055 21.44249 20.76652
#
# Velocity S-wave (km/s) = 3.57110 3.68930 3.63068
# Velocity P-wave (km/s) = 6.75087 7.18747 6.97259
#
# Compressibility (1/GPa) = 0.02221741
#
# Stress axis : x y z
#
# Youngs Moduli (GPa) = 64.59946 75.94817 34.55312
#
# Poissons Ratio (x) = 0.31198 0.21995
# Poissons Ratio (y) = 0.26536 0.24919
# Poissons Ratio (z) = 0.41121 0.54773
#
# Static dielectric constant tensor:
#      x y z
#    x 1.518530 0.000000 0.000000 
#    y 0.000000 1.529220 0.000000 
#    z 0.000000 0.000000 1.540240 
# 
# From -- ./inp_files/7189.got.cif
#   From: 2010.05.17/outbox.cif.g08.bks.cpg/sg58_4_cif.got.tgz:7189.got - 2010.06.03 14:20:14.
