data_PCOD9441258
_publ_section_title
;
Structure prediction by ZEFSAII (Michael W. Deem and Ramdas Pophale) SiO2 
 PCOD9441258
Probable space group: P N N M
;
_chemical_formula_sum "Si O2"
_cell_formula_units_Z 48
_cell_length_a 10.512657
_cell_length_b 30.096188
_cell_length_c 8.633620
_cell_angle_alpha 90.000000
_cell_angle_beta 90.000000
_cell_angle_gamma 90.000000
_cell_volume 2731.598815
_symmetry_space_group_name_H-M "P N N M"
_symmetry_group_IT_number 58
_symmetry_cell_setting 'orthorhombic'
loop_
_space_group_symop_operation_xyz
x,y,z
-x,-y,z
1/2+x,1/2-y,1/2-z
1/2-x,1/2+y,1/2-z
-x,-y,-z
x,y,-z
1/2-x,1/2+y,1/2+z
1/2+x,1/2-y,1/2+z
loop_
_atom_site_type_symbol
_atom_site_label
_atom_site_fract_x
_atom_site_fract_y
_atom_site_fract_z
Si Si1 0.228229 0.617126 0.685370
Si Si2 0.777661 0.285627 0.814749
Si Si3 0.121923 0.970171 0.186927
Si Si4 0.372363 0.023950 0.188998
Si Si5 0.485171 0.282019 0.813747
Si Si6 0.490749 0.384007 0.814997
O O1 0.222392 0.620279 0.500000
O O2 0.193376 0.664621 0.756248
O O3 0.144359 0.575120 0.737345
O O4 0.373300 0.607162 0.735038
O O5 0.632293 0.274351 0.763349
O O6 0.882901 0.251340 0.756330
O O7 0.776398 0.286079 0.000000
O O8 0.105344 0.921640 0.259009
O O9 0.248990 0.995696 0.235584
O O10 0.122037 0.966226 0.000000
O O11 0.000000 0.000000 0.230721
O O12 0.500000 0.000000 0.242571
O O13 0.373442 0.024268 0.000000
O O14 0.453985 0.333383 0.774606
O O15 0.481613 0.277730 0.000000
O O16 0.507384 0.385984 0.000000
#
# Coordination Sequence:
#
# PCOD9441258 Si02
#       6
#     8   8   8   8   8   8
#     4  10  18  33  57  79 106 143 181 217 266 321
#     4  10  21  37  58  84 110 139 180 226 272 323
#     4  10  18  32  54  80 104 135 182 221 259 318
#     4   9  18  33  52  76 107 140 177 219 260 315
#     4   9  20  38  56  78 109 142 179 220 267 327
#     4  10  20  34  54  81 110 138 179 227 271 316
#
# _framework density 17.572126000000001
#
# number of rings (size 3 to 8) (size 9 to 14) (size 15 to 20)
#    0.000    2.333    1.667    2.500    0.000    4.333 
#    3.000    0.000    0.000    3.500    0.000    0.000 
#    0.000    0.000    0.000    0.000    0.000    0.000 
#
# Total GULP energy -267753.951901 kJ/mol
# GULP energy per Si atom -5578.207331 kJ/mol
# Density = 1.753213 g / cm^3
# Si number density = 17.572126 Si / 1000 Ang^3
#
#
#
# Elastic Constant Matrix: (Units=GPa)
#
#
# Indices 1 2 3 4 5 6 
#
# 1 126.0545 101.3201 29.8884 0.0000 0.0000 0.0000
# 2 101.3201 160.4914 36.4167 0.0000 0.0000 0.0000
# 3 29.8884 36.4167 25.5103 0.0000 0.0000 0.0000
# 4 0.0000 0.0000 0.0000 30.9840 0.0000 0.0000
# 5 0.0000 0.0000 0.0000 0.0000 18.7181 0.0000
# 6 0.0000 0.0000 0.0000 0.0000 0.0000 36.1823
#
#
#
# Elastic Compliance Matrix: (Units=1/GPa)
#
#
# Indices 1 2 3 4 5 6 
#
# 1 0.016855 -0.009111 -0.006741 0.000000 0.000000 0.000000
# 2 -0.009111 0.014141 -0.009512 0.000000 0.000000 0.000000
# 3 -0.006741 -0.009512 0.060677 0.000000 0.000000 0.000000
# 4 0.000000 0.000000 0.000000 0.032275 0.000000 0.000000
# 5 0.000000 0.000000 0.000000 0.000000 0.053424 0.000000
# 6 0.000000 0.000000 0.000000 0.000000 0.000000 0.027638
#
#
# Mechanical properties :
#
#
# Convention : Reuss Voigt Hill
#
# Bulk Modulus (GPa) = 24.42357 71.92294 48.17325
# Shear Modulus (GPa) = 18.56072 26.80561 22.68316
#
# Velocity S-wave (km/s) = 3.25354 3.90995 3.59675
# Velocity P-wave (km/s) = 5.29559 7.83598 6.68752
#
# Compressibility (1/GPa) = 0.04094406
#
# Stress axis : x y z
#
# Youngs Moduli (GPa) = 59.33101 70.71594 16.48069
#
# Poissons Ratio (x) = 0.64428 0.11110
# Poissons Ratio (y) = 0.54056 0.15677
# Poissons Ratio (z) = 0.39996 0.67267
#
# Static dielectric constant tensor:
#      x y z
#    x 1.584750 0.000000 0.000000 
#    y 0.000000 1.594820 0.000000 
#    z 0.000000 0.000000 1.596250 
# 
# From -- ./inp_files/3007.got.cif
#   From: 2010.05.17/outbox.cif.g08.bks.cpg/sg58_2_cif.got.tgz:3007.got - 2010.06.03 14:20:14.
