data_PCOD9441431
_publ_section_title
;
Structure prediction by ZEFSAII (Michael W. Deem and Ramdas Pophale) SiO2 
 PCOD9441431
Probable space group: P N N M
;
_chemical_formula_sum "Si O2"
_cell_formula_units_Z 40
_cell_length_a 11.904214
_cell_length_b 14.253172
_cell_length_c 13.342510
_cell_angle_alpha 90.000000
_cell_angle_beta 90.000000
_cell_angle_gamma 90.000000
_cell_volume 2263.861160
_symmetry_space_group_name_H-M "P N N M"
_symmetry_group_IT_number 58
_symmetry_cell_setting 'orthorhombic'
loop_
_space_group_symop_operation_xyz
x,y,z
-x,-y,z
1/2+x,1/2-y,1/2-z
1/2-x,1/2+y,1/2-z
-x,-y,-z
x,y,-z
1/2-x,1/2+y,1/2+z
1/2+x,1/2-y,1/2+z
loop_
_atom_site_type_symbol
_atom_site_label
_atom_site_fract_x
_atom_site_fract_y
_atom_site_fract_z
Si Si1 0.517729 0.149921 0.822422
Si Si2 0.415195 0.911843 0.611820
Si Si3 0.182112 0.517417 0.616343
Si Si4 0.820301 0.013614 0.305889
Si Si5 0.483923 0.636891 0.116094
O O1 0.544329 0.152124 0.703787
O O2 0.397495 0.102180 0.845047
O O3 0.526522 0.252909 0.866655
O O4 0.606814 0.076712 0.869793
O O5 0.416219 0.870625 0.500000
O O6 0.500000 0.000000 0.613413
O O7 0.291941 0.950978 0.638633
O O8 0.209293 0.530386 0.500000
O O9 0.285557 0.506519 0.691690
O O10 0.872240 0.920255 0.354831
O O11 0.915598 0.092439 0.318766
O O12 0.510497 0.618167 0.000000
#
# Coordination Sequence:
#
# PCOD9441431 Si02
#       5
#     8   8   8   8   8
#     4  10  19  36  56  86 110 141 188 227 267 333
#     4  10  18  35  59  82 112 144 175 225 278 319
#     4  10  19  36  57  80 110 145 181 228 277 323
#     4  10  21  38  55  82 110 147 189 226 269 331
#     4  11  22  37  58  81 111 147 184 229 274 325
#
# _framework density 17.668928000000001
#
# number of rings (size 3 to 8) (size 9 to 14) (size 15 to 20)
#    0.000    1.800    4.000    4.800    0.000    3.200 
#    0.000    6.000    0.000    0.000    0.000    0.000 
#    0.000    0.000    0.000    0.000    0.000    0.000 
#
# Total GULP energy -223173.299452 kJ/mol
# GULP energy per Si atom -5579.332486 kJ/mol
# Density = 1.762871 g / cm^3
# Si number density = 17.668928 Si / 1000 Ang^3
#
#
#
# Elastic Constant Matrix: (Units=GPa)
#
#
# Indices 1 2 3 4 5 6 
#
# 1 64.3170 14.2236 39.2101 0.0000 0.0000 0.0000
# 2 14.2236 95.1550 14.3597 0.0000 0.0000 0.0000
# 3 39.2101 14.3597 149.5773 0.0000 0.0000 0.0000
# 4 0.0000 0.0000 0.0000 26.1125 0.0000 0.0000
# 5 0.0000 0.0000 0.0000 0.0000 13.1685 0.0000
# 6 0.0000 0.0000 0.0000 0.0000 0.0000 4.5368
#
#
#
# Elastic Compliance Matrix: (Units=1/GPa)
#
#
# Indices 1 2 3 4 5 6 
#
# 1 0.018914 -0.002110 -0.004756 0.000000 0.000000 0.000000
# 2 -0.002110 0.010899 -0.000493 0.000000 0.000000 0.000000
# 3 -0.004756 -0.000493 0.007979 0.000000 0.000000 0.000000
# 4 0.000000 0.000000 0.000000 0.038296 0.000000 0.000000
# 5 0.000000 0.000000 0.000000 0.000000 0.075939 0.000000
# 6 0.000000 0.000000 0.000000 0.000000 0.000000 0.220422
#
#
# Mechanical properties :
#
#
# Convention : Reuss Voigt Hill
#
# Bulk Modulus (GPa) = 43.33628 49.40402 46.37015
# Shear Modulus (GPa) = 12.66283 24.84728 18.75505
#
# Velocity S-wave (km/s) = 2.67998 3.75409 3.26156
# Velocity P-wave (km/s) = 5.84435 6.84198 6.36275
#
# Compressibility (1/GPa) = 0.02307535
#
# Stress axis : x y z
#
# Youngs Moduli (GPa) = 52.87185 91.75200 125.32152
#
# Poissons Ratio (x) = 0.19355 0.59597
# Poissons Ratio (y) = 0.11153 0.06182
# Poissons Ratio (z) = 0.25143 0.04526
#
# Static dielectric constant tensor:
#      x y z
#    x 1.594420 0.000000 0.000000 
#    y 0.000000 1.573430 0.000000 
#    z 0.000000 0.000000 1.626840 
# 
# From -- ./inp_files/20998.got.cif
#   From: 2010.05.17/outbox.cif.g08.bks.cpg/sg58_11_cif.got.tgz:20998.got - 2010.06.03 14:20:14.
