data_PCOD9441280
_publ_section_title
;
Structure prediction by ZEFSAII (Michael W. Deem and Ramdas Pophale) SiO2 
 PCOD9441280
Probable space group: P N N M
;
_chemical_formula_sum "Si O2"
_cell_formula_units_Z 56
_cell_length_a 16.391381
_cell_length_b 20.319372
_cell_length_c 8.848941
_cell_angle_alpha 90.000000
_cell_angle_beta 90.000000
_cell_angle_gamma 90.000000
_cell_volume 2947.251015
_symmetry_space_group_name_H-M "P N N M"
_symmetry_group_IT_number 58
_symmetry_cell_setting 'orthorhombic'
loop_
_space_group_symop_operation_xyz
x,y,z
-x,-y,z
1/2+x,1/2-y,1/2-z
1/2-x,1/2+y,1/2-z
-x,-y,-z
x,y,-z
1/2-x,1/2+y,1/2+z
1/2+x,1/2-y,1/2+z
loop_
_atom_site_type_symbol
_atom_site_label
_atom_site_fract_x
_atom_site_fract_y
_atom_site_fract_z
Si Si1 0.817711 0.764240 0.683939
Si Si2 0.723478 0.886425 0.820708
Si Si3 0.699338 0.116469 0.176104
Si Si4 0.018538 0.167076 0.672053
Si Si5 0.405500 0.007871 0.184778
Si Si6 0.108618 0.909402 0.171389
Si Si7 0.631933 0.460434 0.829419
O O1 0.812783 0.767271 0.500000
O O2 0.753254 0.818228 0.744760
O O3 0.806802 0.689979 0.740282
O O4 0.910095 0.784856 0.726282
O O5 0.796065 0.937829 0.781829
O O6 0.641175 0.924612 0.769453
O O7 0.718863 0.876077 0.000000
O O8 0.646129 0.055998 0.238450
O O9 0.794561 0.099753 0.177809
O O10 0.673723 0.122500 0.000000
O O11 0.995768 0.184127 0.500000
O O12 0.066018 0.097418 0.671195
O O13 0.939570 0.154590 0.772158
O O14 0.500000 0.000000 0.229268
O O15 0.402718 0.008240 0.000000
O O16 0.093625 0.971523 0.277859
O O17 0.083821 0.924343 0.000000
O O18 0.664745 0.465585 0.000000
#
# Coordination Sequence:
#
# PCOD9441280 Si02
#       7
#     8   8   8   8   8   8   8
#     4   9  19  37  57  74 104 150 186 217 268 335
#     4  10  18  32  55  84 110 134 177 229 275 321
#     4   9  18  35  55  76 106 145 183 217 269 331
#     4   9  19  33  48  73 104 138 178 215 257 318
#     4   9  17  32  56  84 109 137 179 232 277 321
#     4  11  20  31  51  79 107 137 174 218 268 319
#     4  10  19  32  52  76 106 141 173 209 259 321
#
# _framework density 19.000758000000001
#
# number of rings (size 3 to 8) (size 9 to 14) (size 15 to 20)
#    0.000    2.429    1.429    2.571    0.000    4.571 
#    2.571    1.429    0.000    1.714    0.000    0.000 
#    0.000    0.000    0.000    0.000    0.000    0.000 
#
# Total GULP energy -311973.213111 kJ/mol
# GULP energy per Si atom -5570.950234 kJ/mol
# Density = 1.895751 g / cm^3
# Si number density = 19.000758 Si / 1000 Ang^3
#
#
#
# Elastic Constant Matrix: (Units=GPa)
#
#
# Indices 1 2 3 4 5 6 
#
# 1 72.5861 21.3900 10.7061 0.0000 0.0000 0.0000
# 2 21.3900 92.3195 11.1218 0.0000 0.0000 0.0000
# 3 10.7061 11.1218 22.3217 0.0000 0.0000 0.0000
# 4 0.0000 0.0000 0.0000 41.3219 0.0000 0.0000
# 5 0.0000 0.0000 0.0000 0.0000 27.0088 0.0000
# 6 0.0000 0.0000 0.0000 0.0000 0.0000 6.5895
#
#
#
# Elastic Compliance Matrix: (Units=1/GPa)
#
#
# Indices 1 2 3 4 5 6 
#
# 1 0.015509 -0.002869 -0.006009 0.000000 0.000000 0.000000
# 2 -0.002869 0.012055 -0.004630 0.000000 0.000000 0.000000
# 3 -0.006009 -0.004630 0.049988 0.000000 0.000000 0.000000
# 4 0.000000 0.000000 0.000000 0.024200 0.000000 0.000000
# 5 0.000000 0.000000 0.000000 0.000000 0.037025 0.000000
# 6 0.000000 0.000000 0.000000 0.000000 0.000000 0.151756
#
#
# Mechanical properties :
#
#
# Convention : Reuss Voigt Hill
#
# Bulk Modulus (GPa) = 19.78811 30.40702 25.09757
# Shear Modulus (GPa) = 14.95244 24.58467 19.76855
#
# Velocity S-wave (km/s) = 2.80829 3.60095 3.22904
# Velocity P-wave (km/s) = 4.57737 5.77295 5.20957
#
# Compressibility (1/GPa) = 0.05053539
#
# Stress axis : x y z
#
# Youngs Moduli (GPa) = 64.48053 82.95624 20.00466
#
# Poissons Ratio (x) = 0.23803 0.12020
# Poissons Ratio (y) = 0.18502 0.09262
# Poissons Ratio (z) = 0.38744 0.38408
#
# Static dielectric constant tensor:
#      x y z
#    x 1.672890 0.000000 0.000000 
#    y 0.000000 1.677490 0.000000 
#    z 0.000000 0.000000 1.670700 
# 
# From -- ./inp_files/6481.got.cif
#   From: 2010.05.17/outbox.cif.g08.bks.cpg/sg58_4_cif.got.tgz:6481.got - 2010.06.03 14:20:14.
