data_PCOD9441376
_publ_section_title
;
Structure prediction by ZEFSAII (Michael W. Deem and Ramdas Pophale) SiO2 
 PCOD9441376
Probable space group: P N N M
;
_chemical_formula_sum "Si O2"
_cell_formula_units_Z 64
_cell_length_a 21.227567
_cell_length_b 20.436159
_cell_length_c 8.338499
_cell_angle_alpha 90.000000
_cell_angle_beta 90.000000
_cell_angle_gamma 90.000000
_cell_volume 3617.323704
_symmetry_space_group_name_H-M "P N N M"
_symmetry_group_IT_number 58
_symmetry_cell_setting 'orthorhombic'
loop_
_space_group_symop_operation_xyz
x,y,z
-x,-y,z
1/2+x,1/2-y,1/2-z
1/2-x,1/2+y,1/2-z
-x,-y,-z
x,y,-z
1/2-x,1/2+y,1/2+z
1/2+x,1/2-y,1/2+z
loop_
_atom_site_type_symbol
_atom_site_label
_atom_site_fract_x
_atom_site_fract_y
_atom_site_fract_z
Si Si1 0.432309 0.708625 0.306398
Si Si2 0.188893 0.710875 0.807677
Si Si3 0.382210 0.429252 0.193219
Si Si4 0.236521 0.572613 0.193731
Si Si5 0.568596 0.709497 0.191608
Si Si6 0.380869 0.570728 0.308225
Si Si7 0.265125 0.928704 0.695109
Si Si8 0.688765 0.209477 0.694219
O O1 0.431715 0.708787 0.500000
O O2 0.500220 0.731455 0.248880
O O3 0.419655 0.633889 0.251464
O O4 0.374197 0.753639 0.250764
O O5 0.198232 0.635955 0.750907
O O6 0.125317 0.744819 0.749048
O O7 0.249313 0.751354 0.747565
O O8 0.189263 0.711315 0.000000
O O9 0.418557 0.364971 0.250862
O O10 0.404879 0.499779 0.253285
O O11 0.308542 0.421648 0.240966
O O12 0.383918 0.430755 0.000000
O O13 0.309320 0.578644 0.245853
O O14 0.213726 0.500884 0.248736
O O15 0.235658 0.572411 0.000000
O O16 0.570134 0.707761 0.000000
O O17 0.379285 0.571630 0.500000
O O18 0.266551 0.928251 0.500000
O O19 0.303599 0.865512 0.749995
O O20 0.688115 0.209519 0.500000
#
# Coordination Sequence:
#
# PCOD9441376 Si02
#       8
#     8   8   8   8   8   8   8   8
#     4  10  22  36  51  76 109 141 175 221 269 313
#     4  11  21  33  54  81 109 136 172 225 268 309
#     4   9  18  33  51  72 101 139 180 217 253 309
#     4   9  18  32  51  78 108 137 172 214 258 311
#     4  11  23  38  55  73 102 144 185 222 263 319
#     4  10  19  31  50  76 108 141 172 214 260 311
#     4   8  14  29  53  76 100 131 171 212 251 304
#     4  10  18  34  57  78 105 139 177 217 261 317
#
# _framework density 17.692639
#
# number of rings (size 3 to 8) (size 9 to 14) (size 15 to 20)
#    0.000    2.250    2.500    1.875    0.000    3.500 
#    0.000    2.500    0.000    0.750    0.000    5.250 
#    0.000    0.000    0.000    0.000    0.000    0.000 
#
# Total GULP energy -357005.482271 kJ/mol
# GULP energy per Si atom -5578.210660 kJ/mol
# Density = 1.765237 g / cm^3
# Si number density = 17.692639 Si / 1000 Ang^3
#
#
#
# Elastic Constant Matrix: (Units=GPa)
#
#
# Indices 1 2 3 4 5 6 
#
# 1 115.9497 73.3648 11.7374 0.0000 0.0000 0.0000
# 2 73.3648 133.0362 16.7893 0.0000 0.0000 0.0000
# 3 11.7374 16.7893 9.1510 0.0000 0.0000 0.0000
# 4 0.0000 0.0000 0.0000 18.1070 0.0000 0.0000
# 5 0.0000 0.0000 0.0000 0.0000 19.9999 0.0000
# 6 0.0000 0.0000 0.0000 0.0000 0.0000 20.6710
#
#
#
# Elastic Compliance Matrix: (Units=1/GPa)
#
#
# Indices 1 2 3 4 5 6 
#
# 1 0.013402 -0.006794 -0.004724 0.000000 0.000000 0.000000
# 2 -0.006794 0.013226 -0.015551 0.000000 0.000000 0.000000
# 3 -0.004724 -0.015551 0.143869 0.000000 0.000000 0.000000
# 4 0.000000 0.000000 0.000000 0.055227 0.000000 0.000000
# 5 0.000000 0.000000 0.000000 0.000000 0.050000 0.000000
# 6 0.000000 0.000000 0.000000 0.000000 0.000000 0.048377
#
#
# Mechanical properties :
#
#
# Convention : Reuss Voigt Hill
#
# Bulk Modulus (GPa) = 8.59416 51.32444 29.95930
# Shear Modulus (GPa) = 11.98963 22.17194 17.08078
#
# Velocity S-wave (km/s) = 2.60602 3.54386 3.11049
# Velocity P-wave (km/s) = 3.73137 6.76884 5.46536
#
# Compressibility (1/GPa) = 0.11635804
#
# Stress axis : x y z
#
# Youngs Moduli (GPa) = 74.61789 75.60740 6.95075
#
# Poissons Ratio (x) = 0.51371 0.03283
# Poissons Ratio (y) = 0.50698 0.10809
# Poissons Ratio (z) = 0.35248 1.17580
#
# Static dielectric constant tensor:
#      x y z
#    x 1.573270 0.000000 0.000000 
#    y 0.000000 1.641950 0.000000 
#    z 0.000000 0.000000 1.611210 
# 
# From -- ./inp_files/8334.got.cif
#   From: 2010.05.17/outbox.cif.g08.bks.cpg/sg58_5_cif.got.tgz:8334.got - 2010.06.03 14:20:14.
