data_PCOD9441259
_publ_section_title
;
Structure prediction by ZEFSAII (Michael W. Deem and Ramdas Pophale) SiO2 
 PCOD9441259
Probable space group: P N N M
;
_chemical_formula_sum "Si O2"
_cell_formula_units_Z 48
_cell_length_a 13.299250
_cell_length_b 5.410063
_cell_length_c 27.912189
_cell_angle_alpha 90.000000
_cell_angle_beta 90.000000
_cell_angle_gamma 90.000000
_cell_volume 2008.275868
_symmetry_space_group_name_H-M "P N N M"
_symmetry_group_IT_number 58
_symmetry_cell_setting 'orthorhombic'
loop_
_space_group_symop_operation_xyz
x,y,z
-x,-y,z
1/2+x,1/2-y,1/2-z
1/2-x,1/2+y,1/2-z
-x,-y,-z
x,y,-z
1/2-x,1/2+y,1/2+z
1/2+x,1/2-y,1/2+z
loop_
_atom_site_type_symbol
_atom_site_label
_atom_site_fract_x
_atom_site_fract_y
_atom_site_fract_z
Si Si1 0.892720 0.770219 0.403888
Si Si2 0.122292 0.522620 0.946266
Si Si3 0.810882 0.850170 0.803528
Si Si4 0.384279 0.522480 0.595774
Si Si5 0.120519 0.728960 0.443706
Si Si6 0.822711 0.849609 0.697952
O O1 0.840930 0.000045 0.430165
O O2 0.842631 0.505009 0.413341
O O3 0.997134 0.250843 0.427524
O O4 0.895508 0.828910 0.347566
O O5 0.152609 0.741401 0.910142
O O6 0.000000 0.500000 0.943605
O O7 0.148280 0.602733 0.000000
O O8 0.878391 0.876527 0.850275
O O9 0.865867 0.849605 0.751949
O O10 0.743421 0.098916 0.803681
O O11 0.743719 0.600230 0.807187
O O12 0.500000 0.500000 0.580873
O O13 0.340662 0.744063 0.563612
O O14 0.126852 0.680441 0.500000
#
# Coordination Sequence:
#
# PCOD9441259 Si02
#       6
#     8   8   8   8   8   8
#     4  10  18  32  54  80 105 139 188 222 256 316
#     4   9  17  30  52  77 102 133 167 203 257 327
#     4  10  21  38  56  76 104 146 183 224 273 331
#     4  10  19  33  55  81 107 135 172 222 280 313
#     4  10  19  33  56  84 116 146 178 219 276 331
#     4  10  21  37  58  75 103 147 192 216 265 328
#
# _framework density 23.9011
#
# number of rings (size 3 to 8) (size 9 to 14) (size 15 to 20)
#    0.000    2.167    0.000    5.000    0.000    2.000 
#    3.000    0.000    7.333   26.000    0.000    0.000 
#    0.000    0.000    0.000    0.000    0.000    0.000 
#
# Total GULP energy -268228.192042 kJ/mol
# GULP energy per Si atom -5588.087334 kJ/mol
# Density = 2.384670 g / cm^3
# Si number density = 23.901100 Si / 1000 Ang^3
#
#
#
# Elastic Constant Matrix: (Units=GPa)
#
#
# Indices 1 2 3 4 5 6 
#
# 1 41.4281 23.3127 -7.4360 0.0000 0.0000 0.0000
# 2 23.3127 208.0063 42.2550 0.0000 0.0000 0.0000
# 3 -7.4360 42.2550 168.0694 0.0000 0.0000 0.0000
# 4 0.0000 0.0000 0.0000 46.9602 0.0000 0.0000
# 5 0.0000 0.0000 0.0000 0.0000 -32.1658 0.0000
# 6 0.0000 0.0000 0.0000 0.0000 0.0000 21.5675
#
#
#
# Elastic Compliance Matrix: (Units=1/GPa)
#
#
# Indices 1 2 3 4 5 6 
#
# 1 0.026395 -0.003367 0.002014 0.000000 0.000000 0.000000
# 2 -0.003367 0.005496 -0.001531 0.000000 0.000000 0.000000
# 3 0.002014 -0.001531 0.006424 0.000000 0.000000 0.000000
# 4 0.000000 0.000000 0.000000 0.021295 0.000000 0.000000
# 5 0.000000 0.000000 0.000000 0.000000 -0.031089 0.000000
# 6 0.000000 0.000000 0.000000 0.000000 0.000000 0.046366
#
#
# Mechanical properties :
#
#
# Convention : Reuss Voigt Hill
#
# Bulk Modulus (GPa) = 30.72481 59.30748 45.01614
# Shear Modulus (GPa) = 54.64307 31.23051 42.93679
#
# Velocity S-wave (km/s) = 4.78663 3.61869 4.24304
# Velocity P-wave (km/s) = 6.59029 6.50596 6.54826
#
# Compressibility (1/GPa) = 0.03254699
#
# Stress axis : x y z
#
# Youngs Moduli (GPa) = 37.88636 181.95311 155.66871
#
# Poissons Ratio (x) = 0.61272 -0.31358
# Poissons Ratio (y) = 0.12758 0.23829
# Poissons Ratio (z) = -0.07632 0.27852
#
# Static dielectric constant tensor:
#      x y z
#    x 1.586450 0.000000 0.000000 
#    y 0.000000 1.980260 0.000000 
#    z 0.000000 0.000000 1.850050 
# 
# From -- ./inp_files/33781.got.cif
#   From: 2010.05.17/outbox.cif.g08.bks.cpg/sg58_17_cif.got.tgz:33781.got - 2010.06.03 14:20:14.
