data_PCOD9441292
_publ_section_title
;
Structure prediction by ZEFSAII (Michael W. Deem and Ramdas Pophale) SiO2 
 PCOD9441292
Probable space group: P N N M
;
_chemical_formula_sum "Si O2"
_cell_formula_units_Z 48
_cell_length_a 19.581233
_cell_length_b 15.648357
_cell_length_c 7.503799
_cell_angle_alpha 90.000000
_cell_angle_beta 90.000000
_cell_angle_gamma 90.000000
_cell_volume 2299.270001
_symmetry_space_group_name_H-M "P N N M"
_symmetry_group_IT_number 58
_symmetry_cell_setting 'orthorhombic'
loop_
_space_group_symop_operation_xyz
x,y,z
-x,-y,z
1/2+x,1/2-y,1/2-z
1/2-x,1/2+y,1/2-z
-x,-y,-z
x,y,-z
1/2-x,1/2+y,1/2+z
1/2+x,1/2-y,1/2+z
loop_
_atom_site_type_symbol
_atom_site_label
_atom_site_fract_x
_atom_site_fract_y
_atom_site_fract_z
Si Si1 0.329252 0.883244 0.209046
Si Si2 0.078650 0.723914 0.217621
Si Si3 0.570829 0.965038 0.292467
Si Si4 0.424385 0.530813 0.717436
Si Si5 0.325823 0.378301 0.281693
Si Si6 0.074495 0.224413 0.785129
O O1 0.252293 0.878102 0.279747
O O2 0.370493 0.795237 0.232733
O O3 0.373218 0.961273 0.284669
O O4 0.324387 0.900733 0.000000
O O5 0.092957 0.627263 0.278858
O O6 0.132423 0.794827 0.277638
O O7 0.001590 0.748151 0.272307
O O8 0.080403 0.727631 0.000000
O O9 0.555623 0.947606 0.500000
O O10 0.500000 0.000000 0.211882
O O11 0.500000 0.500000 0.772093
O O12 0.424719 0.531014 0.500000
O O13 0.367800 0.462387 0.773340
O O14 0.411209 0.627864 0.776103
O O15 0.325432 0.377472 0.500000
O O16 0.073341 0.223233 0.000000
#
# Coordination Sequence:
#
# PCOD9441292 Si02
#       6
#     8   8   8   8   8   8
#     4  11  23  35  49  75 115 147 166 205 267 326
#     4   9  16  30  54  79 102 131 173 220 259 301
#     4  10  19  34  57  80 100 132 183 227 253 294
#     4   9  15  27  54  85 104 126 171 226 263 295
#     4   9  18  32  49  78 113 138 165 210 271 320
#     4  10  18  32  57  83 102 130 180 226 254 296
#
# _framework density 20.876190999999999
#
# number of rings (size 3 to 8) (size 9 to 14) (size 15 to 20)
#    0.000    2.333    3.333    0.500    0.000    1.667 
#    0.000    0.000    0.000    4.500    0.000    0.000 
#    0.000    0.000    0.000    0.000    0.000    0.000 
#
# Total GULP energy -268046.491120 kJ/mol
# GULP energy per Si atom -5584.301898 kJ/mol
# Density = 2.082868 g / cm^3
# Si number density = 20.876191 Si / 1000 Ang^3
#
#
#
# Elastic Constant Matrix: (Units=GPa)
#
#
# Indices 1 2 3 4 5 6 
#
# 1 178.1102 97.3183 -11.7644 0.0000 0.0000 0.0000
# 2 97.3183 208.0243 -11.5800 0.0000 0.0000 0.0000
# 3 -11.7644 -11.5800 48.8679 0.0000 0.0000 0.0000
# 4 0.0000 0.0000 0.0000 -10.6276 0.0000 0.0000
# 5 0.0000 0.0000 0.0000 0.0000 2.8941 0.0000
# 6 0.0000 0.0000 0.0000 0.0000 0.0000 33.2109
#
#
#
# Elastic Compliance Matrix: (Units=1/GPa)
#
#
# Indices 1 2 3 4 5 6 
#
# 1 0.007590 -0.003495 0.000999 0.000000 0.000000 0.000000
# 2 -0.003495 0.006481 0.000694 0.000000 0.000000 0.000000
# 3 0.000999 0.000694 0.020868 0.000000 0.000000 0.000000
# 4 0.000000 0.000000 0.000000 -0.094094 0.000000 0.000000
# 5 0.000000 0.000000 0.000000 0.000000 0.345533 0.000000
# 6 0.000000 0.000000 0.000000 0.000000 0.000000 0.030111
#
#
# Mechanical properties :
#
#
# Convention : Reuss Voigt Hill
#
# Bulk Modulus (GPa) = 31.91251 64.77224 48.34238
# Shear Modulus (GPa) = 15.12686 29.16404 22.14545
#
# Velocity S-wave (km/s) = 2.69476 3.74170 3.26053
# Velocity P-wave (km/s) = 5.00020 7.05417 6.11406
#
# Compressibility (1/GPa) = 0.03133567
#
# Stress axis : x y z
#
# Youngs Moduli (GPa) = 131.74726 154.29835 47.91944
#
# Poissons Ratio (x) = 0.53932 -0.04787
# Poissons Ratio (y) = 0.46049 -0.03327
# Poissons Ratio (z) = -0.13162 -0.10713
#
# Static dielectric constant tensor:
#      x y z
#    x 1.706250 0.000000 0.000000 
#    y 0.000000 1.730760 0.000000 
#    z 0.000000 0.000000 1.805020 
# 
# From -- ./inp_files/5910.got.cif
#   From: 2010.05.17/outbox.cif.g08.bks.cpg/sg58_3_cif.got.tgz:5910.got - 2010.06.03 14:20:14.
