data_PCOD9441329
_publ_section_title
;
Structure prediction by ZEFSAII (Michael W. Deem and Ramdas Pophale) SiO2 
 PCOD9441329
Probable space group: P N N M
;
_chemical_formula_sum "Si O2"
_cell_formula_units_Z 64
_cell_length_a 16.913008
_cell_length_b 19.872642
_cell_length_c 7.347710
_cell_angle_alpha 90.000000
_cell_angle_beta 90.000000
_cell_angle_gamma 90.000000
_cell_volume 2469.610542
_symmetry_space_group_name_H-M "P N N M"
_symmetry_group_IT_number 58
_symmetry_cell_setting 'orthorhombic'
loop_
_space_group_symop_operation_xyz
x,y,z
-x,-y,z
1/2+x,1/2-y,1/2-z
1/2-x,1/2+y,1/2-z
-x,-y,-z
x,y,-z
1/2-x,1/2+y,1/2+z
1/2+x,1/2-y,1/2+z
loop_
_atom_site_type_symbol
_atom_site_label
_atom_site_fract_x
_atom_site_fract_y
_atom_site_fract_z
Si Si1 0.330951 0.949905 0.278354
Si Si2 0.676176 0.206114 0.722050
Si Si3 0.414760 0.077092 0.291265
Si Si4 0.733261 0.831282 0.790476
Si Si5 0.504601 0.200437 0.285534
Si Si6 0.063649 0.834395 0.718671
Si Si7 0.099379 0.099199 0.720404
Si Si8 0.343419 0.459805 0.778863
O O1 0.336488 0.949684 0.500000
O O2 0.326685 0.872039 0.224436
O O3 0.245143 0.977518 0.224480
O O4 0.395223 0.003820 0.212840
O O5 0.682425 0.208229 0.500000
O O6 0.744263 0.257004 0.785322
O O7 0.588207 0.228879 0.782409
O O8 0.439283 0.065634 0.500000
O O9 0.333316 0.121098 0.295422
O O10 0.478038 0.128686 0.208566
O O11 0.819025 0.867422 0.783654
O O12 0.708234 0.823789 0.000000
O O13 0.516364 0.190124 0.500000
O O14 0.437080 0.256221 0.265831
O O15 0.065026 0.836607 0.500000
O O16 0.129925 0.886194 0.783274
O O17 0.979946 0.864615 0.783547
O O18 0.099980 0.101683 0.500000
O O19 0.100418 0.020845 0.774471
O O20 0.343474 0.457625 0.000000
#
# Coordination Sequence:
#
# PCOD9441329 Si02
#       8
#     8   8   8   8   8   8   8   8
#     4   9  17  32  55  80 103 133 180 230 266 303
#     4   9  19  34  53  79 108 139 176 219 268 316
#     4  10  21  37  58  80 105 141 180 224 270 311
#     4  11  21  34  56  81 110 142 173 216 269 324
#     4  10  21  37  54  78 113 143 174 221 273 322
#     4  10  20  32  53  82 110 143 183 220 263 317
#     4  10  18  33  55  79 109 143 179 220 263 317
#     4   9  17  30  51  79 109 137 176 226 264 304
#
# _framework density 25.915018
#
# number of rings (size 3 to 8) (size 9 to 14) (size 15 to 20)
#    0.000    2.250    2.500    0.750    1.750    2.500 
#    0.000    3.125    0.000    3.750    0.000    1.750 
#    0.000    0.000    0.000    0.000    0.000    0.000 
#
# Total GULP energy -357752.350985 kJ/mol
# GULP energy per Si atom -5589.880484 kJ/mol
# Density = 2.585603 g / cm^3
# Si number density = 25.915018 Si / 1000 Ang^3
#
#
#
# Elastic Constant Matrix: (Units=GPa)
#
#
# Indices 1 2 3 4 5 6 
#
# 1 55.2048 11.1743 -4.8320 0.0000 0.0000 0.0000
# 2 11.1743 164.0216 -3.4692 0.0000 0.0000 0.0000
# 3 -4.8320 -3.4692 100.7759 0.0000 0.0000 0.0000
# 4 0.0000 0.0000 0.0000 9.4799 0.0000 0.0000
# 5 0.0000 0.0000 0.0000 0.0000 2.8277 0.0000
# 6 0.0000 0.0000 0.0000 0.0000 0.0000 48.5834
#
#
#
# Elastic Compliance Matrix: (Units=1/GPa)
#
#
# Indices 1 2 3 4 5 6 
#
# 1 0.018439 -0.001238 0.000841 0.000000 0.000000 0.000000
# 2 -0.001238 0.006184 0.000154 0.000000 0.000000 0.000000
# 3 0.000841 0.000154 0.009969 0.000000 0.000000 0.000000
# 4 0.000000 0.000000 0.000000 0.105487 0.000000 0.000000
# 5 0.000000 0.000000 0.000000 0.000000 0.353645 0.000000
# 6 0.000000 0.000000 0.000000 0.000000 0.000000 0.020583
#
#
# Mechanical properties :
#
#
# Convention : Reuss Voigt Hill
#
# Bulk Modulus (GPa) = 29.32128 36.19427 32.75778
# Shear Modulus (GPa) = 9.50279 33.32015 21.41147
#
# Velocity S-wave (km/s) = 1.91699 3.58962 2.87752
# Velocity P-wave (km/s) = 4.02974 5.58367 4.86909
#
# Compressibility (1/GPa) = 0.03410492
#
# Stress axis : x y z
#
# Youngs Moduli (GPa) = 54.23384 161.69794 100.31459
#
# Poissons Ratio (x) = 0.20024 -0.08441
# Poissons Ratio (y) = 0.06716 -0.01540
# Poissons Ratio (z) = -0.04564 -0.02482
#
# Static dielectric constant tensor:
#      x y z
#    x 2.025970 0.000000 0.000000 
#    y 0.000000 2.049200 0.000000 
#    z 0.000000 0.000000 2.021090 
# 
# From -- ./inp_files/8375.got.cif
#   From: 2010.05.17/outbox.cif.g08.bks.cpg/sg58_5_cif.got.tgz:8375.got - 2010.06.03 14:20:14.
