data_PCOD9441267
_publ_section_title
;
Structure prediction by ZEFSAII (Michael W. Deem and Ramdas Pophale) SiO2 
 PCOD9441267
Probable space group: P N N M
;
_chemical_formula_sum "Si O2"
_cell_formula_units_Z 56
_cell_length_a 17.841125
_cell_length_b 20.392355
_cell_length_c 7.725627
_cell_angle_alpha 90.000000
_cell_angle_beta 90.000000
_cell_angle_gamma 90.000000
_cell_volume 2810.757351
_symmetry_space_group_name_H-M "P N N M"
_symmetry_group_IT_number 58
_symmetry_cell_setting 'orthorhombic'
loop_
_space_group_symop_operation_xyz
x,y,z
-x,-y,z
1/2+x,1/2-y,1/2-z
1/2-x,1/2+y,1/2-z
-x,-y,-z
x,y,-z
1/2-x,1/2+y,1/2+z
1/2+x,1/2-y,1/2+z
loop_
_atom_site_type_symbol
_atom_site_label
_atom_site_fract_x
_atom_site_fract_y
_atom_site_fract_z
Si Si1 0.569013 0.308412 0.287623
Si Si2 0.972418 0.069532 0.797689
Si Si3 0.858241 0.548130 0.210333
Si Si4 0.619880 0.898278 0.204444
Si Si5 0.287583 0.614372 0.709145
Si Si6 0.689066 0.535644 0.795728
Si Si7 0.964807 0.663453 0.203146
O O1 0.566022 0.307240 0.500000
O O2 0.512598 0.365729 0.226984
O O3 0.652415 0.331449 0.237316
O O4 0.548350 0.236046 0.224567
O O5 0.882819 0.070362 0.784650
O O6 0.994240 0.067650 0.000000
O O7 0.000000 0.000000 0.720037
O O8 0.886458 0.476350 0.265212
O O9 0.771815 0.555458 0.268508
O O10 0.911166 0.606316 0.275180
O O11 0.858200 0.547587 0.000000
O O12 0.702295 0.878220 0.272492
O O13 0.550153 0.860017 0.281969
O O14 0.618540 0.886225 0.000000
O O15 0.285240 0.613921 0.500000
O O16 0.316060 0.542471 0.763654
O O17 0.686387 0.547809 0.000000
O O18 0.945876 0.667262 0.000000
#
# Coordination Sequence:
#
# PCOD9441267 Si02
#       7
#     8   8   8   8   8   8   8
#     4   9  18  34  55  74  96 137 182 211 245 306
#     4  10  18  32  55  76  99 135 177 215 251 305
#     4   9  19  35  54  77 103 138 176 214 256 306
#     4  10  20  33  55  83 106 132 170 219 266 306
#     4   9  17  34  55  75  99 135 176 210 251 307
#     4  10  19  31  50  80 108 129 165 215 266 306
#     4  10  20  36  55  74 102 139 179 214 253 311
#
# _framework density 19.923456999999999
#
# number of rings (size 3 to 8) (size 9 to 14) (size 15 to 20)
#    0.000    2.429    1.429    1.286    0.000    3.714 
#    2.571    1.429    0.000    0.000    0.000    0.000 
#    0.000    0.000    0.000    0.000    0.000    0.000 
#
# Total GULP energy -312475.315960 kJ/mol
# GULP energy per Si atom -5579.916356 kJ/mol
# Density = 1.987811 g / cm^3
# Si number density = 19.923457 Si / 1000 Ang^3
#
#
#
# Elastic Constant Matrix: (Units=GPa)
#
#
# Indices 1 2 3 4 5 6 
#
# 1 120.3285 90.9450 -13.3576 0.0000 0.0000 0.0000
# 2 90.9450 136.5266 -4.7531 0.0000 0.0000 0.0000
# 3 -13.3576 -4.7531 25.5761 0.0000 0.0000 0.0000
# 4 0.0000 0.0000 0.0000 6.3356 0.0000 0.0000
# 5 0.0000 0.0000 0.0000 0.0000 22.7282 0.0000
# 6 0.0000 0.0000 0.0000 0.0000 0.0000 19.0997
#
#
#
# Elastic Compliance Matrix: (Units=1/GPa)
#
#
# Indices 1 2 3 4 5 6 
#
# 1 0.017966 -0.011717 0.007206 0.000000 0.000000 0.000000
# 2 -0.011717 0.015014 -0.003329 0.000000 0.000000 0.000000
# 3 0.007206 -0.003329 0.042244 0.000000 0.000000 0.000000
# 4 0.000000 0.000000 0.000000 0.157838 0.000000 0.000000
# 5 0.000000 0.000000 0.000000 0.000000 0.043998 0.000000
# 6 0.000000 0.000000 0.000000 0.000000 0.000000 0.052357
#
#
# Mechanical properties :
#
#
# Convention : Reuss Voigt Hill
#
# Bulk Modulus (GPa) = 16.79477 47.56666 32.18072
# Shear Modulus (GPa) = 13.70065 23.60582 18.65324
#
# Velocity S-wave (km/s) = 2.62518 3.44586 3.06313
# Velocity P-wave (km/s) = 4.19961 6.30543 5.35701
#
# Compressibility (1/GPa) = 0.05954233
#
# Stress axis : x y z
#
# Youngs Moduli (GPa) = 55.65960 66.60520 23.67226
#
# Poissons Ratio (x) = 0.78042 -0.17058
# Poissons Ratio (y) = 0.65217 0.07881
# Poissons Ratio (z) = -0.40107 0.22175
#
# Static dielectric constant tensor:
#      x y z
#    x 1.709310 0.000000 0.000000 
#    y 0.000000 1.678060 0.000000 
#    z 0.000000 0.000000 1.752830 
# 
# From -- ./inp_files/8177.got.cif
#   From: 2010.05.17/outbox.cif.g08.bks.cpg/sg58_5_cif.got.tgz:8177.got - 2010.06.03 14:20:14.
