data_PCOD9441094
_publ_section_title
;
Structure prediction by ZEFSAII (Michael W. Deem and Ramdas Pophale) SiO2 
 PCOD9441094
Probable space group: P N N M
;
_chemical_formula_sum "Si O2"
_cell_formula_units_Z 64
_cell_length_a 21.255773
_cell_length_b 17.554936
_cell_length_c 7.467615
_cell_angle_alpha 90.000000
_cell_angle_beta 90.000000
_cell_angle_gamma 90.000000
_cell_volume 2786.493750
_symmetry_space_group_name_H-M "P N N M"
_symmetry_group_IT_number 58
_symmetry_cell_setting 'orthorhombic'
loop_
_space_group_symop_operation_xyz
x,y,z
-x,-y,z
1/2+x,1/2-y,1/2-z
1/2-x,1/2+y,1/2-z
-x,-y,-z
x,y,-z
1/2-x,1/2+y,1/2+z
1/2+x,1/2-y,1/2+z
loop_
_atom_site_type_symbol
_atom_site_label
_atom_site_fract_x
_atom_site_fract_y
_atom_site_fract_z
Si Si1 0.312204 0.094423 0.788111
Si Si2 0.670943 0.438788 0.720198
Si Si3 0.598764 0.029646 0.204117
Si Si4 0.983670 0.667732 0.788694
Si Si5 0.213912 0.357619 0.783825
Si Si6 0.371487 0.724265 0.717998
Si Si7 0.855130 0.102486 0.204366
Si Si8 0.113047 0.734475 0.216704
O O1 0.243819 0.069434 0.720088
O O2 0.327284 0.183104 0.766596
O O3 0.371354 0.046358 0.710336
O O4 0.310877 0.077828 0.000000
O O5 0.671823 0.440667 0.500000
O O6 0.634689 0.362548 0.775634
O O7 0.640679 0.517911 0.783148
O O8 0.541185 0.081408 0.270679
O O9 0.659122 0.085890 0.218864
O O10 0.582670 0.012448 0.000000
O O11 0.930891 0.726412 0.717909
O O12 0.051427 0.690137 0.715803
O O13 0.986878 0.681500 0.000000
O O14 0.189969 0.273543 0.734453
O O15 0.280562 0.379773 0.705213
O O16 0.217189 0.363026 0.000000
O O17 0.373858 0.723918 0.500000
O O18 0.884898 0.178858 0.284697
O O19 0.878388 0.097192 0.000000
O O20 0.112866 0.737992 0.000000
#
# Coordination Sequence:
#
# PCOD9441094 Si02
#       8
#     8   8   8   8   8   8   8   8
#     4  10  20  34  53  77 106 134 170 216 264 321
#     4   9  16  30  51  76 103 130 164 212 261 305
#     4  10  19  33  54  79 104 135 171 214 260 309
#     4   9  19  36  52  73 105 140 180 219 257 306
#     4  10  18  30  51  77 105 135 167 207 259 316
#     4   8  15  28  50  73  95 129 170 208 249 300
#     4  10  19  33  51  73 104 139 172 211 263 312
#     4  10  22  36  51  73 106 143 176 218 264 306
#
# _framework density 22.967932999999999
#
# number of rings (size 3 to 8) (size 9 to 14) (size 15 to 20)
#    0.000    2.500    1.250    2.250    0.000    3.500 
#    0.000    3.125    0.000    6.750    0.000    0.000 
#    0.000    6.000    0.000    0.000    0.000    0.000 
#
# Total GULP energy -357262.010394 kJ/mol
# GULP energy per Si atom -5582.218912 kJ/mol
# Density = 2.291566 g / cm^3
# Si number density = 22.967933 Si / 1000 Ang^3
#
#
#
# Elastic Constant Matrix: (Units=GPa)
#
#
# Indices 1 2 3 4 5 6 
#
# 1 48.3309 26.6501 -6.0104 0.0000 0.0000 0.0000
# 2 26.6501 162.3527 -4.1268 0.0000 0.0000 0.0000
# 3 -6.0104 -4.1268 70.3612 0.0000 0.0000 0.0000
# 4 0.0000 0.0000 0.0000 7.5603 0.0000 0.0000
# 5 0.0000 0.0000 0.0000 0.0000 10.7670 0.0000
# 6 0.0000 0.0000 0.0000 0.0000 0.0000 27.9030
#
#
#
# Elastic Compliance Matrix: (Units=1/GPa)
#
#
# Indices 1 2 3 4 5 6 
#
# 1 0.022961 -0.003725 0.001743 0.000000 0.000000 0.000000
# 2 -0.003725 0.006773 0.000079 0.000000 0.000000 0.000000
# 3 0.001743 0.000079 0.014366 0.000000 0.000000 0.000000
# 4 0.000000 0.000000 0.000000 0.132271 0.000000 0.000000
# 5 0.000000 0.000000 0.000000 0.000000 0.092877 0.000000
# 6 0.000000 0.000000 0.000000 0.000000 0.000000 0.035838
#
#
# Mechanical properties :
#
#
# Convention : Reuss Voigt Hill
#
# Bulk Modulus (GPa) = 24.81725 34.89671 29.85698
# Shear Modulus (GPa) = 15.51239 26.88150 21.19694
#
# Velocity S-wave (km/s) = 2.60165 3.42481 3.04121
# Velocity P-wave (km/s) = 4.45572 5.55570 5.03583
#
# Compressibility (1/GPa) = 0.04029456
#
# Stress axis : x y z
#
# Youngs Moduli (GPa) = 43.55147 147.64809 69.60924
#
# Poissons Ratio (x) = 0.54996 -0.12133
# Poissons Ratio (y) = 0.16222 -0.00550
# Poissons Ratio (z) = -0.07591 -0.01167
#
# Static dielectric constant tensor:
#      x y z
#    x 1.843400 0.000000 0.000000 
#    y 0.000000 1.888850 0.000000 
#    z 0.000000 0.000000 1.899440 
# 
# From -- ./inp_files/9923.got.cif
#   From: 2010.05.17/outbox.cif.g08.bks.cpg/sg58_5_cif.got.tgz:9923.got - 2010.06.03 14:20:14.
