data_PCOD9441345
_publ_section_title
;
Structure prediction by ZEFSAII (Michael W. Deem and Ramdas Pophale) SiO2 
 PCOD9441345
Probable space group: P N N M
;
_chemical_formula_sum "Si O2"
_cell_formula_units_Z 58
_cell_length_a 22.809715
_cell_length_b 14.597979
_cell_length_c 7.458674
_cell_angle_alpha 90.000000
_cell_angle_beta 90.000000
_cell_angle_gamma 90.000000
_cell_volume 2483.557499
_symmetry_space_group_name_H-M "P N N M"
_symmetry_group_IT_number 58
_symmetry_cell_setting 'orthorhombic'
loop_
_space_group_symop_operation_xyz
x,y,z
-x,-y,z
1/2+x,1/2-y,1/2-z
1/2-x,1/2+y,1/2-z
-x,-y,-z
x,y,-z
1/2-x,1/2+y,1/2+z
1/2+x,1/2-y,1/2+z
loop_
_atom_site_type_symbol
_atom_site_label
_atom_site_fract_x
_atom_site_fract_y
_atom_site_fract_z
Si Si1 0.216189 0.297433 0.219505
Si Si2 0.089585 0.541013 0.718799
Si Si3 0.898528 0.811366 0.790929
Si Si4 0.591424 0.520218 0.798994
Si Si5 0.797225 0.356107 0.704577
Si Si6 0.223938 0.976828 0.716149
Si Si7 0.000000 0.000000 0.000000
Si Si8 0.469792 0.858954 0.784034
O O1 0.156625 0.248108 0.277335
O O2 0.271133 0.236422 0.282361
O O3 0.229336 0.400603 0.275495
O O4 0.215157 0.296459 0.000000
O O5 0.091769 0.537034 0.500000
O O6 0.148331 0.589333 0.785860
O O7 0.076609 0.436948 0.778211
O O8 0.033270 0.602273 0.767964
O O9 0.906239 0.908559 0.698144
O O10 0.952558 0.741368 0.779374
O O11 0.890022 0.835326 0.000000
O O12 0.657138 0.548550 0.741669
O O13 0.542341 0.544051 0.656889
O O14 0.579619 0.554275 0.000000
O O15 0.814197 0.334609 0.500000
O O16 0.742948 0.426474 0.705297
O O17 0.226352 0.984852 0.500000
O O18 0.468434 0.857305 0.000000
#
# Coordination Sequence:
#
# PCOD9441345 Si02
#       8
#     8   8   8   8   8   8   2   8
#     4   9  19  34  56  85 119 159 206 257 324 386
#     4   8  16  31  52  81 115 158 202 259 317 381
#     4  11  20  36  60  90 124 165 211 268 323 385
#     4  11  24  44  70  94 128 170 219 272 330 385
#     4  10  18  33  58  82 112 154 198 244 315 378
#     4  10  21  38  60  89 124 163 207 264 324 389
#     4  12  26  48  72  94 128 170 222 270 324 386
#     4   9  17  32  53  80 117 154 207 259 312 381
#
# _framework density 23.353594999999999
#
# number of rings (size 3 to 8) (size 9 to 14) (size 15 to 20)
#    0.000    2.207    2.069    2.276    0.966    0.000 
#    2.483    3.448    0.000    0.000    0.000    0.000 
#    0.000    0.000    0.000    0.000    0.000    0.000 
#
# Total GULP energy -323613.167857 kJ/mol
# GULP energy per Si atom -5579.537377 kJ/mol
# Density = 2.330044 g / cm^3
# Si number density = 23.353595 Si / 1000 Ang^3
#
#
#
# Elastic Constant Matrix: (Units=GPa)
#
#
# Indices 1 2 3 4 5 6 
#
# 1 54.3849 -21.8993 14.6311 0.0000 0.0000 0.0000
# 2 -21.8993 55.9040 -8.8591 0.0000 0.0000 0.0000
# 3 14.6311 -8.8591 83.0589 0.0000 0.0000 0.0000
# 4 0.0000 0.0000 0.0000 -3.4474 0.0000 0.0000
# 5 0.0000 0.0000 0.0000 0.0000 13.0041 0.0000
# 6 0.0000 0.0000 0.0000 0.0000 0.0000 28.6378
#
#
#
# Elastic Compliance Matrix: (Units=1/GPa)
#
#
# Indices 1 2 3 4 5 6 
#
# 1 0.022583 0.008357 -0.003087 0.000000 0.000000 0.000000
# 2 0.008357 0.021288 0.000798 0.000000 0.000000 0.000000
# 3 -0.003087 0.000798 0.012669 0.000000 0.000000 0.000000
# 4 0.000000 0.000000 0.000000 -0.290076 0.000000 0.000000
# 5 0.000000 0.000000 0.000000 0.000000 0.076899 0.000000
# 6 0.000000 0.000000 0.000000 0.000000 0.000000 0.034919
#
#
# Mechanical properties :
#
#
# Convention : Reuss Voigt Hill
#
# Bulk Modulus (GPa) = 14.56071 17.89926 16.22998
# Shear Modulus (GPa) = -45.05960 21.60391 -11.72784
#
# Velocity S-wave (km/s) = -4.39732 3.04481 -2.24338
# Velocity P-wave (km/s) = 4.41966 4.47686 0.50439
#
# Compressibility (1/GPa) = 0.06867797
#
# Stress axis : x y z
#
# Youngs Moduli (GPa) = 44.28080 46.97449 78.93563
#
# Poissons Ratio (x) = -0.39258 0.24365
# Poissons Ratio (y) = -0.37007 -0.06302
# Poissons Ratio (z) = 0.13668 -0.03751
#
# Static dielectric constant tensor:
#      x y z
#    x 1.903360 0.000000 0.000000 
#    y 0.000000 1.843650 0.000000 
#    z 0.000000 0.000000 1.886390 
# 
# From -- ./inp_files/9851.got.cif
#   From: 2010.05.17/outbox.cif.g08.bks.cpg/sg58_5_cif.got.tgz:9851.got - 2010.06.03 14:20:14.
