data_PCOD9441993
_publ_section_title
;
Structure prediction by ZEFSAII (Michael W. Deem and Ramdas Pophale) SiO2 
 PCOD9441993
Probable space group: P N N M
;
_chemical_formula_sum "Si O2"
_cell_formula_units_Z 48
_cell_length_a 31.927056
_cell_length_b 9.207977
_cell_length_c 7.454107
_cell_angle_alpha 90.000000
_cell_angle_beta 90.000000
_cell_angle_gamma 90.000000
_cell_volume 2191.385191
_symmetry_space_group_name_H-M "P N N M"
_symmetry_group_IT_number 58
_symmetry_cell_setting 'orthorhombic'
loop_
_space_group_symop_operation_xyz
x,y,z
-x,-y,z
1/2+x,1/2-y,1/2-z
1/2-x,1/2+y,1/2-z
-x,-y,-z
x,y,-z
1/2-x,1/2+y,1/2+z
1/2+x,1/2-y,1/2+z
loop_
_atom_site_type_symbol
_atom_site_label
_atom_site_fract_x
_atom_site_fract_y
_atom_site_fract_z
Si Si1 0.872451 0.925479 0.280258
Si Si2 0.958061 0.082947 0.718964
Si Si3 0.378667 0.902534 0.207599
Si Si4 0.206357 0.561321 0.211726
Si Si5 0.790046 0.096770 0.284019
Si Si6 0.042187 0.582792 0.719488
O O1 0.871304 0.926960 0.500000
O O2 0.871721 0.758639 0.217770
O O3 0.915679 0.001666 0.225835
O O4 0.831747 0.014707 0.219752
O O5 0.958362 0.082315 0.500000
O O6 0.957786 0.250107 0.777342
O O7 0.000000 0.000000 0.777027
O O8 0.336160 0.994196 0.212588
O O9 0.417054 0.995339 0.283834
O O10 0.390194 0.877954 0.000000
O O11 0.209210 0.733286 0.240819
O O12 0.247815 0.480853 0.282783
O O13 0.204458 0.534212 0.000000
O O14 0.789928 0.084199 0.500000
O O15 0.043039 0.586068 0.500000
O O16 0.000000 0.500000 0.772214
#
# Coordination Sequence:
#
# PCOD9441993 Si02
#       6
#     8   8   8   8   8   8
#     4   9  17  30  49  73 100 134 174 212 256 310
#     4   9  15  23  38  65 102 135 165 210 262 307
#     4  10  19  33  54  77 106 142 177 217 265 315
#     4  11  23  37  55  80 107 135 173 218 262 314
#     4  10  21  37  55  75 102 136 173 213 258 309
#     4   9  16  26  44  73 105 138 178 220 261 306
#
# _framework density 21.903956999999998
#
# number of rings (size 3 to 8) (size 9 to 14) (size 15 to 20)
#    0.000    2.333    0.000    3.500    0.000    9.333 
#    0.000    0.833    0.000    0.500    0.000    0.000 
#    0.000    6.000    0.000    0.000    0.000    0.000 
#
# Total GULP energy -268332.078603 kJ/mol
# GULP energy per Si atom -5590.251638 kJ/mol
# Density = 2.185410 g / cm^3
# Si number density = 21.903957 Si / 1000 Ang^3
#
#
#
# Elastic Constant Matrix: (Units=GPa)
#
#
# Indices 1 2 3 4 5 6 
#
# 1 209.3518 120.0173 -10.2820 0.0000 0.0000 0.0000
# 2 120.0173 225.4672 -12.5325 0.0000 0.0000 0.0000
# 3 -10.2820 -12.5325 62.3629 0.0000 0.0000 0.0000
# 4 0.0000 0.0000 0.0000 4.9412 0.0000 0.0000
# 5 0.0000 0.0000 0.0000 0.0000 -4.5248 0.0000
# 6 0.0000 0.0000 0.0000 0.0000 0.0000 44.7825
#
#
#
# Elastic Compliance Matrix: (Units=1/GPa)
#
#
# Indices 1 2 3 4 5 6 
#
# 1 0.006884 -0.003642 0.000403 0.000000 0.000000 0.000000
# 2 -0.003642 0.006412 0.000688 0.000000 0.000000 0.000000
# 3 0.000403 0.000688 0.016240 0.000000 0.000000 0.000000
# 4 0.000000 0.000000 0.000000 0.202382 0.000000 0.000000
# 5 0.000000 0.000000 0.000000 0.000000 -0.221003 0.000000
# 6 0.000000 0.000000 0.000000 0.000000 0.000000 0.022330
#
#
# Mechanical properties :
#
#
# Convention : Reuss Voigt Hill
#
# Bulk Modulus (GPa) = 40.92549 76.84305 58.88427
# Shear Modulus (GPa) = 107.54359 35.70503 71.62431
#
# Velocity S-wave (km/s) = 7.01458 4.04180 5.72453
# Velocity P-wave (km/s) = 9.18316 7.54582 8.40446
#
# Compressibility (1/GPa) = 0.02443465
#
# Stress axis : x y z
#
# Youngs Moduli (GPa) = 145.25461 155.95135 61.57663
#
# Poissons Ratio (x) = 0.56801 -0.02482
# Poissons Ratio (y) = 0.52905 -0.04237
# Poissons Ratio (z) = -0.05855 -0.10731
#
# Static dielectric constant tensor:
#      x y z
#    x 1.750670 0.000000 0.000000 
#    y 0.000000 1.740480 0.000000 
#    z 0.000000 0.000000 1.874510 
# 
# From -- ./inp_files/3013.got.cif
#   From: 2010.05.17/outbox.cif.g08.bks.cpg/sg58_2_cif.got.tgz:3013.got - 2010.06.03 14:20:14.
