data_PCOD9441025
_publ_section_title
;
Structure prediction by ZEFSAII (Michael W. Deem and Ramdas Pophale) SiO2 
 PCOD9441025
Probable space group: P N N M
;
_chemical_formula_sum "Si O2"
_cell_formula_units_Z 56
_cell_length_a 22.465669
_cell_length_b 15.771470
_cell_length_c 9.119012
_cell_angle_alpha 90.000000
_cell_angle_beta 90.000000
_cell_angle_gamma 90.000000
_cell_volume 3231.017552
_symmetry_space_group_name_H-M "P N N M"
_symmetry_group_IT_number 58
_symmetry_cell_setting 'orthorhombic'
loop_
_space_group_symop_operation_xyz
x,y,z
-x,-y,z
1/2+x,1/2-y,1/2-z
1/2-x,1/2+y,1/2-z
-x,-y,-z
x,y,-z
1/2-x,1/2+y,1/2+z
1/2+x,1/2-y,1/2+z
loop_
_atom_site_type_symbol
_atom_site_label
_atom_site_fract_x
_atom_site_fract_y
_atom_site_fract_z
Si Si1 0.060269 0.539652 0.668678
Si Si2 0.315565 0.049132 0.676144
Si Si3 0.983526 0.864383 0.170902
Si Si4 0.316508 0.244914 0.324399
Si Si5 0.558862 0.758899 0.833785
Si Si6 0.214652 0.913204 0.324504
Si Si7 0.900993 0.013626 0.828163
O O1 0.066987 0.509688 0.500000
O O2 0.121025 0.524610 0.755331
O O3 0.051439 0.640589 0.665399
O O4 0.000000 0.500000 0.731741
O O5 0.320491 0.049449 0.500000
O O6 0.301043 0.147422 0.718497
O O7 0.265837 0.980494 0.717740
O O8 0.000409 0.786243 0.272144
O O9 0.041592 0.925202 0.182747
O O10 0.978074 0.840198 0.000000
O O11 0.926474 0.920826 0.211457
O O12 0.313629 0.252432 0.500000
O O13 0.384431 0.258701 0.269645
O O14 0.279665 0.320564 0.249485
O O15 0.571952 0.730025 0.000000
O O16 0.214529 0.904036 0.500000
O O17 0.152492 0.953107 0.269428
O O18 0.883232 0.013267 0.000000
#
# Coordination Sequence:
#
# PCOD9441025 Si02
#       7
#     8   8   8   8   8   8   8
#     4   9  19  36  56  78 103 131 168 214 259 305
#     4   9  21  38  55  78 107 137 173 215 258 310
#     4   9  17  30  47  71 103 135 170 206 241 295
#     4  10  19  34  54  74 100 138 177 211 255 312
#     4  10  18  29  50  78 103 130 169 214 257 300
#     4  11  21  34  53  79 107 135 173 220 261 301
#     4   9  18  31  48  71 102 139 171 200 242 300
#
# _framework density 17.332001000000002
#
# number of rings (size 3 to 8) (size 9 to 14) (size 15 to 20)
#    0.000    2.429    1.429    2.143    0.000    3.143 
#    0.000    2.857    0.000    8.571    0.000    0.000 
#    0.000    0.000    0.000    0.000    0.000    0.000 
#
# Total GULP energy -312103.211355 kJ/mol
# GULP energy per Si atom -5573.271631 kJ/mol
# Density = 1.729255 g / cm^3
# Si number density = 17.332001 Si / 1000 Ang^3
#
#
#
# Elastic Constant Matrix: (Units=GPa)
#
#
# Indices 1 2 3 4 5 6 
#
# 1 78.8943 59.3411 35.0234 0.0000 0.0000 0.0000
# 2 59.3411 84.4966 36.5867 0.0000 0.0000 0.0000
# 3 35.0234 36.5867 46.0008 0.0000 0.0000 0.0000
# 4 0.0000 0.0000 0.0000 38.0805 0.0000 0.0000
# 5 0.0000 0.0000 0.0000 0.0000 18.9438 0.0000
# 6 0.0000 0.0000 0.0000 0.0000 0.0000 34.7517
#
#
#
# Elastic Compliance Matrix: (Units=1/GPa)
#
#
# Indices 1 2 3 4 5 6 
#
# 1 0.029126 -0.016554 -0.009009 0.000000 0.000000 0.000000
# 2 -0.016554 0.027460 -0.009237 0.000000 0.000000 0.000000
# 3 -0.009009 -0.009237 0.035945 0.000000 0.000000 0.000000
# 4 0.000000 0.000000 0.000000 0.026260 0.000000 0.000000
# 5 0.000000 0.000000 0.000000 0.000000 0.052788 0.000000
# 6 0.000000 0.000000 0.000000 0.000000 0.000000 0.028776
#
#
# Mechanical properties :
#
#
# Convention : Reuss Voigt Hill
#
# Bulk Modulus (GPa) = 43.60990 52.36603 47.98797
# Shear Modulus (GPa) = 18.01177 23.58457 20.79817
#
# Velocity S-wave (km/s) = 3.22719 3.69284 3.46784
# Velocity P-wave (km/s) = 6.25320 6.96145 6.61681
#
# Compressibility (1/GPa) = 0.02293057
#
# Stress axis : x y z
#
# Youngs Moduli (GPa) = 34.33398 36.41704 27.82059
#
# Poissons Ratio (x) = 0.60283 0.25065
# Poissons Ratio (y) = 0.56835 0.25697
# Poissons Ratio (z) = 0.30933 0.33637
#
# Static dielectric constant tensor:
#      x y z
#    x 1.563260 0.000000 0.000000 
#    y 0.000000 1.629680 0.000000 
#    z 0.000000 0.000000 1.592940 
# 
# From -- ./inp_files/9189.got.cif
#   From: 2010.05.17/outbox.cif.g08.bks.cpg/sg58_5_cif.got.tgz:9189.got - 2010.06.03 14:20:14.
