data_PCOD9441730
_publ_section_title
;
Structure prediction by ZEFSAII (Michael W. Deem and Ramdas Pophale) SiO2 
 PCOD9441730
Probable space group: P N N M
;
_chemical_formula_sum "Si O2"
_cell_formula_units_Z 48
_cell_length_a 21.496915
_cell_length_b 8.531781
_cell_length_c 13.125879
_cell_angle_alpha 90.000000
_cell_angle_beta 90.000000
_cell_angle_gamma 90.000000
_cell_volume 2407.377709
_symmetry_space_group_name_H-M "P N N M"
_symmetry_group_IT_number 58
_symmetry_cell_setting 'orthorhombic'
loop_
_space_group_symop_operation_xyz
x,y,z
-x,-y,z
1/2+x,1/2-y,1/2-z
1/2-x,1/2+y,1/2-z
-x,-y,-z
x,y,-z
1/2-x,1/2+y,1/2+z
1/2+x,1/2-y,1/2+z
loop_
_atom_site_type_symbol
_atom_site_label
_atom_site_fract_x
_atom_site_fract_y
_atom_site_fract_z
Si Si1 0.397745 0.644165 0.883305
Si Si2 0.770657 0.679292 0.615697
Si Si3 0.484723 0.185924 0.192592
Si Si4 0.192241 0.565536 0.223408
Si Si5 0.433366 0.090503 0.385217
Si Si6 0.863231 0.198759 0.613853
O O1 0.342640 0.769270 0.885616
O O2 0.454327 0.712182 0.820224
O O3 0.370574 0.478645 0.847786
O O4 0.419203 0.618625 0.000000
O O5 0.755359 0.622029 0.500000
O O6 0.768823 0.562439 0.712698
O O7 0.730794 0.834208 0.641431
O O8 0.451917 0.219005 0.301442
O O9 0.432928 0.232035 0.111717
O O10 0.500000 0.000000 0.183883
O O11 0.127610 0.510136 0.167624
O O12 0.173102 0.688271 0.311250
O O13 0.417145 0.137951 0.500000
O O14 0.500000 0.000000 0.392183
O O15 0.836252 0.196174 0.500000
#
# Coordination Sequence:
#
# PCOD9441730 Si02
#       6
#     8   8   8   8   8   8
#     4  10  20  34  53  79 111 146 186 236 295 355
#     4  11  23  39  59  84 116 152 194 244 298 362
#     4  10  19  31  52  80 110 144 184 235 295 355
#     4  11  22  38  60  84 116 154 196 246 306 365
#     4   9  18  34  56  81 110 147 193 241 289 349
#     4  10  20  34  54  80 110 146 189 239 296 357
#
# _framework density 19.938707000000001
#
# number of rings (size 3 to 8) (size 9 to 14) (size 15 to 20)
#    0.000    1.833    0.000    6.000    0.000    4.000 
#    0.000    2.500    0.000   15.500    0.000    0.000 
#    0.000    0.000    0.000    0.000    0.000    0.000 
#
# Total GULP energy -267266.860852 kJ/mol
# GULP energy per Si atom -5568.059601 kJ/mol
# Density = 1.989333 g / cm^3
# Si number density = 19.938707 Si / 1000 Ang^3
#
#
#
# Elastic Constant Matrix: (Units=GPa)
#
#
# Indices 1 2 3 4 5 6 
#
# 1 63.1585 0.1528 21.6770 0.0000 0.0000 0.0000
# 2 0.1528 50.8194 15.4258 0.0000 0.0000 0.0000
# 3 21.6770 15.4258 104.5068 0.0000 0.0000 0.0000
# 4 0.0000 0.0000 0.0000 25.6486 0.0000 0.0000
# 5 0.0000 0.0000 0.0000 0.0000 10.9136 0.0000
# 6 0.0000 0.0000 0.0000 0.0000 0.0000 33.3683
#
#
#
# Elastic Compliance Matrix: (Units=1/GPa)
#
#
# Indices 1 2 3 4 5 6 
#
# 1 0.017102 0.001073 -0.003706 0.000000 0.000000 0.000000
# 2 0.001073 0.020668 -0.003273 0.000000 0.000000 0.000000
# 3 -0.003706 -0.003273 0.010821 0.000000 0.000000 0.000000
# 4 0.000000 0.000000 0.000000 0.038988 0.000000 0.000000
# 5 0.000000 0.000000 0.000000 0.000000 0.091629 0.000000
# 6 0.000000 0.000000 0.000000 0.000000 0.000000 0.029969
#
#
# Mechanical properties :
#
#
# Convention : Reuss Voigt Hill
#
# Bulk Modulus (GPa) = 27.18911 32.55511 29.87211
# Shear Modulus (GPa) = 21.43636 26.06803 23.75220
#
# Velocity S-wave (km/s) = 3.28245 3.61973 3.45521
# Velocity P-wave (km/s) = 5.29452 5.81661 5.56170
#
# Compressibility (1/GPa) = 0.03677943
#
# Stress axis : x y z
#
# Youngs Moduli (GPa) = 58.47104 48.38423 92.41633
#
# Poissons Ratio (x) = -0.05194 0.34248
# Poissons Ratio (y) = -0.06277 0.30251
# Poissons Ratio (z) = 0.21669 0.15838
#
# Static dielectric constant tensor:
#      x y z
#    x 1.734130 0.000000 0.000000 
#    y 0.000000 1.715850 0.000000 
#    z 0.000000 0.000000 1.754820 
# 
# From -- ./inp_files/17405.got.cif
#   From: 2010.05.17/outbox.cif.g08.bks.cpg/sg58_9_cif.got.tgz:17405.got - 2010.06.03 14:20:14.
