data_PCOD9441279
_publ_section_title
;
Structure prediction by ZEFSAII (Michael W. Deem and Ramdas Pophale) SiO2 
 PCOD9441279
Probable space group: P N N M
;
_chemical_formula_sum "Si O2"
_cell_formula_units_Z 64
_cell_length_a 24.906665
_cell_length_b 14.887807
_cell_length_c 8.780706
_cell_angle_alpha 90.000000
_cell_angle_beta 90.000000
_cell_angle_gamma 90.000000
_cell_volume 3255.935146
_symmetry_space_group_name_H-M "P N N M"
_symmetry_group_IT_number 58
_symmetry_cell_setting 'orthorhombic'
loop_
_space_group_symop_operation_xyz
x,y,z
-x,-y,z
1/2+x,1/2-y,1/2-z
1/2-x,1/2+y,1/2-z
-x,-y,-z
x,y,-z
1/2-x,1/2+y,1/2+z
1/2+x,1/2-y,1/2+z
loop_
_atom_site_type_symbol
_atom_site_label
_atom_site_fract_x
_atom_site_fract_y
_atom_site_fract_z
Si Si1 0.252420 0.148978 0.183243
Si Si2 0.168686 0.009836 0.818699
Si Si3 0.905058 0.243802 0.824112
Si Si4 0.143495 0.560752 0.175869
Si Si5 0.950346 0.565949 0.184753
Si Si6 0.478836 0.741329 0.182411
Si Si7 0.298962 0.333020 0.180498
Si Si8 0.443968 0.545351 0.817409
O O1 0.198104 0.100883 0.234079
O O2 0.303260 0.089554 0.235655
O O3 0.261263 0.251386 0.235770
O O4 0.252996 0.151428 0.000000
O O5 0.109036 0.002603 0.753284
O O6 0.205412 0.927508 0.763355
O O7 0.165874 0.009379 0.000000
O O8 0.894369 0.350798 0.823253
O O9 0.858680 0.201300 0.721622
O O10 0.962962 0.225610 0.756386
O O11 0.900066 0.213339 0.000000
O O12 0.105842 0.480208 0.232123
O O13 0.158410 0.543009 0.000000
O O14 0.957172 0.664888 0.252578
O O15 0.000000 0.500000 0.228279
O O16 0.950920 0.571192 0.000000
O O17 0.445267 0.651624 0.218568
O O18 0.483983 0.747358 0.000000
O O19 0.292899 0.344690 0.000000
O O20 0.500000 0.500000 0.766503
O O21 0.441400 0.534732 0.000000
#
# Coordination Sequence:
#
# PCOD9441279 Si02
#       8
#     8   8   8   8   8   8   8   8
#     4   9  21  40  60  85 118 149 189 244 293 345
#     4  11  23  41  64  91 119 153 198 246 297 355
#     4  10  18  32  55  83 115 150 196 243 283 339
#     4   9  18  33  55  81 110 152 200 240 285 342
#     4  10  19  35  54  79 119 162 200 243 295 353
#     4  11  22  34  53  85 119 155 197 240 297 356
#     4  10  20  37  61  87 115 151 191 238 296 348
#     4  10  23  43  63  85 118 156 195 245 303 362
#
# _framework density 19.656412
#
# number of rings (size 3 to 8) (size 9 to 14) (size 15 to 20)
#    0.000    2.000    1.250    2.250    0.000    5.000 
#    2.250    0.000    0.000    0.000    0.000    0.000 
#    0.000    0.000    0.000    0.000    0.000    0.000 
#
# Total GULP energy -357291.595540 kJ/mol
# GULP energy per Si atom -5582.681180 kJ/mol
# Density = 1.961167 g / cm^3
# Si number density = 19.656412 Si / 1000 Ang^3
#
#
#
# Elastic Constant Matrix: (Units=GPa)
#
#
# Indices 1 2 3 4 5 6 
#
# 1 64.8608 37.2596 13.0685 0.0000 0.0000 0.0000
# 2 37.2596 114.2364 23.9964 0.0000 0.0000 0.0000
# 3 13.0685 23.9964 17.5666 0.0000 0.0000 0.0000
# 4 0.0000 0.0000 0.0000 29.1542 0.0000 0.0000
# 5 0.0000 0.0000 0.0000 0.0000 12.7898 0.0000
# 6 0.0000 0.0000 0.0000 0.0000 0.0000 28.6963
#
#
#
# Elastic Compliance Matrix: (Units=1/GPa)
#
#
# Indices 1 2 3 4 5 6 
#
# 1 0.019796 -0.004717 -0.008284 0.000000 0.000000 0.000000
# 2 -0.004717 0.013400 -0.014796 0.000000 0.000000 0.000000
# 3 -0.008284 -0.014796 0.083301 0.000000 0.000000 0.000000
# 4 0.000000 0.000000 0.000000 0.034300 0.000000 0.000000
# 5 0.000000 0.000000 0.000000 0.000000 0.078188 0.000000
# 6 0.000000 0.000000 0.000000 0.000000 0.000000 0.034848
#
#
# Mechanical properties :
#
#
# Convention : Reuss Voigt Hill
#
# Bulk Modulus (GPa) = 16.41939 38.36810 27.39375
# Shear Modulus (GPa) = 14.71764 22.28400 18.50082
#
# Velocity S-wave (km/s) = 2.73929 3.37066 3.07124
# Velocity P-wave (km/s) = 4.28676 5.89154 5.15202
#
# Compressibility (1/GPa) = 0.06090359
#
# Stress axis : x y z
#
# Youngs Moduli (GPa) = 50.51459 74.62558 12.00465
#
# Poissons Ratio (x) = 0.35198 0.09945
# Poissons Ratio (y) = 0.23826 0.17762
# Poissons Ratio (z) = 0.41847 1.10417
#
# Static dielectric constant tensor:
#      x y z
#    x 1.668670 0.000000 0.000000 
#    y 0.000000 1.719730 0.000000 
#    z 0.000000 0.000000 1.663610 
# 
# From -- ./inp_files/10027.got.cif
#   From: 2010.05.17/outbox.cif.g08.bks.cpg/sg58_6_cif.got.tgz:10027.got - 2010.06.03 14:20:14.
