data_PCOD9441591
_publ_section_title
;
Structure prediction by ZEFSAII (Michael W. Deem and Ramdas Pophale) SiO2 
 PCOD9441591
Probable space group: P N N M
;
_chemical_formula_sum "Si O2"
_cell_formula_units_Z 56
_cell_length_a 22.062149
_cell_length_b 10.693115
_cell_length_c 13.297849
_cell_angle_alpha 90.000000
_cell_angle_beta 90.000000
_cell_angle_gamma 90.000000
_cell_volume 3137.136733
_symmetry_space_group_name_H-M "P N N M"
_symmetry_group_IT_number 58
_symmetry_cell_setting 'orthorhombic'
loop_
_space_group_symop_operation_xyz
x,y,z
-x,-y,z
1/2+x,1/2-y,1/2-z
1/2-x,1/2+y,1/2-z
-x,-y,-z
x,y,-z
1/2-x,1/2+y,1/2+z
1/2+x,1/2-y,1/2+z
loop_
_atom_site_type_symbol
_atom_site_label
_atom_site_fract_x
_atom_site_fract_y
_atom_site_fract_z
Si Si1 0.776478 0.688380 0.886561
Si Si2 0.437521 0.232321 0.885937
Si Si3 0.663273 0.400938 0.265261
Si Si4 0.207391 0.573317 0.186281
Si Si5 0.161227 0.821830 0.764354
Si Si6 0.142334 0.492049 0.612865
Si Si7 0.079589 0.224088 0.384382
O O1 0.822152 0.792846 0.844921
O O2 0.804233 0.549093 0.879322
O O3 0.718327 0.686219 0.812898
O O4 0.757744 0.715842 0.000000
O O5 0.398337 0.303515 0.803057
O O6 0.413673 0.089275 0.881241
O O7 0.508935 0.245047 0.870173
O O8 0.423941 0.276813 0.000000
O O9 0.721087 0.399243 0.189326
O O10 0.661163 0.540237 0.310022
O O11 0.605101 0.370269 0.198073
O O12 0.171573 0.701280 0.165114
O O13 0.188157 0.531667 0.299758
O O14 0.168220 0.503024 0.500000
O O15 0.118005 0.352183 0.626883
O O16 0.087410 0.180036 0.500000
#
# Coordination Sequence:
#
# PCOD9441591 Si02
#       7
#     8   8   8   8   8   8   8
#     4  10  19  34  54  73  99 135 176 216 254 293
#     4   9  17  29  48  76 107 139 169 196 245 317
#     4  10  20  32  48  73 106 136 171 207 252 302
#     4   9  18  33  52  71  98 133 174 213 248 296
#     4   9  19  33  51  73 106 135 165 206 256 309
#     4   9  16  30  52  77 104 134 169 211 252 295
#     4  10  19  30  48  77 111 139 165 202 250 308
#
# _framework density 17.850671999999999
#
# number of rings (size 3 to 8) (size 9 to 14) (size 15 to 20)
#    0.000    2.571    1.429    0.857    0.000    8.571 
#    0.000    2.143    0.000    0.000    0.000   10.000 
#    0.000    0.000    0.000    0.000    0.000    0.000 
#
# Total GULP energy -312111.562039 kJ/mol
# GULP energy per Si atom -5573.420751 kJ/mol
# Density = 1.781004 g / cm^3
# Si number density = 17.850672 Si / 1000 Ang^3
#
#
#
# Elastic Constant Matrix: (Units=GPa)
#
#
# Indices 1 2 3 4 5 6 
#
# 1 34.0668 2.3033 1.7401 0.0000 0.0000 0.0000
# 2 2.3033 106.9233 16.0305 0.0000 0.0000 0.0000
# 3 1.7401 16.0305 21.8169 0.0000 0.0000 0.0000
# 4 0.0000 0.0000 0.0000 2.7288 0.0000 0.0000
# 5 0.0000 0.0000 0.0000 0.0000 19.7430 0.0000
# 6 0.0000 0.0000 0.0000 0.0000 0.0000 16.3752
#
#
#
# Elastic Compliance Matrix: (Units=1/GPa)
#
#
# Indices 1 2 3 4 5 6 
#
# 1 0.029484 -0.000318 -0.002118 0.000000 0.000000 0.000000
# 2 -0.000318 0.010514 -0.007700 0.000000 0.000000 0.000000
# 3 -0.002118 -0.007700 0.051663 0.000000 0.000000 0.000000
# 4 0.000000 0.000000 0.000000 0.366467 0.000000 0.000000
# 5 0.000000 0.000000 0.000000 0.000000 0.050651 0.000000
# 6 0.000000 0.000000 0.000000 0.000000 0.000000 0.061068
#
#
# Mechanical properties :
#
#
# Convention : Reuss Voigt Hill
#
# Bulk Modulus (GPa) = 14.00780 22.55053 18.27917
# Shear Modulus (GPa) = 8.14446 17.28493 12.71470
#
# Velocity S-wave (km/s) = 2.13833 3.11514 2.67175
# Velocity P-wave (km/s) = 3.73642 5.05955 4.44747
#
# Compressibility (1/GPa) = 0.07138878
#
# Stress axis : x y z
#
# Youngs Moduli (GPa) = 33.91694 95.11364 19.35636
#
# Poissons Ratio (x) = 0.03020 0.04100
# Poissons Ratio (y) = 0.01077 0.14904
# Poissons Ratio (z) = 0.07184 0.73236
#
# Static dielectric constant tensor:
#      x y z
#    x 1.586220 0.000000 0.000000 
#    y 0.000000 1.680570 0.000000 
#    z 0.000000 0.000000 1.587220 
# 
# From -- ./inp_files/14772.got.cif
#   From: 2010.05.17/outbox.cif.g08.bks.cpg/sg58_8_cif.got.tgz:14772.got - 2010.06.03 14:20:14.
