data_PCOD9441933
_publ_section_title
;
Structure prediction by ZEFSAII (Michael W. Deem and Ramdas Pophale) SiO2 
 PCOD9441933
Probable space group: P N N M
;
_chemical_formula_sum "Si O2"
_cell_formula_units_Z 56
_cell_length_a 12.210008
_cell_length_b 12.431132
_cell_length_c 19.233480
_cell_angle_alpha 90.000000
_cell_angle_beta 90.000000
_cell_angle_gamma 90.000000
_cell_volume 2919.338782
_symmetry_space_group_name_H-M "P N N M"
_symmetry_group_IT_number 58
_symmetry_cell_setting 'orthorhombic'
loop_
_space_group_symop_operation_xyz
x,y,z
-x,-y,z
1/2+x,1/2-y,1/2-z
1/2-x,1/2+y,1/2-z
-x,-y,-z
x,y,-z
1/2-x,1/2+y,1/2+z
1/2+x,1/2-y,1/2+z
loop_
_atom_site_type_symbol
_atom_site_label
_atom_site_fract_x
_atom_site_fract_y
_atom_site_fract_z
Si Si1 0.551270 0.197965 0.417466
Si Si2 0.126722 0.248231 0.320628
Si Si3 0.388537 0.309697 0.182377
Si Si4 0.673722 0.084197 0.697018
Si Si5 0.619892 0.047905 0.082945
Si Si6 0.140392 0.655418 0.187551
Si Si7 0.750854 0.842393 0.917225
O O1 0.540117 0.184217 0.500000
O O2 0.627419 0.109502 0.379747
O O3 0.437373 0.185948 0.376891
O O4 0.623400 0.306729 0.404403
O O5 0.133927 0.319717 0.248728
O O6 0.131141 0.340326 0.378656
O O7 0.232754 0.175080 0.327900
O O8 0.016914 0.178838 0.329837
O O9 0.305550 0.407749 0.195760
O O10 0.385824 0.236103 0.250636
O O11 0.329212 0.239779 0.122353
O O12 0.629041 0.966755 0.714227
O O13 0.500000 0.000000 0.099694
O O14 0.713040 0.961642 0.104120
O O15 0.625549 0.061477 0.000000
O O16 0.732809 0.833415 0.000000
#
# Coordination Sequence:
#
# PCOD9441933 Si02
#       7
#     8   8   8   8   8   8   8
#     4  10  21  38  60  84 113 150 194 238 278 334
#     4  11  22  36  58  82 115 148 184 235 284 342
#     4  10  20  36  56  83 114 145 186 234 283 335
#     4  10  22  37  58  82 110 149 193 232 279 338
#     4  10  19  32  56  87 112 144 187 231 284 341
#     4  11  23  37  55  83 113 150 190 232 285 339
#     4   9  18  34  58  85 113 146 188 234 281 334
#
# _framework density 19.182426
#
# number of rings (size 3 to 8) (size 9 to 14) (size 15 to 20)
#    0.000    1.857    2.857    1.286    0.000    2.286 
#    0.000    0.714    0.000    2.571    0.000    6.000 
#    0.000    0.000    0.000    0.000    0.000    0.000 
#
# Total GULP energy -312233.324189 kJ/mol
# GULP energy per Si atom -5575.595075 kJ/mol
# Density = 1.913877 g / cm^3
# Si number density = 19.182426 Si / 1000 Ang^3
#
#
#
# Elastic Constant Matrix: (Units=GPa)
#
#
# Indices 1 2 3 4 5 6 
#
# 1 149.8865 23.6697 33.5983 0.0000 0.0000 0.0000
# 2 23.6697 35.6618 20.8643 0.0000 0.0000 0.0000
# 3 33.5983 20.8643 60.9240 0.0000 0.0000 0.0000
# 4 0.0000 0.0000 0.0000 26.8858 0.0000 0.0000
# 5 0.0000 0.0000 0.0000 0.0000 12.4486 0.0000
# 6 0.0000 0.0000 0.0000 0.0000 0.0000 7.7478
#
#
#
# Elastic Compliance Matrix: (Units=1/GPa)
#
#
# Indices 1 2 3 4 5 6 
#
# 1 0.007926 -0.003381 -0.003213 0.000000 0.000000 0.000000
# 2 -0.003381 0.036509 -0.010639 0.000000 0.000000 0.000000
# 3 -0.003213 -0.010639 0.021829 0.000000 0.000000 0.000000
# 4 0.000000 0.000000 0.000000 0.037194 0.000000 0.000000
# 5 0.000000 0.000000 0.000000 0.000000 0.080330 0.000000
# 6 0.000000 0.000000 0.000000 0.000000 0.000000 0.129069
#
#
# Mechanical properties :
#
#
# Convention : Reuss Voigt Hill
#
# Bulk Modulus (GPa) = 31.44731 44.74855 38.09793
# Shear Modulus (GPa) = 13.96950 20.63912 17.30431
#
# Velocity S-wave (km/s) = 2.70153 3.28371 3.00674
# Velocity P-wave (km/s) = 5.11473 6.14455 5.65314
#
# Compressibility (1/GPa) = 0.03179922
#
# Stress axis : x y z
#
# Youngs Moduli (GPa) = 126.16949 27.39027 45.81008
#
# Poissons Ratio (x) = 0.09260 0.14720
# Poissons Ratio (y) = 0.42654 0.48736
# Poissons Ratio (z) = 0.40540 0.29140
#
# Static dielectric constant tensor:
#      x y z
#    x 1.732400 0.000000 0.000000 
#    y 0.000000 1.668540 0.000000 
#    z 0.000000 0.000000 1.668740 
# 
# From -- ./inp_files/29626.got.cif
#   From: 2010.05.17/outbox.cif.g08.bks.cpg/sg58_15_cif.got.tgz:29626.got - 2010.06.03 14:20:14.
