data_PCOD9441660
_publ_section_title
;
Structure prediction by ZEFSAII (Michael W. Deem and Ramdas Pophale) SiO2 
 PCOD9441660
Probable space group: P N N M
;
_chemical_formula_sum "Si O2"
_cell_formula_units_Z 56
_cell_length_a 20.001615
_cell_length_b 17.875956
_cell_length_c 7.547889
_cell_angle_alpha 90.000000
_cell_angle_beta 90.000000
_cell_angle_gamma 90.000000
_cell_volume 2698.732538
_symmetry_space_group_name_H-M "P N N M"
_symmetry_group_IT_number 58
_symmetry_cell_setting 'orthorhombic'
loop_
_space_group_symop_operation_xyz
x,y,z
-x,-y,z
1/2+x,1/2-y,1/2-z
1/2-x,1/2+y,1/2-z
-x,-y,-z
x,y,-z
1/2-x,1/2+y,1/2+z
1/2+x,1/2-y,1/2+z
loop_
_atom_site_type_symbol
_atom_site_label
_atom_site_fract_x
_atom_site_fract_y
_atom_site_fract_z
Si Si1 0.216129 0.502054 0.789462
Si Si2 0.072543 0.487092 0.203127
Si Si3 0.356225 0.549166 0.286937
Si Si4 0.889675 0.679419 0.710752
Si Si5 0.391544 0.380580 0.282287
Si Si6 0.037224 0.170325 0.786775
Si Si7 0.753305 0.166018 0.201212
O O1 0.141691 0.522182 0.724009
O O2 0.278217 0.557140 0.761408
O O3 0.237113 0.423354 0.701290
O O4 0.210851 0.487770 0.000000
O O5 0.086438 0.398296 0.206719
O O6 0.000000 0.500000 0.287623
O O7 0.067516 0.514441 0.000000
O O8 0.359520 0.549056 0.500000
O O9 0.380517 0.466809 0.227168
O O10 0.406321 0.612619 0.220580
O O11 0.883574 0.666462 0.500000
O O12 0.940055 0.746488 0.742220
O O13 0.814845 0.699423 0.779878
O O14 0.389696 0.379939 0.500000
O O15 0.463235 0.350893 0.224050
O O16 0.327555 0.332282 0.219883
O O17 0.035633 0.163678 0.000000
O O18 0.758565 0.194197 0.000000
#
# Coordination Sequence:
#
# PCOD9441660 Si02
#       7
#     8   8   8   8   8   8   8
#     4   9  16  27  47  73  95 116 148 192 237 279
#     4   9  18  34  55  75  94 121 161 205 243 283
#     4   9  17  30  48  70  97 129 163 197 236 285
#     4  10  20  33  49  71  99 128 157 194 245 296
#     4   8  14  28  51  73  89 116 165 208 231 266
#     4  10  19  31  49  71  97 130 164 199 237 281
#     4   8  15  30  50  67  86 117 155 192 230 278
#
# _framework density 20.750481000000001
#
# number of rings (size 3 to 8) (size 9 to 14) (size 15 to 20)
#    0.000    3.000    0.000    2.143    0.000    3.714 
#    0.000    4.286    0.000   11.143    0.000    0.000 
#    0.000    0.000    0.000    0.000    0.000    0.000 
#
# Total GULP energy -311992.957882 kJ/mol
# GULP energy per Si atom -5571.302819 kJ/mol
# Density = 2.070325 g / cm^3
# Si number density = 20.750481 Si / 1000 Ang^3
#
#
#
# Elastic Constant Matrix: (Units=GPa)
#
#
# Indices 1 2 3 4 5 6 
#
# 1 218.0897 41.5600 2.5094 0.0000 0.0000 0.0000
# 2 41.5600 29.1599 -5.3489 0.0000 0.0000 0.0000
# 3 2.5094 -5.3489 60.5410 0.0000 0.0000 0.0000
# 4 0.0000 0.0000 0.0000 11.5243 0.0000 0.0000
# 5 0.0000 0.0000 0.0000 0.0000 23.4750 0.0000
# 6 0.0000 0.0000 0.0000 0.0000 0.0000 16.1426
#
#
#
# Elastic Compliance Matrix: (Units=1/GPa)
#
#
# Indices 1 2 3 4 5 6 
#
# 1 0.006364 -0.009269 -0.001083 0.000000 0.000000 0.000000
# 2 -0.009269 0.048358 0.004657 0.000000 0.000000 0.000000
# 3 -0.001083 0.004657 0.016974 0.000000 0.000000 0.000000
# 4 0.000000 0.000000 0.000000 0.086773 0.000000 0.000000
# 5 0.000000 0.000000 0.000000 0.000000 0.042598 0.000000
# 6 0.000000 0.000000 0.000000 0.000000 0.000000 0.061948
#
#
# Mechanical properties :
#
#
# Convention : Reuss Voigt Hill
#
# Bulk Modulus (GPa) = 16.58195 42.80353 29.69274
# Shear Modulus (GPa) = 16.97747 28.16639 22.57193
#
# Velocity S-wave (km/s) = 2.86347 3.68827 3.30173
# Velocity P-wave (km/s) = 4.35214 6.22979 5.37361
#
# Compressibility (1/GPa) = 0.06030653
#
# Stress axis : x y z
#
# Youngs Moduli (GPa) = 157.13258 20.67896 58.91354
#
# Poissons Ratio (x) = 0.19167 0.06379
# Poissons Ratio (y) = 1.45645 -0.27434
# Poissons Ratio (z) = 0.17013 -0.09630
#
# Static dielectric constant tensor:
#      x y z
#    x 1.818110 0.000000 0.000000 
#    y 0.000000 1.680990 0.000000 
#    z 0.000000 0.000000 1.821610 
# 
# From -- ./inp_files/8109.got.cif
#   From: 2010.05.17/outbox.cif.g08.bks.cpg/sg58_5_cif.got.tgz:8109.got - 2010.06.03 14:20:14.
