data_PCOD9441594
_publ_section_title
;
Structure prediction by ZEFSAII (Michael W. Deem and Ramdas Pophale) SiO2 
 PCOD9441594
Probable space group: P N N M
;
_chemical_formula_sum "Si O2"
_cell_formula_units_Z 64
_cell_length_a 15.753289
_cell_length_b 24.694898
_cell_length_c 8.750254
_cell_angle_alpha 90.000000
_cell_angle_beta 90.000000
_cell_angle_gamma 90.000000
_cell_volume 3404.075131
_symmetry_space_group_name_H-M "P N N M"
_symmetry_group_IT_number 58
_symmetry_cell_setting 'orthorhombic'
loop_
_space_group_symop_operation_xyz
x,y,z
-x,-y,z
1/2+x,1/2-y,1/2-z
1/2-x,1/2+y,1/2-z
-x,-y,-z
x,y,-z
1/2-x,1/2+y,1/2+z
1/2+x,1/2-y,1/2+z
loop_
_atom_site_type_symbol
_atom_site_label
_atom_site_fract_x
_atom_site_fract_y
_atom_site_fract_z
Si Si1 0.851694 0.076833 0.817178
Si Si2 0.460088 0.610559 0.682687
Si Si3 0.485071 0.275600 0.184091
Si Si4 0.698950 0.691847 0.182651
Si Si5 0.297870 0.542246 0.315701
Si Si6 0.435444 0.921841 0.315878
Si Si7 0.379738 0.042819 0.683638
Si Si8 0.123415 0.310219 0.682698
O O1 0.815403 0.129466 0.733398
O O2 0.953297 0.076861 0.791739
O O3 0.812667 0.019981 0.765967
O O4 0.837560 0.083214 0.000000
O O5 0.453464 0.618740 0.500000
O O6 0.473792 0.668294 0.760700
O O7 0.376919 0.578761 0.735765
O O8 0.386451 0.276772 0.234488
O O9 0.544093 0.226311 0.236358
O O10 0.484048 0.275163 0.000000
O O11 0.787019 0.711092 0.254249
O O12 0.704578 0.694517 0.000000
O O13 0.298429 0.542060 0.500000
O O14 0.207396 0.562080 0.256569
O O15 0.430008 0.917437 0.500000
O O16 0.535090 0.924995 0.272804
O O17 0.390482 0.871179 0.240213
O O18 0.395885 0.979915 0.272551
O O19 0.373716 0.044460 0.500000
O O20 0.125911 0.309617 0.500000
#
# Coordination Sequence:
#
# PCOD9441594 Si02
#       8
#     8   8   8   8   8   8   8   8
#     4   9  17  31  52  77 107 140 177 219 260 308
#     4   9  18  33  52  74 104 141 178 217 261 311
#     4   9  21  40  56  75 107 141 176 223 271 312
#     4  10  20  36  57  80 106 139 177 220 268 317
#     4  10  19  30  48  78 110 141 175 212 261 317
#     4   9  19  37  57  77 103 138 177 217 261 312
#     4   9  19  35  53  75 108 142 173 213 260 313
#     4  11  22  37  58  83 107 136 177 225 270 315
#
# _framework density 18.800993999999999
#
# number of rings (size 3 to 8) (size 9 to 14) (size 15 to 20)
#    0.000    2.500    0.000    2.625    0.000    7.000 
#    2.250    1.250    0.000    3.750    0.000    0.000 
#    0.000    0.000    0.000    0.000    0.000    0.000 
#
# Total GULP energy -357139.308633 kJ/mol
# GULP energy per Si atom -5580.301697 kJ/mol
# Density = 1.875820 g / cm^3
# Si number density = 18.800994 Si / 1000 Ang^3
#
#
#
# Elastic Constant Matrix: (Units=GPa)
#
#
# Indices 1 2 3 4 5 6 
#
# 1 137.6508 35.0609 27.0810 0.0000 0.0000 0.0000
# 2 35.0609 24.7796 9.7576 0.0000 0.0000 0.0000
# 3 27.0810 9.7576 13.3812 0.0000 0.0000 0.0000
# 4 0.0000 0.0000 0.0000 11.2621 0.0000 0.0000
# 5 0.0000 0.0000 0.0000 0.0000 32.8182 0.0000
# 6 0.0000 0.0000 0.0000 0.0000 0.0000 17.1633
#
#
#
# Elastic Compliance Matrix: (Units=1/GPa)
#
#
# Indices 1 2 3 4 5 6 
#
# 1 0.014374 -0.012461 -0.020004 0.000000 0.000000 0.000000
# 2 -0.012461 0.067414 -0.023939 0.000000 0.000000 0.000000
# 3 -0.020004 -0.023939 0.132673 0.000000 0.000000 0.000000
# 4 0.000000 0.000000 0.000000 0.088793 0.000000 0.000000
# 5 0.000000 0.000000 0.000000 0.000000 0.030471 0.000000
# 6 0.000000 0.000000 0.000000 0.000000 0.000000 0.058264
#
#
# Mechanical properties :
#
#
# Convention : Reuss Voigt Hill
#
# Bulk Modulus (GPa) = 9.83746 35.51228 22.67487
# Shear Modulus (GPa) = 9.28190 19.17620 14.22905
#
# Velocity S-wave (km/s) = 2.22433 3.19714 2.75403
# Velocity P-wave (km/s) = 3.44102 5.70600 4.71164
#
# Compressibility (1/GPa) = 0.10165228
#
# Stress axis : x y z
#
# Youngs Moduli (GPa) = 69.56854 14.83373 7.53731
#
# Poissons Ratio (x) = 0.18485 0.15078
# Poissons Ratio (y) = 0.86691 0.18044
# Poissons Ratio (z) = 1.39166 0.35511
#
# Static dielectric constant tensor:
#      x y z
#    x 1.673230 0.000000 0.000000 
#    y 0.000000 1.624010 0.000000 
#    z 0.000000 0.000000 1.634640 
# 
# From -- ./inp_files/6889.got.cif
#   From: 2010.05.17/outbox.cif.g08.bks.cpg/sg58_4_cif.got.tgz:6889.got - 2010.06.03 14:20:14.
