data_PCOD9441199
_publ_section_title
;
Structure prediction by ZEFSAII (Michael W. Deem and Ramdas Pophale) SiO2 
 PCOD9441199
Probable space group: P N N M
;
_chemical_formula_sum "Si O2"
_cell_formula_units_Z 64
_cell_length_a 10.055711
_cell_length_b 12.399494
_cell_length_c 27.028108
_cell_angle_alpha 90.000000
_cell_angle_beta 90.000000
_cell_angle_gamma 90.000000
_cell_volume 3370.019328
_symmetry_space_group_name_H-M "P N N M"
_symmetry_group_IT_number 58
_symmetry_cell_setting 'orthorhombic'
loop_
_space_group_symop_operation_xyz
x,y,z
-x,-y,z
1/2+x,1/2-y,1/2-z
1/2-x,1/2+y,1/2-z
-x,-y,-z
x,y,-z
1/2-x,1/2+y,1/2+z
1/2+x,1/2-y,1/2+z
loop_
_atom_site_type_symbol
_atom_site_label
_atom_site_fract_x
_atom_site_fract_y
_atom_site_fract_z
Si Si1 0.818857 0.069896 0.818176
Si Si2 0.624379 0.264020 0.839875
Si Si3 0.091012 0.142864 0.147575
Si Si4 0.797964 0.854994 0.556829
Si Si5 0.779962 0.106489 0.444251
Si Si6 0.840522 0.984211 0.711311
Si Si7 0.506935 0.214548 0.555703
Si Si8 0.825070 0.200554 0.342851
O O1 0.705637 0.155932 0.829083
O O2 0.962475 0.129670 0.817212
O O3 0.843928 0.975406 0.858205
O O4 0.795209 0.007753 0.766898
O O5 0.635404 0.292044 0.898129
O O6 0.687276 0.366579 0.810745
O O7 0.469111 0.259977 0.825044
O O8 0.039149 0.197239 0.097248
O O9 0.205595 0.219295 0.168717
O O10 0.835971 0.827384 0.500000
O O11 0.640141 0.832321 0.561641
O O12 0.820755 0.982861 0.563567
O O13 0.819305 0.136871 0.500000
O O14 0.620229 0.122502 0.440690
O O15 0.835053 0.183112 0.401870
O O16 0.789029 0.082801 0.678114
O O17 0.000000 0.000000 0.709744
O O18 0.517135 0.259664 0.500000
#
# Coordination Sequence:
#
# PCOD9441199 Si02
#       8
#     8   8   8   8   8   8   8   8
#     4  11  23  40  64  80 114 152 198 245 291 340
#     4  11  23  39  58  88 123 154 191 242 295 356
#     4  10  21  40  61  85 112 155 197 240 286 341
#     4  10  18  31  55  89 124 156 194 240 295 350
#     4   9  17  31  53  84 122 158 190 235 293 354
#     4  10  21  39  60  83 114 151 189 237 297 347
#     4   9  17  32  56  87 119 155 199 245 290 338
#     4  10  22  36  60  84 117 150 191 234 291 354
#
# _framework density 18.990988000000002
#
# number of rings (size 3 to 8) (size 9 to 14) (size 15 to 20)
#    0.000    2.000    3.750    0.375    1.750    2.500 
#    0.000    3.750    2.750    0.000    0.000    4.375 
#    0.000    0.000    0.000    0.000    0.000    0.000 
#
# Total GULP energy -356952.465455 kJ/mol
# GULP energy per Si atom -5577.382273 kJ/mol
# Density = 1.894776 g / cm^3
# Si number density = 18.990988 Si / 1000 Ang^3
#
#
#
# Elastic Constant Matrix: (Units=GPa)
#
#
# Indices 1 2 3 4 5 6 
#
# 1 61.8982 10.8914 -1.1797 0.0000 0.0000 0.0000
# 2 10.8914 52.5777 11.5186 0.0000 0.0000 0.0000
# 3 -1.1797 11.5186 61.8287 0.0000 0.0000 0.0000
# 4 0.0000 0.0000 0.0000 17.1596 0.0000 0.0000
# 5 0.0000 0.0000 0.0000 0.0000 16.5390 0.0000
# 6 0.0000 0.0000 0.0000 0.0000 0.0000 17.3878
#
#
#
# Elastic Compliance Matrix: (Units=1/GPa)
#
#
# Indices 1 2 3 4 5 6 
#
# 1 0.016827 -0.003707 0.001012 0.000000 0.000000 0.000000
# 2 -0.003707 0.020646 -0.003917 0.000000 0.000000 0.000000
# 3 0.001012 -0.003917 0.016923 0.000000 0.000000 0.000000
# 4 0.000000 0.000000 0.000000 0.058276 0.000000 0.000000
# 5 0.000000 0.000000 0.000000 0.000000 0.060463 0.000000
# 6 0.000000 0.000000 0.000000 0.000000 0.000000 0.057512
#
#
# Mechanical properties :
#
#
# Convention : Reuss Voigt Hill
#
# Bulk Modulus (GPa) = 24.28936 24.30724 24.29830
# Shear Modulus (GPa) = 19.41030 20.55558 19.98294
#
# Velocity S-wave (km/s) = 3.20047 3.29353 3.24733
# Velocity P-wave (km/s) = 5.14539 5.22401 5.18485
#
# Compressibility (1/GPa) = 0.04117029
#
# Stress axis : x y z
#
# Youngs Moduli (GPa) = 59.42764 48.43651 59.09208
#
# Poissons Ratio (x) = 0.17957 -0.05979
# Poissons Ratio (y) = 0.22032 0.23146
# Poissons Ratio (z) = -0.06013 0.18972
#
# Static dielectric constant tensor:
#      x y z
#    x 1.683500 0.000000 0.000000 
#    y 0.000000 1.639260 0.000000 
#    z 0.000000 0.000000 1.697520 
# 
# From -- ./inp_files/34759.got.cif
#   From: 2010.05.17/outbox.cif.g08.bks.cpg/sg58_18_cif.got.tgz:34759.got - 2010.06.03 14:20:14.
