data_PCOD9441334
_publ_section_title
;
Structure prediction by ZEFSAII (Michael W. Deem and Ramdas Pophale) SiO2 
 PCOD9441334
Probable space group: P N N M
;
_chemical_formula_sum "Si O2"
_cell_formula_units_Z 64
_cell_length_a 24.522119
_cell_length_b 15.850790
_cell_length_c 7.446024
_cell_angle_alpha 90.000000
_cell_angle_beta 90.000000
_cell_angle_gamma 90.000000
_cell_volume 2894.231991
_symmetry_space_group_name_H-M "P N N M"
_symmetry_group_IT_number 58
_symmetry_cell_setting 'orthorhombic'
loop_
_space_group_symop_operation_xyz
x,y,z
-x,-y,z
1/2+x,1/2-y,1/2-z
1/2-x,1/2+y,1/2-z
-x,-y,-z
x,y,-z
1/2-x,1/2+y,1/2+z
1/2+x,1/2-y,1/2+z
loop_
_atom_site_type_symbol
_atom_site_label
_atom_site_fract_x
_atom_site_fract_y
_atom_site_fract_z
Si Si1 0.370524 0.175463 0.219858
Si Si2 0.437773 0.011821 0.780486
Si Si3 0.375645 0.361859 0.206583
Si Si4 0.362270 0.857604 0.215515
Si Si5 0.941969 0.976151 0.205408
Si Si6 0.364866 0.668934 0.713119
Si Si7 0.745116 0.584961 0.282756
Si Si8 0.747643 0.887819 0.218501
O O1 0.410369 0.099898 0.274667
O O2 0.387470 0.268703 0.279905
O O3 0.308877 0.153636 0.278719
O O4 0.369994 0.177241 0.000000
O O5 0.500000 0.000000 0.723052
O O6 0.400298 0.933699 0.720627
O O7 0.437458 0.011585 0.000000
O O8 0.404519 0.440805 0.297875
O O9 0.310584 0.375381 0.213570
O O10 0.393602 0.364700 0.000000
O O11 0.382835 0.764648 0.259956
O O12 0.300141 0.869421 0.279854
O O13 0.360356 0.864803 0.000000
O O14 0.906670 0.900311 0.287600
O O15 0.954132 0.949442 0.000000
O O16 0.000000 0.000000 0.289048
O O17 0.361008 0.652538 0.500000
O O18 0.303222 0.655903 0.782818
O O19 0.742649 0.588564 0.500000
O O20 0.749525 0.486457 0.232479
O O21 0.746344 0.884616 0.000000
#
# Coordination Sequence:
#
# PCOD9441334 Si02
#       8
#     8   8   8   8   8   8   8   8
#     4   9  17  30  49  76 106 139 177 214 265 327
#     4   9  17  31  51  75 105 141 180 218 261 320
#     4  11  22  34  55  85 114 141 174 227 283 324
#     4  10  20  33  55  84 110 140 180 229 272 313
#     4  10  22  41  61  78 103 148 197 228 263 328
#     4  10  20  35  56  78 104 142 180 221 274 330
#     4  10  18  33  56  79 108 145 184 220 263 328
#     4   9  15  29  53  74  99 139 181 214 255 320
#
# _framework density 22.112946000000001
#
# number of rings (size 3 to 8) (size 9 to 14) (size 15 to 20)
#    0.000    2.250    2.500    1.125    0.000    3.250 
#    0.000    1.250    0.000    2.625    0.000    0.000 
#    0.000    0.000    0.000    0.000    0.000    0.000 
#
# Total GULP energy -357652.119929 kJ/mol
# GULP energy per Si atom -5588.314374 kJ/mol
# Density = 2.206262 g / cm^3
# Si number density = 22.112946 Si / 1000 Ang^3
#
#
#
# Elastic Constant Matrix: (Units=GPa)
#
#
# Indices 1 2 3 4 5 6 
#
# 1 128.3336 51.5658 -5.2448 0.0000 0.0000 0.0000
# 2 51.5658 161.1200 -10.3651 0.0000 0.0000 0.0000
# 3 -5.2448 -10.3651 65.9274 0.0000 0.0000 0.0000
# 4 0.0000 0.0000 0.0000 14.6707 0.0000 0.0000
# 5 0.0000 0.0000 0.0000 0.0000 53.6221 0.0000
# 6 0.0000 0.0000 0.0000 0.0000 0.0000 -2.1904
#
#
#
# Elastic Compliance Matrix: (Units=1/GPa)
#
#
# Indices 1 2 3 4 5 6 
#
# 1 0.008947 -0.002846 0.000264 0.000000 0.000000 0.000000
# 2 -0.002846 0.007176 0.000902 0.000000 0.000000 0.000000
# 3 0.000264 0.000902 0.015331 0.000000 0.000000 0.000000
# 4 0.000000 0.000000 0.000000 0.068163 0.000000 0.000000
# 5 0.000000 0.000000 0.000000 0.000000 0.018649 0.000000
# 6 0.000000 0.000000 0.000000 0.000000 0.000000 -0.456543
#
#
# Mechanical properties :
#
#
# Convention : Reuss Voigt Hill
#
# Bulk Modulus (GPa) = 35.59687 47.47699 41.53693
# Shear Modulus (GPa) = -15.35850 34.51548 9.57849
#
# Velocity S-wave (km/s) = -2.63829 3.95507 2.08351
# Velocity P-wave (km/s) = 2.61762 6.50950 4.96113
#
# Compressibility (1/GPa) = 0.02809236
#
# Stress axis : x y z
#
# Youngs Moduli (GPa) = 111.77325 139.36271 65.22740
#
# Poissons Ratio (x) = 0.39667 -0.01724
# Poissons Ratio (y) = 0.31815 -0.05882
# Poissons Ratio (z) = -0.02953 -0.12566
#
# Static dielectric constant tensor:
#      x y z
#    x 1.780050 0.000000 0.000000 
#    y 0.000000 1.781820 0.000000 
#    z 0.000000 0.000000 1.845590 
# 
# From -- ./inp_files/9999.got.cif
#   From: 2010.05.17/outbox.cif.g08.bks.cpg/sg58_5_cif.got.tgz:9999.got - 2010.06.03 14:20:14.
