data_PCOD9441354
_publ_section_title
;
Structure prediction by ZEFSAII (Michael W. Deem and Ramdas Pophale) SiO2 
 PCOD9441354
Probable space group: P N N M
;
_chemical_formula_sum "Si O2"
_cell_formula_units_Z 58
_cell_length_a 24.545484
_cell_length_b 13.913631
_cell_length_c 7.253514
_cell_angle_alpha 90.000000
_cell_angle_beta 90.000000
_cell_angle_gamma 90.000000
_cell_volume 2477.196941
_symmetry_space_group_name_H-M "P N N M"
_symmetry_group_IT_number 58
_symmetry_cell_setting 'orthorhombic'
loop_
_space_group_symop_operation_xyz
x,y,z
-x,-y,z
1/2+x,1/2-y,1/2-z
1/2-x,1/2+y,1/2-z
-x,-y,-z
x,y,-z
1/2-x,1/2+y,1/2+z
1/2+x,1/2-y,1/2+z
loop_
_atom_site_type_symbol
_atom_site_label
_atom_site_fract_x
_atom_site_fract_y
_atom_site_fract_z
Si Si1 0.622853 0.457818 0.211798
Si Si2 0.500000 0.000000 0.500000
Si Si3 0.032830 0.668763 0.279580
Si Si4 0.264463 0.273635 0.778147
Si Si5 0.914754 0.750308 0.278823
Si Si6 0.750025 0.946717 0.777919
Si Si7 0.834682 0.596221 0.704580
Si Si8 0.883709 0.165861 0.275269
O O1 0.606624 0.353441 0.291234
O O2 0.688644 0.467921 0.213819
O O3 0.599713 0.558558 0.287826
O O4 0.604269 0.453532 0.000000
O O5 0.474139 0.072786 0.338977
O O6 0.037590 0.648098 0.500000
O O7 0.081174 0.741374 0.223634
O O8 0.978033 0.731871 0.250621
O O9 0.212588 0.324129 0.693115
O O10 0.321383 0.317929 0.718962
O O11 0.262536 0.162386 0.733982
O O12 0.260009 0.284171 0.000000
O O13 0.903933 0.749037 0.500000
O O14 0.883753 0.655138 0.205811
O O15 0.699790 0.010456 0.707541
O O16 0.751181 0.959205 0.000000
O O17 0.852502 0.563569 0.500000
O O18 0.884967 0.163572 0.500000
#
# Coordination Sequence:
#
# PCOD9441354 Si02
#       8
#     8   2   8   8   8   8   8   8
#     4  10  18  33  59  88 121 158 208 249 291 379
#     4  12  26  48  72 100 124 152 230 272 304 394
#     4  10  23  46  71  94 128 171 205 266 333 367
#     4  10  19  33  53  81 116 157 205 252 304 377
#     4   9  19  36  62  89 120 164 209 256 317 380
#     4  10  20  31  48  80 118 159 195 243 318 369
#     4  10  19  33  53  81 116 157 205 252 304 377
#     4   9  19  36  62  89 120 164 209 256 317 380
#
# _framework density 23.413561999999999
#
# number of rings (size 3 to 8) (size 9 to 14) (size 15 to 20)
#    0.000    2.207    2.759    0.207    0.000    1.655 
#    4.966    6.897    3.034    0.828    0.000    0.000 
#    0.000    0.000    0.000    0.000    0.000    0.000 
#
# Total GULP energy -323355.940642 kJ/mol
# GULP energy per Si atom -5575.102425 kJ/mol
# Density = 2.336027 g / cm^3
# Si number density = 23.413562 Si / 1000 Ang^3
#
#
#
# Elastic Constant Matrix: (Units=GPa)
#
#
# Indices 1 2 3 4 5 6 
#
# 1 36.7044 -33.5789 -9.1280 0.0000 0.0000 0.0000
# 2 -33.5789 70.0267 5.2866 0.0000 0.0000 0.0000
# 3 -9.1280 5.2866 114.0034 0.0000 0.0000 0.0000
# 4 0.0000 0.0000 0.0000 -2.7185 0.0000 0.0000
# 5 0.0000 0.0000 0.0000 0.0000 3.6906 0.0000
# 6 0.0000 0.0000 0.0000 0.0000 0.0000 15.1175
#
#
#
# Elastic Compliance Matrix: (Units=1/GPa)
#
#
# Indices 1 2 3 4 5 6 
#
# 1 0.049456 0.023498 0.002870 0.000000 0.000000 0.000000
# 2 0.023498 0.025495 0.000699 0.000000 0.000000 0.000000
# 3 0.002870 0.000699 0.008969 0.000000 0.000000 0.000000
# 4 0.000000 0.000000 0.000000 -0.367856 0.000000 0.000000
# 5 0.000000 0.000000 0.000000 0.000000 0.270958 0.000000
# 6 0.000000 0.000000 0.000000 0.000000 0.000000 0.066149
#
#
# Mechanical properties :
#
#
# Convention : Reuss Voigt Hill
#
# Bulk Modulus (GPa) = 7.24351 16.21043 11.72697
# Shear Modulus (GPa) = 110.97648 20.42824 65.70236
#
# Velocity S-wave (km/s) = 6.89212 2.95701 5.30307
# Velocity P-wave (km/s) = 8.15080 4.31243 6.52045
#
# Compressibility (1/GPa) = 0.13805463
#
# Stress axis : x y z
#
# Youngs Moduli (GPa) = 20.22015 39.22308 111.49448
#
# Poissons Ratio (x) = -0.92167 -0.32001
# Poissons Ratio (y) = -0.47513 -0.07795
# Poissons Ratio (z) = -0.05803 -0.02742
#
# Static dielectric constant tensor:
#      x y z
#    x 1.820390 0.000000 0.000000 
#    y 0.000000 1.866120 0.000000 
#    z 0.000000 0.000000 2.178530 
# 
# From -- ./inp_files/10905.got.cif
#   From: 2010.05.17/outbox.cif.g08.bks.cpg/sg58_6_cif.got.tgz:10905.got - 2010.06.03 14:20:14.
