data_PCOD9441970
_publ_section_title
;
Structure prediction by ZEFSAII (Michael W. Deem and Ramdas Pophale) SiO2 
 PCOD9441970
Probable space group: P N N M
;
_chemical_formula_sum "Si O2"
_cell_formula_units_Z 64
_cell_length_a 23.042769
_cell_length_b 14.989136
_cell_length_c 7.256382
_cell_angle_alpha 90.000000
_cell_angle_beta 90.000000
_cell_angle_gamma 90.000000
_cell_volume 2506.290475
_symmetry_space_group_name_H-M "P N N M"
_symmetry_group_IT_number 58
_symmetry_cell_setting 'orthorhombic'
loop_
_space_group_symop_operation_xyz
x,y,z
-x,-y,z
1/2+x,1/2-y,1/2-z
1/2-x,1/2+y,1/2-z
-x,-y,-z
x,y,-z
1/2-x,1/2+y,1/2+z
1/2+x,1/2-y,1/2+z
loop_
_atom_site_type_symbol
_atom_site_label
_atom_site_fract_x
_atom_site_fract_y
_atom_site_fract_z
Si Si1 0.089032 0.041379 0.224555
Si Si2 0.288030 0.575060 0.288057
Si Si3 0.236459 0.868091 0.722621
Si Si4 0.632689 0.133148 0.276054
Si Si5 0.509100 0.184825 0.274948
Si Si6 0.179494 0.689566 0.723460
Si Si7 0.080274 0.552157 0.210084
Si Si8 0.966984 0.131592 0.776915
O O1 0.147871 0.085233 0.292460
O O2 0.029705 0.090401 0.272318
O O3 0.081305 0.938495 0.285035
O O4 0.091437 0.041386 0.000000
O O5 0.291877 0.604873 0.500000
O O6 0.275690 0.469054 0.283403
O O7 0.234883 0.631201 0.212274
O O8 0.235684 0.869281 0.500000
O O9 0.302297 0.843597 0.782844
O O10 0.191479 0.791368 0.781596
O O11 0.635179 0.135124 0.500000
O O12 0.576566 0.191018 0.222275
O O13 0.614734 0.032880 0.214001
O O14 0.507984 0.184917 0.500000
O O15 0.478877 0.093621 0.212155
O O16 0.470616 0.267879 0.211410
O O17 0.176563 0.687749 0.500000
O O18 0.123906 0.636073 0.791227
O O19 0.067293 0.525730 0.000000
O O20 0.963835 0.133046 0.000000
#
# Coordination Sequence:
#
# PCOD9441970 Si02
#       8
#     8   8   8   8   8   8   8   8
#     4   8  15  26  42  66 101 130 153 195 255 303
#     4  10  20  34  54  78 104 134 173 217 255 299
#     4  10  21  36  53  75 105 142 175 206 256 314
#     4   9  17  31  49  70  99 131 165 209 256 303
#     4   9  17  26  46  75  99 124 164 213 257 297
#     4  10  22  36  51  75 107 141 174 208 253 309
#     4  10  19  33  53  76 101 130 168 213 257 302
#     4   8  14  25  40  67 101 128 153 197 255 305
#
# _framework density 25.535748999999999
#
# number of rings (size 3 to 8) (size 9 to 14) (size 15 to 20)
#    0.000    2.750    1.250    1.125    3.500    2.000 
#    0.000    0.000    0.000    2.250    0.000    2.625 
#    0.000    0.000    0.000    0.000    0.000    0.000 
#
# Total GULP energy -357736.073368 kJ/mol
# GULP energy per Si atom -5589.626146 kJ/mol
# Density = 2.547763 g / cm^3
# Si number density = 25.535749 Si / 1000 Ang^3
#
#
#
# Elastic Constant Matrix: (Units=GPa)
#
#
# Indices 1 2 3 4 5 6 
#
# 1 69.5818 -16.9510 -5.9340 0.0000 0.0000 0.0000
# 2 -16.9510 82.9911 -10.6391 0.0000 0.0000 0.0000
# 3 -5.9340 -10.6391 119.6978 0.0000 0.0000 0.0000
# 4 0.0000 0.0000 0.0000 2.1081 0.0000 0.0000
# 5 0.0000 0.0000 0.0000 0.0000 0.7040 0.0000
# 6 0.0000 0.0000 0.0000 0.0000 0.0000 32.3490
#
#
#
# Elastic Compliance Matrix: (Units=1/GPa)
#
#
# Indices 1 2 3 4 5 6 
#
# 1 0.015252 0.003249 0.001045 0.000000 0.000000 0.000000
# 2 0.003249 0.012881 0.001306 0.000000 0.000000 0.000000
# 3 0.001045 0.001306 0.008522 0.000000 0.000000 0.000000
# 4 0.000000 0.000000 0.000000 0.474360 0.000000 0.000000
# 5 0.000000 0.000000 0.000000 0.000000 1.420450 0.000000
# 6 0.000000 0.000000 0.000000 0.000000 0.000000 0.030913
#
#
# Mechanical properties :
#
#
# Convention : Reuss Voigt Hill
#
# Bulk Modulus (GPa) = 20.89633 22.80249 21.84941
# Shear Modulus (GPa) = 2.54177 27.41854 14.98016
#
# Velocity S-wave (km/s) = 0.99877 3.28034 2.42468
# Velocity P-wave (km/s) = 3.08723 4.82665 4.05139
#
# Compressibility (1/GPa) = 0.04785530
#
# Stress axis : x y z
#
# Youngs Moduli (GPa) = 65.56412 77.63637 117.33989
#
# Poissons Ratio (x) = -0.25226 -0.12261
# Poissons Ratio (y) = -0.21303 -0.15324
# Poissons Ratio (z) = -0.06851 -0.10139
#
# Static dielectric constant tensor:
#      x y z
#    x 1.973830 0.000000 0.000000 
#    y 0.000000 1.998110 0.000000 
#    z 0.000000 0.000000 2.022240 
# 
# From -- ./inp_files/9995.got.cif
#   From: 2010.05.17/outbox.cif.g08.bks.cpg/sg58_5_cif.got.tgz:9995.got - 2010.06.03 14:20:14.
