data_PCOD9441109
_publ_section_title
;
Structure prediction by ZEFSAII (Michael W. Deem and Ramdas Pophale) SiO2 
 PCOD9441109
Probable space group: P N N M
;
_chemical_formula_sum "Si O2"
_cell_formula_units_Z 64
_cell_length_a 18.204335
_cell_length_b 21.475524
_cell_length_c 8.407450
_cell_angle_alpha 90.000000
_cell_angle_beta 90.000000
_cell_angle_gamma 90.000000
_cell_volume 3286.872679
_symmetry_space_group_name_H-M "P N N M"
_symmetry_group_IT_number 58
_symmetry_cell_setting 'orthorhombic'
loop_
_space_group_symop_operation_xyz
x,y,z
-x,-y,z
1/2+x,1/2-y,1/2-z
1/2-x,1/2+y,1/2-z
-x,-y,-z
x,y,-z
1/2-x,1/2+y,1/2+z
1/2+x,1/2-y,1/2+z
loop_
_atom_site_type_symbol
_atom_site_label
_atom_site_fract_x
_atom_site_fract_y
_atom_site_fract_z
Si Si1 0.031622 0.700204 0.310191
Si Si2 0.453434 0.561666 0.308454
Si Si3 0.209354 0.040078 0.309870
Si Si4 0.156533 0.608742 0.182878
Si Si5 0.429589 0.336642 0.692167
Si Si6 0.918024 0.524384 0.176729
Si Si7 0.724577 0.601915 0.693050
Si Si8 0.877849 0.647789 0.682478
O O1 0.026094 0.699827 0.500000
O O2 0.094271 0.650328 0.263483
O O3 0.057895 0.767129 0.251075
O O4 0.949283 0.683014 0.246889
O O5 0.500000 0.500000 0.271175
O O6 0.444735 0.563871 0.500000
O O7 0.373903 0.556093 0.232794
O O8 0.502449 0.620095 0.256529
O O9 0.218751 0.037955 0.500000
O O10 0.262155 0.096345 0.248729
O O11 0.226932 0.970390 0.246089
O O12 0.129174 0.537510 0.183838
O O13 0.161441 0.631018 0.000000
O O14 0.428328 0.336829 0.500000
O O15 0.352364 0.367262 0.744340
O O16 0.901313 0.575395 0.307181
O O17 0.000000 0.500000 0.189918
O O18 0.908165 0.553206 0.000000
O O19 0.726825 0.601686 0.500000
O O20 0.795010 0.642440 0.750819
O O21 0.870333 0.668875 0.500000
#
# Coordination Sequence:
#
# PCOD9441109 Si02
#       8
#     8   8   8   8   8   8   8   8
#     4  11  24  40  58  84 119 158 203 249 294 349
#     4  10  20  39  65  90 116 150 193 238 294 363
#     4  11  22  35  58  94 125 149 187 244 300 344
#     4  10  21  37  56  82 119 160 197 234 289 353
#     4  10  22  42  65  83 110 158 203 239 290 359
#     4  10  18  30  52  80 111 148 188 232 277 333
#     4  10  20  38  62  86 115 151 190 236 294 361
#     4  10  21  35  56  85 115 149 189 239 296 348
#
# _framework density 19.471397
#
# number of rings (size 3 to 8) (size 9 to 14) (size 15 to 20)
#    0.000    1.750    3.750    0.750    0.000    3.500 
#    2.250    0.000    0.000    0.000    0.000    0.000 
#    0.000    0.000    0.000    0.000    0.000    0.000 
#
# Total GULP energy -356770.273857 kJ/mol
# GULP energy per Si atom -5574.535529 kJ/mol
# Density = 1.942708 g / cm^3
# Si number density = 19.471397 Si / 1000 Ang^3
#
#
#
# Elastic Constant Matrix: (Units=GPa)
#
#
# Indices 1 2 3 4 5 6 
#
# 1 172.1442 53.6446 21.7808 0.0000 0.0000 0.0000
# 2 53.6446 81.4793 8.9762 0.0000 0.0000 0.0000
# 3 21.7808 8.9762 15.1353 0.0000 0.0000 0.0000
# 4 0.0000 0.0000 0.0000 9357.4238 0.0000 0.0000
# 5 0.0000 0.0000 0.0000 0.0000 9.6608 0.0000
# 6 0.0000 0.0000 0.0000 0.0000 0.0000 21.4253
#
#
#
# Elastic Compliance Matrix: (Units=1/GPa)
#
#
# Indices 1 2 3 4 5 6 
#
# 1 0.008402 -0.004493 -0.009426 0.000000 0.000000 0.000000
# 2 -0.004493 0.015534 -0.002746 0.000000 0.000000 0.000000
# 3 -0.009426 -0.002746 0.081265 0.000000 0.000000 0.000000
# 4 0.000000 0.000000 0.000000 0.000107 0.000000 0.000000
# 5 0.000000 0.000000 0.000000 0.000000 0.103512 0.000000
# 6 0.000000 0.000000 0.000000 0.000000 0.000000 0.046674
#
#
# Mechanical properties :
#
#
# Convention : Reuss Voigt Hill
#
# Bulk Modulus (GPa) = 13.91425 48.61798 31.26612
# Shear Modulus (GPa) = 15.98561 1889.99245 952.98903
#
# Velocity S-wave (km/s) = 2.86838 31.18907 22.14707
# Velocity P-wave (km/s) = 4.25813 36.35978 25.88595
#
# Compressibility (1/GPa) = 0.07186876
#
# Stress axis : x y z
#
# Youngs Moduli (GPa) = 119.01956 64.37535 12.30544
#
# Poissons Ratio (x) = 0.28926 0.11599
# Poissons Ratio (y) = 0.53479 0.03380
# Poissons Ratio (z) = 1.12192 0.17680
#
# Static dielectric constant tensor:
#      x y z
#    x 1.880140 0.000000 0.000000 
#    y 0.000000 1.641290 0.000000 
#    z 0.000000 0.000000 1.701820 
# 
# From -- ./inp_files/8373.got.cif
#   From: 2010.05.17/outbox.cif.g08.bks.cpg/sg58_5_cif.got.tgz:8373.got - 2010.06.03 14:20:14.
