data_PCOD9441489
_publ_section_title
;
Structure prediction by ZEFSAII (Michael W. Deem and Ramdas Pophale) SiO2 
 PCOD9441489
Probable space group: P N N M
;
_chemical_formula_sum "Si O2"
_cell_formula_units_Z 56
_cell_length_a 11.964244
_cell_length_b 31.363414
_cell_length_c 7.286682
_cell_angle_alpha 90.000000
_cell_angle_beta 90.000000
_cell_angle_gamma 90.000000
_cell_volume 2734.251186
_symmetry_space_group_name_H-M "P N N M"
_symmetry_group_IT_number 58
_symmetry_cell_setting 'orthorhombic'
loop_
_space_group_symop_operation_xyz
x,y,z
-x,-y,z
1/2+x,1/2-y,1/2-z
1/2-x,1/2+y,1/2-z
-x,-y,-z
x,y,-z
1/2-x,1/2+y,1/2+z
1/2+x,1/2-y,1/2+z
loop_
_atom_site_type_symbol
_atom_site_label
_atom_site_fract_x
_atom_site_fract_y
_atom_site_fract_z
Si Si1 0.619728 0.324802 0.225003
Si Si2 0.794449 0.253280 0.222853
Si Si3 0.484157 0.048589 0.724338
Si Si4 0.296927 0.109314 0.708471
Si Si5 0.657087 0.120946 0.274505
Si Si6 0.479857 0.185460 0.708121
Si Si7 0.129483 0.838809 0.289973
O O1 0.689151 0.282442 0.280072
O O2 0.689555 0.366543 0.286649
O O3 0.492409 0.328622 0.288769
O O4 0.622415 0.324063 0.000000
O O5 0.909679 0.275831 0.289202
O O6 0.801110 0.205166 0.286611
O O7 0.795945 0.253808 0.000000
O O8 0.480864 0.049696 0.500000
O O9 0.367957 0.070285 0.788176
O O10 0.587262 0.079163 0.778510
O O11 0.500000 0.000000 0.780750
O O12 0.266892 0.097119 0.500000
O O13 0.388301 0.147430 0.699526
O O14 0.655337 0.122138 0.500000
O O15 0.585993 0.162080 0.208697
O O16 0.784625 0.126244 0.213447
O O17 0.509487 0.197782 0.500000
O O18 0.108029 0.851376 0.500000
#
# Coordination Sequence:
#
# PCOD9441489 Si02
#       7
#     8   8   8   8   8   8   8
#     4   8  15  27  38  51  74 106 137 161 196 245
#     4   9  17  28  41  54  72 102 141 174 194 223
#     4   8  12  19  35  57  76  97 130 167 196 230
#     4   7  10  19  34  49  68  97 128 155 186 231
#     4   8  14  23  34  52  77 101 125 159 202 237
#     4   7  11  21  36  50  65  91 128 161 187 221
#     4  10  19  27  38  56  79 106 134 166 201 236
#
# _framework density 20.480930000000001
#
# number of rings (size 3 to 8) (size 9 to 14) (size 15 to 20)
#    0.000    3.857    0.000    3.429    2.000    0.000 
#    0.000    0.000    0.000    0.857    0.000    6.000 
#    0.000    0.571    0.000    3.000    0.000    8.571 
#
# Total GULP energy -311857.265366 kJ/mol
# GULP energy per Si atom -5568.879739 kJ/mol
# Density = 2.043431 g / cm^3
# Si number density = 20.480930 Si / 1000 Ang^3
#
#
#
# Elastic Constant Matrix: (Units=GPa)
#
#
# Indices 1 2 3 4 5 6 
#
# 1 159.3799 59.2686 2.9639 0.0000 0.0000 0.0000
# 2 59.2686 92.4214 -5.1047 0.0000 0.0000 0.0000
# 3 2.9639 -5.1047 87.1477 0.0000 0.0000 0.0000
# 4 0.0000 0.0000 0.0000 -0.5141 0.0000 0.0000
# 5 0.0000 0.0000 0.0000 0.0000 -14.0702 0.0000
# 6 0.0000 0.0000 0.0000 0.0000 0.0000 21.2138
#
#
#
# Elastic Compliance Matrix: (Units=1/GPa)
#
#
# Indices 1 2 3 4 5 6 
#
# 1 0.008270 -0.005336 -0.000594 0.000000 0.000000 0.000000
# 2 -0.005336 0.014298 0.001019 0.000000 0.000000 0.000000
# 3 -0.000594 0.001019 0.011555 0.000000 0.000000 0.000000
# 4 0.000000 0.000000 0.000000 -1.945168 0.000000 0.000000
# 5 0.000000 0.000000 0.000000 0.000000 -0.071072 0.000000
# 6 0.000000 0.000000 0.000000 0.000000 0.000000 0.047139
#
#
# Mechanical properties :
#
#
# Convention : Reuss Voigt Hill
#
# Bulk Modulus (GPa) = 41.15080 50.35606 45.75343
# Shear Modulus (GPa) = -2.60816 20.11398 8.75291
#
# Velocity S-wave (km/s) = -1.12970 3.13722 2.06953
# Velocity P-wave (km/s) = 4.29351 6.14516 5.30082
#
# Compressibility (1/GPa) = 0.02430086
#
# Stress axis : x y z
#
# Youngs Moduli (GPa) = 120.92380 69.93882 86.54516
#
# Poissons Ratio (x) = 0.37320 0.05139
# Poissons Ratio (y) = 0.64525 -0.08819
# Poissons Ratio (z) = 0.07181 -0.07127
#
# Static dielectric constant tensor:
#      x y z
#    x 1.781260 0.000000 0.000000 
#    y 0.000000 1.700930 0.000000 
#    z 0.000000 0.000000 3.080800 
# 
# From -- ./inp_files/14864.got.cif
#   From: 2010.05.17/outbox.cif.g08.bks.cpg/sg58_8_cif.got.tgz:14864.got - 2010.06.03 14:20:14.
