data_PCOD9441632
_publ_section_title
;
Structure prediction by ZEFSAII (Michael W. Deem and Ramdas Pophale) SiO2 
 PCOD9441632
Probable space group: P N N M
;
_chemical_formula_sum "Si O2"
_cell_formula_units_Z 48
_cell_length_a 32.853346
_cell_length_b 7.535448
_cell_length_c 7.161505
_cell_angle_alpha 90.000000
_cell_angle_beta 90.000000
_cell_angle_gamma 90.000000
_cell_volume 1772.935697
_symmetry_space_group_name_H-M "P N N M"
_symmetry_group_IT_number 58
_symmetry_cell_setting 'orthorhombic'
loop_
_space_group_symop_operation_xyz
x,y,z
-x,-y,z
1/2+x,1/2-y,1/2-z
1/2-x,1/2+y,1/2-z
-x,-y,-z
x,y,-z
1/2-x,1/2+y,1/2+z
1/2+x,1/2-y,1/2+z
loop_
_atom_site_type_symbol
_atom_site_label
_atom_site_fract_x
_atom_site_fract_y
_atom_site_fract_z
Si Si1 0.775299 0.024760 0.226021
Si Si2 0.313076 0.109927 0.290430
Si Si3 0.528534 0.247113 0.726296
Si Si4 0.157817 0.252436 0.772960
Si Si5 0.410066 0.473817 0.726824
Si Si6 0.938550 0.383832 0.226279
O O1 0.730122 0.994584 0.299156
O O2 0.799711 0.200223 0.290237
O O3 0.800860 0.850618 0.275482
O O4 0.772732 0.036213 0.000000
O O5 0.328313 0.149191 0.500000
O O6 0.342001 0.956572 0.208706
O O7 0.527646 0.248664 0.500000
O O8 0.547426 0.433809 0.781542
O O9 0.483189 0.192694 0.779439
O O10 0.559136 0.088095 0.784055
O O11 0.123754 0.112955 0.712691
O O12 0.155269 0.262850 0.000000
O O13 0.408567 0.470564 0.500000
O O14 0.407652 0.269799 0.787959
O O15 0.936201 0.389657 0.000000
#
# Coordination Sequence:
#
# PCOD9441632 Si02
#       6
#     8   8   8   8   8   8
#     4  10  19  31  48  66  85 111 143 181 222 263
#     4  10  19  31  48  66  85 111 143 181 222 263
#     4   8  13  20  30  45  65  92 129 168 202 241
#     4   9  18  29  39  58  83 105 138 182 221 261
#     4   9  15  22  33  47  69  99 128 166 214 251
#     4   8  13  20  30  45  65  92 129 168 202 241
#
# _framework density 27.073740999999998
#
# number of rings (size 3 to 8) (size 9 to 14) (size 15 to 20)
#    0.000    3.000    1.667    1.500    0.000    3.333 
#    0.000    6.667    0.000    0.000    0.000    0.000 
#    0.000    0.000    0.000    0.000    0.000   13.333 
#
# Total GULP energy -268312.163983 kJ/mol
# GULP energy per Si atom -5589.836750 kJ/mol
# Density = 2.701212 g / cm^3
# Si number density = 27.073741 Si / 1000 Ang^3
#
#
#
# Elastic Constant Matrix: (Units=GPa)
#
#
# Indices 1 2 3 4 5 6 
#
# 1 49.2334 9.5596 -9.9653 0.0000 0.0000 0.0000
# 2 9.5596 208.6893 -2.9620 0.0000 0.0000 0.0000
# 3 -9.9653 -2.9620 145.7600 0.0000 0.0000 0.0000
# 4 0.0000 0.0000 0.0000 -59.9999 0.0000 0.0000
# 5 0.0000 0.0000 0.0000 0.0000 21.9260 0.0000
# 6 0.0000 0.0000 0.0000 0.0000 0.0000 51.9899
#
#
#
# Elastic Compliance Matrix: (Units=1/GPa)
#
#
# Indices 1 2 3 4 5 6 
#
# 1 0.020776 -0.000932 0.001401 0.000000 0.000000 0.000000
# 2 -0.000932 0.004835 0.000035 0.000000 0.000000 0.000000
# 3 0.001401 0.000035 0.006957 0.000000 0.000000 0.000000
# 4 0.000000 0.000000 0.000000 -0.016667 0.000000 0.000000
# 5 0.000000 0.000000 0.000000 0.000000 0.045608 0.000000
# 6 0.000000 0.000000 0.000000 0.000000 0.000000 0.019235
#
#
# Mechanical properties :
#
#
# Convention : Reuss Voigt Hill
#
# Bulk Modulus (GPa) = 29.78269 44.10524 36.94397
# Shear Modulus (GPa) = 54.98884 29.91991 42.45437
#
# Velocity S-wave (km/s) = 4.51164 3.32795 3.96422
# Velocity P-wave (km/s) = 6.17772 5.57612 5.88462
#
# Compressibility (1/GPa) = 0.03357655
#
# Stress axis : x y z
#
# Youngs Moduli (GPa) = 48.13242 206.82580 143.73781
#
# Poissons Ratio (x) = 0.19272 -0.20145
# Poissons Ratio (y) = 0.04485 -0.00497
# Poissons Ratio (z) = -0.06746 -0.00714
#
# Static dielectric constant tensor:
#      x y z
#    x 2.137970 0.000000 0.000000 
#    y 0.000000 2.045900 0.000000 
#    z 0.000000 0.000000 0.057840 
# 
# From -- ./inp_files/17911.got.cif
#   From: 2010.05.17/outbox.cif.g08.bks.cpg/sg58_9_cif.got.tgz:17911.got - 2010.06.03 14:20:14.
