data_PCOD9441937
_publ_section_title
;
Structure prediction by ZEFSAII (Michael W. Deem and Ramdas Pophale) SiO2 
 PCOD9441937
Probable space group: P N N M
;
_chemical_formula_sum "Si O2"
_cell_formula_units_Z 32
_cell_length_a 8.605772
_cell_length_b 7.780701
_cell_length_c 19.708992
_cell_angle_alpha 90.000000
_cell_angle_beta 90.000000
_cell_angle_gamma 90.000000
_cell_volume 1319.693189
_symmetry_space_group_name_H-M "P N N M"
_symmetry_group_IT_number 58
_symmetry_cell_setting 'orthorhombic'
loop_
_space_group_symop_operation_xyz
x,y,z
-x,-y,z
1/2+x,1/2-y,1/2-z
1/2-x,1/2+y,1/2-z
-x,-y,-z
x,y,-z
1/2-x,1/2+y,1/2+z
1/2+x,1/2-y,1/2+z
loop_
_atom_site_type_symbol
_atom_site_label
_atom_site_fract_x
_atom_site_fract_y
_atom_site_fract_z
Si Si1 0.785888 0.862301 0.143031
Si Si2 0.183268 0.963552 0.271917
Si Si3 0.298189 0.662676 0.000000
Si Si4 0.599470 0.830987 0.372267
Si Si5 0.844160 0.253152 0.500000
O O1 0.764663 0.024496 0.193009
O O2 0.709061 0.709314 0.186597
O O3 0.966735 0.807986 0.141488
O O4 0.718631 0.847220 0.067516
O O5 0.292433 0.099145 0.311860
O O6 0.000000 0.000000 0.276581
O O7 0.207332 0.721820 0.066081
O O8 0.298500 0.451635 0.000000
O O9 0.470153 0.738905 0.000000
O O10 0.500000 0.000000 0.393970
#
# Coordination Sequence:
#
# PCOD9441937 Si02
#       5
#     8   8   4   8   4
#     4  11  23  39  64  95 128 165 209 260 315 372
#     4  11  22  39  61  93 129 164 207 256 313 373
#     4  11  18  33  60  90 124 158 219 265 298 357
#     4  10  19  32  56  89 123 157 203 259 305 355
#     4  11  21  36  64  91 123 165 219 262 304 373
#
# _framework density 24.248062000000001
#
# number of rings (size 3 to 8) (size 9 to 14) (size 15 to 20)
#    0.000    1.250    5.000    4.125    0.000    0.000 
#    0.000    3.125    0.000    3.000    0.000   23.625 
#    0.000    0.000    0.000    0.000    0.000    0.000 
#
# Total GULP energy -179099.257035 kJ/mol
# GULP energy per Si atom -5596.851782 kJ/mol
# Density = 2.419287 g / cm^3
# Si number density = 24.248062 Si / 1000 Ang^3
#
#
#
# Elastic Constant Matrix: (Units=GPa)
#
#
# Indices 1 2 3 4 5 6 
#
# 1 153.0899 11.2126 77.5198 0.0000 0.0000 0.0000
# 2 11.2126 73.7127 22.2745 0.0000 0.0000 0.0000
# 3 77.5198 22.2745 220.4477 0.0000 0.0000 0.0000
# 4 0.0000 0.0000 0.0000 51.9506 0.0000 0.0000
# 5 0.0000 0.0000 0.0000 0.0000 18.8612 0.0000
# 6 0.0000 0.0000 0.0000 0.0000 0.0000 17.0871
#
#
#
# Elastic Compliance Matrix: (Units=1/GPa)
#
#
# Indices 1 2 3 4 5 6 
#
# 1 0.007957 -0.000376 -0.002760 0.000000 0.000000 0.000000
# 2 -0.000376 0.014011 -0.001283 0.000000 0.000000 0.000000
# 3 -0.002760 -0.001283 0.005636 0.000000 0.000000 0.000000
# 4 0.000000 0.000000 0.000000 0.019249 0.000000 0.000000
# 5 0.000000 0.000000 0.000000 0.000000 0.053019 0.000000
# 6 0.000000 0.000000 0.000000 0.000000 0.000000 0.058524
#
#
# Mechanical properties :
#
#
# Convention : Reuss Voigt Hill
#
# Bulk Modulus (GPa) = 53.28981 74.36269 63.82625
# Shear Modulus (GPa) = 28.81983 39.99599 34.40791
#
# Velocity S-wave (km/s) = 3.45126 4.06575 3.77104
# Velocity P-wave (km/s) = 6.15681 7.26460 6.73353
#
# Compressibility (1/GPa) = 0.01876532
#
# Stress axis : x y z
#
# Youngs Moduli (GPa) = 125.67044 71.37124 177.41522
#
# Poissons Ratio (x) = 0.02686 0.48969
# Poissons Ratio (y) = 0.04730 0.22769
# Poissons Ratio (z) = 0.34687 0.09160
#
# Static dielectric constant tensor:
#      x y z
#    x 1.716450 0.000000 0.000000 
#    y 0.000000 2.044570 0.000000 
#    z 0.000000 0.000000 1.886990 
# 
# From -- ./inp_files/19126.got.cif
#   From: 2010.05.17/outbox.cif.g08.bks.cpg/sg58_10_cif.got.tgz:19126.got - 2010.06.03 14:20:14.
