data_PCOD9441881
_publ_section_title
;
Structure prediction by ZEFSAII (Michael W. Deem and Ramdas Pophale) SiO2 
 PCOD9441881
Probable space group: P N N M
;
_chemical_formula_sum "Si O2"
_cell_formula_units_Z 64
_cell_length_a 16.349262
_cell_length_b 22.043726
_cell_length_c 9.572953
_cell_angle_alpha 90.000000
_cell_angle_beta 90.000000
_cell_angle_gamma 90.000000
_cell_volume 3450.079355
_symmetry_space_group_name_H-M "P N N M"
_symmetry_group_IT_number 58
_symmetry_cell_setting 'orthorhombic'
loop_
_space_group_symop_operation_xyz
x,y,z
-x,-y,z
1/2+x,1/2-y,1/2-z
1/2-x,1/2+y,1/2-z
-x,-y,-z
x,y,-z
1/2-x,1/2+y,1/2+z
1/2+x,1/2-y,1/2+z
loop_
_atom_site_type_symbol
_atom_site_label
_atom_site_fract_x
_atom_site_fract_y
_atom_site_fract_z
Si Si1 0.320468 0.358952 0.842694
Si Si2 0.712453 0.783158 0.157897
Si Si3 0.023591 0.432157 0.659736
Si Si4 0.995389 0.073204 0.665571
Si Si5 0.745224 0.952466 0.340797
Si Si6 0.902593 0.365295 0.842288
Si Si7 0.282272 0.933418 0.157574
Si Si8 0.140461 0.136115 0.833420
O O1 0.317401 0.286039 0.844443
O O2 0.405857 0.395309 0.820636
O O3 0.262036 0.374600 0.714135
O O4 0.291721 0.377097 0.000000
O O5 0.654560 0.816918 0.266631
O O6 0.808495 0.800267 0.188495
O O7 0.699482 0.807960 0.000000
O O8 0.993016 0.426226 0.500000
O O9 0.120635 0.426973 0.659965
O O10 0.000000 0.500000 0.706931
O O11 0.981789 0.382136 0.754850
O O12 0.016359 0.075578 0.500000
O O13 0.057385 0.116010 0.753934
O O14 0.000000 0.000000 0.704058
O O15 0.777270 0.951707 0.500000
O O16 0.654075 0.925459 0.344825
O O17 0.796410 0.911057 0.235849
O O18 0.743722 0.017423 0.271476
O O19 0.921639 0.347409 0.000000
O O20 0.257835 0.950333 0.000000
O O21 0.129132 0.128982 0.000000
#
# Coordination Sequence:
#
# PCOD9441881 Si02
#       8
#     8   8   8   8   8   8   8   8
#     4  10  22  41  61  82 116 159 195 240 300 358
#     4   9  20  40  61  80 112 156 195 230 288 357
#     4  10  20  35  54  80 119 157 190 229 282 349
#     4  10  21  38  61  89 118 150 192 244 303 359
#     4  10  19  32  53  82 115 148 184 230 287 348
#     4  10  20  33  55  84 111 145 191 241 283 328
#     4  11  22  35  55  83 114 152 192 237 288 339
#     4  10  20  35  59  87 113 147 191 241 289 344
#
# _framework density 18.550298000000002
#
# number of rings (size 3 to 8) (size 9 to 14) (size 15 to 20)
#    0.000    2.000    1.250    2.250    0.000    5.000 
#    2.250    0.000    0.000    0.000    0.000    0.000 
#    0.000    0.000    0.000    0.000    0.000    0.000 
#
# Total GULP energy -356329.446482 kJ/mol
# GULP energy per Si atom -5567.647601 kJ/mol
# Density = 1.850808 g / cm^3
# Si number density = 18.550298 Si / 1000 Ang^3
#
#
#
# Elastic Constant Matrix: (Units=GPa)
#
#
# Indices 1 2 3 4 5 6 
#
# 1 69.9968 26.3515 36.6054 0.0000 0.0000 0.0000
# 2 26.3515 72.2885 41.4896 0.0000 0.0000 0.0000
# 3 36.6054 41.4896 83.5486 0.0000 0.0000 0.0000
# 4 0.0000 0.0000 0.0000 12.5090 0.0000 0.0000
# 5 0.0000 0.0000 0.0000 0.0000********** 0.0000
# 6 0.0000 0.0000 0.0000 0.0000 0.0000 20.3741
#
#
#
# Elastic Compliance Matrix: (Units=1/GPa)
#
#
# Indices 1 2 3 4 5 6 
#
# 1 0.018988 -0.003003 -0.006828 0.000000 0.000000 0.000000
# 2 -0.003003 0.019823 -0.008528 0.000000 0.000000 0.000000
# 3 -0.006828 -0.008528 0.019196 0.000000 0.000000 0.000000
# 4 0.000000 0.000000 0.000000 0.079942 0.000000 0.000000
# 5 0.000000 0.000000 0.000000 0.000000 -0.000086 0.000000
# 6 0.000000 0.000000 0.000000 0.000000 0.000000 0.049082
#
#
# Mechanical properties :
#
#
# Convention : Reuss Voigt Hill
#
# Bulk Modulus (GPa) = 46.97441 48.30300 47.63870
# Shear Modulus (GPa) = 21.66773 -2302.45249 -1140.39238
#
# Velocity S-wave (km/s) = 3.42139 -35.26881 -24.82119
# Velocity P-wave (km/s) = 6.40200 40.40325 28.20849
#
# Compressibility (1/GPa) = 0.02128819
#
# Stress axis : x y z
#
# Youngs Moduli (GPa) = 52.66622 50.44694 52.09501
#
# Poissons Ratio (x) = 0.15148 0.35570
# Poissons Ratio (y) = 0.15814 0.44428
# Poissons Ratio (z) = 0.35960 0.43023
#
# Static dielectric constant tensor:
#      x y z
#    x 1.667360 0.000000 0.000000 
#    y 0.000000 1.660670 0.000000 
#    z 0.000000 0.000000 1.640150 
# 
# From -- ./inp_files/6853.got.cif
#   From: 2010.05.17/outbox.cif.g08.bks.cpg/sg58_4_cif.got.tgz:6853.got - 2010.06.03 14:20:14.
