data_PCOD9441435
_publ_section_title
;
Structure prediction by ZEFSAII (Michael W. Deem and Ramdas Pophale) SiO2 
 PCOD9441435
Probable space group: P N N M
;
_chemical_formula_sum "Si O2"
_cell_formula_units_Z 40
_cell_length_a 16.882922
_cell_length_b 8.012931
_cell_length_c 12.814258
_cell_angle_alpha 90.000000
_cell_angle_beta 90.000000
_cell_angle_gamma 90.000000
_cell_volume 1733.534466
_symmetry_space_group_name_H-M "P N N M"
_symmetry_group_IT_number 58
_symmetry_cell_setting 'orthorhombic'
loop_
_space_group_symop_operation_xyz
x,y,z
-x,-y,z
1/2+x,1/2-y,1/2-z
1/2-x,1/2+y,1/2-z
-x,-y,-z
x,y,-z
1/2-x,1/2+y,1/2+z
1/2+x,1/2-y,1/2+z
loop_
_atom_site_type_symbol
_atom_site_label
_atom_site_fract_x
_atom_site_fract_y
_atom_site_fract_z
Si Si1 0.805338 0.759584 0.290076
Si Si2 0.376071 0.566073 0.612742
Si Si3 0.527466 0.767831 0.339125
Si Si4 0.522805 0.302313 0.883467
Si Si5 0.826196 0.471417 0.881512
O O1 0.817644 0.908862 0.207017
O O2 0.883950 0.770315 0.362164
O O3 0.808591 0.602940 0.210891
O O4 0.727655 0.808047 0.354764
O O5 0.337851 0.566980 0.500000
O O6 0.424533 0.398165 0.629564
O O7 0.440424 0.717285 0.620413
O O8 0.521141 0.781666 0.213841
O O9 0.581833 0.916843 0.378232
O O10 0.500000 0.500000 0.875540
O O11 0.501306 0.247043 0.000000
O O12 0.806441 0.527149 0.000000
#
# Coordination Sequence:
#
# PCOD9441435 Si02
#       5
#     8   8   8   8   8
#     4  11  24  42  63  96 129 173 223 270 322 400
#     4  10  18  35  61  92 128 166 212 266 323 384
#     4  10  19  37  62  96 124 166 218 264 314 391
#     4  10  20  40  68  95 128 171 215 263 322 383
#     4  12  26  44  66  94 135 177 216 275 338 385
#
# _framework density 23.074244
#
# number of rings (size 3 to 8) (size 9 to 14) (size 15 to 20)
#    0.000    1.400    4.000    4.800    0.000    3.200 
#    0.000   12.000    0.000    0.000    0.000    0.000 
#    0.000    0.000    0.000    0.000    0.000    0.000 
#
# Total GULP energy -223350.153125 kJ/mol
# GULP energy per Si atom -5583.753828 kJ/mol
# Density = 2.302173 g / cm^3
# Si number density = 23.074244 Si / 1000 Ang^3
#
#
#
# Elastic Constant Matrix: (Units=GPa)
#
#
# Indices 1 2 3 4 5 6 
#
# 1 93.8981 23.5934 10.1075 0.0000 0.0000 0.0000
# 2 23.5934 89.5580 1.2951 0.0000 0.0000 0.0000
# 3 10.1075 1.2951 144.7318 0.0000 0.0000 0.0000
# 4 0.0000 0.0000 0.0000 42.1603 0.0000 0.0000
# 5 0.0000 0.0000 0.0000 0.0000 -3.4520 0.0000
# 6 0.0000 0.0000 0.0000 0.0000 0.0000 32.3568
#
#
#
# Elastic Compliance Matrix: (Units=1/GPa)
#
#
# Indices 1 2 3 4 5 6 
#
# 1 0.011491 -0.003016 -0.000776 0.000000 0.000000 0.000000
# 2 -0.003016 0.011959 0.000104 0.000000 0.000000 0.000000
# 3 -0.000776 0.000104 0.006963 0.000000 0.000000 0.000000
# 4 0.000000 0.000000 0.000000 0.023719 0.000000 0.000000
# 5 0.000000 0.000000 0.000000 0.000000 -0.289691 0.000000
# 6 0.000000 0.000000 0.000000 0.000000 0.000000 0.030905
#
#
# Mechanical properties :
#
#
# Convention : Reuss Voigt Hill
#
# Bulk Modulus (GPa) = 43.40871 44.24220 43.82546
# Shear Modulus (GPa) = -26.37143 33.75916 3.69386
#
# Velocity S-wave (km/s) = -3.38434 3.82915 1.26662
# Velocity P-wave (km/s) = 1.89256 6.22618 4.60148
#
# Compressibility (1/GPa) = 0.02303685
#
# Stress axis : x y z
#
# Youngs Moduli (GPa) = 87.02353 83.61898 143.62532
#
# Poissons Ratio (x) = 0.25220 0.11138
# Poissons Ratio (y) = 0.26247 -0.01488
# Poissons Ratio (z) = 0.06749 -0.00866
#
# Static dielectric constant tensor:
#      x y z
#    x 1.964370 0.000000 0.000000 
#    y 0.000000 1.949240 0.000000 
#    z 0.000000 0.000000 1.840030 
# 
# From -- ./inp_files/22630.got.cif
#   From: 2010.05.17/outbox.cif.g08.bks.cpg/sg58_12_cif.got.tgz:22630.got - 2010.06.03 14:20:14.
