data_PCOD9441774
_publ_section_title
;
Structure prediction by ZEFSAII (Michael W. Deem and Ramdas Pophale) SiO2 
 PCOD9441774
Probable space group: P N N M
;
_chemical_formula_sum "Si O2"
_cell_formula_units_Z 64
_cell_length_a 14.774367
_cell_length_b 31.565966
_cell_length_c 8.700896
_cell_angle_alpha 90.000000
_cell_angle_beta 90.000000
_cell_angle_gamma 90.000000
_cell_volume 4057.812213
_symmetry_space_group_name_H-M "P N N M"
_symmetry_group_IT_number 58
_symmetry_cell_setting 'orthorhombic'
loop_
_space_group_symop_operation_xyz
x,y,z
-x,-y,z
1/2+x,1/2-y,1/2-z
1/2-x,1/2+y,1/2-z
-x,-y,-z
x,y,-z
1/2-x,1/2+y,1/2+z
1/2+x,1/2-y,1/2+z
loop_
_atom_site_type_symbol
_atom_site_label
_atom_site_fract_x
_atom_site_fract_y
_atom_site_fract_z
Si Si1 0.604808 0.952218 0.187684
Si Si2 0.814795 0.367938 0.319959
Si Si3 0.299906 0.710687 0.314656
Si Si4 0.488635 0.825192 0.823743
Si Si5 0.105615 0.451564 0.685308
Si Si6 0.502360 0.733134 0.683953
Si Si7 0.818730 0.631355 0.179798
Si Si8 0.201444 0.794549 0.183250
O O1 0.671124 0.915187 0.244952
O O2 0.499745 0.944078 0.231784
O O3 0.628449 0.000251 0.231809
O O4 0.605271 0.950729 0.000000
O O5 0.789291 0.372797 0.500000
O O6 0.748383 0.332057 0.254741
O O7 0.915158 0.348099 0.314477
O O8 0.287720 0.712352 0.500000
O O9 0.406951 0.710728 0.282431
O O10 0.253561 0.753253 0.249360
O O11 0.501941 0.776933 0.775706
O O12 0.414668 0.846153 0.715238
O O13 0.456030 0.828727 0.000000
O O14 0.107632 0.449322 0.500000
O O15 0.169926 0.415461 0.751106
O O16 0.503777 0.742031 0.500000
O O17 0.595008 0.709014 0.721801
O O18 0.745431 0.662471 0.254753
O O19 0.802546 0.628949 0.000000
O O20 0.210972 0.793383 0.000000
#
# Coordination Sequence:
#
# PCOD9441774 Si02
#       8
#     8   8   8   8   8   8   8   8
#     4   8  14  26  47  73  97 124 158 195 232 286
#     4   9  16  27  47  73  97 126 162 189 229 287
#     4  10  19  32  49  71  97 126 158 199 242 281
#     4  11  19  29  49  72  96 130 166 196 232 287
#     4   9  16  29  49  70  95 125 160 198 237 288
#     4  10  21  34  47  68 100 128 159 205 245 274
#     4  12  23  33  46  68  98 131 165 204 245 283
#     4  11  22  34  48  68  94 129 168 200 237 286
#
# _framework density 15.772045
#
# number of rings (size 3 to 8) (size 9 to 14) (size 15 to 20)
#    0.000    2.000    3.750    2.625    0.000    0.500 
#    0.000    1.250    0.000    0.000    0.000    0.875 
#    0.000    7.000    0.000    0.000    0.000    0.000 
#
# Total GULP energy -356786.200301 kJ/mol
# GULP energy per Si atom -5574.784380 kJ/mol
# Density = 1.573615 g / cm^3
# Si number density = 15.772045 Si / 1000 Ang^3
#
#
#
# Elastic Constant Matrix: (Units=GPa)
#
#
# Indices 1 2 3 4 5 6 
#
# 1 77.8857 56.7168 26.3147 0.0000 0.0000 0.0000
# 2 56.7168 148.8888 29.9375 0.0000 0.0000 0.0000
# 3 26.3147 29.9375 23.1179 0.0000 0.0000 0.0000
# 4 0.0000 0.0000 0.0000 17.2722 0.0000 0.0000
# 5 0.0000 0.0000 0.0000 0.0000 10.5429 0.0000
# 6 0.0000 0.0000 0.0000 0.0000 0.0000 22.0299
#
#
#
# Elastic Compliance Matrix: (Units=1/GPa)
#
#
# Indices 1 2 3 4 5 6 
#
# 1 0.023107 -0.004750 -0.020150 0.000000 0.000000 0.000000
# 2 -0.004750 0.010058 -0.007617 0.000000 0.000000 0.000000
# 3 -0.020150 -0.007617 0.076057 0.000000 0.000000 0.000000
# 4 0.000000 0.000000 0.000000 0.057896 0.000000 0.000000
# 5 0.000000 0.000000 0.000000 0.000000 0.094850 0.000000
# 6 0.000000 0.000000 0.000000 0.000000 0.000000 0.045393
#
#
# Mechanical properties :
#
#
# Convention : Reuss Voigt Hill
#
# Bulk Modulus (GPa) = 22.63153 52.87004 37.75079
# Shear Modulus (GPa) = 12.91571 19.09724 16.00648
#
# Velocity S-wave (km/s) = 2.86475 3.48347 3.18915
# Velocity P-wave (km/s) = 5.03216 7.05504 6.12765
#
# Compressibility (1/GPa) = 0.04418614
#
# Stress axis : x y z
#
# Youngs Moduli (GPa) = 43.27768 99.42676 13.14797
#
# Poissons Ratio (x) = 0.47232 0.26493
# Poissons Ratio (y) = 0.20559 0.10015
# Poissons Ratio (z) = 0.87205 0.75736
#
# Static dielectric constant tensor:
#      x y z
#    x 1.520470 0.000000 0.000000 
#    y 0.000000 1.547820 0.000000 
#    z 0.000000 0.000000 1.536240 
# 
# From -- ./inp_files/7168.got.cif
#   From: 2010.05.17/outbox.cif.g08.bks.cpg/sg58_4_cif.got.tgz:7168.got - 2010.06.03 14:20:14.
