data_PCOD9441442
_publ_section_title
;
Structure prediction by ZEFSAII (Michael W. Deem and Ramdas Pophale) SiO2 
 PCOD9441442
Probable space group: P N N M
;
_chemical_formula_sum "Si O2"
_cell_formula_units_Z 36
_cell_length_a 19.004953
_cell_length_b 10.497324
_cell_length_c 7.577620
_cell_angle_alpha 90.000000
_cell_angle_beta 90.000000
_cell_angle_gamma 90.000000
_cell_volume 1511.743899
_symmetry_space_group_name_H-M "P N N M"
_symmetry_group_IT_number 58
_symmetry_cell_setting 'orthorhombic'
loop_
_space_group_symop_operation_xyz
x,y,z
-x,-y,z
1/2+x,1/2-y,1/2-z
1/2-x,1/2+y,1/2-z
-x,-y,-z
x,y,-z
1/2-x,1/2+y,1/2+z
1/2+x,1/2-y,1/2+z
loop_
_atom_site_type_symbol
_atom_site_label
_atom_site_fract_x
_atom_site_fract_y
_atom_site_fract_z
Si Si1 0.585299 0.588036 0.500000
Si Si2 0.688567 0.648376 0.194369
Si Si3 0.148720 0.345124 0.288064
Si Si4 0.596491 0.877925 0.293499
Si Si5 0.018447 0.197599 0.297188
O O1 0.646576 0.574620 0.344840
O O2 0.525954 0.618851 0.343371
O O3 0.771447 0.659408 0.225351
O O4 0.656221 0.790908 0.206382
O O5 0.674824 0.594738 0.000000
O O6 0.147879 0.349247 0.500000
O O7 0.115092 0.475984 0.218578
O O8 0.097491 0.228865 0.237164
O O9 0.594761 0.835829 0.500000
O O10 0.523608 0.833347 0.208833
O O11 0.016766 0.152323 0.500000
#
# Coordination Sequence:
#
# PCOD9441442 Si02
#       5
#     4   8   8   8   8
#     4  10  18  36  53  74 112 146 177 218 273 330
#     4  11  21  36  54  77 110 152 187 223 273 333
#     4  11  22  35  53  85 116 143 189 231 269 330
#     4  11  20  34  54  79 114 151 181 222 282 330
#     4  10  20  33  54  82 112 147 179 223 280 337
#
# _framework density 23.813556999999999
#
# number of rings (size 3 to 8) (size 9 to 14) (size 15 to 20)
#    0.000    1.333    5.556    5.333    3.111    2.667 
#    0.000    0.000    0.000    0.000    0.000    7.778 
#    0.000   28.444    0.000    0.000    0.000    0.000 
#
# Total GULP energy -200432.345215 kJ/mol
# GULP energy per Si atom -5567.565145 kJ/mol
# Density = 2.375936 g / cm^3
# Si number density = 23.813557 Si / 1000 Ang^3
#
#
#
# Elastic Constant Matrix: (Units=GPa)
#
#
# Indices 1 2 3 4 5 6 
#
# 1 194.7962 23.7681 44.7287 0.0000 0.0000 0.0000
# 2 23.7681 71.7193 13.1624 0.0000 0.0000 0.0000
# 3 44.7287 13.1624 201.8684 0.0000 0.0000 0.0000
# 4 0.0000 0.0000 0.0000 15.0675 0.0000 0.0000
# 5 0.0000 0.0000 0.0000 0.0000 30.7288 0.0000
# 6 0.0000 0.0000 0.0000 0.0000 0.0000 7.0739
#
#
#
# Elastic Compliance Matrix: (Units=1/GPa)
#
#
# Indices 1 2 3 4 5 6 
#
# 1 0.005594 -0.001646 -0.001132 0.000000 0.000000 0.000000
# 2 -0.001646 0.014597 -0.000587 0.000000 0.000000 0.000000
# 3 -0.001132 -0.000587 0.005243 0.000000 0.000000 0.000000
# 4 0.000000 0.000000 0.000000 0.066368 0.000000 0.000000
# 5 0.000000 0.000000 0.000000 0.000000 0.032543 0.000000
# 6 0.000000 0.000000 0.000000 0.000000 0.000000 0.141365
#
#
# Mechanical properties :
#
#
# Convention : Reuss Voigt Hill
#
# Bulk Modulus (GPa) = 53.46750 70.18914 61.82832
# Shear Modulus (GPa) = 17.94207 36.35567 27.14887
#
# Velocity S-wave (km/s) = 2.74786 3.91151 3.38014
# Velocity P-wave (km/s) = 5.70692 7.06671 6.42290
#
# Compressibility (1/GPa) = 0.01870295
#
# Stress axis : x y z
#
# Youngs Moduli (GPa) = 178.74971 68.50944 190.73525
#
# Poissons Ratio (x) = 0.11278 0.21596
# Poissons Ratio (y) = 0.29426 0.11196
# Poissons Ratio (z) = 0.20239 0.04021
#
# Static dielectric constant tensor:
#      x y z
#    x 1.895580 0.000000 0.000000 
#    y 0.000000 2.679620 0.000000 
#    z 0.000000 0.000000 1.891660 
# 
# From -- ./inp_files/7533.got.cif
#   From: 2010.05.17/outbox.cif.g08.bks.cpg/sg58_4_cif.got.tgz:7533.got - 2010.06.03 14:20:14.
