data_PCOD9441253
_publ_section_title
;
Structure prediction by ZEFSAII (Michael W. Deem and Ramdas Pophale) SiO2 
 PCOD9441253
Probable space group: P N N M
;
_chemical_formula_sum "Si O2"
_cell_formula_units_Z 64
_cell_length_a 15.988664
_cell_length_b 24.588116
_cell_length_c 7.514446
_cell_angle_alpha 90.000000
_cell_angle_beta 90.000000
_cell_angle_gamma 90.000000
_cell_volume 2954.162611
_symmetry_space_group_name_H-M "P N N M"
_symmetry_group_IT_number 58
_symmetry_cell_setting 'orthorhombic'
loop_
_space_group_symop_operation_xyz
x,y,z
-x,-y,z
1/2+x,1/2-y,1/2-z
1/2-x,1/2+y,1/2-z
-x,-y,-z
x,y,-z
1/2-x,1/2+y,1/2+z
1/2+x,1/2-y,1/2+z
loop_
_atom_site_type_symbol
_atom_site_label
_atom_site_fract_x
_atom_site_fract_y
_atom_site_fract_z
Si Si1 0.159367 0.873351 0.206641
Si Si2 0.152188 0.636326 0.707596
Si Si3 0.499007 0.062254 0.217939
Si Si4 0.663265 0.365955 0.209651
Si Si5 0.593148 0.251603 0.783264
Si Si6 0.657284 0.134225 0.782042
Si Si7 0.001661 0.062175 0.785218
Si Si8 0.602332 0.746198 0.215393
O O1 0.251406 0.883802 0.282287
O O2 0.143151 0.808842 0.215073
O O3 0.078799 0.904259 0.283289
O O4 0.163244 0.889756 0.000000
O O5 0.130458 0.642118 0.500000
O O6 0.082669 0.595358 0.780337
O O7 0.246838 0.616128 0.719751
O O8 0.144513 0.697845 0.779521
O O9 0.581962 0.094930 0.271183
O O10 0.500000 0.000000 0.277152
O O11 0.497991 0.061402 0.000000
O O12 0.637211 0.306529 0.281888
O O13 0.587139 0.406949 0.240152
O O14 0.674314 0.359964 0.000000
O O15 0.636494 0.195853 0.725418
O O16 0.495457 0.252047 0.733665
O O17 0.594823 0.252166 0.000000
O O18 0.658773 0.134812 0.000000
O O19 0.997757 0.061548 0.000000
O O20 0.000000 0.000000 0.722703
O O21 0.607000 0.742991 0.000000
#
# Coordination Sequence:
#
# PCOD9441253 Si02
#       8
#     8   8   8   8   8   8   8   8
#     4  10  20  33  54  81 108 140 176 221 271 320
#     4  10  20  34  55  82 112 143 177 223 275 324
#     4   9  17  30  51  78 105 137 178 218 257 310
#     4  11  22  36  57  81 107 144 186 227 273 330
#     4   9  16  29  50  74 103 137 171 213 263 318
#     4   9  16  29  49  75 104 134 173 214 260 315
#     4  10  22  39  56  78 111 146 182 229 280 325
#     4  10  18  32  54  78 108 143 176 216 269 326
#
# _framework density 21.664345999999998
#
# number of rings (size 3 to 8) (size 9 to 14) (size 15 to 20)
#    0.000    2.250    2.500    1.125    0.000    2.750 
#    0.000    3.750    0.000    1.125    0.000    0.000 
#    0.000    0.000    0.000    0.000    0.000    0.000 
#
# Total GULP energy -357566.742607 kJ/mol
# GULP energy per Si atom -5586.980353 kJ/mol
# Density = 2.161504 g / cm^3
# Si number density = 21.664346 Si / 1000 Ang^3
#
#
#
# Elastic Constant Matrix: (Units=GPa)
#
#
# Indices 1 2 3 4 5 6 
#
# 1 182.3813 75.7792 -11.6400 0.0000 0.0000 0.0000
# 2 75.7792 147.7323 -7.3766 0.0000 0.0000 0.0000
# 3 -11.6400 -7.3766 53.5916 0.0000 0.0000 0.0000
# 4 0.0000 0.0000 0.0000 10.2894 0.0000 0.0000
# 5 0.0000 0.0000 0.0000 0.0000 0.7375 0.0000
# 6 0.0000 0.0000 0.0000 0.0000 0.0000 -0.0917
#
#
#
# Elastic Compliance Matrix: (Units=1/GPa)
#
#
# Indices 1 2 3 4 5 6 
#
# 1 0.007025 -0.003552 0.001037 0.000000 0.000000 0.000000
# 2 -0.003552 0.008611 0.000414 0.000000 0.000000 0.000000
# 3 0.001037 0.000414 0.018942 0.000000 0.000000 0.000000
# 4 0.000000 0.000000 0.000000 0.097188 0.000000 0.000000
# 5 0.000000 0.000000 0.000000 0.000000 1.355974 0.000000
# 6 0.000000 0.000000 0.000000 0.000000 0.000000-10.901433
#
#
# Mechanical properties :
#
#
# Convention : Reuss Voigt Hill
#
# Bulk Modulus (GPa) = 32.92004 55.24780 44.08392
# Shear Modulus (GPa) = -0.53195 23.98320 11.72562
#
# Velocity S-wave (km/s) = -0.49606 3.33082 2.32898
# Velocity P-wave (km/s) = 3.86010 6.35213 5.25595
#
# Compressibility (1/GPa) = 0.03037663
#
# Stress axis : x y z
#
# Youngs Moduli (GPa) = 142.35076 116.12409 52.79319
#
# Poissons Ratio (x) = 0.41243 -0.05474
# Poissons Ratio (y) = 0.50558 -0.02185
# Poissons Ratio (z) = -0.14761 -0.04806
#
# Static dielectric constant tensor:
#      x y z
#    x 1.769930 0.000000 0.000000 
#    y 0.000000 1.749930 0.000000 
#    z 0.000000 0.000000 1.835440 
# 
# From -- ./inp_files/6900.got.cif
#   From: 2010.05.17/outbox.cif.g08.bks.cpg/sg58_4_cif.got.tgz:6900.got - 2010.06.03 14:20:14.
