data_PCOD9441047
_publ_section_title
;
Structure prediction by ZEFSAII (Michael W. Deem and Ramdas Pophale) SiO2 
 PCOD9441047
Probable space group: P N N M
;
_chemical_formula_sum "Si O2"
_cell_formula_units_Z 48
_cell_length_a 14.253142
_cell_length_b 7.674801
_cell_length_c 20.938910
_cell_angle_alpha 90.000000
_cell_angle_beta 90.000000
_cell_angle_gamma 90.000000
_cell_volume 2290.507961
_symmetry_space_group_name_H-M "P N N M"
_symmetry_group_IT_number 58
_symmetry_cell_setting 'orthorhombic'
loop_
_space_group_symop_operation_xyz
x,y,z
-x,-y,z
1/2+x,1/2-y,1/2-z
1/2-x,1/2+y,1/2-z
-x,-y,-z
x,y,-z
1/2-x,1/2+y,1/2+z
1/2+x,1/2-y,1/2+z
loop_
_atom_site_type_symbol
_atom_site_label
_atom_site_fract_x
_atom_site_fract_y
_atom_site_fract_z
Si Si1 0.940522 0.833213 0.891353
Si Si2 0.265783 0.454847 0.573077
Si Si3 0.014485 0.707341 0.761236
Si Si4 0.649078 0.201490 0.816883
Si Si5 0.606273 0.897543 0.429568
Si Si6 0.690094 0.947636 0.299504
O O1 0.833863 0.885735 0.906188
O O2 0.961520 0.813702 0.815952
O O3 0.999164 0.673200 0.922272
O O4 0.000000 0.000000 0.914956
O O5 0.235432 0.480733 0.500000
O O6 0.182183 0.410501 0.622279
O O7 0.331044 0.281037 0.575097
O O8 0.961290 0.736201 0.694827
O O9 0.000000 0.500000 0.773011
O O10 0.125453 0.715077 0.773405
O O11 0.706721 0.379561 0.813636
O O12 0.682544 0.091765 0.754729
O O13 0.624880 0.968667 0.500000
O O14 0.644571 0.999132 0.367624
#
# Coordination Sequence:
#
# PCOD9441047 Si02
#       6
#     8   8   8   8   8   8
#     4   9  15  25  44  67  90 113 142 182 221 266
#     4   9  16  25  41  66  89 112 149 191 222 251
#     4   9  18  30  44  64  92 121 145 175 222 270
#     4  10  18  30  47  65  89 119 150 184 221 261
#     4   8  14  25  42  66  92 116 141 173 221 275
#     4   9  18  30  47  67  89 118 148 182 219 263
#
# _framework density 20.956049
#
# number of rings (size 3 to 8) (size 9 to 14) (size 15 to 20)
#    0.000    3.000    0.000    2.500    0.000    2.000 
#    0.000    0.000    0.000   53.000    0.000    0.000 
#    0.000    6.000    0.000    0.000    0.000    2.833 
#
# Total GULP energy -267445.981076 kJ/mol
# GULP energy per Si atom -5571.791272 kJ/mol
# Density = 2.090835 g / cm^3
# Si number density = 20.956049 Si / 1000 Ang^3
#
#
#
# Elastic Constant Matrix: (Units=GPa)
#
#
# Indices 1 2 3 4 5 6 
#
# 1 55.3757 -8.6769 24.6002 0.0000 0.0000 0.0000
# 2 -8.6769 36.4130 3.1788 0.0000 0.0000 0.0000
# 3 24.6002 3.1788 97.7314 0.0000 0.0000 0.0000
# 4 0.0000 0.0000 0.0000 26.1895 0.0000 0.0000
# 5 0.0000 0.0000 0.0000 0.0000 32.8601 0.0000
# 6 0.0000 0.0000 0.0000 0.0000 0.0000 15.7972
#
#
#
# Elastic Compliance Matrix: (Units=1/GPa)
#
#
# Indices 1 2 3 4 5 6 
#
# 1 0.021409 0.005588 -0.005571 0.000000 0.000000 0.000000
# 2 0.005588 0.028999 -0.002350 0.000000 0.000000 0.000000
# 3 -0.005571 -0.002350 0.011711 0.000000 0.000000 0.000000
# 4 0.000000 0.000000 0.000000 0.038183 0.000000 0.000000
# 5 0.000000 0.000000 0.000000 0.000000 0.030432 0.000000
# 6 0.000000 0.000000 0.000000 0.000000 0.000000 0.063302
#
#
# Mechanical properties :
#
#
# Convention : Reuss Voigt Hill
#
# Bulk Modulus (GPa) = 17.40530 25.30271 21.35400
# Shear Modulus (GPa) = 22.95127 26.33054 24.64091
#
# Velocity S-wave (km/s) = 3.31299 3.54851 3.43277
# Velocity P-wave (km/s) = 4.79147 5.37491 5.09155
#
# Compressibility (1/GPa) = 0.05745376
#
# Stress axis : x y z
#
# Youngs Moduli (GPa) = 46.71001 34.48347 85.39168
#
# Poissons Ratio (x) = -0.19269 0.47568
# Poissons Ratio (y) = -0.26101 0.20065
# Poissons Ratio (z) = 0.26020 0.08103
#
# Static dielectric constant tensor:
#      x y z
#    x 1.865270 0.000000 0.000000 
#    y 0.000000 1.874330 0.000000 
#    z 0.000000 0.000000 1.751300 
# 
# From -- ./inp_files/26887.got.cif
#   From: 2010.05.17/outbox.cif.g08.bks.cpg/sg58_14_cif.got.tgz:26887.got - 2010.06.03 14:20:14.
