data_PCOD9441467
_publ_section_title
;
Structure prediction by ZEFSAII (Michael W. Deem and Ramdas Pophale) SiO2 
 PCOD9441467
Probable space group: P N N M
;
_chemical_formula_sum "Si O2"
_cell_formula_units_Z 56
_cell_length_a 19.967295
_cell_length_b 8.056183
_cell_length_c 15.029559
_cell_angle_alpha 90.000000
_cell_angle_beta 90.000000
_cell_angle_gamma 90.000000
_cell_volume 2417.657604
_symmetry_space_group_name_H-M "P N N M"
_symmetry_group_IT_number 58
_symmetry_cell_setting 'orthorhombic'
loop_
_space_group_symop_operation_xyz
x,y,z
-x,-y,z
1/2+x,1/2-y,1/2-z
1/2-x,1/2+y,1/2-z
-x,-y,-z
x,y,-z
1/2-x,1/2+y,1/2+z
1/2+x,1/2-y,1/2+z
loop_
_atom_site_type_symbol
_atom_site_label
_atom_site_fract_x
_atom_site_fract_y
_atom_site_fract_z
Si Si1 0.273444 0.167473 0.337062
Si Si2 0.896495 0.148403 0.593606
Si Si3 0.752077 0.223477 0.635782
Si Si4 0.385223 0.665263 0.598104
Si Si5 0.086219 0.831498 0.198969
Si Si6 0.543849 0.159857 0.272404
Si Si7 0.869441 0.753293 0.401887
O O1 0.257280 0.202789 0.234343
O O2 0.350445 0.231954 0.342531
O O3 0.211075 0.259842 0.386102
O O4 0.264383 0.973647 0.359829
O O5 0.933164 0.188665 0.500000
O O6 0.824571 0.235258 0.592815
O O7 0.920525 0.185982 0.693225
O O8 0.885212 0.950434 0.594524
O O9 0.694336 0.325615 0.590375
O O10 0.414666 0.643544 0.500000
O O11 0.400906 0.518047 0.667171
O O12 0.402576 0.837082 0.648358
O O13 0.011637 0.775795 0.177252
O O14 0.585676 0.194130 0.181883
O O15 0.500000 0.000000 0.255054
O O16 0.886085 0.682912 0.500000
#
# Coordination Sequence:
#
# PCOD9441467 Si02
#       7
#     8   8   8   8   8   8   8
#     4  10  20  38  69 100 137 178 224 275 333 402
#     4   9  18  35  63  99 130 167 217 262 322 398
#     4  10  18  37  64 100 134 175 216 269 330 388
#     4  12  25  44  67  94 130 172 227 287 344 409
#     4  11  24  41  67  96 131 179 224 280 346 403
#     4  12  26  46  67  94 133 179 228 281 342 410
#     4  10  21  40  68 100 139 179 220 273 335 404
#
# _framework density 23.162915999999999
#
# number of rings (size 3 to 8) (size 9 to 14) (size 15 to 20)
#    0.000    1.429    2.857    3.429    0.000    3.429 
#    0.000    2.857    0.000    0.000    0.000    0.000 
#    0.000    0.000    0.000    0.000    0.000    0.000 
#
# Total GULP energy -311972.627221 kJ/mol
# GULP energy per Si atom -5570.939772 kJ/mol
# Density = 2.311020 g / cm^3
# Si number density = 23.162916 Si / 1000 Ang^3
#
#
#
# Elastic Constant Matrix: (Units=GPa)
#
#
# Indices 1 2 3 4 5 6 
#
# 1 72.3054 17.3983 -3.5221 0.0000 0.0000 0.0000
# 2 17.3983 42.4522 7.7851 0.0000 0.0000 0.0000
# 3 -3.5221 7.7851 85.6685 0.0000 0.0000 0.0000
# 4 0.0000 0.0000 0.0000 4.5357 0.0000 0.0000
# 5 0.0000 0.0000 0.0000 0.0000 -6.2274 0.0000
# 6 0.0000 0.0000 0.0000 0.0000 0.0000 37.8669
#
#
#
# Elastic Compliance Matrix: (Units=1/GPa)
#
#
# Indices 1 2 3 4 5 6 
#
# 1 0.015470 -0.006566 0.001233 0.000000 0.000000 0.000000
# 2 -0.006566 0.026742 -0.002700 0.000000 0.000000 0.000000
# 3 0.001233 -0.002700 0.011969 0.000000 0.000000 0.000000
# 4 0.000000 0.000000 0.000000 0.220474 0.000000 0.000000
# 5 0.000000 0.000000 0.000000 0.000000 -0.160581 0.000000
# 6 0.000000 0.000000 0.000000 0.000000 0.000000 0.026408
#
#
# Mechanical properties :
#
#
# Convention : Reuss Voigt Hill
#
# Bulk Modulus (GPa) = 26.23711 27.08321 26.66016
# Shear Modulus (GPa) = 29.54131 19.15269 24.34700
#
# Velocity S-wave (km/s) = 3.57511 2.87865 3.24562
# Velocity P-wave (km/s) = 5.32857 4.77145 5.05769
#
# Compressibility (1/GPa) = 0.03811396
#
# Stress axis : x y z
#
# Youngs Moduli (GPa) = 64.64016 37.39419 83.54946
#
# Poissons Ratio (x) = 0.24554 -0.10299
# Poissons Ratio (y) = 0.42444 0.22560
# Poissons Ratio (z) = -0.07968 0.10097
#
# Static dielectric constant tensor:
#      x y z
#    x 1.876770 0.000000 0.000000 
#    y 0.000000 1.913630 0.000000 
#    z 0.000000 0.000000 2.020330 
# 
# From -- ./inp_files/23235.got.cif
#   From: 2010.05.17/outbox.cif.g08.bks.cpg/sg58_12_cif.got.tgz:23235.got - 2010.06.03 14:20:14.
