data_PCOD9441983
_publ_section_title
;
Structure prediction by ZEFSAII (Michael W. Deem and Ramdas Pophale) SiO2 
 PCOD9441983
Probable space group: P N N M
;
_chemical_formula_sum "Si O2"
_cell_formula_units_Z 64
_cell_length_a 27.103909
_cell_length_b 13.373679
_cell_length_c 7.743301
_cell_angle_alpha 90.000000
_cell_angle_beta 90.000000
_cell_angle_gamma 90.000000
_cell_volume 2806.783838
_symmetry_space_group_name_H-M "P N N M"
_symmetry_group_IT_number 58
_symmetry_cell_setting 'orthorhombic'
loop_
_space_group_symop_operation_xyz
x,y,z
-x,-y,z
1/2+x,1/2-y,1/2-z
1/2-x,1/2+y,1/2-z
-x,-y,-z
x,y,-z
1/2-x,1/2+y,1/2+z
1/2+x,1/2-y,1/2+z
loop_
_atom_site_type_symbol
_atom_site_label
_atom_site_fract_x
_atom_site_fract_y
_atom_site_fract_z
Si Si1 0.009013 0.752595 0.195653
Si Si2 0.809008 0.098612 0.790990
Si Si3 0.352660 0.020256 0.207252
Si Si4 0.119999 0.733541 0.206118
Si Si5 0.846660 0.886772 0.705080
Si Si6 0.204108 0.320938 0.289083
Si Si7 0.546635 0.070531 0.194087
Si Si8 0.544800 0.437862 0.194503
O O1 0.063264 0.724447 0.265953
O O2 0.972259 0.659999 0.192614
O O3 0.980990 0.831081 0.311822
O O4 0.014740 0.791170 0.000000
O O5 0.855645 0.163888 0.729568
O O6 0.760925 0.162285 0.738704
O O7 0.811929 0.983726 0.731228
O O8 0.809159 0.094739 0.000000
O O9 0.346892 0.135765 0.257333
O O10 0.320672 0.925889 0.267667
O O11 0.407704 0.990905 0.264090
O O12 0.349614 0.019923 0.000000
O O13 0.117962 0.740122 0.000000
O O14 0.853967 0.871817 0.500000
O O15 0.822975 0.781716 0.770230
O O16 0.900936 0.920002 0.774959
O O17 0.202392 0.317943 0.500000
O O18 0.500000 0.000000 0.178114
O O19 0.560264 0.106762 0.000000
O O20 0.500000 0.500000 0.280166
O O21 0.552378 0.479620 0.000000
#
# Coordination Sequence:
#
# PCOD9441983 Si02
#       8
#     8   8   8   8   8   8   8   8
#     4  11  22  34  53  82 117 154 190 231 281 342
#     4  10  22  40  60  82 114 151 187 233 293 347
#     4  10  20  36  59  84 111 147 194 239 279 338
#     4  10  22  37  54  82 120 156 188 232 287 343
#     4  10  21  40  63  87 115 149 195 245 289 342
#     4   9  20  38  60  84 112 148 187 237 295 342
#     4  10  19  33  53  79 110 148 186 226 278 330
#     4  10  21  37  59  85 115 152 195 241 286 336
#
# _framework density 22.801898999999999
#
# number of rings (size 3 to 8) (size 9 to 14) (size 15 to 20)
#    0.000    2.000    1.250    1.875    1.750    4.500 
#    0.000    1.250    0.000    0.000    0.000    0.000 
#    0.000    0.000    0.000    0.000    0.000    0.000 
#
# Total GULP energy -356839.592139 kJ/mol
# GULP energy per Si atom -5575.618627 kJ/mol
# Density = 2.275000 g / cm^3
# Si number density = 22.801899 Si / 1000 Ang^3
#
#
#
# Elastic Constant Matrix: (Units=GPa)
#
#
# Indices 1 2 3 4 5 6 
#
# 1 74.9927 25.7512 2.6482 0.0000 0.0000 0.0000
# 2 25.7512 120.5968 1.8489 0.0000 0.0000 0.0000
# 3 2.6482 1.8489 37.8297 0.0000 0.0000 0.0000
# 4 0.0000 0.0000 0.0000 29.3327 0.0000 0.0000
# 5 0.0000 0.0000 0.0000 0.0000 -7.1676 0.0000
# 6 0.0000 0.0000 0.0000 0.0000 0.0000 39.1449
#
#
#
# Elastic Compliance Matrix: (Units=1/GPa)
#
#
# Indices 1 2 3 4 5 6 
#
# 1 0.014418 -0.003065 -0.000859 0.000000 0.000000 0.000000
# 2 -0.003065 0.008950 -0.000223 0.000000 0.000000 0.000000
# 3 -0.000859 -0.000223 0.026505 0.000000 0.000000 0.000000
# 4 0.000000 0.000000 0.000000 0.034092 0.000000 0.000000
# 5 0.000000 0.000000 0.000000 0.000000 -0.139517 0.000000
# 6 0.000000 0.000000 0.000000 0.000000 0.000000 0.025546
#
#
# Mechanical properties :
#
#
# Convention : Reuss Voigt Hill
#
# Bulk Modulus (GPa) = 24.05146 32.65732 28.35439
# Shear Modulus (GPa) = -636.77250 25.80674 -305.48288
#
# Velocity S-wave (km/s) = -16.72929 3.36784 -11.58721
# Velocity P-wave (km/s) = 19.04174 5.42922 12.90565
#
# Compressibility (1/GPa) = 0.04157752
#
# Stress axis : x y z
#
# Youngs Moduli (GPa) = 69.35965 111.73089 37.72832
#
# Poissons Ratio (x) = 0.34250 0.03243
# Poissons Ratio (y) = 0.21262 0.00841
# Poissons Ratio (z) = 0.05961 0.02490
#
# Static dielectric constant tensor:
#      x y z
#    x 1.818010 0.000000 0.000000 
#    y 0.000000 1.818530 0.000000 
#    z 0.000000 0.000000 1.922860 
# 
# From -- ./inp_files/11016.got.cif
#   From: 2010.05.17/outbox.cif.g08.bks.cpg/sg58_6_cif.got.tgz:11016.got - 2010.06.03 14:20:14.
