data_PCOD9441178
_publ_section_title
;
Structure prediction by ZEFSAII (Michael W. Deem and Ramdas Pophale) SiO2 
 PCOD9441178
Probable space group: P N N M
;
_chemical_formula_sum "Si O2"
_cell_formula_units_Z 64
_cell_length_a 17.493062
_cell_length_b 21.150993
_cell_length_c 7.974437
_cell_angle_alpha 90.000000
_cell_angle_beta 90.000000
_cell_angle_gamma 90.000000
_cell_volume 2950.506857
_symmetry_space_group_name_H-M "P N N M"
_symmetry_group_IT_number 58
_symmetry_cell_setting 'orthorhombic'
loop_
_space_group_symop_operation_xyz
x,y,z
-x,-y,z
1/2+x,1/2-y,1/2-z
1/2-x,1/2+y,1/2-z
-x,-y,-z
x,y,-z
1/2-x,1/2+y,1/2+z
1/2+x,1/2-y,1/2+z
loop_
_atom_site_type_symbol
_atom_site_label
_atom_site_fract_x
_atom_site_fract_y
_atom_site_fract_z
Si Si1 0.958035 0.105797 0.808886
Si Si2 0.550313 0.163814 0.704966
Si Si3 0.832472 0.012896 0.302146
Si Si4 0.408269 0.693124 0.706060
Si Si5 0.380642 0.158395 0.696218
Si Si6 0.838345 0.204153 0.694262
Si Si7 0.292387 0.884947 0.702137
Si Si8 0.729563 0.383979 0.694032
O O1 0.913166 0.047836 0.725801
O O2 0.897428 0.163691 0.802529
O O3 0.033345 0.138511 0.734356
O O4 0.974164 0.087642 0.000000
O O5 0.552908 0.162808 0.500000
O O6 0.564499 0.236994 0.755663
O O7 0.465771 0.142127 0.757193
O O8 0.621568 0.121840 0.765788
O O9 0.822767 0.002757 0.500000
O O10 0.764743 0.059977 0.239958
O O11 0.820343 0.946911 0.211936
O O12 0.409508 0.692130 0.500000
O O13 0.323584 0.672855 0.760533
O O14 0.387565 0.172723 0.500000
O O15 0.352656 0.222526 0.783311
O O16 0.311752 0.109531 0.719955
O O17 0.852216 0.185921 0.500000
O O18 0.753406 0.180172 0.734903
O O19 0.296610 0.891963 0.500000
O O20 0.745050 0.371542 0.500000
#
# Coordination Sequence:
#
# PCOD9441178 Si02
#       8
#     8   8   8   8   8   8   8   8
#     4  10  18  33  57  84 111 143 183 226 270 322
#     4   9  16  31  55  83 108 135 177 226 269 322
#     4  10  21  38  56  80 112 146 189 234 279 329
#     4   9  18  33  56  84 111 142 184 226 269 335
#     4  11  21  34  55  81 111 142 177 229 284 329
#     4  10  18  31  53  81 113 145 179 218 271 333
#     4   8  16  31  55  79 102 140 186 226 262 317
#     4  11  23  39  58  78 106 149 193 232 276 331
#
# _framework density 21.691188
#
# number of rings (size 3 to 8) (size 9 to 14) (size 15 to 20)
#    0.000    2.250    1.250    3.375    0.000    2.500 
#    0.000    5.625    0.000   12.000    0.000    0.000 
#    0.000    0.000    0.000    0.000    0.000    0.000 
#
# Total GULP energy -357194.315307 kJ/mol
# GULP energy per Si atom -5581.161177 kJ/mol
# Density = 2.164182 g / cm^3
# Si number density = 21.691188 Si / 1000 Ang^3
#
#
#
# Elastic Constant Matrix: (Units=GPa)
#
#
# Indices 1 2 3 4 5 6 
#
# 1 117.3255 5.6216 9.5714 0.0000 0.0000 0.0000
# 2 5.6216 32.1957 -4.6206 0.0000 0.0000 0.0000
# 3 9.5714 -4.6206 28.9013 0.0000 0.0000 0.0000
# 4 0.0000 0.0000 0.0000 20.5191 0.0000 0.0000
# 5 0.0000 0.0000 0.0000 0.0000 15.0668 0.0000
# 6 0.0000 0.0000 0.0000 0.0000 0.0000 23.1133
#
#
#
# Elastic Compliance Matrix: (Units=1/GPa)
#
#
# Indices 1 2 3 4 5 6 
#
# 1 0.008887 -0.002020 -0.003266 0.000000 0.000000 0.000000
# 2 -0.002020 0.032249 0.005825 0.000000 0.000000 0.000000
# 3 -0.003266 0.005825 0.036613 0.000000 0.000000 0.000000
# 4 0.000000 0.000000 0.000000 0.048735 0.000000 0.000000
# 5 0.000000 0.000000 0.000000 0.000000 0.066371 0.000000
# 6 0.000000 0.000000 0.000000 0.000000 0.000000 0.043265
#
#
# Mechanical properties :
#
#
# Convention : Reuss Voigt Hill
#
# Bulk Modulus (GPa) = 12.68621 22.17416 17.43019
# Shear Modulus (GPa) = 19.13373 22.92983 21.03178
#
# Velocity S-wave (km/s) = 2.97323 3.25484 3.11722
# Velocity P-wave (km/s) = 4.20096 4.93661 4.58357
#
# Compressibility (1/GPa) = 0.07882574
#
# Stress axis : x y z
#
# Youngs Moduli (GPa) = 112.52969 31.00888 27.31238
#
# Poissons Ratio (x) = 0.06265 0.08920
# Poissons Ratio (y) = 0.22735 -0.15909
# Poissons Ratio (z) = 0.36753 -0.18062
#
# Static dielectric constant tensor:
#      x y z
#    x 1.828160 0.000000 0.000000 
#    y 0.000000 1.772860 0.000000 
#    z 0.000000 0.000000 1.782670 
# 
# From -- ./inp_files/6960.got.cif
#   From: 2010.05.17/outbox.cif.g08.bks.cpg/sg58_4_cif.got.tgz:6960.got - 2010.06.03 14:20:14.
