data_PCOD9441230
_publ_section_title
;
Structure prediction by ZEFSAII (Michael W. Deem and Ramdas Pophale) SiO2 
 PCOD9441230
Probable space group: P N N M
;
_chemical_formula_sum "Si O2"
_cell_formula_units_Z 56
_cell_length_a 14.372587
_cell_length_b 19.838112
_cell_length_c 7.313786
_cell_angle_alpha 90.000000
_cell_angle_beta 90.000000
_cell_angle_gamma 90.000000
_cell_volume 2085.343165
_symmetry_space_group_name_H-M "P N N M"
_symmetry_group_IT_number 58
_symmetry_cell_setting 'orthorhombic'
loop_
_space_group_symop_operation_xyz
x,y,z
-x,-y,z
1/2+x,1/2-y,1/2-z
1/2-x,1/2+y,1/2-z
-x,-y,-z
x,y,-z
1/2-x,1/2+y,1/2+z
1/2+x,1/2-y,1/2+z
loop_
_atom_site_type_symbol
_atom_site_label
_atom_site_fract_x
_atom_site_fract_y
_atom_site_fract_z
Si Si1 0.716454 0.149978 0.777223
Si Si2 0.054258 0.714504 0.710373
Si Si3 0.779371 0.503991 0.277245
Si Si4 0.428148 0.363642 0.708906
Si Si5 0.225324 0.202915 0.279748
Si Si6 0.954522 0.429836 0.723155
Si Si7 0.893180 0.929933 0.788327
O O1 0.683920 0.224080 0.720669
O O2 0.824612 0.143434 0.715902
O O3 0.679811 0.076534 0.722483
O O4 0.712145 0.151312 0.000000
O O5 0.024677 0.720182 0.500000
O O6 0.166660 0.704252 0.718765
O O7 0.014771 0.644029 0.785844
O O8 0.033949 0.786868 0.794617
O O9 0.777679 0.503971 0.500000
O O10 0.847643 0.443924 0.223902
O O11 0.675671 0.486813 0.212656
O O12 0.413822 0.385577 0.500000
O O13 0.506603 0.411517 0.792259
O O14 0.225710 0.200971 0.500000
O O15 0.167010 0.139141 0.214868
O O16 0.961562 0.427495 0.500000
O O17 0.000000 0.500000 0.780286
O O18 0.909119 0.947209 0.000000
#
# Coordination Sequence:
#
# PCOD9441230 Si02
#       7
#     8   8   8   8   8   8   8
#     4   8  16  30  48  72 101 132 166 214 263 300
#     4  10  18  32  53  75 100 133 174 211 261 312
#     4   9  16  29  49  73 101 132 170 213 260 305
#     4   9  19  33  49  75 105 133 170 215 263 306
#     4  10  19  32  52  76 103 135 173 215 260 310
#     4   9  17  28  46  75 104 128 162 214 261 301
#     4  10  19  32  52  76 102 135 175 215 259 314
#
# _framework density 26.854094
#
# number of rings (size 3 to 8) (size 9 to 14) (size 15 to 20)
#    0.000    2.714    1.429    1.714    0.000    2.286 
#    0.000    5.714    0.000    6.000    0.000    5.000 
#    0.000    0.000    0.000    0.000    0.000    0.000 
#
# Total GULP energy -312969.768802 kJ/mol
# GULP energy per Si atom -5588.745871 kJ/mol
# Density = 2.679297 g / cm^3
# Si number density = 26.854094 Si / 1000 Ang^3
#
#
#
# Elastic Constant Matrix: (Units=GPa)
#
#
# Indices 1 2 3 4 5 6 
#
# 1 61.5194 8.9608 -9.3980 0.0000 0.0000 0.0000
# 2 8.9608 165.0108 -4.5592 0.0000 0.0000 0.0000
# 3 -9.3980 -4.5592 115.1665 0.0000 0.0000 0.0000
# 4 0.0000 0.0000 0.0000 4.8521 0.0000 0.0000
# 5 0.0000 0.0000 0.0000 0.0000 -3.2598 0.0000
# 6 0.0000 0.0000 0.0000 0.0000 0.0000 56.7053
#
#
#
# Elastic Compliance Matrix: (Units=1/GPa)
#
#
# Indices 1 2 3 4 5 6 
#
# 1 0.016582 -0.000864 0.001319 0.000000 0.000000 0.000000
# 2 -0.000864 0.006112 0.000171 0.000000 0.000000 0.000000
# 3 0.001319 0.000171 0.008797 0.000000 0.000000 0.000000
# 4 0.000000 0.000000 0.000000 0.206095 0.000000 0.000000
# 5 0.000000 0.000000 0.000000 0.000000 -0.306763 0.000000
# 6 0.000000 0.000000 0.000000 0.000000 0.000000 0.017635
#
#
# Mechanical properties :
#
#
# Convention : Reuss Voigt Hill
#
# Bulk Modulus (GPa) = 30.53948 36.85598 33.69773
# Shear Modulus (GPa) = -119.39101 34.77239 -42.30931
#
# Velocity S-wave (km/s) = -6.67500 3.60233 -3.97360
# Velocity P-wave (km/s) = 6.92896 5.57285 2.91151
#
# Compressibility (1/GPa) = 0.03274450
#
# Stress axis : x y z
#
# Youngs Moduli (GPa) = 60.30492 163.61605 113.66868
#
# Poissons Ratio (x) = 0.14137 -0.14993
# Poissons Ratio (y) = 0.05211 -0.01949
# Poissons Ratio (z) = -0.07954 -0.02805
#
# Static dielectric constant tensor:
#      x y z
#    x 2.165160 0.000000 0.000000 
#    y 0.000000 2.067730 0.000000 
#    z 0.000000 0.000000 2.086690 
# 
# From -- ./inp_files/8120.got.cif
#   From: 2010.05.17/outbox.cif.g08.bks.cpg/sg58_5_cif.got.tgz:8120.got - 2010.06.03 14:20:14.
