data_PCOD9441992
_publ_section_title
;
Structure prediction by ZEFSAII (Michael W. Deem and Ramdas Pophale) SiO2 
 PCOD9441992
Probable space group: P N N M
;
_chemical_formula_sum "Si O2"
_cell_formula_units_Z 48
_cell_length_a 12.777419
_cell_length_b 18.032707
_cell_length_c 10.488601
_cell_angle_alpha 90.000000
_cell_angle_beta 90.000000
_cell_angle_gamma 90.000000
_cell_volume 2416.693797
_symmetry_space_group_name_H-M "P N N M"
_symmetry_group_IT_number 58
_symmetry_cell_setting 'orthorhombic'
loop_
_space_group_symop_operation_xyz
x,y,z
-x,-y,z
1/2+x,1/2-y,1/2-z
1/2-x,1/2+y,1/2-z
-x,-y,-z
x,y,-z
1/2-x,1/2+y,1/2+z
1/2+x,1/2-y,1/2+z
loop_
_atom_site_type_symbol
_atom_site_label
_atom_site_fract_x
_atom_site_fract_y
_atom_site_fract_z
Si Si1 0.383955 0.467080 0.854170
Si Si2 0.387925 0.315585 0.275617
Si Si3 0.656278 0.158894 0.858837
Si Si4 0.667516 0.835898 0.852913
Si Si5 0.294758 0.004270 0.151800
Si Si6 0.894971 0.774176 0.141342
O O1 0.500000 0.500000 0.835222
O O2 0.387751 0.378162 0.833535
O O3 0.303629 0.496756 0.747427
O O4 0.351427 0.484018 0.000000
O O5 0.282694 0.331120 0.354531
O O6 0.378517 0.231797 0.225615
O O7 0.498062 0.319426 0.346547
O O8 0.640081 0.071666 0.835289
O O9 0.612757 0.211602 0.749412
O O10 0.618282 0.179052 0.000000
O O11 0.793433 0.825833 0.843356
O O12 0.644469 0.920162 0.815745
O O13 0.638165 0.825689 0.000000
O O14 0.265139 0.009209 0.000000
O O15 0.888346 0.740329 0.000000
#
# Coordination Sequence:
#
# PCOD9441992 Si02
#       6
#     8   8   8   8   8   8
#     4  10  20  32  49  78 110 137 168 211 266 319
#     4  10  19  33  54  77 106 139 173 212 258 309
#     4   9  19  34  53  76 102 132 169 214 261 307
#     4   9  18  33  53  77 102 134 176 216 256 304
#     4   9  18  34  53  72  98 134 175 216 256 304
#     4  10  20  34  54  78 105 136 172 214 260 312
#
# _framework density 19.861846
#
# number of rings (size 3 to 8) (size 9 to 14) (size 15 to 20)
#    0.000    2.500    0.000    2.000    0.000    6.333 
#    0.000    6.667    0.000    4.000    0.000    0.000 
#    0.000    0.000    0.000    0.000    0.000    0.000 
#
# Total GULP energy -267662.646693 kJ/mol
# GULP energy per Si atom -5576.305139 kJ/mol
# Density = 1.981664 g / cm^3
# Si number density = 19.861846 Si / 1000 Ang^3
#
#
#
# Elastic Constant Matrix: (Units=GPa)
#
#
# Indices 1 2 3 4 5 6 
#
# 1 69.7156 -3.7354 0.1243 0.0000 0.0000 0.0000
# 2 -3.7354 95.2459 38.0566 0.0000 0.0000 0.0000
# 3 0.1243 38.0566 81.4404 0.0000 0.0000 0.0000
# 4 0.0000 0.0000 0.0000 23.2153 0.0000 0.0000
# 5 0.0000 0.0000 0.0000 0.0000 -11.9482 0.0000
# 6 0.0000 0.0000 0.0000 0.0000 0.0000 11.0216
#
#
#
# Elastic Compliance Matrix: (Units=1/GPa)
#
#
# Indices 1 2 3 4 5 6 
#
# 1 0.014382 0.000704 -0.000351 0.000000 0.000000 0.000000
# 2 0.000704 0.012944 -0.006050 0.000000 0.000000 0.000000
# 3 -0.000351 -0.006050 0.015106 0.000000 0.000000 0.000000
# 4 0.000000 0.000000 0.000000 0.043075 0.000000 0.000000
# 5 0.000000 0.000000 0.000000 0.000000 -0.083695 0.000000
# 6 0.000000 0.000000 0.000000 0.000000 0.000000 0.090731
#
#
# Mechanical properties :
#
#
# Convention : Reuss Voigt Hill
#
# Bulk Modulus (GPa) = 32.21664 35.03254 33.62459
# Shear Modulus (GPa) = 43.75094 18.58819 31.16956
#
# Velocity S-wave (km/s) = 4.69845 3.06252 3.96576
# Velocity P-wave (km/s) = 6.75940 5.49380 6.15919
#
# Compressibility (1/GPa) = 0.03103986
#
# Stress axis : x y z
#
# Youngs Moduli (GPa) = 69.52969 77.25591 66.19686
#
# Poissons Ratio (x) = -0.05441 0.02324
# Poissons Ratio (y) = -0.04897 0.40047
# Poissons Ratio (z) = 0.02441 0.46738
#
# Static dielectric constant tensor:
#      x y z
#    x 1.713030 0.000000 0.000000 
#    y 0.000000 1.699830 0.000000 
#    z 0.000000 0.000000 1.682720 
# 
# From -- ./inp_files/5876.got.cif
#   From: 2010.05.17/outbox.cif.g08.bks.cpg/sg58_3_cif.got.tgz:5876.got - 2010.06.03 14:20:14.
