data_PCOD9441127
_publ_section_title
;
Structure prediction by ZEFSAII (Michael W. Deem and Ramdas Pophale) SiO2 
 PCOD9441127
Probable space group: P N N M
;
_chemical_formula_sum "Si O2"
_cell_formula_units_Z 48
_cell_length_a 11.393631
_cell_length_b 15.174533
_cell_length_c 13.115300
_cell_angle_alpha 90.000000
_cell_angle_beta 90.000000
_cell_angle_gamma 90.000000
_cell_volume 2267.543951
_symmetry_space_group_name_H-M "P N N M"
_symmetry_group_IT_number 58
_symmetry_cell_setting 'orthorhombic'
loop_
_space_group_symop_operation_xyz
x,y,z
-x,-y,z
1/2+x,1/2-y,1/2-z
1/2-x,1/2+y,1/2-z
-x,-y,-z
x,y,-z
1/2-x,1/2+y,1/2+z
1/2+x,1/2-y,1/2+z
loop_
_atom_site_type_symbol
_atom_site_label
_atom_site_fract_x
_atom_site_fract_y
_atom_site_fract_z
Si Si1 0.666601 0.794989 0.279647
Si Si2 0.964535 0.619465 0.885091
Si Si3 0.625892 0.611665 0.620387
Si Si4 0.841113 0.532660 0.694328
Si Si5 0.370480 0.679116 0.381459
Si Si6 0.031727 0.643517 0.613356
O O1 0.600571 0.866196 0.351250
O O2 0.677291 0.706139 0.342910
O O3 0.778821 0.823077 0.212559
O O4 0.567282 0.781333 0.191746
O O5 0.893649 0.560246 0.804144
O O6 0.912024 0.718556 0.883179
O O7 0.954108 0.587924 0.000000
O O8 0.643035 0.597919 0.500000
O O9 0.702488 0.540599 0.681709
O O10 0.486222 0.620086 0.636429
O O11 0.892703 0.442202 0.649090
O O12 0.900479 0.608654 0.624472
O O13 0.329744 0.660061 0.500000
O O14 0.058409 0.669036 0.500000
#
# Coordination Sequence:
#
# PCOD9441127 Si02
#       6
#     8   8   8   8   8   8
#     4  10  18  31  49  72 102 137 173 211 261 312
#     4   9  18  32  51  74 101 132 171 222 266 304
#     4  10  19  32  52  75 102 140 179 216 256 309
#     4  10  18  34  53  75 106 138 175 214 268 320
#     4   9  17  30  48  72 102 132 169 215 256 301
#     4  10  20  32  51  80 109 136 169 223 273 311
#
# _framework density 21.168278000000001
#
# number of rings (size 3 to 8) (size 9 to 14) (size 15 to 20)
#    0.000    2.333    1.667    4.000    0.000    0.000 
#    0.000    8.333    0.000    5.000    0.000    0.000 
#    0.000   22.667    0.000    0.000    0.000    0.000 
#
# Total GULP energy -267580.338100 kJ/mol
# GULP energy per Si atom -5574.590377 kJ/mol
# Density = 2.112010 g / cm^3
# Si number density = 21.168278 Si / 1000 Ang^3
#
#
#
# Elastic Constant Matrix: (Units=GPa)
#
#
# Indices 1 2 3 4 5 6 
#
# 1 110.0173 15.1846 29.8325 0.0000 0.0000 0.0000
# 2 15.1846 40.1423 1.8853 0.0000 0.0000 0.0000
# 3 29.8325 1.8853 137.4472 0.0000 0.0000 0.0000
# 4 0.0000 0.0000 0.0000 5.1496 0.0000 0.0000
# 5 0.0000 0.0000 0.0000 0.0000 30.1438 0.0000
# 6 0.0000 0.0000 0.0000 0.0000 0.0000 28.4403
#
#
#
# Elastic Compliance Matrix: (Units=1/GPa)
#
#
# Indices 1 2 3 4 5 6 
#
# 1 0.010194 -0.003754 -0.002161 0.000000 0.000000 0.000000
# 2 -0.003754 0.026310 0.000454 0.000000 0.000000 0.000000
# 3 -0.002161 0.000454 0.007738 0.000000 0.000000 0.000000
# 4 0.000000 0.000000 0.000000 0.194190 0.000000 0.000000
# 5 0.000000 0.000000 0.000000 0.000000 0.033174 0.000000
# 6 0.000000 0.000000 0.000000 0.000000 0.000000 0.035161
#
#
# Mechanical properties :
#
#
# Convention : Reuss Voigt Hill
#
# Bulk Modulus (GPa) = 30.01264 42.37909 36.19586
# Shear Modulus (GPa) = 15.20695 28.79369 22.00032
#
# Velocity S-wave (km/s) = 2.68318 3.69213 3.22732
# Velocity P-wave (km/s) = 4.87936 6.18379 5.56989
#
# Compressibility (1/GPa) = 0.03331930
#
# Stress axis : x y z
#
# Youngs Moduli (GPa) = 98.10029 38.00804 129.22676
#
# Poissons Ratio (x) = 0.14270 0.27926
# Poissons Ratio (y) = 0.36831 -0.05867
# Poissons Ratio (z) = 0.21200 -0.01726
#
# Static dielectric constant tensor:
#      x y z
#    x 1.854020 0.000000 0.000000 
#    y 0.000000 1.812500 0.000000 
#    z 0.000000 0.000000 1.760020 
# 
# From -- ./inp_files/14498.got.cif
#   From: 2010.05.17/outbox.cif.g08.bks.cpg/sg58_8_cif.got.tgz:14498.got - 2010.06.03 14:20:14.
