data_PCOD9441554
_publ_section_title
;
Structure prediction by ZEFSAII (Michael W. Deem and Ramdas Pophale) SiO2 
 PCOD9441554
Probable space group: P N N M
;
_chemical_formula_sum "Si O2"
_cell_formula_units_Z 56
_cell_length_a 17.973177
_cell_length_b 18.567969
_cell_length_c 9.541192
_cell_angle_alpha 90.000000
_cell_angle_beta 90.000000
_cell_angle_gamma 90.000000
_cell_volume 3184.138053
_symmetry_space_group_name_H-M "P N N M"
_symmetry_group_IT_number 58
_symmetry_cell_setting 'orthorhombic'
loop_
_space_group_symop_operation_xyz
x,y,z
-x,-y,z
1/2+x,1/2-y,1/2-z
1/2-x,1/2+y,1/2-z
-x,-y,-z
x,y,-z
1/2-x,1/2+y,1/2+z
1/2+x,1/2-y,1/2+z
loop_
_atom_site_type_symbol
_atom_site_label
_atom_site_fract_x
_atom_site_fract_y
_atom_site_fract_z
Si Si1 0.144001 0.567370 0.840392
Si Si2 0.151498 0.424162 0.663116
Si Si3 0.490834 0.087563 0.160358
Si Si4 0.713315 0.331087 0.836867
Si Si5 0.712888 0.685037 0.334639
Si Si6 0.917686 0.085076 0.170037
Si Si7 0.408741 0.580848 0.330594
O O1 0.158267 0.493328 0.759607
O O2 0.075947 0.606920 0.762315
O O3 0.218846 0.612821 0.837887
O O4 0.121912 0.553023 0.000000
O O5 0.144819 0.447330 0.500000
O O6 0.222515 0.374225 0.674729
O O7 0.073277 0.384714 0.696271
O O8 0.500000 0.000000 0.168429
O O9 0.472888 0.106041 0.000000
O O10 0.750525 0.257991 0.777501
O O11 0.646649 0.365258 0.747713
O O12 0.689872 0.318876 0.000000
O O13 0.698353 0.700591 0.500000
O O14 0.638239 0.647072 0.277347
O O15 0.004500 0.095524 0.204940
O O16 0.894458 0.003269 0.209968
O O17 0.913417 0.085631 0.000000
O O18 0.400517 0.586152 0.500000
#
# Coordination Sequence:
#
# PCOD9441554 Si02
#       7
#     8   8   8   8   8   8   8
#     4  10  19  30  46  70  99 130 161 196 240 292
#     4   9  17  31  53  74  90 122 169 209 239 275
#     4   8  15  28  46  70  94 117 156 200 234 274
#     4  10  21  34  47  70 104 137 165 194 245 311
#     4   9  17  32  51  70  98 134 167 197 241 304
#     4   8  15  30  55  81  99 124 168 216 253 293
#     4   9  17  32  56  82 100 121 167 221 258 288
#
# _framework density 17.587177000000001
#
# number of rings (size 3 to 8) (size 9 to 14) (size 15 to 20)
#    0.000    3.000    0.000    3.000    0.000    4.857 
#    2.571    2.143    0.000    2.571    0.000    0.000 
#    0.000    0.000    0.000    0.000    0.000    0.000 
#
# Total GULP energy -311770.874690 kJ/mol
# GULP energy per Si atom -5567.337048 kJ/mol
# Density = 1.754715 g / cm^3
# Si number density = 17.587177 Si / 1000 Ang^3
#
#
#
# Elastic Constant Matrix: (Units=GPa)
#
#
# Indices 1 2 3 4 5 6 
#
# 1 101.2620 52.9867 36.5897 0.0000 0.0000 0.0000
# 2 52.9867 77.0535 30.2131 0.0000 0.0000 0.0000
# 3 36.5897 30.2131 44.4109 0.0000 0.0000 0.0000
# 4 0.0000 0.0000 0.0000 13.6226 0.0000 0.0000
# 5 0.0000 0.0000 0.0000 0.0000 93.0366 0.0000
# 6 0.0000 0.0000 0.0000 0.0000 0.0000 19.8830
#
#
#
# Elastic Compliance Matrix: (Units=1/GPa)
#
#
# Indices 1 2 3 4 5 6 
#
# 1 0.017499 -0.008701 -0.008498 0.000000 0.000000 0.000000
# 2 -0.008701 0.022026 -0.007816 0.000000 0.000000 0.000000
# 3 -0.008498 -0.007816 0.034835 0.000000 0.000000 0.000000
# 4 0.000000 0.000000 0.000000 0.073407 0.000000 0.000000
# 5 0.000000 0.000000 0.000000 0.000000 0.010748 0.000000
# 6 0.000000 0.000000 0.000000 0.000000 0.000000 0.050294
#
#
# Mechanical properties :
#
#
# Convention : Reuss Voigt Hill
#
# Bulk Modulus (GPa) = 41.09977 51.36729 46.23353
# Shear Modulus (GPa) = 18.73012 32.17089 25.45051
#
# Velocity S-wave (km/s) = 3.26695 4.28158 3.80821
# Velocity P-wave (km/s) = 6.13600 7.32893 6.75884
#
# Compressibility (1/GPa) = 0.02433104
#
# Stress axis : x y z
#
# Youngs Moduli (GPa) = 57.14603 45.40052 28.70674
#
# Poissons Ratio (x) = 0.39505 0.24394
# Poissons Ratio (y) = 0.49725 0.22436
# Poissons Ratio (z) = 0.48560 0.35483
#
# Static dielectric constant tensor:
#      x y z
#    x 1.632280 0.000000 0.000000 
#    y 0.000000 1.622250 0.000000 
#    z 0.000000 0.000000 1.593850 
# 
# From -- ./inp_files/8983.got.cif
#   From: 2010.05.17/outbox.cif.g08.bks.cpg/sg58_5_cif.got.tgz:8983.got - 2010.06.03 14:20:14.
