data_PCOD9441860
_publ_section_title
;
Structure prediction by ZEFSAII (Michael W. Deem and Ramdas Pophale) SiO2 
 PCOD9441860
Probable space group: P N N M
;
_chemical_formula_sum "Si O2"
_cell_formula_units_Z 56
_cell_length_a 14.994545
_cell_length_b 22.848780
_cell_length_c 7.568367
_cell_angle_alpha 90.000000
_cell_angle_beta 90.000000
_cell_angle_gamma 90.000000
_cell_volume 2592.975966
_symmetry_space_group_name_H-M "P N N M"
_symmetry_group_IT_number 58
_symmetry_cell_setting 'orthorhombic'
loop_
_space_group_symop_operation_xyz
x,y,z
-x,-y,z
1/2+x,1/2-y,1/2-z
1/2-x,1/2+y,1/2-z
-x,-y,-z
x,y,-z
1/2-x,1/2+y,1/2+z
1/2+x,1/2-y,1/2+z
loop_
_atom_site_type_symbol
_atom_site_label
_atom_site_fract_x
_atom_site_fract_y
_atom_site_fract_z
Si Si1 0.401865 0.215312 0.286256
Si Si2 0.289745 0.103350 0.795773
Si Si3 0.777525 0.609107 0.212699
Si Si4 0.091046 0.847931 0.789790
Si Si5 0.893783 0.716838 0.214523
Si Si6 0.598096 0.005868 0.296489
Si Si7 0.392367 0.649107 0.283668
O O1 0.395437 0.213660 0.500000
O O2 0.334764 0.167220 0.214497
O O3 0.386318 0.282089 0.224315
O O4 0.504439 0.200755 0.237858
O O5 0.352268 0.056047 0.704674
O O6 0.189595 0.109520 0.723008
O O7 0.284986 0.085396 0.000000
O O8 0.673383 0.609815 0.256422
O O9 0.823793 0.668968 0.277998
O O10 0.835562 0.554669 0.279933
O O11 0.781844 0.609472 0.000000
O O12 0.992769 0.866174 0.725667
O O13 0.081502 0.841615 0.000000
O O14 0.876424 0.783389 0.271115
O O15 0.891057 0.717349 0.000000
O O16 0.582990 0.024639 0.500000
O O17 0.500000 0.000000 0.214199
O O18 0.389567 0.648014 0.500000
#
# Coordination Sequence:
#
# PCOD9441860 Si02
#       7
#     8   8   8   8   8   8   8
#     4   9  17  31  52  77 105 138 171 202 247 310
#     4  11  21  33  53  78 103 133 171 218 260 291
#     4  10  19  32  53  77  99 129 170 215 258 295
#     4   9  18  33  53  76 104 137 170 205 248 305
#     4   8  14  28  51  75 100 132 168 202 242 303
#     4  10  22  40  58  74  98 136 175 207 249 311
#     4   8  16  31  50  74 103 134 166 200 246 303
#
# _framework density 21.596806000000001
#
# number of rings (size 3 to 8) (size 9 to 14) (size 15 to 20)
#    0.000    2.714    0.000    3.857    0.000    4.857 
#    0.000    4.286    0.000    6.857    0.000    0.000 
#    0.000    0.000    0.000    0.000    0.000    0.000 
#
# Total GULP energy -312593.552806 kJ/mol
# GULP energy per Si atom -5582.027729 kJ/mol
# Density = 2.154765 g / cm^3
# Si number density = 21.596806 Si / 1000 Ang^3
#
#
#
# Elastic Constant Matrix: (Units=GPa)
#
#
# Indices 1 2 3 4 5 6 
#
# 1 184.2601 79.3930 -0.7607 0.0000 0.0000 0.0000
# 2 79.3930 52.2977 -1.5781 0.0000 0.0000 0.0000
# 3 -0.7607 -1.5781 48.3179 0.0000 0.0000 0.0000
# 4 0.0000 0.0000 0.0000 3.8660 0.0000 0.0000
# 5 0.0000 0.0000 0.0000 0.0000 11.3355 0.0000
# 6 0.0000 0.0000 0.0000 0.0000 0.0000 33.2860
#
#
#
# Elastic Compliance Matrix: (Units=1/GPa)
#
#
# Indices 1 2 3 4 5 6 
#
# 1 0.015704 -0.023856 -0.000532 0.000000 0.000000 0.000000
# 2 -0.023856 0.055381 0.001433 0.000000 0.000000 0.000000
# 3 -0.000532 0.001433 0.020735 0.000000 0.000000 0.000000
# 4 0.000000 0.000000 0.000000 0.258665 0.000000 0.000000
# 5 0.000000 0.000000 0.000000 0.000000 0.088219 0.000000
# 6 0.000000 0.000000 0.000000 0.000000 0.000000 0.030043
#
#
# Mechanical properties :
#
#
# Convention : Reuss Voigt Hill
#
# Bulk Modulus (GPa) = 21.78197 48.77601 35.27899
# Shear Modulus (GPa) = 9.43470 23.55226 16.49348
#
# Velocity S-wave (km/s) = 2.09238 3.30592 2.76651
# Velocity P-wave (km/s) = 3.99312 6.09967 5.15514
#
# Compressibility (1/GPa) = 0.04590953
#
# Stress axis : x y z
#
# Youngs Moduli (GPa) = 63.67818 18.05683 48.22828
#
# Poissons Ratio (x) = 0.43077 0.02566
# Poissons Ratio (y) = 1.51912 -0.06912
# Poissons Ratio (z) = 0.03387 -0.02588
#
# Static dielectric constant tensor:
#      x y z
#    x 1.799740 0.000000 0.000000 
#    y 0.000000 1.749240 0.000000 
#    z 0.000000 0.000000 1.824650 
# 
# From -- ./inp_files/6310.got.cif
#   From: 2010.05.17/outbox.cif.g08.bks.cpg/sg58_4_cif.got.tgz:6310.got - 2010.06.03 14:20:14.
