data_PCOD9441422
_publ_section_title
;
Structure prediction by ZEFSAII (Michael W. Deem and Ramdas Pophale) SiO2 
 PCOD9441422
Probable space group: P N N M
;
_chemical_formula_sum "Si O2"
_cell_formula_units_Z 64
_cell_length_a 8.961562
_cell_length_b 12.407928
_cell_length_c 29.410402
_cell_angle_alpha 90.000000
_cell_angle_beta 90.000000
_cell_angle_gamma 90.000000
_cell_volume 3270.272477
_symmetry_space_group_name_H-M "P N N M"
_symmetry_group_IT_number 58
_symmetry_cell_setting 'orthorhombic'
loop_
_space_group_symop_operation_xyz
x,y,z
-x,-y,z
1/2+x,1/2-y,1/2-z
1/2-x,1/2+y,1/2-z
-x,-y,-z
x,y,-z
1/2-x,1/2+y,1/2+z
1/2+x,1/2-y,1/2+z
loop_
_atom_site_type_symbol
_atom_site_label
_atom_site_fract_x
_atom_site_fract_y
_atom_site_fract_z
Si Si1 0.013424 0.690059 0.701292
Si Si2 0.205224 0.326991 0.780140
Si Si3 0.345649 0.939515 0.632818
Si Si4 0.300776 0.062055 0.872316
Si Si5 0.034972 0.703712 0.552302
Si Si6 0.955799 0.784940 0.141784
Si Si7 0.659217 0.556538 0.049480
Si Si8 0.301462 0.804548 0.123589
O O1 0.135119 0.768792 0.724744
O O2 0.114676 0.606899 0.672518
O O3 0.890445 0.643202 0.736011
O O4 0.911737 0.744733 0.661897
O O5 0.225062 0.422346 0.817237
O O6 0.095013 0.243649 0.806832
O O7 0.382451 0.817525 0.616732
O O8 0.247187 0.987157 0.592975
O O9 0.500000 0.000000 0.638976
O O10 0.382667 0.117058 0.915414
O O11 0.132006 0.107532 0.871528
O O12 0.309339 0.934519 0.872900
O O13 0.024363 0.669129 0.500000
O O14 0.123256 0.816445 0.554037
O O15 0.873202 0.723637 0.575149
O O16 0.130365 0.779010 0.133285
O O17 0.500000 0.500000 0.048695
O O18 0.732761 0.538170 0.000000
#
# Coordination Sequence:
#
# PCOD9441422 Si02
#       8
#     8   8   8   8   8   8   8   8
#     4  10  18  35  57  81 115 149 186 232 275 337
#     4   9  20  35  57  82 111 152 184 227 289 332
#     4  10  21  38  58  82 114 146 183 239 288 340
#     4  10  20  37  58  82 112 154 187 232 280 336
#     4  10  20  37  57  81 115 148 187 236 281 331
#     4   9  20  38  55  81 116 144 185 227 286 334
#     4  10  21  38  61  85 112 151 195 236 285 345
#     4  11  21  33  60  87 110 151 192 232 277 341
#
# _framework density 19.570235
#
# number of rings (size 3 to 8) (size 9 to 14) (size 15 to 20)
#    0.750    1.375    1.250    3.375    1.750    2.250 
#    0.000    1.250    0.000    3.000    0.000    0.000 
#    0.000    0.000    0.000    0.000    0.000    0.000 
#
# Total GULP energy -356339.408634 kJ/mol
# GULP energy per Si atom -5567.803260 kJ/mol
# Density = 1.952569 g / cm^3
# Si number density = 19.570235 Si / 1000 Ang^3
#
#
#
# Elastic Constant Matrix: (Units=GPa)
#
#
# Indices 1 2 3 4 5 6 
#
# 1 86.6005 -7.6596 34.2733 0.0000 0.0000 0.0000
# 2 -7.6596 20.3592 5.6833 0.0000 0.0000 0.0000
# 3 34.2733 5.6833 107.2646 0.0000 0.0000 0.0000
# 4 0.0000 0.0000 0.0000 75.0320 0.0000 0.0000
# 5 0.0000 0.0000 0.0000 0.0000 -46.6870 0.0000
# 6 0.0000 0.0000 0.0000 0.0000 0.0000 27.6311
#
#
#
# Elastic Compliance Matrix: (Units=1/GPa)
#
#
# Indices 1 2 3 4 5 6 
#
# 1 0.014050 0.006637 -0.004841 0.000000 0.000000 0.000000
# 2 0.006637 0.052991 -0.004928 0.000000 0.000000 0.000000
# 3 -0.004841 -0.004928 0.011131 0.000000 0.000000 0.000000
# 4 0.000000 0.000000 0.000000 0.013328 0.000000 0.000000
# 5 0.000000 0.000000 0.000000 0.000000 -0.021419 0.000000
# 6 0.000000 0.000000 0.000000 0.000000 0.000000 0.036191
#
#
# Mechanical properties :
#
#
# Convention : Reuss Voigt Hill
#
# Bulk Modulus (GPa) = 13.90673 30.97981 22.44327
# Shear Modulus (GPa) = 36.62879 23.32371 29.97625
#
# Velocity S-wave (km/s) = 4.33096 3.45598 3.91797
# Velocity P-wave (km/s) = 5.66843 5.63822 5.65335
#
# Compressibility (1/GPa) = 0.07190763
#
# Stress axis : x y z
#
# Youngs Moduli (GPa) = 71.17311 18.87119 89.84178
#
# Poissons Ratio (x) = -0.12526 0.43493
# Poissons Ratio (y) = -0.47241 0.44278
# Poissons Ratio (z) = 0.34455 0.09301
#
# Static dielectric constant tensor:
#      x y z
#    x 1.703240 0.000000 0.000000 
#    y 0.000000 1.712050 0.000000 
#    z 0.000000 0.000000 1.712420 
# 
# From -- ./inp_files/34745.got.cif
#   From: 2010.05.17/outbox.cif.g08.bks.cpg/sg58_18_cif.got.tgz:34745.got - 2010.06.03 14:20:14.
