data_PCOD9441097
_publ_section_title
;
Structure prediction by ZEFSAII (Michael W. Deem and Ramdas Pophale) SiO2 
 PCOD9441097
Probable space group: P N N M
;
_chemical_formula_sum "Si O2"
_cell_formula_units_Z 64
_cell_length_a 17.067180
_cell_length_b 20.769142
_cell_length_c 7.467689
_cell_angle_alpha 90.000000
_cell_angle_beta 90.000000
_cell_angle_gamma 90.000000
_cell_volume 2647.076835
_symmetry_space_group_name_H-M "P N N M"
_symmetry_group_IT_number 58
_symmetry_cell_setting 'orthorhombic'
loop_
_space_group_symop_operation_xyz
x,y,z
-x,-y,z
1/2+x,1/2-y,1/2-z
1/2-x,1/2+y,1/2-z
-x,-y,-z
x,y,-z
1/2-x,1/2+y,1/2+z
1/2+x,1/2-y,1/2+z
loop_
_atom_site_type_symbol
_atom_site_label
_atom_site_fract_x
_atom_site_fract_y
_atom_site_fract_z
Si Si1 0.964581 0.129844 0.783162
Si Si2 0.565012 0.150471 0.719304
Si Si3 0.865727 0.017389 0.204822
Si Si4 0.383608 0.708110 0.716249
Si Si5 0.394272 0.127276 0.700397
Si Si6 0.835040 0.234816 0.704609
Si Si7 0.266919 0.880949 0.717154
Si Si8 0.724398 0.396689 0.711358
O O1 0.936754 0.059817 0.718663
O O2 0.904768 0.182584 0.708411
O O3 0.050598 0.154620 0.743363
O O4 0.956123 0.130627 0.000000
O O5 0.560313 0.152177 0.500000
O O6 0.584826 0.223277 0.780920
O O7 0.480637 0.126400 0.785470
O O8 0.642549 0.110317 0.766082
O O9 0.792865 0.067585 0.204628
O O10 0.828904 0.953670 0.289142
O O11 0.888798 0.001806 0.000000
O O12 0.378483 0.716419 0.500000
O O13 0.303898 0.673425 0.778802
O O14 0.403738 0.102753 0.500000
O O15 0.368263 0.202436 0.699805
O O16 0.316837 0.092580 0.771274
O O17 0.818370 0.255096 0.500000
O O18 0.762429 0.190990 0.769320
O O19 0.260156 0.883538 0.500000
O O20 0.708840 0.396312 0.500000
#
# Coordination Sequence:
#
# PCOD9441097 Si02
#       8
#     8   8   8   8   8   8   8   8
#     4   9  16  30  53  78 105 138 171 210 253 301
#     4   9  17  31  52  78 101 127 169 216 257 303
#     4   9  19  34  52  77 107 136 175 218 258 302
#     4   9  16  30  54  79 106 135 168 211 258 310
#     4  11  21  34  53  75 103 136 172 217 264 310
#     4  10  18  30  51  78 106 133 165 206 260 319
#     4   9  18  33  55  76  98 135 177 212 252 308
#     4  10  21  36  53  75 105 141 176 214 259 310
#
# _framework density 24.177614999999999
#
# number of rings (size 3 to 8) (size 9 to 14) (size 15 to 20)
#    0.000    2.500    1.250    1.500    0.000    3.500 
#    0.000    5.000    0.000    3.750    0.000    4.375 
#    0.000    0.000    0.000    0.000    0.000    0.000 
#
# Total GULP energy -357264.053541 kJ/mol
# GULP energy per Si atom -5582.250837 kJ/mol
# Density = 2.412259 g / cm^3
# Si number density = 24.177615 Si / 1000 Ang^3
#
#
#
# Elastic Constant Matrix: (Units=GPa)
#
#
# Indices 1 2 3 4 5 6 
#
# 1 79.5451 -27.2391 -4.3000 0.0000 0.0000 0.0000
# 2 -27.2391 35.3432 -5.5360 0.0000 0.0000 0.0000
# 3 -4.3000 -5.5360 65.1611 0.0000 0.0000 0.0000
# 4 0.0000 0.0000 0.0000 6.1641 0.0000 0.0000
# 5 0.0000 0.0000 0.0000 0.0000 11.1299 0.0000
# 6 0.0000 0.0000 0.0000 0.0000 0.0000 26.1581
#
#
#
# Elastic Compliance Matrix: (Units=1/GPa)
#
#
# Indices 1 2 3 4 5 6 
#
# 1 0.017418 0.013788 0.002321 0.000000 0.000000 0.000000
# 2 0.013788 0.039590 0.004273 0.000000 0.000000 0.000000
# 3 0.002321 0.004273 0.015863 0.000000 0.000000 0.000000
# 4 0.000000 0.000000 0.000000 0.162229 0.000000 0.000000
# 5 0.000000 0.000000 0.000000 0.000000 0.089848 0.000000
# 6 0.000000 0.000000 0.000000 0.000000 0.000000 0.038229
#
#
# Mechanical properties :
#
#
# Convention : Reuss Voigt Hill
#
# Bulk Modulus (GPa) = 8.80007 11.76657 10.28332
# Shear Modulus (GPa) = 13.87767 23.16538 18.52152
#
# Velocity S-wave (km/s) = 2.39840 3.09873 2.77078
# Velocity P-wave (km/s) = 3.36414 4.20477 3.80773
#
# Compressibility (1/GPa) = 0.11363549
#
# Stress axis : x y z
#
# Youngs Moduli (GPa) = 57.41035 25.25901 63.04057
#
# Poissons Ratio (x) = -0.34827 -0.14631
# Poissons Ratio (y) = -0.79157 -0.26939
# Poissons Ratio (z) = -0.13324 -0.10794
#
# Static dielectric constant tensor:
#      x y z
#    x 1.951790 0.000000 0.000000 
#    y 0.000000 1.927130 0.000000 
#    z 0.000000 0.000000 1.956420 
# 
# From -- ./inp_files/6959.got.cif
#   From: 2010.05.17/outbox.cif.g08.bks.cpg/sg58_4_cif.got.tgz:6959.got - 2010.06.03 14:20:14.
