data_PCOD9441123
_publ_section_title
;
Structure prediction by ZEFSAII (Michael W. Deem and Ramdas Pophale) SiO2 
 PCOD9441123
Probable space group: P N N M
;
_chemical_formula_sum "Si O2"
_cell_formula_units_Z 64
_cell_length_a 17.636922
_cell_length_b 8.605936
_cell_length_c 24.095858
_cell_angle_alpha 90.000000
_cell_angle_beta 90.000000
_cell_angle_gamma 90.000000
_cell_volume 3657.322867
_symmetry_space_group_name_H-M "P N N M"
_symmetry_group_IT_number 58
_symmetry_cell_setting 'orthorhombic'
loop_
_space_group_symop_operation_xyz
x,y,z
-x,-y,z
1/2+x,1/2-y,1/2-z
1/2-x,1/2+y,1/2-z
-x,-y,-z
x,y,-z
1/2-x,1/2+y,1/2+z
1/2+x,1/2-y,1/2+z
loop_
_atom_site_type_symbol
_atom_site_label
_atom_site_fract_x
_atom_site_fract_y
_atom_site_fract_z
Si Si1 0.643795 0.147751 0.137214
Si Si2 0.455869 0.845221 0.247831
Si Si3 0.214998 0.829238 0.353939
Si Si4 0.334017 0.640243 0.296143
Si Si5 0.232070 0.653004 0.184760
Si Si6 0.883051 0.342533 0.565268
Si Si7 0.891660 0.179028 0.755452
Si Si8 0.036466 0.165512 0.434717
O O1 0.592169 0.124346 0.191860
O O2 0.727901 0.200843 0.154471
O O3 0.606162 0.289751 0.103627
O O4 0.636905 0.996248 0.099535
O O5 0.395339 0.776755 0.290339
O O6 0.522222 0.717730 0.240601
O O7 0.500000 0.000000 0.263705
O O8 0.275902 0.691240 0.343760
O O9 0.168246 0.794425 0.409176
O O10 0.155756 0.825979 0.302108
O O11 0.256280 0.995125 0.349180
O O12 0.282060 0.637917 0.240762
O O13 0.378134 0.478261 0.290431
O O14 0.148364 0.689912 0.206352
O O15 0.870717 0.363616 0.500000
O O16 0.970683 0.294058 0.573312
O O17 0.056735 0.163390 0.500000
O O18 0.000000 0.000000 0.420624
#
# Coordination Sequence:
#
# PCOD9441123 Si02
#       8
#     8   8   8   8   8   8   8   8
#     4  11  20  32  47  67  94 129 165 199 241 282
#     4  11  20  29  45  69  97 127 159 191 233 288
#     4  10  18  33  50  67  95 128 160 198 248 290
#     4   9  19  31  47  70  96 126 158 197 240 292
#     4   9  19  31  49  71  94 126 161 198 240 294
#     4  11  22  34  49  69  95 130 173 215 249 285
#     4  10  18  31  48  70  98 126 159 195 238 294
#     4  10  20  32  45  63  89 122 163 207 243 276
#
# _framework density 17.499137000000001
#
# number of rings (size 3 to 8) (size 9 to 14) (size 15 to 20)
#    0.000    1.875    0.000    5.625    0.000    7.000 
#    0.000    0.625    0.000    0.000    0.000    0.000 
#    0.000   13.500    0.000    0.000    0.000    0.125 
#
# Total GULP energy -357243.575431 kJ/mol
# GULP energy per Si atom -5581.930866 kJ/mol
# Density = 1.745931 g / cm^3
# Si number density = 17.499137 Si / 1000 Ang^3
#
#
#
# Elastic Constant Matrix: (Units=GPa)
#
#
# Indices 1 2 3 4 5 6 
#
# 1 53.6829 5.9650 24.1379 0.0000 0.0000 0.0000
# 2 5.9650 50.6759 5.3345 0.0000 0.0000 0.0000
# 3 24.1379 5.3345 37.6096 0.0000 0.0000 0.0000
# 4 0.0000 0.0000 0.0000 14.3141 0.0000 0.0000
# 5 0.0000 0.0000 0.0000 0.0000 12.0836 0.0000
# 6 0.0000 0.0000 0.0000 0.0000 0.0000 20.3337
#
#
#
# Elastic Compliance Matrix: (Units=1/GPa)
#
#
# Indices 1 2 3 4 5 6 
#
# 1 0.026273 -0.001337 -0.016672 0.000000 0.000000 0.000000
# 2 -0.001337 0.020100 -0.001993 0.000000 0.000000 0.000000
# 3 -0.016672 -0.001993 0.037572 0.000000 0.000000 0.000000
# 4 0.000000 0.000000 0.000000 0.069861 0.000000 0.000000
# 5 0.000000 0.000000 0.000000 0.000000 0.082757 0.000000
# 6 0.000000 0.000000 0.000000 0.000000 0.000000 0.049179
#
#
# Mechanical properties :
#
#
# Convention : Reuss Voigt Hill
#
# Bulk Modulus (GPa) = 22.75809 23.64925 23.20367
# Shear Modulus (GPa) = 14.68882 16.44835 15.56858
#
# Velocity S-wave (km/s) = 2.90039 3.06919 2.98598
# Velocity P-wave (km/s) = 4.92441 5.10918 5.01765
#
# Compressibility (1/GPa) = 0.04394042
#
# Stress axis : x y z
#
# Youngs Moduli (GPa) = 38.06172 49.75018 26.61555
#
# Poissons Ratio (x) = 0.06654 0.44375
# Poissons Ratio (y) = 0.05091 0.05304
# Poissons Ratio (z) = 0.63458 0.09913
#
# Static dielectric constant tensor:
#      x y z
#    x 1.606060 0.000000 0.000000 
#    y 0.000000 1.681580 0.000000 
#    z 0.000000 0.000000 1.558530 
# 
# From -- ./inp_files/31673.got.cif
#   From: 2010.05.17/outbox.cif.g08.bks.cpg/sg58_16_cif.got.tgz:31673.got - 2010.06.03 14:20:14.
