data_PCOD9441938
_publ_section_title
;
Structure prediction by ZEFSAII (Michael W. Deem and Ramdas Pophale) SiO2 
 PCOD9441938
Probable space group: P N N M
;
_chemical_formula_sum "Si O2"
_cell_formula_units_Z 48
_cell_length_a 16.653177
_cell_length_b 9.962504
_cell_length_c 13.871429
_cell_angle_alpha 90.000000
_cell_angle_beta 90.000000
_cell_angle_gamma 90.000000
_cell_volume 2301.371922
_symmetry_space_group_name_H-M "P N N M"
_symmetry_group_IT_number 58
_symmetry_cell_setting 'orthorhombic'
loop_
_space_group_symop_operation_xyz
x,y,z
-x,-y,z
1/2+x,1/2-y,1/2-z
1/2-x,1/2+y,1/2-z
-x,-y,-z
x,y,-z
1/2-x,1/2+y,1/2+z
1/2+x,1/2-y,1/2+z
loop_
_atom_site_type_symbol
_atom_site_label
_atom_site_fract_x
_atom_site_fract_y
_atom_site_fract_z
Si Si1 0.026070 0.651005 0.700556
Si Si2 0.266868 0.409114 0.616305
Si Si3 0.877127 0.793660 0.384054
Si Si4 0.110024 0.683988 0.114804
Si Si5 0.703958 0.809515 0.882852
Si Si6 0.244834 0.984120 0.616581
O O1 0.035468 0.662632 0.815792
O O2 0.113212 0.678070 0.654607
O O3 0.000000 0.500000 0.673977
O O4 0.960603 0.755456 0.663236
O O5 0.269146 0.413847 0.500000
O O6 0.187957 0.322012 0.639434
O O7 0.345384 0.323530 0.641598
O O8 0.254171 0.560526 0.650521
O O9 0.887109 0.794597 0.500000
O O10 0.834334 0.932325 0.355190
O O11 0.175362 0.568238 0.139232
O O12 0.094256 0.681061 0.000000
O O13 0.741355 0.668503 0.849664
O O14 0.702163 0.810304 0.000000
O O15 0.243363 0.981882 0.500000
#
# Coordination Sequence:
#
# PCOD9441938 Si02
#       6
#     8   8   8   8   8   8
#     4  12  23  32  52  85 118 151 188 226 288 344
#     4   8  15  32  58  80 104 140 181 232 280 326
#     4   9  17  33  56  83 116 145 174 221 286 352
#     4   9  20  39  58  76 106 151 203 242 274 322
#     4  10  19  32  56  90 117 137 176 229 290 351
#     4   8  17  36  60  83 110 147 187 234 285 332
#
# _framework density 20.857123999999999
#
# number of rings (size 3 to 8) (size 9 to 14) (size 15 to 20)
#    0.000    2.667    1.667    2.500    0.000    3.000 
#    0.000    2.500    3.667    0.000    0.000    2.333 
#    0.000    0.000    0.000    0.000    0.000    0.000 
#
# Total GULP energy -268162.636482 kJ/mol
# GULP energy per Si atom -5586.721593 kJ/mol
# Density = 2.080965 g / cm^3
# Si number density = 20.857124 Si / 1000 Ang^3
#
#
#
# Elastic Constant Matrix: (Units=GPa)
#
#
# Indices 1 2 3 4 5 6 
#
# 1 38.2721 24.1345 22.5591 0.0000 0.0000 0.0000
# 2 24.1345 153.5953 12.9171 0.0000 0.0000 0.0000
# 3 22.5591 12.9171 94.8304 0.0000 0.0000 0.0000
# 4 0.0000 0.0000 0.0000 9.7215 0.0000 0.0000
# 5 0.0000 0.0000 0.0000 0.0000 40.2352 0.0000
# 6 0.0000 0.0000 0.0000 0.0000 0.0000 2.9486
#
#
#
# Elastic Compliance Matrix: (Units=1/GPa)
#
#
# Indices 1 2 3 4 5 6 
#
# 1 0.033351 -0.004626 -0.007304 0.000000 0.000000 0.000000
# 2 -0.004626 0.007228 0.000116 0.000000 0.000000 0.000000
# 3 -0.007304 0.000116 0.012267 0.000000 0.000000 0.000000
# 4 0.000000 0.000000 0.000000 0.102865 0.000000 0.000000
# 5 0.000000 0.000000 0.000000 0.000000 0.024854 0.000000
# 6 0.000000 0.000000 0.000000 0.000000 0.000000 0.339148
#
#
# Mechanical properties :
#
#
# Convention : Reuss Voigt Hill
#
# Bulk Modulus (GPa) = 34.22564 45.10211 39.66387
# Shear Modulus (GPa) = 9.04029 25.72019 17.38024
#
# Velocity S-wave (km/s) = 2.08418 3.51545 2.88982
# Velocity P-wave (km/s) = 4.71560 6.17650 5.49482
#
# Compressibility (1/GPa) = 0.02921786
#
# Stress axis : x y z
#
# Youngs Moduli (GPa) = 29.98397 138.35502 81.52084
#
# Poissons Ratio (x) = 0.64006 0.59540
# Poissons Ratio (y) = 0.13871 -0.00946
# Poissons Ratio (z) = 0.21899 -0.01605
#
# Static dielectric constant tensor:
#      x y z
#    x 1.689040 0.000000 0.000000 
#    y 0.000000 1.770300 0.000000 
#    z 0.000000 0.000000 1.793020 
# 
# From -- ./inp_files/22765.got.cif
#   From: 2010.05.17/outbox.cif.g08.bks.cpg/sg58_12_cif.got.tgz:22765.got - 2010.06.03 14:20:14.
