data_PCOD9441128
_publ_section_title
;
Structure prediction by ZEFSAII (Michael W. Deem and Ramdas Pophale) SiO2 
 PCOD9441128
Probable space group: P N N M
;
_chemical_formula_sum "Si O2"
_cell_formula_units_Z 24
_cell_length_a 4.900974
_cell_length_b 6.929424
_cell_length_c 25.617824
_cell_angle_alpha 90.000000
_cell_angle_beta 90.000000
_cell_angle_gamma 90.000000
_cell_volume 870.005047
_symmetry_space_group_name_H-M "P N N M"
_symmetry_group_IT_number 58
_symmetry_cell_setting 'orthorhombic'
loop_
_space_group_symop_operation_xyz
x,y,z
-x,-y,z
1/2+x,1/2-y,1/2-z
1/2-x,1/2+y,1/2-z
-x,-y,-z
x,y,-z
1/2-x,1/2+y,1/2+z
1/2+x,1/2-y,1/2+z
loop_
_atom_site_type_symbol
_atom_site_label
_atom_site_fract_x
_atom_site_fract_y
_atom_site_fract_z
Si Si1 0.123034 0.208775 0.282990
Si Si2 0.014298 0.766364 0.557789
Si Si3 0.518841 0.766733 0.620363
O O1 0.351603 0.185159 0.237534
O O2 0.310178 0.294513 0.328986
O O3 0.000000 0.000000 0.298426
O O4 0.101081 0.707267 0.500000
O O5 0.217104 0.705488 0.604172
O O6 0.708239 0.711223 0.571710
O O7 0.000000 0.000000 0.557968
O O8 0.500000 0.000000 0.625338
#
# Coordination Sequence:
#
# PCOD9441128 Si02
#       3
#     8   8   8
#     4  12  24  40  60  84 116 154 196 240 288 340
#     4   9  16  26  44  72 108 147 181 217 275 349
#     4  10  18  31  49  74 110 149 183 225 285 339
#
# _framework density 27.586044000000001
#
# number of rings (size 3 to 8) (size 9 to 14) (size 15 to 20)
#    0.000    1.667    0.000    9.000    0.000    4.000 
#    0.000    0.000    0.000    0.000    0.000    0.000 
#    0.000   93.333    0.000    0.000    0.000    0.000 
#
# Total GULP energy -134303.326796 kJ/mol
# GULP energy per Si atom -5595.971950 kJ/mol
# Density = 2.752326 g / cm^3
# Si number density = 27.586044 Si / 1000 Ang^3
#
#
#
# Elastic Constant Matrix: (Units=GPa)
#
#
# Indices 1 2 3 4 5 6 
#
# 1 215.7479 0.3255 71.1489 0.0000 0.0000 0.0000
# 2 0.3255 112.9632 0.0112 0.0000 0.0000 0.0000
# 3 71.1489 0.0112 152.9749 0.0000 0.0000 0.0000
# 4 0.0000 0.0000 0.0000 1.4961 0.0000 0.0000
# 5 0.0000 0.0000 0.0000 0.0000-2159.4384 0.0000
# 6 0.0000 0.0000 0.0000 0.0000 0.0000 4.5334
#
#
#
# Elastic Compliance Matrix: (Units=1/GPa)
#
#
# Indices 1 2 3 4 5 6 
#
# 1 0.005475 -0.000016 -0.002546 0.000000 0.000000 0.000000
# 2 -0.000016 0.008852 0.000007 0.000000 0.000000 0.000000
# 3 -0.002546 0.000007 0.007721 0.000000 0.000000 0.000000
# 4 0.000000 0.000000 0.000000 0.668419 0.000000 0.000000
# 5 0.000000 0.000000 0.000000 0.000000 -0.000463 0.000000
# 6 0.000000 0.000000 0.000000 0.000000 0.000000 0.220583
#
#
# Mechanical properties :
#
#
# Convention : Reuss Voigt Hill
#
# Bulk Modulus (GPa) = 59.03876 69.40637 64.22257
# Shear Modulus (GPa) = 5.42686 -403.33508 -198.95411
#
# Velocity S-wave (km/s) = 1.40411 -12.10484 -8.50164
# Velocity P-wave (km/s) = 4.90681 13.04435 8.54629
#
# Compressibility (1/GPa) = 0.01693802
#
# Stress axis : x y z
#
# Youngs Moduli (GPa) = 182.65545 112.96266 129.51143
#
# Poissons Ratio (x) = 0.00175 0.32978
# Poissons Ratio (y) = 0.00284 -0.00085
# Poissons Ratio (z) = 0.46510 -0.00074
#
# Static dielectric constant tensor:
#      x y z
#    x 1.976520 0.000000 0.000000 
#    y 0.000000 2.277870 0.000000 
#    z 0.000000 0.000000 2.144240 
# 
# From -- ./inp_files/30678.got.cif
#   From: 2010.05.17/outbox.cif.g08.bks.cpg/sg58_16_cif.got.tgz:30678.got - 2010.06.03 14:20:14.
