data_PCOD9441327
_publ_section_title
;
Structure prediction by ZEFSAII (Michael W. Deem and Ramdas Pophale) SiO2 
 PCOD9441327
Probable space group: P N N M
;
_chemical_formula_sum "Si O2"
_cell_formula_units_Z 56
_cell_length_a 22.182890
_cell_length_b 15.099885
_cell_length_c 7.473330
_cell_angle_alpha 90.000000
_cell_angle_beta 90.000000
_cell_angle_gamma 90.000000
_cell_volume 2503.259801
_symmetry_space_group_name_H-M "P N N M"
_symmetry_group_IT_number 58
_symmetry_cell_setting 'orthorhombic'
loop_
_space_group_symop_operation_xyz
x,y,z
-x,-y,z
1/2+x,1/2-y,1/2-z
1/2-x,1/2+y,1/2-z
-x,-y,-z
x,y,-z
1/2-x,1/2+y,1/2+z
1/2+x,1/2-y,1/2+z
loop_
_atom_site_type_symbol
_atom_site_label
_atom_site_fract_x
_atom_site_fract_y
_atom_site_fract_z
Si Si1 0.899044 0.299661 0.207123
Si Si2 0.227485 0.771959 0.782933
Si Si3 0.519345 0.641742 0.216062
Si Si4 0.566754 0.996312 0.206861
Si Si5 0.774636 0.919500 0.715791
Si Si6 0.093082 0.030464 0.718061
Si Si7 0.313054 0.926020 0.207537
O O1 0.841071 0.245383 0.279775
O O2 0.956328 0.235283 0.219707
O O3 0.911522 0.394428 0.292537
O O4 0.885800 0.319607 0.000000
O O5 0.263058 0.682223 0.739737
O O6 0.266252 0.854662 0.714092
O O7 0.223622 0.781808 0.000000
O O8 0.453447 0.607705 0.272239
O O9 0.565070 0.563444 0.273723
O O10 0.519666 0.644158 0.000000
O O11 0.500000 0.000000 0.288785
O O12 0.620582 0.056280 0.285992
O O13 0.560404 0.025142 0.000000
O O14 0.773211 0.926147 0.500000
O O15 0.839382 0.953449 0.779581
O O16 0.721688 0.980946 0.786592
O O17 0.093457 0.030126 0.500000
O O18 0.322023 0.900274 0.000000
#
# Coordination Sequence:
#
# PCOD9441327 Si02
#       7
#     8   8   8   8   8   8   8
#     4  11  21  35  54  79 110 146 183 222 278 340
#     4   9  19  33  52  77 106 140 178 220 275 334
#     4   9  17  32  52  78 108 140 181 226 267 318
#     4  10  22  39  59  81 106 142 188 234 280 328
#     4  10  18  33  55  78 105 141 177 216 269 327
#     4   8  16  30  52  79 107 140 181 226 270 317
#     4  10  20  36  56  80 110 142 182 232 279 325
#
# _framework density 22.370830000000002
#
# number of rings (size 3 to 8) (size 9 to 14) (size 15 to 20)
#    0.000    2.429    1.429    2.143    0.000    1.429 
#    0.000    7.857    0.000    0.000    0.000    0.000 
#    0.000    0.000    0.000    0.000    0.000    0.000 
#
# Total GULP energy -312697.612008 kJ/mol
# GULP energy per Si atom -5583.885929 kJ/mol
# Density = 2.231991 g / cm^3
# Si number density = 22.370830 Si / 1000 Ang^3
#
#
#
# Elastic Constant Matrix: (Units=GPa)
#
#
# Indices 1 2 3 4 5 6 
#
# 1 149.9485 29.9383 1.0519 0.0000 0.0000 0.0000
# 2 29.9383 71.3391 -4.5614 0.0000 0.0000 0.0000
# 3 1.0519 -4.5614 62.6370 0.0000 0.0000 0.0000
# 4 0.0000 0.0000 0.0000 19.1936 0.0000 0.0000
# 5 0.0000 0.0000 0.0000 0.0000 -19.9431 0.0000
# 6 0.0000 0.0000 0.0000 0.0000 0.0000 29.3582
#
#
#
# Elastic Compliance Matrix: (Units=1/GPa)
#
#
# Indices 1 2 3 4 5 6 
#
# 1 0.007286 -0.003080 -0.000347 0.000000 0.000000 0.000000
# 2 -0.003080 0.015385 0.001172 0.000000 0.000000 0.000000
# 3 -0.000347 0.001172 0.016056 0.000000 0.000000 0.000000
# 4 0.000000 0.000000 0.000000 0.052101 0.000000 0.000000
# 5 0.000000 0.000000 0.000000 0.000000 -0.050143 0.000000
# 6 0.000000 0.000000 0.000000 0.000000 0.000000 0.034062
#
#
# Mechanical properties :
#
#
# Convention : Reuss Voigt Hill
#
# Bulk Modulus (GPa) = 29.22391 37.42024 33.32208
# Shear Modulus (GPa) = 55.14938 22.88813 39.01875
#
# Velocity S-wave (km/s) = 4.97050 3.20210 4.18087
# Velocity P-wave (km/s) = 6.78476 5.51678 6.18336
#
# Compressibility (1/GPa) = 0.03421855
#
# Stress axis : x y z
#
# Youngs Moduli (GPa) = 137.24340 64.99815 62.28129
#
# Poissons Ratio (x) = 0.20019 0.02159
# Poissons Ratio (y) = 0.42270 -0.07300
# Poissons Ratio (z) = 0.04758 -0.07618
#
# Static dielectric constant tensor:
#      x y z
#    x 1.839340 0.000000 0.000000 
#    y 0.000000 1.774260 0.000000 
#    z 0.000000 0.000000 1.858530 
# 
# From -- ./inp_files/6376.got.cif
#   From: 2010.05.17/outbox.cif.g08.bks.cpg/sg58_4_cif.got.tgz:6376.got - 2010.06.03 14:20:14.
