data_PCOD9441021
_publ_section_title
;
Structure prediction by ZEFSAII (Michael W. Deem and Ramdas Pophale) SiO2 
 PCOD9441021
Probable space group: P N N M
;
_chemical_formula_sum "Si O2"
_cell_formula_units_Z 64
_cell_length_a 21.756116
_cell_length_b 18.981282
_cell_length_c 7.972923
_cell_angle_alpha 90.000000
_cell_angle_beta 90.000000
_cell_angle_gamma 90.000000
_cell_volume 3292.490094
_symmetry_space_group_name_H-M "P N N M"
_symmetry_group_IT_number 58
_symmetry_cell_setting 'orthorhombic'
loop_
_space_group_symop_operation_xyz
x,y,z
-x,-y,z
1/2+x,1/2-y,1/2-z
1/2-x,1/2+y,1/2-z
-x,-y,-z
x,y,-z
1/2-x,1/2+y,1/2+z
1/2+x,1/2-y,1/2+z
loop_
_atom_site_type_symbol
_atom_site_label
_atom_site_fract_x
_atom_site_fract_y
_atom_site_fract_z
Si Si1 0.748949 0.091322 0.807265
Si Si2 0.615946 0.081572 0.796900
Si Si3 0.498785 0.669617 0.705619
Si Si4 0.380634 0.581821 0.702432
Si Si5 0.382279 0.418220 0.705506
Si Si6 0.749712 0.434093 0.807200
Si Si7 0.496743 0.169792 0.300204
Si Si8 0.120922 0.580384 0.301125
O O1 0.682279 0.109803 0.733296
O O2 0.815685 0.109752 0.733949
O O3 0.748963 0.005552 0.802801
O O4 0.748995 0.115634 0.000000
O O5 0.558144 0.127508 0.745709
O O6 0.608894 0.000103 0.740797
O O7 0.618667 0.080663 0.000000
O O8 0.498466 0.669055 0.500000
O O9 0.437169 0.629347 0.760299
O O10 0.559696 0.627553 0.758545
O O11 0.500289 0.750140 0.763220
O O12 0.380154 0.582628 0.500000
O O13 0.389220 0.500128 0.755460
O O14 0.313317 0.605074 0.763835
O O15 0.380509 0.417743 0.500000
O O16 0.814068 0.395584 0.775734
O O17 0.747261 0.456593 0.000000
O O18 0.492478 0.172729 0.500000
O O19 0.436778 0.128891 0.237596
O O20 0.129121 0.577554 0.500000
#
# Coordination Sequence:
#
# PCOD9441021 Si02
#       8
#     8   8   8   8   8   8   8   8
#     4   8  15  29  51  76  98 124 162 206 247 290
#     4   9  18  33  52  73  96 126 166 206 245 296
#     4   9  18  31  48  73 104 135 169 208 245 286
#     4   9  16  30  53  76  99 132 171 205 239 286
#     4   8  13  26  52  79  97 123 168 210 239 278
#     4  10  18  29  49  78 106 126 153 202 256 299
#     4  11  22  33  47  72 105 135 164 205 254 295
#     4  10  20  36  56  74  95 127 167 207 245 295
#
# _framework density 19.438174
#
# number of rings (size 3 to 8) (size 9 to 14) (size 15 to 20)
#    0.000    2.750    0.000    4.125    0.000    5.500 
#    0.000    2.500    0.000   13.500    0.000    0.000 
#    0.000    0.000    0.000    0.000    0.000    0.000 
#
# Total GULP energy -356759.004181 kJ/mol
# GULP energy per Si atom -5574.359440 kJ/mol
# Density = 1.939393 g / cm^3
# Si number density = 19.438174 Si / 1000 Ang^3
#
#
#
# Elastic Constant Matrix: (Units=GPa)
#
#
# Indices 1 2 3 4 5 6 
#
# 1 218.8947 83.5648 14.6867 0.0000 0.0000 0.0000
# 2 83.5648 82.7547 11.1090 0.0000 0.0000 0.0000
# 3 14.6867 11.1090 31.2469 0.0000 0.0000 0.0000
# 4 0.0000 0.0000 0.0000 8.8596 0.0000 0.0000
# 5 0.0000 0.0000 0.0000 0.0000 6.8514 0.0000
# 6 0.0000 0.0000 0.0000 0.0000 0.0000 -5.2006
#
#
#
# Elastic Compliance Matrix: (Units=1/GPa)
#
#
# Indices 1 2 3 4 5 6 
#
# 1 0.007457 -0.007413 -0.000869 0.000000 0.000000 0.000000
# 2 -0.007413 0.020059 -0.003647 0.000000 0.000000 0.000000
# 3 -0.000869 -0.003647 0.033708 0.000000 0.000000 0.000000
# 4 0.000000 0.000000 0.000000 0.112872 0.000000 0.000000
# 5 0.000000 0.000000 0.000000 0.000000 0.145956 0.000000
# 6 0.000000 0.000000 0.000000 0.000000 0.000000 -0.192286
#
#
# Mechanical properties :
#
#
# Convention : Reuss Voigt Hill
#
# Bulk Modulus (GPa) = 26.76290 61.29080 44.02685
# Shear Modulus (GPa) = 30.47301 17.00447 23.73874
#
# Velocity S-wave (km/s) = 3.96370 2.96091 3.49842
# Velocity P-wave (km/s) = 5.89457 6.57943 6.24639
#
# Compressibility (1/GPa) = 0.03736517
#
# Stress axis : x y z
#
# Youngs Moduli (GPa) = 134.10755 49.85281 29.66617
#
# Poissons Ratio (x) = 0.36956 0.02579
# Poissons Ratio (y) = 0.99414 0.10820
# Poissons Ratio (z) = 0.11658 0.18182
#
# Static dielectric constant tensor:
#      x y z
#    x 1.715270 0.000000 0.000000 
#    y 0.000000 1.646290 0.000000 
#    z 0.000000 0.000000 1.711110 
# 
# From -- ./inp_files/9436.got.cif
#   From: 2010.05.17/outbox.cif.g08.bks.cpg/sg58_5_cif.got.tgz:9436.got - 2010.06.03 14:20:14.
