data_PCOD9441542
_publ_section_title
;
Structure prediction by ZEFSAII (Michael W. Deem and Ramdas Pophale) SiO2 
 PCOD9441542
Probable space group: P N N M
;
_chemical_formula_sum "Si O2"
_cell_formula_units_Z 64
_cell_length_a 28.547080
_cell_length_b 15.373560
_cell_length_c 7.550539
_cell_angle_alpha 90.000000
_cell_angle_beta 90.000000
_cell_angle_gamma 90.000000
_cell_volume 3313.706917
_symmetry_space_group_name_H-M "P N N M"
_symmetry_group_IT_number 58
_symmetry_cell_setting 'orthorhombic'
loop_
_space_group_symop_operation_xyz
x,y,z
-x,-y,z
1/2+x,1/2-y,1/2-z
1/2-x,1/2+y,1/2-z
-x,-y,-z
x,y,-z
1/2-x,1/2+y,1/2+z
1/2+x,1/2-y,1/2+z
loop_
_atom_site_type_symbol
_atom_site_label
_atom_site_fract_x
_atom_site_fract_y
_atom_site_fract_z
Si Si1 0.052919 0.903888 0.212166
Si Si2 0.720727 0.394681 0.709938
Si Si3 0.138783 0.780476 0.288413
Si Si4 0.673640 0.096100 0.710811
Si Si5 0.327294 0.099337 0.213357
Si Si6 0.863909 0.775062 0.217309
Si Si7 0.946351 0.900158 0.216537
Si Si8 0.280512 0.408509 0.786112
O O1 0.091026 0.831749 0.255718
O O2 0.999987 0.884569 0.273517
O O3 0.066578 0.001353 0.273149
O O4 0.050551 0.908864 0.000000
O O5 0.724137 0.378844 0.500000
O O6 0.773717 0.388834 0.780627
O O7 0.682534 0.327033 0.776811
O O8 0.704423 0.493721 0.738111
O O9 0.144491 0.776658 0.500000
O O10 0.142564 0.681365 0.223376
O O11 0.182423 0.837959 0.220073
O O12 0.677138 0.106995 0.500000
O O13 0.641753 0.175336 0.775384
O O14 0.727208 0.103595 0.779847
O O15 0.656819 0.997942 0.741656
O O16 0.325540 0.101499 0.000000
O O17 0.909373 0.828347 0.276644
O O18 0.864788 0.776953 0.000000
O O19 0.945715 0.899319 0.000000
O O20 0.279291 0.403299 0.000000
#
# Coordination Sequence:
#
# PCOD9441542 Si02
#       8
#     8   8   8   8   8   8   8   8
#     4   9  17  30  48  69  91 113 141 178 218 260
#     4   9  16  27  45  67  89 116 148 176 208 259
#     4  10  19  30  45  64  89 121 150 176 214 261
#     4   9  17  29  45  64  86 114 148 182 212 248
#     4   9  18  31  44  61  89 121 149 179 215 253
#     4   9  15  25  45  68  87 111 144 177 213 260
#     4   8  15  28  46  69  94 114 134 173 226 266
#     4   9  17  28  41  62  92 118 141 175 215 251
#
# _framework density 19.313715999999999
#
# number of rings (size 3 to 8) (size 9 to 14) (size 15 to 20)
#    0.000    3.000    0.000    2.250    0.000    5.000 
#    0.000    1.875    0.000    9.000    0.000    5.250 
#    0.000    0.000    0.000    0.000    0.000    0.000 
#
# Total GULP energy -356930.581320 kJ/mol
# GULP energy per Si atom -5577.040333 kJ/mol
# Density = 1.926976 g / cm^3
# Si number density = 19.313716 Si / 1000 Ang^3
#
#
#
# Elastic Constant Matrix: (Units=GPa)
#
#
# Indices 1 2 3 4 5 6 
#
# 1 86.3707 104.9760 0.1983 0.0000 0.0000 0.0000
# 2 104.9760 196.6636 -3.3227 0.0000 0.0000 0.0000
# 3 0.1983 -3.3227 39.5872 0.0000 0.0000 0.0000
# 4 0.0000 0.0000 0.0000 13.8185 0.0000 0.0000
# 5 0.0000 0.0000 0.0000 0.0000 11.1897 0.0000
# 6 0.0000 0.0000 0.0000 0.0000 0.0000 17.4412
#
#
#
# Elastic Compliance Matrix: (Units=1/GPa)
#
#
# Indices 1 2 3 4 5 6 
#
# 1 0.033071 -0.017681 -0.001650 0.000000 0.000000 0.000000
# 2 -0.017681 0.014545 0.001309 0.000000 0.000000 0.000000
# 3 -0.001650 0.001309 0.025379 0.000000 0.000000 0.000000
# 4 0.000000 0.000000 0.000000 0.072367 0.000000 0.000000
# 5 0.000000 0.000000 0.000000 0.000000 0.089368 0.000000
# 6 0.000000 0.000000 0.000000 0.000000 0.000000 0.057335
#
#
# Mechanical properties :
#
#
# Convention : Reuss Voigt Hill
#
# Bulk Modulus (GPa) = 27.06173 58.48052 42.77112
# Shear Modulus (GPa) = 14.68753 23.20787 18.94770
#
# Velocity S-wave (km/s) = 2.76066 3.47021 3.13557
# Velocity P-wave (km/s) = 4.91973 6.81186 5.94160
#
# Compressibility (1/GPa) = 0.03695256
#
# Stress axis : x y z
#
# Youngs Moduli (GPa) = 30.23771 68.75356 39.40291
#
# Poissons Ratio (x) = 1.21562 0.06500
# Poissons Ratio (y) = 0.53463 -0.05159
# Poissons Ratio (z) = 0.04988 -0.09002
#
# Static dielectric constant tensor:
#      x y z
#    x 1.659430 0.000000 0.000000 
#    y 0.000000 1.686460 0.000000 
#    z 0.000000 0.000000 1.745930 
# 
# From -- ./inp_files/7170.got.cif
#   From: 2010.05.17/outbox.cif.g08.bks.cpg/sg58_4_cif.got.tgz:7170.got - 2010.06.03 14:20:14.
