data_PCOD9441161
_publ_section_title
;
Structure prediction by ZEFSAII (Michael W. Deem and Ramdas Pophale) SiO2 
 PCOD9441161
Probable space group: P N N M
;
_chemical_formula_sum "Si O2"
_cell_formula_units_Z 64
_cell_length_a 18.809741
_cell_length_b 22.190390
_cell_length_c 8.902757
_cell_angle_alpha 90.000000
_cell_angle_beta 90.000000
_cell_angle_gamma 90.000000
_cell_volume 3715.970608
_symmetry_space_group_name_H-M "P N N M"
_symmetry_group_IT_number 58
_symmetry_cell_setting 'orthorhombic'
loop_
_space_group_symop_operation_xyz
x,y,z
-x,-y,z
1/2+x,1/2-y,1/2-z
1/2-x,1/2+y,1/2-z
-x,-y,-z
x,y,-z
1/2-x,1/2+y,1/2+z
1/2+x,1/2-y,1/2+z
loop_
_atom_site_type_symbol
_atom_site_label
_atom_site_fract_x
_atom_site_fract_y
_atom_site_fract_z
Si Si1 0.319229 0.414409 0.680996
Si Si2 0.417643 0.517154 0.820765
Si Si3 0.537895 0.812051 0.172078
Si Si4 0.525856 0.067206 0.181710
Si Si5 0.422523 0.647010 0.319650
Si Si6 0.580786 0.693781 0.679389
Si Si7 0.328168 0.886080 0.679295
Si Si8 0.373817 0.765680 0.826187
O O1 0.315724 0.416015 0.500000
O O2 0.367826 0.468455 0.740954
O O3 0.357597 0.351759 0.728030
O O4 0.241461 0.416524 0.751810
O O5 0.500000 0.500000 0.791899
O O6 0.404762 0.583348 0.754021
O O7 0.406327 0.516521 0.000000
O O8 0.530255 0.880593 0.228862
O O9 0.582136 0.761401 0.257845
O O10 0.456014 0.788561 0.175317
O O11 0.561955 0.813378 0.000000
O O12 0.600662 0.082059 0.258841
O O13 0.500000 0.000000 0.214659
O O14 0.534267 0.073245 0.000000
O O15 0.417357 0.644323 0.500000
O O16 0.504582 0.663838 0.279725
O O17 0.375202 0.701295 0.254404
O O18 0.582360 0.697305 0.500000
O O19 0.327404 0.886964 0.500000
O O20 0.331200 0.817319 0.739761
O O21 0.351567 0.761584 0.000000
#
# Coordination Sequence:
#
# PCOD9441161 Si02
#       8
#     8   8   8   8   8   8   8   8
#     4  11  22  37  55  75 105 148 190 230 278 333
#     4  11  22  34  51  79 113 149 190 233 276 325
#     4   8  15  27  48  77 104 129 162 210 261 310
#     4   9  18  35  59  84 109 142 183 224 272 333
#     4  10  18  31  52  79 108 139 179 226 271 315
#     4   9  18  30  48  74 103 136 174 217 266 317
#     4  11  22  36  55  82 111 140 181 231 282 336
#     4   9  17  32  53  77 103 135 173 217 267 317
#
# _framework density 17.222956
#
# number of rings (size 3 to 8) (size 9 to 14) (size 15 to 20)
#    0.000    2.250    1.250    3.375    0.000    5.250 
#    0.000    0.000    2.750    0.000    0.000    0.000 
#    0.000    0.000    0.000    0.000    0.000    0.000 
#
# Total GULP energy -356946.683882 kJ/mol
# GULP energy per Si atom -5577.291936 kJ/mol
# Density = 1.718376 g / cm^3
# Si number density = 17.222956 Si / 1000 Ang^3
#
#
#
# Elastic Constant Matrix: (Units=GPa)
#
#
# Indices 1 2 3 4 5 6 
#
# 1 59.4992 46.2043 39.8956 0.0000 0.0000 0.0000
# 2 46.2043 155.8529 52.6405 0.0000 0.0000 0.0000
# 3 39.8956 52.6405 74.8211 0.0000 0.0000 0.0000
# 4 0.0000 0.0000 0.0000 28.5863 0.0000 0.0000
# 5 0.0000 0.0000 0.0000 0.0000 10.0709 0.0000
# 6 0.0000 0.0000 0.0000 0.0000 0.0000 21.1106
#
#
#
# Elastic Compliance Matrix: (Units=1/GPa)
#
#
# Indices 1 2 3 4 5 6 
#
# 1 0.028202 -0.004305 -0.012009 0.000000 0.000000 0.000000
# 2 -0.004305 0.009073 -0.004088 0.000000 0.000000 0.000000
# 3 -0.012009 -0.004088 0.022645 0.000000 0.000000 0.000000
# 4 0.000000 0.000000 0.000000 0.034982 0.000000 0.000000
# 5 0.000000 0.000000 0.000000 0.000000 0.099296 0.000000
# 6 0.000000 0.000000 0.000000 0.000000 0.000000 0.047370
#
#
# Mechanical properties :
#
#
# Convention : Reuss Voigt Hill
#
# Bulk Modulus (GPa) = 52.31156 63.07266 57.69211
# Shear Modulus (GPa) = 17.31634 22.04907 19.68271
#
# Velocity S-wave (km/s) = 3.17428 3.58189 3.38423
# Velocity P-wave (km/s) = 6.62373 7.33535 6.98860
#
# Compressibility (1/GPa) = 0.01911623
#
# Stress axis : x y z
#
# Youngs Moduli (GPa) = 35.45818 110.21352 44.15984
#
# Poissons Ratio (x) = 0.47443 0.53033
# Poissons Ratio (y) = 0.15263 0.18054
# Poissons Ratio (z) = 0.42583 0.45058
#
# Static dielectric constant tensor:
#      x y z
#    x 1.573060 0.000000 0.000000 
#    y 0.000000 1.591680 0.000000 
#    z 0.000000 0.000000 1.575730 
# 
# From -- ./inp_files/8382.got.cif
#   From: 2010.05.17/outbox.cif.g08.bks.cpg/sg58_5_cif.got.tgz:8382.got - 2010.06.03 14:20:14.
