data_PCOD9441904
_publ_section_title
;
Structure prediction by ZEFSAII (Michael W. Deem and Ramdas Pophale) SiO2 
 PCOD9441904
Probable space group: P N N M
;
_chemical_formula_sum "Si O2"
_cell_formula_units_Z 56
_cell_length_a 14.994552
_cell_length_b 22.084679
_cell_length_c 7.725811
_cell_angle_alpha 90.000000
_cell_angle_beta 90.000000
_cell_angle_gamma 90.000000
_cell_volume 2558.401290
_symmetry_space_group_name_H-M "P N N M"
_symmetry_group_IT_number 58
_symmetry_cell_setting 'orthorhombic'
loop_
_space_group_symop_operation_xyz
x,y,z
-x,-y,z
1/2+x,1/2-y,1/2-z
1/2-x,1/2+y,1/2-z
-x,-y,-z
x,y,-z
1/2-x,1/2+y,1/2+z
1/2+x,1/2-y,1/2+z
loop_
_atom_site_type_symbol
_atom_site_label
_atom_site_fract_x
_atom_site_fract_y
_atom_site_fract_z
Si Si1 0.388274 0.662672 0.291938
Si Si2 0.900043 0.434393 0.300494
Si Si3 0.094936 0.025353 0.208229
Si Si4 0.903026 0.571040 0.198881
Si Si5 0.914639 0.198118 0.292299
Si Si6 0.709277 0.588988 0.791729
Si Si7 0.305291 0.186579 0.212216
O O1 0.383783 0.660176 0.500000
O O2 0.389564 0.593225 0.226992
O O3 0.481281 0.693514 0.247203
O O4 0.297166 0.694102 0.233402
O O5 0.875026 0.446269 0.500000
O O6 0.891794 0.497997 0.203771
O O7 0.841624 0.379006 0.232945
O O8 0.004331 0.415837 0.293452
O O9 0.171108 0.977243 0.251083
O O10 0.089638 0.028635 0.000000
O O11 0.000000 0.000000 0.273092
O O12 0.810598 0.597071 0.271801
O O13 0.914021 0.590491 0.000000
O O14 0.905932 0.197559 0.500000
O O15 0.860589 0.139184 0.226708
O O16 0.867794 0.259022 0.227627
O O17 0.714063 0.593719 0.000000
O O18 0.308692 0.186117 0.000000
#
# Coordination Sequence:
#
# PCOD9441904 Si02
#       7
#     8   8   8   8   8   8   8
#     4  10  20  37  58  81 107 141 179 221 272 324
#     4  10  19  35  57  80 103 139 182 221 266 318
#     4  10  19  32  54  82 111 138 173 226 277 318
#     4  10  20  34  53  81 113 141 172 220 271 318
#     4  10  21  38  55  76 107 142 179 221 261 313
#     4  10  21  34  52  78 110 145 178 213 269 328
#     4   9  20  37  57  77 105 143 183 220 264 320
#
# _framework density 21.888669
#
# number of rings (size 3 to 8) (size 9 to 14) (size 15 to 20)
#    0.000    2.143    1.429    2.571    0.000    4.286 
#    0.000    5.000    0.000    0.000    0.000    0.000 
#    0.000    0.000    0.000    0.000    0.000    0.000 
#
# Total GULP energy -312874.395389 kJ/mol
# GULP energy per Si atom -5587.042775 kJ/mol
# Density = 2.183885 g / cm^3
# Si number density = 21.888669 Si / 1000 Ang^3
#
#
#
# Elastic Constant Matrix: (Units=GPa)
#
#
# Indices 1 2 3 4 5 6 
#
# 1 151.9807 42.8797 -5.2268 0.0000 0.0000 0.0000
# 2 42.8797 63.3750 0.4756 0.0000 0.0000 0.0000
# 3 -5.2268 0.4756 35.2585 0.0000 0.0000 0.0000
# 4 0.0000 0.0000 0.0000 4.0225 0.0000 0.0000
# 5 0.0000 0.0000 0.0000 0.0000 20.1863 0.0000
# 6 0.0000 0.0000 0.0000 0.0000 0.0000 23.1901
#
#
#
# Elastic Compliance Matrix: (Units=1/GPa)
#
#
# Indices 1 2 3 4 5 6 
#
# 1 0.008190 -0.005551 0.001289 0.000000 0.000000 0.000000
# 2 -0.005551 0.019543 -0.001087 0.000000 0.000000 0.000000
# 3 0.001289 -0.001087 0.028568 0.000000 0.000000 0.000000
# 4 0.000000 0.000000 0.000000 0.248601 0.000000 0.000000
# 5 0.000000 0.000000 0.000000 0.000000 0.049539 0.000000
# 6 0.000000 0.000000 0.000000 0.000000 0.000000 0.043122
#
#
# Mechanical properties :
#
#
# Convention : Reuss Voigt Hill
#
# Bulk Modulus (GPa) = 21.92802 36.31901 29.12352
# Shear Modulus (GPa) = 11.80745 23.64549 17.72647
#
# Velocity S-wave (km/s) = 2.32509 3.29030 2.84887
# Velocity P-wave (km/s) = 4.15304 5.57345 4.91483
#
# Compressibility (1/GPa) = 0.04560374
#
# Stress axis : x y z
#
# Youngs Moduli (GPa) = 122.09494 51.16855 35.00454
#
# Poissons Ratio (x) = 0.28405 -0.04512
# Poissons Ratio (y) = 0.67778 0.03803
# Poissons Ratio (z) = -0.15738 0.05560
#
# Static dielectric constant tensor:
#      x y z
#    x 1.803200 0.000000 0.000000 
#    y 0.000000 1.771410 0.000000 
#    z 0.000000 0.000000 1.812920 
# 
# From -- ./inp_files/6388.got.cif
#   From: 2010.05.17/outbox.cif.g08.bks.cpg/sg58_4_cif.got.tgz:6388.got - 2010.06.03 14:20:14.
