data_PCOD9441455
_publ_section_title
;
Structure prediction by ZEFSAII (Michael W. Deem and Ramdas Pophale) SiO2 
 PCOD9441455
Probable space group: P N N M
;
_chemical_formula_sum "Si O2"
_cell_formula_units_Z 36
_cell_length_a 13.378305
_cell_length_b 4.918365
_cell_length_c 22.660165
_cell_angle_alpha 90.000000
_cell_angle_beta 90.000000
_cell_angle_gamma 90.000000
_cell_volume 1491.024968
_symmetry_space_group_name_H-M "P N N M"
_symmetry_group_IT_number 58
_symmetry_cell_setting 'orthorhombic'
loop_
_space_group_symop_operation_xyz
x,y,z
-x,-y,z
1/2+x,1/2-y,1/2-z
1/2-x,1/2+y,1/2-z
-x,-y,-z
x,y,-z
1/2-x,1/2+y,1/2+z
1/2+x,1/2-y,1/2+z
loop_
_atom_site_type_symbol
_atom_site_label
_atom_site_fract_x
_atom_site_fract_y
_atom_site_fract_z
Si Si1 0.140160 0.917305 0.643721
Si Si2 0.151205 0.356513 0.806866
Si Si3 0.188144 0.415290 0.433813
Si Si4 0.000000 0.500000 0.294016
Si Si5 0.897554 0.141485 0.115581
O O1 0.231169 0.921838 0.691047
O O2 0.173761 0.718688 0.590127
O O3 0.048905 0.751475 0.671508
O O4 0.136614 0.210387 0.612617
O O5 0.103305 0.560921 0.855552
O O6 0.090020 0.395038 0.747466
O O7 0.136034 0.053395 0.830456
O O8 0.150272 0.380423 0.500000
O O9 0.306941 0.360647 0.430332
O O10 0.000000 0.000000 0.094315
#
# Coordination Sequence:
#
# PCOD9441455 Si02
#       5
#     8   8   8   4   8
#     4  10  25  41  64  99 128 169 232 269 325 419
#     4  10  22  38  61  93 134 170 207 273 333 396
#     4  10  22  43  64  88 132 173 217 289 336 372
#     4  12  24  44  69  94 137 186 216 272 346 404
#     4  10  18  36  61  94 127 163 216 263 335 420
#
# _framework density 24.144462999999998
#
# number of rings (size 3 to 8) (size 9 to 14) (size 15 to 20)
#    0.000    1.778    2.222    0.667    0.000   10.222 
#    0.000    3.333    0.000    8.000    0.000    0.000 
#    0.000    0.000    0.000    0.000    0.000    0.000 
#
# Total GULP energy -201437.005667 kJ/mol
# GULP energy per Si atom -5595.472380 kJ/mol
# Density = 2.408951 g / cm^3
# Si number density = 24.144463 Si / 1000 Ang^3
#
#
#
# Elastic Constant Matrix: (Units=GPa)
#
#
# Indices 1 2 3 4 5 6 
#
# 1 136.3368 25.2710 47.4098 0.0000 0.0000 0.0000
# 2 25.2710 85.6434 -3.6065 0.0000 0.0000 0.0000
# 3 47.4098 -3.6065 86.3978 0.0000 0.0000 0.0000
# 4 0.0000 0.0000 0.0000 10.5690 0.0000 0.0000
# 5 0.0000 0.0000 0.0000 0.0000 2.2904 0.0000
# 6 0.0000 0.0000 0.0000 0.0000 0.0000 43.8116
#
#
#
# Elastic Compliance Matrix: (Units=1/GPa)
#
#
# Indices 1 2 3 4 5 6 
#
# 1 0.009839 -0.003136 -0.005530 0.000000 0.000000 0.000000
# 2 -0.003136 0.012696 0.002251 0.000000 0.000000 0.000000
# 3 -0.005530 0.002251 0.014703 0.000000 0.000000 0.000000
# 4 0.000000 0.000000 0.000000 0.094616 0.000000 0.000000
# 5 0.000000 0.000000 0.000000 0.000000 0.436603 0.000000
# 6 0.000000 0.000000 0.000000 0.000000 0.000000 0.022825
#
#
# Mechanical properties :
#
#
# Convention : Reuss Voigt Hill
#
# Bulk Modulus (GPa) = 40.97017 49.61407 45.29212
# Shear Modulus (GPa) = 8.16661 27.28779 17.72720
#
# Velocity S-wave (km/s) = 1.84112 3.36547 2.71258
# Velocity P-wave (km/s) = 4.63953 5.97456 5.34886
#
# Compressibility (1/GPa) = 0.02440800
#
# Stress axis : x y z
#
# Youngs Moduli (GPa) = 101.63547 78.76187 68.01402
#
# Poissons Ratio (x) = 0.24701 0.37612
# Poissons Ratio (y) = 0.31874 -0.15309
# Poissons Ratio (z) = 0.56204 -0.17729
#
# Static dielectric constant tensor:
#      x y z
#    x 2.033070 0.000000 0.000000 
#    y 0.000000 1.875210 0.000000 
#    z 0.000000 0.000000 1.850430 
# 
# From -- ./inp_files/32123.got.cif
#   From: 2010.05.17/outbox.cif.g08.bks.cpg/sg58_17_cif.got.tgz:32123.got - 2010.06.03 14:20:14.
