data_PCOD9441454
_publ_section_title
;
Structure prediction by ZEFSAII (Michael W. Deem and Ramdas Pophale) SiO2 
 PCOD9441454
Probable space group: P N N M
;
_chemical_formula_sum "Si O2"
_cell_formula_units_Z 60
_cell_length_a 11.432209
_cell_length_b 11.894528
_cell_length_c 21.859661
_cell_angle_alpha 90.000000
_cell_angle_beta 90.000000
_cell_angle_gamma 90.000000
_cell_volume 2972.492661
_symmetry_space_group_name_H-M "P N N M"
_symmetry_group_IT_number 58
_symmetry_cell_setting 'orthorhombic'
loop_
_space_group_symop_operation_xyz
x,y,z
-x,-y,z
1/2+x,1/2-y,1/2-z
1/2-x,1/2+y,1/2-z
-x,-y,-z
x,y,-z
1/2-x,1/2+y,1/2+z
1/2+x,1/2-y,1/2+z
loop_
_atom_site_type_symbol
_atom_site_label
_atom_site_fract_x
_atom_site_fract_y
_atom_site_fract_z
Si Si1 0.171319 0.073057 0.430962
Si Si2 0.102796 0.590840 0.873187
Si Si3 0.809631 0.539567 0.757053
Si Si4 0.771468 0.184561 0.429933
Si Si5 0.000000 0.500000 0.661895
Si Si6 0.451434 0.388412 0.236790
Si Si7 0.497087 0.243832 0.122576
Si Si8 0.583657 0.247195 0.672901
O O1 0.126049 0.071203 0.500000
O O2 0.306505 0.109066 0.426790
O O3 0.095314 0.164837 0.395187
O O4 0.184729 0.941737 0.411546
O O5 0.176717 0.542866 0.815483
O O6 0.000000 0.500000 0.886430
O O7 0.037413 0.702697 0.854688
O O8 0.678917 0.578831 0.742302
O O9 0.875606 0.653582 0.777935
O O10 0.885758 0.481886 0.704431
O O11 0.727197 0.179226 0.500000
O O12 0.679058 0.235906 0.381466
O O13 0.890608 0.252572 0.424749
O O14 0.031815 0.385713 0.627245
O O15 0.500000 0.500000 0.204529
O O16 0.448439 0.287463 0.188223
O O17 0.545389 0.356915 0.289584
#
# Coordination Sequence:
#
# PCOD9441454 Si02
#       8
#     8   8   8   8   4   8   8   8
#     4  11  23  39  65  96 128 167 221 277 326 384
#     4  10  18  36  61  88 134 163 211 263 325 393
#     4  11  20  40  60  95 128 173 204 267 328 404
#     4  11  23  43  68  94 132 176 222 278 339 398
#     4  12  26  42  67  90 135 178 212 260 346 408
#     4  12  25  36  66  99 134 166 216 274 333 406
#     4  12  24  42  64  98 128 174 219 276 335 400
#     4  11  22  39  61  98 131 172 214 263 333 409
#
# _framework density 20.185079999999999
#
# number of rings (size 3 to 8) (size 9 to 14) (size 15 to 20)
#    0.000    0.800    7.333    2.400    3.733    2.933 
#    0.000    1.333    0.000    0.400    0.000    0.000 
#    0.000    0.000    0.000    0.000    0.000    0.000 
#
# Total GULP energy -334571.246833 kJ/mol
# GULP energy per Si atom -5576.187447 kJ/mol
# Density = 2.013914 g / cm^3
# Si number density = 20.185080 Si / 1000 Ang^3
#
#
#
# Elastic Constant Matrix: (Units=GPa)
#
#
# Indices 1 2 3 4 5 6 
#
# 1 78.9703 35.6332 39.3203 0.0000 0.0000 0.0000
# 2 35.6332 65.2124 33.3570 0.0000 0.0000 0.0000
# 3 39.3203 33.3570 66.9007 0.0000 0.0000 0.0000
# 4 0.0000 0.0000 0.0000 15.6854 0.0000 0.0000
# 5 0.0000 0.0000 0.0000 0.0000 24.5018 0.0000
# 6 0.0000 0.0000 0.0000 0.0000 0.0000 21.4891
#
#
#
# Elastic Compliance Matrix: (Units=1/GPa)
#
#
# Indices 1 2 3 4 5 6 
#
# 1 0.019774 -0.006524 -0.008369 0.000000 0.000000 0.000000
# 2 -0.006524 0.022737 -0.007502 0.000000 0.000000 0.000000
# 3 -0.008369 -0.007502 0.023607 0.000000 0.000000 0.000000
# 4 0.000000 0.000000 0.000000 0.063753 0.000000 0.000000
# 5 0.000000 0.000000 0.000000 0.000000 0.040813 0.000000
# 6 0.000000 0.000000 0.000000 0.000000 0.000000 0.046535
#
#
# Mechanical properties :
#
#
# Convention : Reuss Voigt Hill
#
# Bulk Modulus (GPa) = 46.88855 47.52271 47.20563
# Shear Modulus (GPa) = 18.57915 19.18680 18.88298
#
# Velocity S-wave (km/s) = 3.03717 3.08643 3.06190
# Velocity P-wave (km/s) = 5.96481 6.02462 5.99479
#
# Compressibility (1/GPa) = 0.02132717
#
# Stress axis : x y z
#
# Youngs Moduli (GPa) = 50.57220 43.98154 42.36025
#
# Poissons Ratio (x) = 0.28693 0.35451
# Poissons Ratio (y) = 0.32993 0.31780
# Poissons Ratio (z) = 0.42324 0.32996
#
# Static dielectric constant tensor:
#      x y z
#    x 1.755020 0.000000 0.000000 
#    y 0.000000 1.756760 0.000000 
#    z 0.000000 0.000000 1.791320 
# 
# From -- ./inp_files/29652.got.cif
#   From: 2010.05.17/outbox.cif.g08.bks.cpg/sg58_15_cif.got.tgz:29652.got - 2010.06.03 14:20:14.
