data_PCOD9441071
_publ_section_title
;
Structure prediction by ZEFSAII (Michael W. Deem and Ramdas Pophale) SiO2 
 PCOD9441071
Probable space group: P N N M
;
_chemical_formula_sum "Si O2"
_cell_formula_units_Z 48
_cell_length_a 9.194028
_cell_length_b 14.237930
_cell_length_c 17.957301
_cell_angle_alpha 90.000000
_cell_angle_beta 90.000000
_cell_angle_gamma 90.000000
_cell_volume 2350.681221
_symmetry_space_group_name_H-M "P N N M"
_symmetry_group_IT_number 58
_symmetry_cell_setting 'orthorhombic'
loop_
_space_group_symop_operation_xyz
x,y,z
-x,-y,z
1/2+x,1/2-y,1/2-z
1/2-x,1/2+y,1/2-z
-x,-y,-z
x,y,-z
1/2-x,1/2+y,1/2+z
1/2+x,1/2-y,1/2+z
loop_
_atom_site_type_symbol
_atom_site_label
_atom_site_fract_x
_atom_site_fract_y
_atom_site_fract_z
Si Si1 0.299633 0.374132 0.413969
Si Si2 0.495114 0.772300 0.866077
Si Si3 0.128267 0.076151 0.417136
Si Si4 0.856246 0.448424 0.383038
Si Si5 0.268071 0.524076 0.768178
Si Si6 0.546179 0.650850 0.270164
O O1 0.313808 0.346694 0.500000
O O2 0.151920 0.332013 0.377903
O O3 0.278234 0.487667 0.409538
O O4 0.422512 0.338846 0.357454
O O5 0.453782 0.674823 0.905140
O O6 0.622612 0.838387 0.898487
O O7 0.532073 0.742299 0.781312
O O8 0.188108 0.071334 0.500000
O O9 0.246633 0.055199 0.353435
O O10 0.000000 0.000000 0.407871
O O11 0.853127 0.458000 0.293190
O O12 0.000000 0.500000 0.413448
O O13 0.325335 0.417181 0.761068
O O14 0.400486 0.590974 0.741189
#
# Coordination Sequence:
#
# PCOD9441071 Si02
#       6
#     8   8   8   8   8   8
#     4  10  21  36  54  80 112 142 180 230 280 327
#     4  10  19  32  51  79 106 143 185 224 269 331
#     4  10  18  30  49  76 105 136 177 233 278 313
#     4   9  20  34  54  78 106 146 180 222 273 329
#     4   9  16  35  52  74 107 135 183 224 267 332
#     4   9  18  32  52  78 103 141 180 225 265 327
#
# _framework density 20.419611
#
# number of rings (size 3 to 8) (size 9 to 14) (size 15 to 20)
#    0.000    2.500    3.333    0.500    4.667    3.667 
#    0.000    6.667    0.000    0.500    0.000    9.333 
#    0.000    0.000    0.000    0.000    0.000    0.000 
#
# Total GULP energy -267302.320735 kJ/mol
# GULP energy per Si atom -5568.798349 kJ/mol
# Density = 2.037314 g / cm^3
# Si number density = 20.419611 Si / 1000 Ang^3
#
#
#
# Elastic Constant Matrix: (Units=GPa)
#
#
# Indices 1 2 3 4 5 6 
#
# 1 11.0885 2.8854 17.2593 0.0000 0.0000 0.0000
# 2 2.8854 99.2771 24.4914 0.0000 0.0000 0.0000
# 3 17.2593 24.4914 162.9817 0.0000 0.0000 0.0000
# 4 0.0000 0.0000 0.0000 8.4289 0.0000 0.0000
# 5 0.0000 0.0000 0.0000 0.0000 -10.3724 0.0000
# 6 0.0000 0.0000 0.0000 0.0000 0.0000 11.1078
#
#
#
# Elastic Compliance Matrix: (Units=1/GPa)
#
#
# Indices 1 2 3 4 5 6 
#
# 1 0.107993 -0.000330 -0.011387 0.000000 0.000000 0.000000
# 2 -0.000330 0.010462 -0.001537 0.000000 0.000000 0.000000
# 3 -0.011387 -0.001537 0.007572 0.000000 0.000000 0.000000
# 4 0.000000 0.000000 0.000000 0.118640 0.000000 0.000000
# 5 0.000000 0.000000 0.000000 0.000000 -0.096410 0.000000
# 6 0.000000 0.000000 0.000000 0.000000 0.000000 0.090027
#
#
# Mechanical properties :
#
#
# Convention : Reuss Voigt Hill
#
# Bulk Modulus (GPa) = 10.04825 40.29107 25.16966
# Shear Modulus (GPa) = 16.78054 17.08026 16.93040
#
# Velocity S-wave (km/s) = 2.86979 2.89531 2.88258
# Velocity P-wave (km/s) = 3.98905 5.56340 4.84066
#
# Compressibility (1/GPa) = 0.09951985
#
# Stress axis : x y z
#
# Youngs Moduli (GPa) = 9.25989 95.58755 132.05743
#
# Poissons Ratio (x) = 0.03151 1.50369
# Poissons Ratio (y) = 0.00305 0.20299
# Poissons Ratio (z) = 0.10544 0.14693
#
# Static dielectric constant tensor:
#      x y z
#    x 1.735680 0.000000 0.000000 
#    y 0.000000 1.789220 0.000000 
#    z 0.000000 0.000000 1.787680 
# 
# From -- ./inp_files/26213.got.cif
#   From: 2010.05.17/outbox.cif.g08.bks.cpg/sg58_14_cif.got.tgz:26213.got - 2010.06.03 14:20:14.
