data_PCOD9441344
_publ_section_title
;
Structure prediction by ZEFSAII (Michael W. Deem and Ramdas Pophale) SiO2 
 PCOD9441344
Probable space group: P N N M
;
_chemical_formula_sum "Si O2"
_cell_formula_units_Z 48
_cell_length_a 8.255796
_cell_length_b 14.954820
_cell_length_c 18.811497
_cell_angle_alpha 90.000000
_cell_angle_beta 90.000000
_cell_angle_gamma 90.000000
_cell_volume 2322.541596
_symmetry_space_group_name_H-M "P N N M"
_symmetry_group_IT_number 58
_symmetry_cell_setting 'orthorhombic'
loop_
_space_group_symop_operation_xyz
x,y,z
-x,-y,z
1/2+x,1/2-y,1/2-z
1/2-x,1/2+y,1/2-z
-x,-y,-z
x,y,-z
1/2-x,1/2+y,1/2+z
1/2+x,1/2-y,1/2+z
loop_
_atom_site_type_symbol
_atom_site_label
_atom_site_fract_x
_atom_site_fract_y
_atom_site_fract_z
Si Si1 0.314361 0.464672 0.580099
Si Si2 0.419615 0.906055 0.582437
Si Si3 0.819804 0.127899 0.293994
Si Si4 0.176509 0.532226 0.720070
Si Si5 0.524414 0.713731 0.582534
Si Si6 0.141537 0.201630 0.234892
O O1 0.500000 0.500000 0.588257
O O2 0.263037 0.483906 0.500000
O O3 0.204576 0.513307 0.637134
O O4 0.329338 0.357031 0.589375
O O5 0.374052 0.913635 0.500000
O O6 0.262121 0.883815 0.629288
O O7 0.541843 0.821106 0.588217
O O8 0.500000 0.000000 0.603398
O O9 0.702098 0.198300 0.253927
O O10 0.996630 0.169691 0.285355
O O11 0.807575 0.032361 0.256849
O O12 0.210699 0.633031 0.741883
O O13 0.000000 0.500000 0.740581
O O14 0.463149 0.698450 0.500000
O O15 0.415802 0.692845 0.652115
#
# Coordination Sequence:
#
# PCOD9441344 Si02
#       6
#     8   8   8   8   8   8
#     4  10  18  33  57  84 116 154 192 232 290 357
#     4   9  19  36  60  90 119 154 203 254 305 359
#     4  11  22  38  59  87 117 154 198 245 299 355
#     4  12  23  37  56  85 120 157 200 242 289 351
#     4   9  17  33  60  86 113 153 197 236 290 357
#     4  11  22  39  61  86 118 155 196 243 299 357
#
# _framework density 20.667014999999999
#
# number of rings (size 3 to 8) (size 9 to 14) (size 15 to 20)
#    0.000    1.667    3.333    2.000    0.000    1.667 
#    0.000    0.000    0.000    6.000    0.000    0.000 
#    0.000    0.000    0.000    0.000    0.000    0.000 
#
# Total GULP energy -267738.654692 kJ/mol
# GULP energy per Si atom -5577.888639 kJ/mol
# Density = 2.061998 g / cm^3
# Si number density = 20.667015 Si / 1000 Ang^3
#
#
#
# Elastic Constant Matrix: (Units=GPa)
#
#
# Indices 1 2 3 4 5 6 
#
# 1 63.2324 13.1449 22.2617 0.0000 0.0000 0.0000
# 2 13.1449 105.6242 19.5908 0.0000 0.0000 0.0000
# 3 22.2617 19.5908 102.9339 0.0000 0.0000 0.0000
# 4 0.0000 0.0000 0.0000 9.7179 0.0000 0.0000
# 5 0.0000 0.0000 0.0000 0.0000 12.4697 0.0000
# 6 0.0000 0.0000 0.0000 0.0000 0.0000 26.7914
#
#
#
# Elastic Compliance Matrix: (Units=1/GPa)
#
#
# Indices 1 2 3 4 5 6 
#
# 1 0.017349 -0.001517 -0.003464 0.000000 0.000000 0.000000
# 2 -0.001517 0.009947 -0.001565 0.000000 0.000000 0.000000
# 3 -0.003464 -0.001565 0.010762 0.000000 0.000000 0.000000
# 4 0.000000 0.000000 0.000000 0.102903 0.000000 0.000000
# 5 0.000000 0.000000 0.000000 0.000000 0.080194 0.000000
# 6 0.000000 0.000000 0.000000 0.000000 0.000000 0.037325
#
#
# Mechanical properties :
#
#
# Convention : Reuss Voigt Hill
#
# Bulk Modulus (GPa) = 40.05249 42.42062 41.23655
# Shear Modulus (GPa) = 17.86394 24.24867 21.05631
#
# Velocity S-wave (km/s) = 2.94321 3.42907 3.19538
# Velocity P-wave (km/s) = 5.56524 6.02066 5.79742
#
# Compressibility (1/GPa) = 0.02496724
#
# Stress axis : x y z
#
# Youngs Moduli (GPa) = 57.63909 100.53723 92.92038
#
# Poissons Ratio (x) = 0.15249 0.32183
# Poissons Ratio (y) = 0.08742 0.14542
# Poissons Ratio (z) = 0.19963 0.15735
#
# Static dielectric constant tensor:
#      x y z
#    x 1.725150 0.000000 0.000000 
#    y 0.000000 1.764130 0.000000 
#    z 0.000000 0.000000 1.765470 
# 
# From -- ./inp_files/28847.got.cif
#   From: 2010.05.17/outbox.cif.g08.bks.cpg/sg58_15_cif.got.tgz:28847.got - 2010.06.03 14:20:14.
