data_PCOD9441776
_publ_section_title
;
Structure prediction by ZEFSAII (Michael W. Deem and Ramdas Pophale) SiO2 
 PCOD9441776
Probable space group: P N N M
;
_chemical_formula_sum "Si O2"
_cell_formula_units_Z 48
_cell_length_a 7.067383
_cell_length_b 15.320360
_cell_length_c 19.832857
_cell_angle_alpha 90.000000
_cell_angle_beta 90.000000
_cell_angle_gamma 90.000000
_cell_volume 2147.399653
_symmetry_space_group_name_H-M "P N N M"
_symmetry_group_IT_number 58
_symmetry_cell_setting 'orthorhombic'
loop_
_space_group_symop_operation_xyz
x,y,z
-x,-y,z
1/2+x,1/2-y,1/2-z
1/2-x,1/2+y,1/2-z
-x,-y,-z
x,y,-z
1/2-x,1/2+y,1/2+z
1/2+x,1/2-y,1/2+z
loop_
_atom_site_type_symbol
_atom_site_label
_atom_site_fract_x
_atom_site_fract_y
_atom_site_fract_z
Si Si1 0.402513 0.752603 0.426776
Si Si2 0.139993 0.302036 0.784362
Si Si3 0.714511 0.029387 0.215618
Si Si4 0.793218 0.867263 0.292130
Si Si5 0.655567 0.926383 0.575535
Si Si6 0.849479 0.078252 0.073086
O O1 0.301820 0.745661 0.500000
O O2 0.292201 0.764739 0.356563
O O3 0.537104 0.836977 0.430794
O O4 0.534391 0.667805 0.419329
O O5 0.258793 0.385198 0.759927
O O6 0.120116 0.224440 0.730372
O O7 0.928873 0.339633 0.791947
O O8 0.728086 0.059132 0.138602
O O9 0.500000 0.000000 0.228266
O O10 0.828089 0.942938 0.237085
O O11 0.811241 0.909506 0.366575
O O12 0.726808 0.948807 0.500000
O O13 0.500000 0.000000 0.595522
O O14 0.749995 0.080743 0.000000
O O15 0.000000 0.000000 0.071184
#
# Coordination Sequence:
#
# PCOD9441776 Si02
#       6
#     8   8   8   8   8   8
#     4   9  17  30  49  71  94 122 160 202 238 279
#     4  10  19  32  50  72  99 129 162 200 244 291
#     4  10  20  32  48  73 103 131 160 200 250 300
#     4  10  19  32  49  72 100 128 162 201 244 292
#     4   9  16  28  48  72  95 120 155 199 240 278
#     4  10  20  34  52  73  97 129 169 207 242 285
#
# _framework density 22.352616000000001
#
# number of rings (size 3 to 8) (size 9 to 14) (size 15 to 20)
#    0.000    2.333    0.000    5.500    0.000    0.333 
#    0.000    0.000    0.000    3.000    0.000    0.000 
#    0.000   17.333    0.000    0.000    0.000    0.000 
#
# Total GULP energy -267680.465246 kJ/mol
# GULP energy per Si atom -5576.676359 kJ/mol
# Density = 2.230174 g / cm^3
# Si number density = 22.352616 Si / 1000 Ang^3
#
#
#
# Elastic Constant Matrix: (Units=GPa)
#
#
# Indices 1 2 3 4 5 6 
#
# 1 16.0978 12.1104 6.2413 0.0000 0.0000 0.0000
# 2 12.1104 161.9673 52.6175 0.0000 0.0000 0.0000
# 3 6.2413 52.6175 189.3952 0.0000 0.0000 0.0000
# 4 0.0000 0.0000 0.0000 30.5109 0.0000 0.0000
# 5 0.0000 0.0000 0.0000 0.0000 10.1365 0.0000
# 6 0.0000 0.0000 0.0000 0.0000 0.0000 24.2568
#
#
#
# Elastic Compliance Matrix: (Units=1/GPa)
#
#
# Indices 1 2 3 4 5 6 
#
# 1 0.065957 -0.004645 -0.000883 0.000000 0.000000 0.000000
# 2 -0.004645 0.007114 -0.001823 0.000000 0.000000 0.000000
# 3 -0.000883 -0.001823 0.005816 0.000000 0.000000 0.000000
# 4 0.000000 0.000000 0.000000 0.032775 0.000000 0.000000
# 5 0.000000 0.000000 0.000000 0.000000 0.098654 0.000000
# 6 0.000000 0.000000 0.000000 0.000000 0.000000 0.041225
#
#
# Mechanical properties :
#
#
# Convention : Reuss Voigt Hill
#
# Bulk Modulus (GPa) = 15.58021 56.59986 36.09004
# Shear Modulus (GPa) = 17.38299 32.74692 25.06495
#
# Velocity S-wave (km/s) = 2.79170 3.83170 3.35228
# Velocity P-wave (km/s) = 4.16855 6.70465 5.58252
#
# Compressibility (1/GPa) = 0.06418398
#
# Stress axis : x y z
#
# Youngs Moduli (GPa) = 15.16141 140.57415 171.95125
#
# Poissons Ratio (x) = 0.65293 0.15186
# Poissons Ratio (y) = 0.07042 0.31351
# Poissons Ratio (z) = 0.01339 0.25630
#
# Static dielectric constant tensor:
#      x y z
#    x 1.875790 0.000000 0.000000 
#    y 0.000000 1.803900 0.000000 
#    z 0.000000 0.000000 1.974530 
# 
# From -- ./inp_files/25297.got.cif
#   From: 2010.05.17/outbox.cif.g08.bks.cpg/sg58_13_cif.got.tgz:25297.got - 2010.06.03 14:20:14.
