data_PCOD9441812
_publ_section_title
;
Structure prediction by ZEFSAII (Michael W. Deem and Ramdas Pophale) SiO2 
 PCOD9441812
Probable space group: P N N M
;
_chemical_formula_sum "Si O2"
_cell_formula_units_Z 64
_cell_length_a 19.793412
_cell_length_b 16.683744
_cell_length_c 7.497688
_cell_angle_alpha 90.000000
_cell_angle_beta 90.000000
_cell_angle_gamma 90.000000
_cell_volume 2475.948153
_symmetry_space_group_name_H-M "P N N M"
_symmetry_group_IT_number 58
_symmetry_cell_setting 'orthorhombic'
loop_
_space_group_symop_operation_xyz
x,y,z
-x,-y,z
1/2+x,1/2-y,1/2-z
1/2-x,1/2+y,1/2-z
-x,-y,-z
x,y,-z
1/2-x,1/2+y,1/2+z
1/2+x,1/2-y,1/2+z
loop_
_atom_site_type_symbol
_atom_site_label
_atom_site_fract_x
_atom_site_fract_y
_atom_site_fract_z
Si Si1 0.259275 0.094228 0.716385
Si Si2 0.607535 0.453200 0.697814
Si Si3 0.629906 0.030622 0.295674
Si Si4 0.990057 0.627254 0.782240
Si Si5 0.217801 0.308186 0.793893
Si Si6 0.407241 0.715142 0.719939
Si Si7 0.855900 0.127171 0.299404
Si Si8 0.122734 0.702222 0.214313
O O1 0.252462 0.089566 0.500000
O O2 0.187220 0.071057 0.795671
O O3 0.301045 0.175228 0.760934
O O4 0.313948 0.028327 0.778903
O O5 0.580090 0.452115 0.500000
O O6 0.575094 0.374136 0.786674
O O7 0.606123 0.546391 0.747966
O O8 0.617980 0.001815 0.500000
O O9 0.557794 0.055743 0.216846
O O10 0.667605 0.115869 0.303392
O O11 0.956759 0.712762 0.731607
O O12 0.067875 0.636053 0.728669
O O13 0.987613 0.622443 0.000000
O O14 0.168271 0.240135 0.715721
O O15 0.285580 0.345081 0.706888
O O16 0.231644 0.285523 0.000000
O O17 0.405218 0.714123 0.500000
O O18 0.834603 0.108605 0.500000
O O19 0.895851 0.210331 0.286701
O O20 0.119520 0.706773 0.000000
#
# Coordination Sequence:
#
# PCOD9441812 Si02
#       8
#     8   8   8   8   8   8   8   8
#     4  10  19  32  51  80 116 142 167 208 265 326
#     4  11  21  33  52  80 108 133 174 225 269 317
#     4   8  13  25  48  76 104 135 169 207 251 305
#     4   8  15  30  51  75 104 137 179 223 257 297
#     4   8  13  25  47  72  96 126 166 203 248 309
#     4   8  15  28  49  75  99 128 169 218 261 304
#     4  11  21  35  54  73 102 142 176 214 272 328
#     4  10  21  34  51  79 109 137 175 224 264 304
#
# _framework density 25.848682
#
# number of rings (size 3 to 8) (size 9 to 14) (size 15 to 20)
#    0.000    2.750    1.250    3.000    0.000    2.000 
#    0.000    3.125    0.000    6.000    0.000    1.750 
#    0.000    0.000    0.000    0.000    0.000    0.000 
#
# Total GULP energy -357044.729759 kJ/mol
# GULP energy per Si atom -5578.823902 kJ/mol
# Density = 2.578985 g / cm^3
# Si number density = 25.848682 Si / 1000 Ang^3
#
#
#
# Elastic Constant Matrix: (Units=GPa)
#
#
# Indices 1 2 3 4 5 6 
#
# 1 60.3498 -27.7627 -7.5610 0.0000 0.0000 0.0000
# 2 -27.7627 108.6970 0.4319 0.0000 0.0000 0.0000
# 3 -7.5610 0.4319 69.7367 0.0000 0.0000 0.0000
# 4 0.0000 0.0000 0.0000 3.5163 0.0000 0.0000
# 5 0.0000 0.0000 0.0000 0.0000 3.4744 0.0000
# 6 0.0000 0.0000 0.0000 0.0000 0.0000 37.9367
#
#
#
# Elastic Compliance Matrix: (Units=1/GPa)
#
#
# Indices 1 2 3 4 5 6 
#
# 1 0.019061 0.004860 0.002037 0.000000 0.000000 0.000000
# 2 0.004860 0.010439 0.000462 0.000000 0.000000 0.000000
# 3 0.002037 0.000462 0.014558 0.000000 0.000000 0.000000
# 4 0.000000 0.000000 0.000000 0.284392 0.000000 0.000000
# 5 0.000000 0.000000 0.000000 0.000000 0.287821 0.000000
# 6 0.000000 0.000000 0.000000 0.000000 0.000000 0.026360
#
#
# Mechanical properties :
#
#
# Convention : Reuss Voigt Hill
#
# Bulk Modulus (GPa) = 17.01356 18.77779 17.89568
# Shear Modulus (GPa) = 7.72195 27.23049 17.47622
#
# Velocity S-wave (km/s) = 1.73028 3.24922 2.60301
# Velocity P-wave (km/s) = 3.25393 4.62135 3.99656
#
# Compressibility (1/GPa) = 0.05877663
#
# Stress axis : x y z
#
# Youngs Moduli (GPa) = 52.46275 95.79047 68.69272
#
# Poissons Ratio (x) = -0.46558 -0.13990
# Poissons Ratio (y) = -0.25499 -0.03176
# Poissons Ratio (z) = -0.10684 -0.04428
#
# Static dielectric constant tensor:
#      x y z
#    x 2.061300 0.000000 0.000000 
#    y 0.000000 2.113720 0.000000 
#    z 0.000000 0.000000 1.999430 
# 
# From -- ./inp_files/9924.got.cif
#   From: 2010.05.17/outbox.cif.g08.bks.cpg/sg58_5_cif.got.tgz:9924.got - 2010.06.03 14:20:14.
