data_PCOD9441381
_publ_section_title
;
Structure prediction by ZEFSAII (Michael W. Deem and Ramdas Pophale) SiO2 
 PCOD9441381
Probable space group: P N N M
;
_chemical_formula_sum "Si O2"
_cell_formula_units_Z 52
_cell_length_a 16.341037
_cell_length_b 10.958109
_cell_length_c 16.615096
_cell_angle_alpha 90.000000
_cell_angle_beta 90.000000
_cell_angle_gamma 90.000000
_cell_volume 2975.213146
_symmetry_space_group_name_H-M "P N N M"
_symmetry_group_IT_number 58
_symmetry_cell_setting 'orthorhombic'
loop_
_space_group_symop_operation_xyz
x,y,z
-x,-y,z
1/2+x,1/2-y,1/2-z
1/2-x,1/2+y,1/2-z
-x,-y,-z
x,y,-z
1/2-x,1/2+y,1/2+z
1/2+x,1/2-y,1/2+z
loop_
_atom_site_type_symbol
_atom_site_label
_atom_site_fract_x
_atom_site_fract_y
_atom_site_fract_z
Si Si1 0.189183 0.072815 0.766406
Si Si2 0.616220 0.143862 0.090725
Si Si3 0.933966 0.890275 0.093468
Si Si4 0.500000 0.000000 0.789778
Si Si5 0.037040 0.120182 0.349560
Si Si6 0.046351 0.744957 0.796785
Si Si7 0.270033 0.308959 0.302398
O O1 0.145014 0.078454 0.853199
O O2 0.242477 0.194056 0.752040
O O3 0.117537 0.082307 0.700427
O O4 0.231827 0.941426 0.759646
O O5 0.571154 0.053412 0.152750
O O6 0.562548 0.267640 0.095108
O O7 0.705642 0.177653 0.124888
O O8 0.619366 0.096654 0.000000
O O9 0.979233 0.776900 0.135942
O O10 0.915591 0.871361 0.000000
O O11 0.000000 0.000000 0.100579
O O12 0.535390 0.891698 0.735061
O O13 0.024390 0.829428 0.280593
O O14 0.000000 0.000000 0.389010
O O15 0.136664 0.779555 0.826066
#
# Coordination Sequence:
#
# PCOD9441381 Si02
#       7
#     8   8   8   4   8   8   8
#     4  10  19  33  52  82 108 140 186 226 268 331
#     4  10  22  34  50  80 111 140 175 224 279 323
#     4  10  19  34  58  82 105 138 183 231 272 327
#     4  10  21  38  59  76 106 152 188 228 261 338
#     4   9  16  33  57  73  95 135 190 226 248 310
#     4  10  18  34  57  83 103 139 192 225 272 324
#     4  11  20  32  55  80 112 144 178 235 278 324
#
# _framework density 17.477739
#
# number of rings (size 3 to 8) (size 9 to 14) (size 15 to 20)
#    0.000    2.000    3.077    3.000    0.000    1.538 
#    0.000    0.385    0.000    8.308    0.000    0.000 
#    0.000    0.000    0.000    0.000    0.000    0.000 
#
# Total GULP energy -289897.854798 kJ/mol
# GULP energy per Si atom -5574.958746 kJ/mol
# Density = 1.743796 g / cm^3
# Si number density = 17.477739 Si / 1000 Ang^3
#
#
#
# Elastic Constant Matrix: (Units=GPa)
#
#
# Indices 1 2 3 4 5 6 
#
# 1 57.9610 21.6053 0.1692 0.0000 0.0000 0.0000
# 2 21.6053 132.0679 22.8784 0.0000 0.0000 0.0000
# 3 0.1692 22.8784 57.4155 0.0000 0.0000 0.0000
# 4 0.0000 0.0000 0.0000 9.8332 0.0000 0.0000
# 5 0.0000 0.0000 0.0000 0.0000 10.1100 0.0000
# 6 0.0000 0.0000 0.0000 0.0000 0.0000 27.6569
#
#
#
# Elastic Compliance Matrix: (Units=1/GPa)
#
#
# Indices 1 2 3 4 5 6 
#
# 1 0.018454 -0.003233 0.001234 0.000000 0.000000 0.000000
# 2 -0.003233 0.008700 -0.003457 0.000000 0.000000 0.000000
# 3 0.001234 -0.003457 0.018791 0.000000 0.000000 0.000000
# 4 0.000000 0.000000 0.000000 0.101697 0.000000 0.000000
# 5 0.000000 0.000000 0.000000 0.000000 0.098912 0.000000
# 6 0.000000 0.000000 0.000000 0.000000 0.000000 0.036157
#
#
# Mechanical properties :
#
#
# Convention : Reuss Voigt Hill
#
# Bulk Modulus (GPa) = 28.54465 37.41670 32.98068
# Shear Modulus (GPa) = 16.37729 23.03943 19.70836
#
# Velocity S-wave (km/s) = 3.06443 3.63466 3.36166
# Velocity P-wave (km/s) = 5.37479 6.25052 5.82913
#
# Compressibility (1/GPa) = 0.03503283
#
# Stress axis : x y z
#
# Youngs Moduli (GPa) = 54.18759 114.94814 53.21755
#
# Poissons Ratio (x) = 0.37160 -0.06566
# Poissons Ratio (y) = 0.17517 0.18397
# Poissons Ratio (z) = -0.06685 0.39738
#
# Static dielectric constant tensor:
#      x y z
#    x 1.608520 0.000000 0.000000 
#    y 0.000000 1.620990 0.000000 
#    z 0.000000 0.000000 1.566490 
# 
# From -- ./inp_files/27267.got.cif
#   From: 2010.05.17/outbox.cif.g08.bks.cpg/sg58_14_cif.got.tgz:27267.got - 2010.06.03 14:20:14.
