data_PCOD9441805
_publ_section_title
;
Structure prediction by ZEFSAII (Michael W. Deem and Ramdas Pophale) SiO2 
 PCOD9441805
Probable space group: P N N M
;
_chemical_formula_sum "Si O2"
_cell_formula_units_Z 40
_cell_length_a 21.355543
_cell_length_b 12.883870
_cell_length_c 8.641575
_cell_angle_alpha 90.000000
_cell_angle_beta 90.000000
_cell_angle_gamma 90.000000
_cell_volume 2377.660573
_symmetry_space_group_name_H-M "P N N M"
_symmetry_group_IT_number 58
_symmetry_cell_setting 'orthorhombic'
loop_
_space_group_symop_operation_xyz
x,y,z
-x,-y,z
1/2+x,1/2-y,1/2-z
1/2-x,1/2+y,1/2-z
-x,-y,-z
x,y,-z
1/2-x,1/2+y,1/2+z
1/2+x,1/2-y,1/2+z
loop_
_atom_site_type_symbol
_atom_site_label
_atom_site_fract_x
_atom_site_fract_y
_atom_site_fract_z
Si Si1 0.802428 0.889824 0.184755
Si Si2 0.165762 0.324932 0.684154
Si Si3 0.698721 0.611211 0.815225
Si Si4 0.667275 0.825939 0.685427
Si Si5 0.927648 0.508062 0.186176
O O1 0.770400 0.630226 0.240257
O O2 0.730837 0.871865 0.241071
O O3 0.822932 0.001467 0.247548
O O4 0.804393 0.886969 0.000000
O O5 0.173535 0.324870 0.500000
O O6 0.108807 0.397579 0.734448
O O7 0.160064 0.207477 0.745529
O O8 0.660992 0.709935 0.750571
O O9 0.697454 0.609713 0.000000
O O10 0.675414 0.821966 0.500000
O O11 0.610354 0.902695 0.721901
O O12 0.000000 0.500000 0.231638
O O13 0.924610 0.522884 0.000000
#
# Coordination Sequence:
#
# PCOD9441805 Si02
#       5
#     8   8   8   8   8
#     4  11  20  32  52  77 107 138 171 216 269 318
#     4  11  21  33  51  77 107 139 177 217 264 315
#     4  11  20  32  51  76 108 139 171 216 268 317
#     4  10  19  32  51  76 106 138 176 214 259 315
#     4  10  21  37  56  77 107 145 181 218 260 311
#
# _framework density 16.823257999999999
#
# number of rings (size 3 to 8) (size 9 to 14) (size 15 to 20)
#    0.000    1.400    2.000    8.400    0.000    1.200 
#    0.000    0.000    0.000    1.200    0.000    8.400 
#    0.000    0.000    0.000    0.000    0.000    0.000 
#
# Total GULP energy -223433.164756 kJ/mol
# GULP energy per Si atom -5585.829119 kJ/mol
# Density = 1.678497 g / cm^3
# Si number density = 16.823258 Si / 1000 Ang^3
#
#
#
# Elastic Constant Matrix: (Units=GPa)
#
#
# Indices 1 2 3 4 5 6 
#
# 1 80.8904 55.9092 39.7399 0.0000 0.0000 0.0000
# 2 55.9092 167.5311 58.8808 0.0000 0.0000 0.0000
# 3 39.7399 58.8808 115.7842 0.0000 0.0000 0.0000
# 4 0.0000 0.0000 0.0000 37.5111 0.0000 0.0000
# 5 0.0000 0.0000 0.0000 0.0000 -8.1383 0.0000
# 6 0.0000 0.0000 0.0000 0.0000 0.0000 17.6762
#
#
#
# Elastic Compliance Matrix: (Units=1/GPa)
#
#
# Indices 1 2 3 4 5 6 
#
# 1 0.017245 -0.004475 -0.003643 0.000000 0.000000 0.000000
# 2 -0.004475 0.008429 -0.002751 0.000000 0.000000 0.000000
# 3 -0.003643 -0.002751 0.011286 0.000000 0.000000 0.000000
# 4 0.000000 0.000000 0.000000 0.026659 0.000000 0.000000
# 5 0.000000 0.000000 0.000000 0.000000 -0.122876 0.000000
# 6 0.000000 0.000000 0.000000 0.000000 0.000000 0.056573
#
#
# Mechanical properties :
#
#
# Convention : Reuss Voigt Hill
#
# Bulk Modulus (GPa) = 65.69091 74.80728 70.24909
# Shear Modulus (GPa) = 207.23278 23.38820 115.31049
#
# Velocity S-wave (km/s) = 11.11079 3.73262 8.28801
# Velocity P-wave (km/s) = 14.27347 7.94605 11.55145
#
# Compressibility (1/GPa) = 0.01522281
#
# Stress axis : x y z
#
# Youngs Moduli (GPa) = 57.98768 118.63663 88.60440
#
# Poissons Ratio (x) = 0.53085 0.32282
# Poissons Ratio (y) = 0.25947 0.24373
# Poissons Ratio (z) = 0.21127 0.32634
#
# Static dielectric constant tensor:
#      x y z
#    x 1.533710 0.000000 0.000000 
#    y 0.000000 1.590990 0.000000 
#    z 0.000000 0.000000 1.562820 
# 
# From -- ./inp_files/2412.got.cif
#   From: 2010.05.17/outbox.cif.g08.bks.cpg/sg58_2_cif.got.tgz:2412.got - 2010.06.03 14:20:14.
