data_PCOD9441817
_publ_section_title
;
Structure prediction by ZEFSAII (Michael W. Deem and Ramdas Pophale) SiO2 
 PCOD9441817
Probable space group: P N N M
;
_chemical_formula_sum "Si O2"
_cell_formula_units_Z 64
_cell_length_a 20.407047
_cell_length_b 19.557816
_cell_length_c 7.341912
_cell_angle_alpha 90.000000
_cell_angle_beta 90.000000
_cell_angle_gamma 90.000000
_cell_volume 2930.283876
_symmetry_space_group_name_H-M "P N N M"
_symmetry_group_IT_number 58
_symmetry_cell_setting 'orthorhombic'
loop_
_space_group_symop_operation_xyz
x,y,z
-x,-y,z
1/2+x,1/2-y,1/2-z
1/2-x,1/2+y,1/2-z
-x,-y,-z
x,y,-z
1/2-x,1/2+y,1/2+z
1/2+x,1/2-y,1/2+z
loop_
_atom_site_type_symbol
_atom_site_label
_atom_site_fract_x
_atom_site_fract_y
_atom_site_fract_z
Si Si1 0.352046 0.801430 0.788253
Si Si2 0.686826 0.049335 0.222362
Si Si3 0.563245 0.957864 0.778315
Si Si4 0.302925 0.543739 0.719824
Si Si5 0.256913 0.189143 0.220116
Si Si6 0.974681 0.786680 0.723181
Si Si7 0.093314 0.694677 0.721793
Si Si8 0.954266 0.940604 0.712620
O O1 0.331380 0.874962 0.712321
O O2 0.291790 0.749101 0.777040
O O3 0.415742 0.762624 0.713412
O O4 0.367762 0.814545 0.000000
O O5 0.629417 0.996900 0.274529
O O6 0.756187 0.017989 0.280996
O O7 0.688422 0.050803 0.000000
O O8 0.565502 0.879181 0.720964
O O9 0.500000 0.000000 0.717216
O O10 0.561849 0.957479 0.000000
O O11 0.301930 0.544483 0.500000
O O12 0.271614 0.615936 0.780741
O O13 0.378151 0.539699 0.775720
O O14 0.331456 0.200462 0.281377
O O15 0.257636 0.187704 0.000000
O O16 0.971848 0.787198 0.500000
O O17 0.963841 0.864108 0.787277
O O18 0.043964 0.754317 0.777344
O O19 0.094087 0.694603 0.500000
O O20 0.972272 0.934895 0.500000
O O21 0.000000 0.000000 0.791766
#
# Coordination Sequence:
#
# PCOD9441817 Si02
#       8
#     8   8   8   8   8   8   8   8
#     4  10  19  32  52  75 101 134 170 210 257 306
#     4   9  17  29  46  73 104 131 165 211 257 303
#     4   9  14  22  40  68 100 128 156 196 247 298
#     4  10  19  34  54  75 104 138 171 212 260 309
#     4  10  19  32  52  75 102 137 170 205 252 305
#     4   9  17  30  48  72 102 135 168 206 253 303
#     4   9  16  27  45  71 101 129 160 203 251 295
#     4  10  21  36  54  76 103 137 177 217 257 302
#
# _framework density 21.840886999999999
#
# number of rings (size 3 to 8) (size 9 to 14) (size 15 to 20)
#    0.000    2.500    2.500    0.750    0.000    4.250 
#    0.000    1.875    0.000    1.500    0.000    0.000 
#    0.000    2.500    0.000    0.000    0.000    0.000 
#
# Total GULP energy -357595.580557 kJ/mol
# GULP energy per Si atom -5587.430946 kJ/mol
# Density = 2.179118 g / cm^3
# Si number density = 21.840887 Si / 1000 Ang^3
#
#
#
# Elastic Constant Matrix: (Units=GPa)
#
#
# Indices 1 2 3 4 5 6 
#
# 1 167.4179 81.7923 -10.5405 0.0000 0.0000 0.0000
# 2 81.7923 156.0524 4.3479 0.0000 0.0000 0.0000
# 3 -10.5405 4.3479 79.7339 0.0000 0.0000 0.0000
# 4 0.0000 0.0000 0.0000 2.1932 0.0000 0.0000
# 5 0.0000 0.0000 0.0000 0.0000 -31.0614 0.0000
# 6 0.0000 0.0000 0.0000 0.0000 0.0000 42.0050
#
#
#
# Elastic Compliance Matrix: (Units=1/GPa)
#
#
# Indices 1 2 3 4 5 6 
#
# 1 0.008164 -0.004316 0.001315 0.000000 0.000000 0.000000
# 2 -0.004316 0.008699 -0.001045 0.000000 0.000000 0.000000
# 3 0.001315 -0.001045 0.012772 0.000000 0.000000 0.000000
# 4 0.000000 0.000000 0.000000 0.455955 0.000000 0.000000
# 5 0.000000 0.000000 0.000000 0.000000 -0.032194 0.000000
# 6 0.000000 0.000000 0.000000 0.000000 0.000000 0.023807
#
#
# Mechanical properties :
#
#
# Convention : Reuss Voigt Hill
#
# Bulk Modulus (GPa) = 46.41681 61.60038 54.00859
# Shear Modulus (GPa) = 10.15275 24.46766 17.31021
#
# Velocity S-wave (km/s) = 2.15838 3.35067 2.81830
# Velocity P-wave (km/s) = 5.24498 6.57531 5.94746
#
# Compressibility (1/GPa) = 0.02154392
#
# Stress axis : x y z
#
# Youngs Moduli (GPa) = 122.48359 114.95184 78.29328
#
# Poissons Ratio (x) = 0.49611 -0.10293
# Poissons Ratio (y) = 0.52862 0.08181
# Poissons Ratio (z) = -0.16102 0.12011
#
# Static dielectric constant tensor:
#      x y z
#    x 1.741870 0.000000 0.000000 
#    y 0.000000 1.759720 0.000000 
#    z 0.000000 0.000000 1.873790 
# 
# From -- ./inp_files/16625.got.cif
#   From: 2010.05.17/outbox.cif.g08.bks.cpg/sg58_9_cif.got.tgz:16625.got - 2010.06.03 14:20:14.
