data_PCOD9441935
_publ_section_title
;
Structure prediction by ZEFSAII (Michael W. Deem and Ramdas Pophale) SiO2 
 PCOD9441935
Probable space group: P N N M
;
_chemical_formula_sum "Si O2"
_cell_formula_units_Z 64
_cell_length_a 19.580713
_cell_length_b 12.032302
_cell_length_c 14.213716
_cell_angle_alpha 90.000000
_cell_angle_beta 90.000000
_cell_angle_gamma 90.000000
_cell_volume 3348.766445
_symmetry_space_group_name_H-M "P N N M"
_symmetry_group_IT_number 58
_symmetry_cell_setting 'orthorhombic'
loop_
_space_group_symop_operation_xyz
x,y,z
-x,-y,z
1/2+x,1/2-y,1/2-z
1/2-x,1/2+y,1/2-z
-x,-y,-z
x,y,-z
1/2-x,1/2+y,1/2+z
1/2+x,1/2-y,1/2+z
loop_
_atom_site_type_symbol
_atom_site_label
_atom_site_fract_x
_atom_site_fract_y
_atom_site_fract_z
Si Si1 0.745504 0.584079 0.391844
Si Si2 0.575091 0.472555 0.163428
Si Si3 0.540213 0.228814 0.897161
Si Si4 0.697301 0.383651 0.715447
Si Si5 0.884794 0.212115 0.602059
Si Si6 0.078835 0.534713 0.888078
Si Si7 0.327794 0.214148 0.700413
Si Si8 0.639571 0.147456 0.258538
O O1 0.765574 0.598134 0.500000
O O2 0.719867 0.459719 0.370898
O O3 0.691117 0.679846 0.363440
O O4 0.805729 0.603754 0.316993
O O5 0.500000 0.500000 0.205239
O O6 0.564304 0.357853 0.107368
O O7 0.635121 0.448892 0.236099
O O8 0.597824 0.581021 0.106626
O O9 0.458480 0.228265 0.891244
O O10 0.573978 0.172538 0.806981
O O11 0.560428 0.183079 0.000000
O O12 0.760598 0.363893 0.787708
O O13 0.668553 0.260894 0.697415
O O14 0.853895 0.238686 0.500000
O O15 0.842464 0.245288 0.693326
O O16 0.107792 0.646998 0.840327
O O17 0.122817 0.438750 0.839108
O O18 0.000000 0.500000 0.871302
O O19 0.089020 0.541868 0.000000
#
# Coordination Sequence:
#
# PCOD9441935 Si02
#       8
#     8   8   8   8   8   8   8   8
#     4  11  22  39  63  88 119 161 203 253 311 369
#     4   9  17  33  57  85 118 152 190 242 303 360
#     4   9  17  31  55  89 121 151 189 236 295 366
#     4  10  21  38  60  86 120 156 197 252 311 358
#     4  10  19  32  56  88 120 153 190 237 300 362
#     4  11  24  43  66  89 120 167 215 255 300 364
#     4  11  22  40  60  86 125 162 208 253 302 364
#     4  10  21  39  61  87 119 159 198 253 306 363
#
# _framework density 19.111515000000001
#
# number of rings (size 3 to 8) (size 9 to 14) (size 15 to 20)
#    0.000    1.875    2.500    1.875    0.000    2.500 
#    0.000    6.250    0.000    3.000    0.000    0.000 
#    0.000    0.000    0.000    0.000    0.000    0.000 
#
# Total GULP energy -356896.012275 kJ/mol
# GULP energy per Si atom -5576.500192 kJ/mol
# Density = 1.906802 g / cm^3
# Si number density = 19.111515 Si / 1000 Ang^3
#
#
#
# Elastic Constant Matrix: (Units=GPa)
#
#
# Indices 1 2 3 4 5 6 
#
# 1 54.3947 11.5135 29.3214 0.0000 0.0000 0.0000
# 2 11.5135 57.1440 38.7125 0.0000 0.0000 0.0000
# 3 29.3214 38.7125 83.8785 0.0000 0.0000 0.0000
# 4 0.0000 0.0000 0.0000 12.0310 0.0000 0.0000
# 5 0.0000 0.0000 0.0000 0.0000 22.6313 0.0000
# 6 0.0000 0.0000 0.0000 0.0000 0.0000 20.1313
#
#
#
# Elastic Compliance Matrix: (Units=1/GPa)
#
#
# Indices 1 2 3 4 5 6 
#
# 1 0.022706 0.001167 -0.008476 0.000000 0.000000 0.000000
# 2 0.001167 0.025520 -0.012186 0.000000 0.000000 0.000000
# 3 -0.008476 -0.012186 0.020509 0.000000 0.000000 0.000000
# 4 0.000000 0.000000 0.000000 0.083119 0.000000 0.000000
# 5 0.000000 0.000000 0.000000 0.000000 0.044187 0.000000
# 6 0.000000 0.000000 0.000000 0.000000 0.000000 0.049674
#
#
# Mechanical properties :
#
#
# Convention : Reuss Voigt Hill
#
# Bulk Modulus (GPa) = 33.61880 39.39023 36.50452
# Shear Modulus (GPa) = 16.97098 18.68336 17.82717
#
# Velocity S-wave (km/s) = 2.98316 3.13005 3.05749
# Velocity P-wave (km/s) = 5.43090 5.80675 5.62197
#
# Compressibility (1/GPa) = 0.02974526
#
# Stress axis : x y z
#
# Youngs Moduli (GPa) = 44.04100 39.18463 48.75808
#
# Poissons Ratio (x) = -0.04574 0.41328
# Poissons Ratio (y) = -0.05141 0.59419
# Poissons Ratio (z) = 0.37330 0.47752
#
# Static dielectric constant tensor:
#      x y z
#    x 1.693190 0.000000 0.000000 
#    y 0.000000 1.681200 0.000000 
#    z 0.000000 0.000000 1.633280 
# 
# From -- ./inp_files/22944.got.cif
#   From: 2010.05.17/outbox.cif.g08.bks.cpg/sg58_12_cif.got.tgz:22944.got - 2010.06.03 14:20:14.
