data_PCOD9441044
_publ_section_title
;
Structure prediction by ZEFSAII (Michael W. Deem and Ramdas Pophale) SiO2 
 PCOD9441044
Probable space group: P N N M
;
_chemical_formula_sum "Si O2"
_cell_formula_units_Z 52
_cell_length_a 7.567672
_cell_length_b 24.429790
_cell_length_c 15.081979
_cell_angle_alpha 90.000000
_cell_angle_beta 90.000000
_cell_angle_gamma 90.000000
_cell_volume 2788.305568
_symmetry_space_group_name_H-M "P N N M"
_symmetry_group_IT_number 58
_symmetry_cell_setting 'orthorhombic'
loop_
_space_group_symop_operation_xyz
x,y,z
-x,-y,z
1/2+x,1/2-y,1/2-z
1/2-x,1/2+y,1/2-z
-x,-y,-z
x,y,-z
1/2-x,1/2+y,1/2+z
1/2+x,1/2-y,1/2+z
loop_
_atom_site_type_symbol
_atom_site_label
_atom_site_fract_x
_atom_site_fract_y
_atom_site_fract_z
Si Si1 0.136078 0.126822 0.353416
Si Si2 0.335648 0.798293 0.330917
Si Si3 0.001159 0.811091 0.000000
Si Si4 0.035646 0.815774 0.194240
Si Si5 0.502313 0.911244 0.392875
Si Si6 0.644569 0.540578 0.103508
Si Si7 0.780612 0.782776 0.500000
Si Si8 0.653258 0.751530 0.000000
O O1 0.093495 0.148565 0.255826
O O2 0.297670 0.083858 0.359377
O O3 0.958634 0.098492 0.390516
O O4 0.192870 0.177326 0.416188
O O5 0.456190 0.745549 0.311757
O O6 0.442283 0.851114 0.361592
O O7 0.205931 0.781412 0.411468
O O8 0.220324 0.812120 0.244999
O O9 0.051890 0.836761 0.093801
O O10 0.789815 0.801795 0.000000
O O11 0.099678 0.751223 0.000000
O O12 0.507552 0.913221 0.500000
O O13 0.343778 0.951164 0.362606
O O14 0.500000 0.500000 0.145507
O O15 0.664590 0.524913 0.000000
O O16 0.944183 0.740363 0.500000
#
# Coordination Sequence:
#
# PCOD9441044 Si02
#       8
#     8   8   4   8   8   8   4   4
#     4  12  21  34  55  79 106 144 185 224 266 324
#     4  11  19  32  48  74 104 143 179 223 260 317
#     4  10  24  36  44  71 106 147 185 232 261 308
#     4  11  22  33  49  73 109 143 190 225 264 313
#     4  11  20  33  55  80 110 142 177 216 262 325
#     4  10  21  37  55  80 114 145 176 221 274 326
#     4  12  18  32  53  73 102 146 184 221 262 318
#     4  10  18  30  46  65  98 132 180 219 262 300
#
# _framework density 18.649318000000001
#
# number of rings (size 3 to 8) (size 9 to 14) (size 15 to 20)
#    0.000    1.077    5.385    3.692    0.000    0.615 
#    0.000    2.308    0.000    0.000    0.000    0.538 
#    0.000    1.231    0.000    0.000    0.000    0.000 
#
# Total GULP energy -290301.521629 kJ/mol
# GULP energy per Si atom -5582.721570 kJ/mol
# Density = 1.860687 g / cm^3
# Si number density = 18.649318 Si / 1000 Ang^3
#
#
#
# Elastic Constant Matrix: (Units=GPa)
#
#
# Indices 1 2 3 4 5 6 
#
# 1 96.7276 8.2439 14.1528 0.0000 0.0000 0.0000
# 2 8.2439 26.8562 0.7113 0.0000 0.0000 0.0000
# 3 14.1528 0.7113 115.7873 0.0000 0.0000 0.0000
# 4 0.0000 0.0000 0.0000 9.5169 0.0000 0.0000
# 5 0.0000 0.0000 0.0000 0.0000 24.9739 0.0000
# 6 0.0000 0.0000 0.0000 0.0000 0.0000 22.8303
#
#
#
# Elastic Compliance Matrix: (Units=1/GPa)
#
#
# Indices 1 2 3 4 5 6 
#
# 1 0.010808 -0.003283 -0.001301 0.000000 0.000000 0.000000
# 2 -0.003283 0.038239 0.000166 0.000000 0.000000 0.000000
# 3 -0.001301 0.000166 0.008795 0.000000 0.000000 0.000000
# 4 0.000000 0.000000 0.000000 0.105076 0.000000 0.000000
# 5 0.000000 0.000000 0.000000 0.000000 0.040042 0.000000
# 6 0.000000 0.000000 0.000000 0.000000 0.000000 0.043801
#
#
# Mechanical properties :
#
#
# Convention : Reuss Voigt Hill
#
# Bulk Modulus (GPa) = 20.40563 31.73189 26.06876
# Shear Modulus (GPa) = 18.38691 25.88175 22.13433
#
# Velocity S-wave (km/s) = 3.14336 3.72938 3.44884
# Velocity P-wave (km/s) = 4.91322 5.96626 5.46517
#
# Compressibility (1/GPa) = 0.04900608
#
# Stress axis : x y z
#
# Youngs Moduli (GPa) = 92.51982 26.15140 113.70718
#
# Poissons Ratio (x) = 0.08586 0.14793
# Poissons Ratio (y) = 0.30378 -0.01892
# Poissons Ratio (z) = 0.12036 -0.00435
#
# Static dielectric constant tensor:
#      x y z
#    x 1.711910 0.000000 0.000000 
#    y 0.000000 1.683470 0.000000 
#    z 0.000000 0.000000 1.639690 
# 
# From -- ./inp_files/20234.got.cif
#   From: 2010.05.17/outbox.cif.g08.bks.cpg/sg58_11_cif.got.tgz:20234.got - 2010.06.03 14:20:14.
