data_PCOD9441599
_publ_section_title
;
Structure prediction by ZEFSAII (Michael W. Deem and Ramdas Pophale) SiO2 
 PCOD9441599
Probable space group: P N N M
;
_chemical_formula_sum "Si O2"
_cell_formula_units_Z 48
_cell_length_a 17.112928
_cell_length_b 18.727375
_cell_length_c 7.556333
_cell_angle_alpha 90.000000
_cell_angle_beta 90.000000
_cell_angle_gamma 90.000000
_cell_volume 2421.655262
_symmetry_space_group_name_H-M "P N N M"
_symmetry_group_IT_number 58
_symmetry_cell_setting 'orthorhombic'
loop_
_space_group_symop_operation_xyz
x,y,z
-x,-y,z
1/2+x,1/2-y,1/2-z
1/2-x,1/2+y,1/2-z
-x,-y,-z
x,y,-z
1/2-x,1/2+y,1/2+z
1/2+x,1/2-y,1/2+z
loop_
_atom_site_type_symbol
_atom_site_label
_atom_site_fract_x
_atom_site_fract_y
_atom_site_fract_z
Si Si1 0.150100 0.332002 0.708619
Si Si2 0.083230 0.027961 0.287290
Si Si3 0.753024 0.040552 0.788973
Si Si4 0.493732 0.082117 0.285359
Si Si5 0.164684 0.172009 0.282338
Si Si6 0.324707 0.107691 0.704862
O O1 0.166025 0.323983 0.500000
O O2 0.217828 0.384786 0.778636
O O3 0.145225 0.251553 0.778884
O O4 0.068604 0.372931 0.730983
O O5 0.077667 0.031879 0.500000
O O6 0.108362 0.107205 0.224665
O O7 0.156361 0.976026 0.247540
O O8 0.000000 0.000000 0.219541
O O9 0.702896 0.974846 0.711862
O O10 0.741666 0.037868 0.000000
O O11 0.491548 0.081158 0.500000
O O12 0.411230 0.113077 0.218723
O O13 0.500000 0.000000 0.226192
O O14 0.163795 0.169866 0.500000
O O15 0.252056 0.151623 0.220523
O O16 0.330692 0.129188 0.500000
#
# Coordination Sequence:
#
# PCOD9441599 Si02
#       6
#     8   8   8   8   8   8
#     4  10  20  33  49  72 104 136 163 198 252 309
#     4   9  18  35  58  76  93 129 177 212 243 291
#     4  10  19  30  49  75 101 129 162 201 248 298
#     4  10  19  31  51  78 102 127 168 211 245 288
#     4   8  16  33  53  70  95 132 168 201 245 298
#     4   9  17  33  54  71  94 133 171 202 239 292
#
# _framework density 19.821152000000001
#
# number of rings (size 3 to 8) (size 9 to 14) (size 15 to 20)
#    0.000    2.667    1.667    1.500    0.000    2.000 
#    3.000    3.333    0.000    0.000    0.000    0.000 
#    0.000    0.000    0.000    0.000    0.000    0.000 
#
# Total GULP energy -267662.393700 kJ/mol
# GULP energy per Si atom -5576.299869 kJ/mol
# Density = 1.977604 g / cm^3
# Si number density = 19.821152 Si / 1000 Ang^3
#
#
#
# Elastic Constant Matrix: (Units=GPa)
#
#
# Indices 1 2 3 4 5 6 
#
# 1 154.1943 99.8442 -10.3400 0.0000 0.0000 0.0000
# 2 99.8442 167.9132 -1.5631 0.0000 0.0000 0.0000
# 3 -10.3400 -1.5631 42.7883 0.0000 0.0000 0.0000
# 4 0.0000 0.0000 0.0000 9.6334 0.0000 0.0000
# 5 0.0000 0.0000 0.0000 0.0000 15.2327 0.0000
# 6 0.0000 0.0000 0.0000 0.0000 0.0000 20.9020
#
#
#
# Elastic Compliance Matrix: (Units=1/GPa)
#
#
# Indices 1 2 3 4 5 6 
#
# 1 0.010781 -0.006389 0.002372 0.000000 0.000000 0.000000
# 2 -0.006389 0.009743 -0.001188 0.000000 0.000000 0.000000
# 3 0.002372 -0.001188 0.023901 0.000000 0.000000 0.000000
# 4 0.000000 0.000000 0.000000 0.103805 0.000000 0.000000
# 5 0.000000 0.000000 0.000000 0.000000 0.065648 0.000000
# 6 0.000000 0.000000 0.000000 0.000000 0.000000 0.047842
#
#
# Mechanical properties :
#
#
# Convention : Reuss Voigt Hill
#
# Bulk Modulus (GPa) = 29.39806 60.08645 44.74225
# Shear Modulus (GPa) = 17.63865 27.61728 22.62796
#
# Velocity S-wave (km/s) = 2.98634 3.73677 3.38243
# Velocity P-wave (km/s) = 5.17251 6.99986 6.15439
#
# Compressibility (1/GPa) = 0.03401586
#
# Stress axis : x y z
#
# Youngs Moduli (GPa) = 92.75484 102.63619 41.83984
#
# Poissons Ratio (x) = 0.65570 -0.09924
# Poissons Ratio (y) = 0.59257 0.04970
# Poissons Ratio (z) = -0.22001 0.12192
#
# Static dielectric constant tensor:
#      x y z
#    x 1.689730 0.000000 0.000000 
#    y 0.000000 1.687750 0.000000 
#    z 0.000000 0.000000 1.733830 
# 
# From -- ./inp_files/7847.got.cif
#   From: 2010.05.17/outbox.cif.g08.bks.cpg/sg58_4_cif.got.tgz:7847.got - 2010.06.03 14:20:14.
