data_PCOD9441202
_publ_section_title
;
Structure prediction by ZEFSAII (Michael W. Deem and Ramdas Pophale) SiO2 
 PCOD9441202
Probable space group: P N N M
;
_chemical_formula_sum "Si O2"
_cell_formula_units_Z 48
_cell_length_a 16.430511
_cell_length_b 7.516460
_cell_length_c 18.582383
_cell_angle_alpha 90.000000
_cell_angle_beta 90.000000
_cell_angle_gamma 90.000000
_cell_volume 2294.910897
_symmetry_space_group_name_H-M "P N N M"
_symmetry_group_IT_number 58
_symmetry_cell_setting 'orthorhombic'
loop_
_space_group_symop_operation_xyz
x,y,z
-x,-y,z
1/2+x,1/2-y,1/2-z
1/2-x,1/2+y,1/2-z
-x,-y,-z
x,y,-z
1/2-x,1/2+y,1/2+z
1/2+x,1/2-y,1/2+z
loop_
_atom_site_type_symbol
_atom_site_label
_atom_site_fract_x
_atom_site_fract_y
_atom_site_fract_z
Si Si1 0.096072 0.042789 0.802186
Si Si2 0.283602 0.590208 0.416860
Si Si3 0.641998 0.197198 0.919734
Si Si4 0.089537 0.918120 0.421640
Si Si5 0.828455 0.246504 0.700116
Si Si6 0.586030 0.080334 0.229276
O O1 0.129329 0.042112 0.883373
O O2 0.104771 0.238189 0.769177
O O3 0.155338 0.910654 0.756705
O O4 0.000000 0.000000 0.795729
O O5 0.286367 0.651611 0.500000
O O6 0.224789 0.416361 0.415314
O O7 0.243925 0.726074 0.357892
O O8 0.648532 0.410896 0.910961
O O9 0.587229 0.127761 0.855224
O O10 0.607457 0.170518 0.000000
O O11 0.105784 0.836815 0.500000
O O12 0.098135 0.785063 0.356567
O O13 0.000000 0.000000 0.421684
O O14 0.844658 0.431725 0.740038
O O15 0.500000 0.000000 0.252066
#
# Coordination Sequence:
#
# PCOD9441202 Si02
#       6
#     8   8   8   8   8   8
#     4  12  25  44  69  98 131 175 225 277 340 391
#     4  10  25  45  67  96 132 179 230 278 333 396
#     4   9  19  36  59  90 128 171 219 260 317 400
#     4  10  18  31  56  90 134 177 212 255 323 402
#     4  11  22  37  66  92 131 168 216 276 333 394
#     4  11  21  37  60  95 131 164 217 272 325 401
#
# _framework density 20.915844
#
# number of rings (size 3 to 8) (size 9 to 14) (size 15 to 20)
#    0.000    1.500    3.333    2.000    4.667    1.333 
#    0.000    0.000    0.000    0.500    0.000    0.000 
#    0.000    0.000    0.000    0.000    0.000    0.000 
#
# Total GULP energy -267774.188582 kJ/mol
# GULP energy per Si atom -5578.628929 kJ/mol
# Density = 2.086824 g / cm^3
# Si number density = 20.915844 Si / 1000 Ang^3
#
#
#
# Elastic Constant Matrix: (Units=GPa)
#
#
# Indices 1 2 3 4 5 6 
#
# 1 65.3706 30.4516 49.5945 0.0000 0.0000 0.0000
# 2 30.4516 113.3206 39.4486 0.0000 0.0000 0.0000
# 3 49.5945 39.4486 92.2544 0.0000 0.0000 0.0000
# 4 0.0000 0.0000 0.0000 -27.6989 0.0000 0.0000
# 5 0.0000 0.0000 0.0000 0.0000 17.8959 0.0000
# 6 0.0000 0.0000 0.0000 0.0000 0.0000 2.2073
#
#
#
# Elastic Compliance Matrix: (Units=1/GPa)
#
#
# Indices 1 2 3 4 5 6 
#
# 1 0.026439 -0.002534 -0.013129 0.000000 0.000000 0.000000
# 2 -0.002534 0.010611 -0.003175 0.000000 0.000000 0.000000
# 3 -0.013129 -0.003175 0.019255 0.000000 0.000000 0.000000
# 4 0.000000 0.000000 0.000000 -0.036102 0.000000 0.000000
# 5 0.000000 0.000000 0.000000 0.000000 0.055879 0.000000
# 6 0.000000 0.000000 0.000000 0.000000 0.000000 0.453049
#
#
# Mechanical properties :
#
#
# Convention : Reuss Voigt Hill
#
# Bulk Modulus (GPa) = 53.68287 56.65945 55.17116
# Shear Modulus (GPa) = 8.72576 8.57757 8.65167
#
# Velocity S-wave (km/s) = 2.04472 2.02729 2.03603
# Velocity P-wave (km/s) = 5.59432 5.71209 5.65351
#
# Compressibility (1/GPa) = 0.01862791
#
# Stress axis : x y z
#
# Youngs Moduli (GPa) = 37.82336 94.24423 51.93356
#
# Poissons Ratio (x) = 0.23882 0.68186
# Poissons Ratio (y) = 0.09585 0.16489
# Poissons Ratio (z) = 0.49660 0.29922
#
# Static dielectric constant tensor:
#      x y z
#    x 1.842910 0.000000 0.000000 
#    y 0.000000 1.823260 0.000000 
#    z 0.000000 0.000000 1.734410 
# 
# From -- ./inp_files/22775.got.cif
#   From: 2010.05.17/outbox.cif.g08.bks.cpg/sg58_12_cif.got.tgz:22775.got - 2010.06.03 14:20:14.
