data_PCOD9441764
_publ_section_title
;
Structure prediction by ZEFSAII (Michael W. Deem and Ramdas Pophale) SiO2 
 PCOD9441764
Probable space group: P N N M
;
_chemical_formula_sum "Si O2"
_cell_formula_units_Z 28
_cell_length_a 17.023349
_cell_length_b 5.200354
_cell_length_c 14.603743
_cell_angle_alpha 90.000000
_cell_angle_beta 90.000000
_cell_angle_gamma 90.000000
_cell_volume 1292.831998
_symmetry_space_group_name_H-M "P N N M"
_symmetry_group_IT_number 58
_symmetry_cell_setting 'orthorhombic'
loop_
_space_group_symop_operation_xyz
x,y,z
-x,-y,z
1/2+x,1/2-y,1/2-z
1/2-x,1/2+y,1/2-z
-x,-y,-z
x,y,-z
1/2-x,1/2+y,1/2+z
1/2+x,1/2-y,1/2+z
loop_
_atom_site_type_symbol
_atom_site_label
_atom_site_fract_x
_atom_site_fract_y
_atom_site_fract_z
Si Si1 0.657842 0.639020 0.168869
Si Si2 0.947076 0.253217 0.500000
Si Si3 0.179884 0.588036 0.148940
Si Si4 0.089875 0.077146 0.845697
O O1 0.605584 0.751403 0.089987
O O2 0.733007 0.499585 0.125324
O O3 0.685083 0.858521 0.240862
O O4 0.607495 0.454894 0.236451
O O5 0.000000 0.500000 0.500000
O O6 0.000000 0.000000 0.500000
O O7 0.118408 0.360460 0.128393
O O8 0.146666 0.857398 0.112394
O O9 0.000000 0.000000 0.864042
#
# Coordination Sequence:
#
# PCOD9441764 Si02
#       4
#     8   4   8   8
#     4  10  22  38  56  82 119 160 205 235 298 365
#     4  12  30  38  58  92 137 166 183 242 324 384
#     4  10  20  34  59  76 112 156 209 243 275 354
#     4  10  19  31  56  84 108 139 193 258 292 332
#
# _framework density 21.657879000000001
#
# number of rings (size 3 to 8) (size 9 to 14) (size 15 to 20)
#    1.714    0.000    2.857    1.714    8.000    0.000 
#    0.000    0.000    0.000    0.000    0.000    6.000 
#    0.000    0.000    0.000    0.143    0.000    0.000 
#
# Total GULP energy -156236.497378 kJ/mol
# GULP energy per Si atom -5579.874906 kJ/mol
# Density = 2.160858 g / cm^3
# Si number density = 21.657879 Si / 1000 Ang^3
#
#
#
# Elastic Constant Matrix: (Units=GPa)
#
#
# Indices 1 2 3 4 5 6 
#
# 1 111.7537 20.1829 6.8107 0.0000 0.0000 0.0000
# 2 20.1829 109.0577 -0.3422 0.0000 0.0000 0.0000
# 3 6.8107 -0.3422 53.1327 0.0000 0.0000 0.0000
# 4 0.0000 0.0000 0.0000 -29.6446 0.0000 0.0000
# 5 0.0000 0.0000 0.0000 0.0000 -160.5748 0.0000
# 6 0.0000 0.0000 0.0000 0.0000 0.0000 41.6291
#
#
#
# Elastic Compliance Matrix: (Units=1/GPa)
#
#
# Indices 1 2 3 4 5 6 
#
# 1 0.009335 -0.001731 -0.001208 0.000000 0.000000 0.000000
# 2 -0.001731 0.009491 0.000283 0.000000 0.000000 0.000000
# 3 -0.001208 0.000283 0.018977 0.000000 0.000000 0.000000
# 4 0.000000 0.000000 0.000000 -0.033733 0.000000 0.000000
# 5 0.000000 0.000000 0.000000 0.000000 -0.006228 0.000000
# 6 0.000000 0.000000 0.000000 0.000000 0.000000 0.024022
#
#
# Mechanical properties :
#
#
# Convention : Reuss Voigt Hill
#
# Bulk Modulus (GPa) = 30.77789 36.36077 33.56933
# Shear Modulus (GPa) = 131.55823 -13.23189 59.16317
#
# Velocity S-wave (km/s) = 7.80229 -2.47442 5.23225
# Velocity P-wave (km/s) = 9.76777 2.94304 7.21356
#
# Compressibility (1/GPa) = 0.03249085
#
# Stress axis : x y z
#
# Youngs Moduli (GPa) = 107.12917 105.36577 52.69413
#
# Poissons Ratio (x) = 0.18242 0.06364
# Poissons Ratio (y) = 0.18547 -0.01491
# Poissons Ratio (z) = 0.12938 -0.02982
#
# Static dielectric constant tensor:
#      x y z
#    x 1.785140 0.000000 0.000000 
#    y 0.000000 1.811530 0.000000 
#    z 0.000000 0.000000 1.817520 
# 
# From -- ./inp_files/22481.got.cif
#   From: 2010.05.17/outbox.cif.g08.bks.cpg/sg58_12_cif.got.tgz:22481.got - 2010.06.03 14:20:14.
