data_PCOD9441540
_publ_section_title
;
Structure prediction by ZEFSAII (Michael W. Deem and Ramdas Pophale) SiO2 
 PCOD9441540
Probable space group: P N N M
;
_chemical_formula_sum "Si O2"
_cell_formula_units_Z 64
_cell_length_a 22.844061
_cell_length_b 19.064119
_cell_length_c 7.503217
_cell_angle_alpha 90.000000
_cell_angle_beta 90.000000
_cell_angle_gamma 90.000000
_cell_volume 3267.665240
_symmetry_space_group_name_H-M "P N N M"
_symmetry_group_IT_number 58
_symmetry_cell_setting 'orthorhombic'
loop_
_space_group_symop_operation_xyz
x,y,z
-x,-y,z
1/2+x,1/2-y,1/2-z
1/2-x,1/2+y,1/2-z
-x,-y,-z
x,y,-z
1/2-x,1/2+y,1/2+z
1/2+x,1/2-y,1/2+z
loop_
_atom_site_type_symbol
_atom_site_label
_atom_site_fract_x
_atom_site_fract_y
_atom_site_fract_z
Si Si1 0.690796 0.076805 0.216565
Si Si2 0.981270 0.423143 0.785514
Si Si3 0.088654 0.321573 0.287095
Si Si4 0.564722 0.486225 0.289661
Si Si5 0.684925 0.540966 0.705295
Si Si6 0.147704 0.581376 0.210397
Si Si7 0.270375 0.614040 0.783403
Si Si8 0.390553 0.668990 0.214911
O O1 0.645769 0.136207 0.279368
O O2 0.758376 0.081687 0.281067
O O3 0.663875 0.001000 0.267883
O O4 0.692805 0.077880 0.000000
O O5 0.916636 0.405164 0.715256
O O6 0.000000 0.500000 0.718945
O O7 0.031234 0.367342 0.745847
O O8 0.977038 0.428373 0.000000
O O9 0.096308 0.316672 0.500000
O O10 0.083395 0.242141 0.219462
O O11 0.500000 0.500000 0.215016
O O12 0.562799 0.503026 0.500000
O O13 0.619594 0.531990 0.215391
O O14 0.580601 0.403858 0.274902
O O15 0.678326 0.563864 0.500000
O O16 0.708261 0.460845 0.710445
O O17 0.204016 0.623819 0.279519
O O18 0.144824 0.596075 0.000000
O O19 0.321646 0.667292 0.735634
O O20 0.269789 0.608522 0.000000
O O21 0.394130 0.666841 0.000000
#
# Coordination Sequence:
#
# PCOD9441540 Si02
#       8
#     8   8   8   8   8   8   8   8
#     4   9  16  26  42  64  88 115 149 186 226 266
#     4  10  19  30  44  66  96 126 157 192 228 272
#     4  10  20  31  45  65  91 124 158 193 231 275
#     4   9  17  30  50  73  96 119 150 192 235 281
#     4   8  14  25  42  65  90 111 138 180 226 267
#     4   9  16  27  44  65  89 115 148 189 227 263
#     4   8  14  26  45  64  84 109 143 185 224 262
#     4   9  18  32  48  68  92 119 155 194 234 278
#
# _framework density 19.585849
#
# number of rings (size 3 to 8) (size 9 to 14) (size 15 to 20)
#    0.000    3.000    1.250    0.000    0.000    1.500 
#    0.000    0.000    2.750    0.000    0.000    0.000 
#    0.000    0.000    0.000    0.000    0.000    0.000 
#
# Total GULP energy -356305.361979 kJ/mol
# GULP energy per Si atom -5567.271281 kJ/mol
# Density = 1.954127 g / cm^3
# Si number density = 19.585849 Si / 1000 Ang^3
#
#
#
# Elastic Constant Matrix: (Units=GPa)
#
#
# Indices 1 2 3 4 5 6 
#
# 1 200.0404 52.2939 6.1296 0.0000 0.0000 0.0000
# 2 52.2939 54.0631 -7.1413 0.0000 0.0000 0.0000
# 3 6.1296 -7.1413 51.0734 0.0000 0.0000 0.0000
# 4 0.0000 0.0000 0.0000 9.6956 0.0000 0.0000
# 5 0.0000 0.0000 0.0000 0.0000 -2.7097 0.0000
# 6 0.0000 0.0000 0.0000 0.0000 0.0000 23.3530
#
#
#
# Elastic Compliance Matrix: (Units=1/GPa)
#
#
# Indices 1 2 3 4 5 6 
#
# 1 0.006846 -0.006857 -0.001780 0.000000 0.000000 0.000000
# 2 -0.006857 0.025713 0.004418 0.000000 0.000000 0.000000
# 3 -0.001780 0.004418 0.020411 0.000000 0.000000 0.000000
# 4 0.000000 0.000000 0.000000 0.103139 0.000000 0.000000
# 5 0.000000 0.000000 0.000000 0.000000 -0.369040 0.000000
# 6 0.000000 0.000000 0.000000 0.000000 0.000000 0.042821
#
#
# Mechanical properties :
#
#
# Convention : Reuss Voigt Hill
#
# Bulk Modulus (GPa) = 22.45582 45.30458 33.88020
# Shear Modulus (GPa) = -34.05391 22.99409 -5.52991
#
# Velocity S-wave (km/s) = -4.17430 3.43011 -1.68213
# Velocity P-wave (km/s) = 3.42677 6.23450 3.68281
#
# Compressibility (1/GPa) = 0.04453189
#
# Stress axis : x y z
#
# Youngs Moduli (GPa) = 146.06727 38.89021 48.99283
#
# Poissons Ratio (x) = 0.26668 0.08723
# Poissons Ratio (y) = 1.00163 -0.21647
# Poissons Ratio (z) = 0.26007 -0.17183
#
# Static dielectric constant tensor:
#      x y z
#    x 1.765980 0.000000 0.000000 
#    y 0.000000 1.654310 0.000000 
#    z 0.000000 0.000000 1.767630 
# 
# From -- ./inp_files/10141.got.cif
#   From: 2010.05.17/outbox.cif.g08.bks.cpg/sg58_6_cif.got.tgz:10141.got - 2010.06.03 14:20:14.
