data_PCOD9441653
_publ_section_title
;
Structure prediction by ZEFSAII (Michael W. Deem and Ramdas Pophale) SiO2 
 PCOD9441653
Probable space group: P N N M
;
_chemical_formula_sum "Si O2"
_cell_formula_units_Z 64
_cell_length_a 20.056954
_cell_length_b 20.714160
_cell_length_c 7.393016
_cell_angle_alpha 90.000000
_cell_angle_beta 90.000000
_cell_angle_gamma 90.000000
_cell_volume 3071.524268
_symmetry_space_group_name_H-M "P N N M"
_symmetry_group_IT_number 58
_symmetry_cell_setting 'orthorhombic'
loop_
_space_group_symop_operation_xyz
x,y,z
-x,-y,z
1/2+x,1/2-y,1/2-z
1/2-x,1/2+y,1/2-z
-x,-y,-z
x,y,-z
1/2-x,1/2+y,1/2+z
1/2+x,1/2-y,1/2+z
loop_
_atom_site_type_symbol
_atom_site_label
_atom_site_fract_x
_atom_site_fract_y
_atom_site_fract_z
Si Si1 0.524063 0.567563 0.788289
Si Si2 0.250266 0.785730 0.780242
Si Si3 0.776746 0.856027 0.717881
Si Si4 0.599099 0.180819 0.780303
Si Si5 0.710372 0.992458 0.788142
Si Si6 0.066000 0.462203 0.278651
Si Si7 0.073055 0.176814 0.720699
Si Si8 0.323254 0.409307 0.281058
O O1 0.500000 0.500000 0.707789
O O2 0.485120 0.629721 0.715118
O O3 0.602968 0.572425 0.775104
O O4 0.505459 0.566309 0.000000
O O5 0.244624 0.711752 0.720335
O O6 0.323038 0.813125 0.729036
O O7 0.195965 0.837260 0.720983
O O8 0.249582 0.784414 0.000000
O O9 0.777089 0.856121 0.500000
O O10 0.737588 0.919838 0.773315
O O11 0.854520 0.851848 0.774395
O O12 0.568498 0.112935 0.721467
O O13 0.567169 0.248644 0.720524
O O14 0.597455 0.179996 0.000000
O O15 0.635725 0.005025 0.718266
O O16 0.766936 0.040776 0.714486
O O17 0.705722 0.008618 0.000000
O O18 0.064817 0.463060 0.500000
O O19 0.000000 0.500000 0.218817
O O20 0.073464 0.179174 0.500000
O O21 0.322303 0.410497 0.500000
#
# Coordination Sequence:
#
# PCOD9441653 Si02
#       8
#     8   8   8   8   8   8   8   8
#     4  10  20  33  47  69 103 132 159 202 249 289
#     4   8  14  28  49  69  89 120 163 200 227 275
#     4   9  17  31  53  74  93 126 166 197 234 290
#     4   8  12  24  46  66  86 118 161 196 224 273
#     4  10  19  31  48  74 103 124 152 201 250 284
#     4   9  16  27  44  67  95 124 152 190 241 288
#     4   8  15  28  47  69  91 123 166 202 231 271
#     4  10  19  32  51  71  96 131 167 201 239 288
#
# _framework density 20.836559000000001
#
# number of rings (size 3 to 8) (size 9 to 14) (size 15 to 20)
#    0.000    3.000    1.250    2.250    0.000    1.750 
#    2.250    1.250    0.000    0.375    0.000    0.875 
#    0.000    0.000    0.000    0.000    0.000    0.000 
#
# Total GULP energy -357059.018861 kJ/mol
# GULP energy per Si atom -5579.047170 kJ/mol
# Density = 2.078913 g / cm^3
# Si number density = 20.836559 Si / 1000 Ang^3
#
#
#
# Elastic Constant Matrix: (Units=GPa)
#
#
# Indices 1 2 3 4 5 6 
#
# 1 145.8244 113.7143 -6.2974 0.0000 0.0000 0.0000
# 2 113.7143 183.2507 -3.8449 0.0000 0.0000 0.0000
# 3 -6.2974 -3.8449 64.8290 0.0000 0.0000 0.0000
# 4 0.0000 0.0000 0.0000 6.6555 0.0000 0.0000
# 5 0.0000 0.0000 0.0000 0.0000 5.2347 0.0000
# 6 0.0000 0.0000 0.0000 0.0000 0.0000 33.5813
#
#
#
# Elastic Compliance Matrix: (Units=1/GPa)
#
#
# Indices 1 2 3 4 5 6 
#
# 1 0.013329 -0.008254 0.000805 0.000000 0.000000 0.000000
# 2 -0.008254 0.010575 -0.000175 0.000000 0.000000 0.000000
# 3 0.000805 -0.000175 0.015493 0.000000 0.000000 0.000000
# 4 0.000000 0.000000 0.000000 0.150252 0.000000 0.000000
# 5 0.000000 0.000000 0.000000 0.000000 0.191033 0.000000
# 6 0.000000 0.000000 0.000000 0.000000 0.000000 0.029778
#
#
# Mechanical properties :
#
#
# Convention : Reuss Voigt Hill
#
# Bulk Modulus (GPa) = 41.40750 66.78310 54.09530
# Shear Modulus (GPa) = 11.52713 28.44977 19.98845
#
# Velocity S-wave (km/s) = 2.35461 3.69911 3.10061
# Velocity P-wave (km/s) = 5.22570 7.09683 6.23189
#
# Compressibility (1/GPa) = 0.02415021
#
# Stress axis : x y z
#
# Youngs Moduli (GPa) = 75.02389 94.55834 64.54501
#
# Poissons Ratio (x) = 0.78052 -0.05197
# Poissons Ratio (y) = 0.61927 0.01127
# Poissons Ratio (z) = -0.06041 0.01651
#
# Static dielectric constant tensor:
#      x y z
#    x 1.696230 0.000000 0.000000 
#    y 0.000000 1.745600 0.000000 
#    z 0.000000 0.000000 1.817140 
# 
# From -- ./inp_files/8284.got.cif
#   From: 2010.05.17/outbox.cif.g08.bks.cpg/sg58_5_cif.got.tgz:8284.got - 2010.06.03 14:20:14.
