data_PCOD9441462
_publ_section_title
;
Structure prediction by ZEFSAII (Michael W. Deem and Ramdas Pophale) SiO2 
 PCOD9441462
Probable space group: P N N M
;
_chemical_formula_sum "Si O2"
_cell_formula_units_Z 64
_cell_length_a 14.300444
_cell_length_b 7.016445
_cell_length_c 27.678269
_cell_angle_alpha 90.000000
_cell_angle_beta 90.000000
_cell_angle_gamma 90.000000
_cell_volume 2777.189872
_symmetry_space_group_name_H-M "P N N M"
_symmetry_group_IT_number 58
_symmetry_cell_setting 'orthorhombic'
loop_
_space_group_symop_operation_xyz
x,y,z
-x,-y,z
1/2+x,1/2-y,1/2-z
1/2-x,1/2+y,1/2-z
-x,-y,-z
x,y,-z
1/2-x,1/2+y,1/2+z
1/2+x,1/2-y,1/2+z
loop_
_atom_site_type_symbol
_atom_site_label
_atom_site_fract_x
_atom_site_fract_y
_atom_site_fract_z
Si Si1 0.826599 0.313187 0.944311
Si Si2 0.769566 0.793154 0.356955
Si Si3 0.384609 0.137320 0.771828
Si Si4 0.029134 0.222403 0.943644
Si Si5 0.599369 0.939334 0.879464
Si Si6 0.177565 0.207382 0.254792
Si Si7 0.914343 0.103517 0.188034
Si Si8 0.769659 0.860547 0.943614
O O1 0.757247 0.404763 0.905204
O O2 0.934814 0.328923 0.927314
O O3 0.795902 0.088473 0.944186
O O4 0.819088 0.374838 0.000000
O O5 0.846059 0.634608 0.368321
O O6 0.806517 0.884049 0.307845
O O7 0.671858 0.687497 0.342085
O O8 0.419010 0.157637 0.826923
O O9 0.280993 0.224951 0.767227
O O10 0.631455 0.086547 0.761525
O O11 0.440049 0.235656 0.727899
O O12 0.134260 0.234616 0.923381
O O13 0.038655 0.274947 0.000000
O O14 0.000000 0.000000 0.943934
O O15 0.675126 0.833288 0.913018
O O16 0.500000 0.000000 0.901632
O O17 0.123595 0.069203 0.220001
O O18 0.000000 0.000000 0.160678
O O19 0.755986 0.809411 0.000000
#
# Coordination Sequence:
#
# PCOD9441462 Si02
#       8
#     8   8   8   8   8   8   8   8
#     4   8  13  24  43  69 102 138 170 214 272 323
#     4   9  19  32  47  74 107 139 181 226 267 331
#     4  10  20  36  55  78 107 142 184 224 270 329
#     4   7  10  18  35  58  87 127 163 203 265 321
#     4  10  19  29  45  67  96 141 180 222 271 320
#     4  10  18  37  55  75 112 145 179 229 275 321
#     4  11  23  35  56  84 108 144 184 230 284 329
#     4   8  14  24  38  62  96 132 172 218 269 321
#
# _framework density 23.044878000000001
#
# number of rings (size 3 to 8) (size 9 to 14) (size 15 to 20)
#    0.000    2.875    3.750    1.500    3.500    2.750 
#    0.000    0.000    0.000    0.000    0.000    0.875 
#    0.000    5.000    0.000   10.125    0.000    1.875 
#
# Total GULP energy -356974.723476 kJ/mol
# GULP energy per Si atom -5577.730054 kJ/mol
# Density = 2.299243 g / cm^3
# Si number density = 23.044878 Si / 1000 Ang^3
#
#
#
# Elastic Constant Matrix: (Units=GPa)
#
#
# Indices 1 2 3 4 5 6 
#
# 1 124.0074 9.6462 40.1615 0.0000 0.0000 0.0000
# 2 9.6462 68.4935 11.0560 0.0000 0.0000 0.0000
# 3 40.1615 11.0560 75.2784 0.0000 0.0000 0.0000
# 4 0.0000 0.0000 0.0000 -18.6209 0.0000 0.0000
# 5 0.0000 0.0000 0.0000 0.0000 34.2079 0.0000
# 6 0.0000 0.0000 0.0000 0.0000 0.0000 13.9105
#
#
#
# Elastic Compliance Matrix: (Units=1/GPa)
#
#
# Indices 1 2 3 4 5 6 
#
# 1 0.009768 -0.000547 -0.005131 0.000000 0.000000 0.000000
# 2 -0.000547 0.014985 -0.001909 0.000000 0.000000 0.000000
# 3 -0.005131 -0.001909 0.016302 0.000000 0.000000 0.000000
# 4 0.000000 0.000000 0.000000 -0.053703 0.000000 0.000000
# 5 0.000000 0.000000 0.000000 0.000000 0.029233 0.000000
# 6 0.000000 0.000000 0.000000 0.000000 0.000000 0.071888
#
#
# Mechanical properties :
#
#
# Convention : Reuss Voigt Hill
#
# Bulk Modulus (GPa) = 38.63885 43.27853 40.95869
# Shear Modulus (GPa) = 44.53366 19.69390 32.11378
#
# Velocity S-wave (km/s) = 4.40076 2.92651 3.73705
# Velocity P-wave (km/s) = 6.52882 5.49910 6.03596
#
# Compressibility (1/GPa) = 0.02588069
#
# Stress axis : x y z
#
# Youngs Moduli (GPa) = 102.37093 66.73283 61.34282
#
# Poissons Ratio (x) = 0.03653 0.31476
# Poissons Ratio (y) = 0.05604 0.11709
# Poissons Ratio (z) = 0.52527 0.12738
#
# Static dielectric constant tensor:
#      x y z
#    x 1.900900 0.000000 0.000000 
#    y 0.000000 1.947890 0.000000 
#    z 0.000000 0.000000 1.901900 
# 
# From -- ./inp_files/33625.got.cif
#   From: 2010.05.17/outbox.cif.g08.bks.cpg/sg58_17_cif.got.tgz:33625.got - 2010.06.03 14:20:14.
