data_PCOD9441349
_publ_section_title
;
Structure prediction by ZEFSAII (Michael W. Deem and Ramdas Pophale) SiO2 
 PCOD9441349
Probable space group: P N N M
;
_chemical_formula_sum "Si O2"
_cell_formula_units_Z 36
_cell_length_a 9.571143
_cell_length_b 12.310392
_cell_length_c 15.193298
_cell_angle_alpha 90.000000
_cell_angle_beta 90.000000
_cell_angle_gamma 90.000000
_cell_volume 1790.143078
_symmetry_space_group_name_H-M "P N N M"
_symmetry_group_IT_number 58
_symmetry_cell_setting 'orthorhombic'
loop_
_space_group_symop_operation_xyz
x,y,z
-x,-y,z
1/2+x,1/2-y,1/2-z
1/2-x,1/2+y,1/2-z
-x,-y,-z
x,y,-z
1/2-x,1/2+y,1/2+z
1/2+x,1/2-y,1/2+z
loop_
_atom_site_type_symbol
_atom_site_label
_atom_site_fract_x
_atom_site_fract_y
_atom_site_fract_z
Si Si1 0.334687 0.007266 0.093902
Si Si2 0.346890 0.660754 0.897007
Si Si3 0.298684 0.338883 0.715943
Si Si4 0.000000 0.000000 0.719309
Si Si5 0.331742 0.260562 0.097053
O O1 0.298711 0.133184 0.100968
O O2 0.500000 0.000000 0.089361
O O3 0.288934 0.935410 0.174241
O O4 0.277514 0.964011 0.000000
O O5 0.235135 0.734432 0.844331
O O6 0.380695 0.548889 0.845262
O O7 0.499351 0.721774 0.895721
O O8 0.311575 0.645214 0.000000
O O9 0.450214 0.397358 0.722913
O O10 0.264650 0.312256 0.816885
O O11 0.291845 0.302421 0.000000
#
# Coordination Sequence:
#
# PCOD9441349 Si02
#       5
#     8   8   8   4   8
#     4  10  18  33  58  86 109 144 198 245 281 336
#     4  10  19  36  59  83 112 152 197 241 286 344
#     4  11  20  34  57  87 117 151 190 240 293 350
#     4  10  23  36  55  92 122 150 193 244 303 344
#     4   9  19  34  54  81 111 145 191 240 286 339
#
# _framework density 20.110123999999999
#
# number of rings (size 3 to 8) (size 9 to 14) (size 15 to 20)
#    0.000    2.000    2.222    2.333    0.000    0.889 
#    0.000    2.222    0.000   11.333    0.000    0.000 
#    0.000    0.000    0.000    0.000    0.000    0.000 
#
# Total GULP energy -200507.910740 kJ/mol
# GULP energy per Si atom -5569.664187 kJ/mol
# Density = 2.006435 g / cm^3
# Si number density = 20.110124 Si / 1000 Ang^3
#
#
#
# Elastic Constant Matrix: (Units=GPa)
#
#
# Indices 1 2 3 4 5 6 
#
# 1 18.8065 16.1974 45.8843 0.0000 0.0000 0.0000
# 2 16.1974 78.3121 55.9919 0.0000 0.0000 0.0000
# 3 45.8843 55.9919 173.2356 0.0000 0.0000 0.0000
# 4 0.0000 0.0000 0.0000 57.0108 0.0000 0.0000
# 5 0.0000 0.0000 0.0000 0.0000 22.6678 0.0000
# 6 0.0000 0.0000 0.0000 0.0000 0.0000 39.3718
#
#
#
# Elastic Compliance Matrix: (Units=1/GPa)
#
#
# Indices 1 2 3 4 5 6 
#
# 1 0.151006 -0.003428 -0.038888 0.000000 0.000000 0.000000
# 2 -0.003428 0.016685 -0.004485 0.000000 0.000000 0.000000
# 3 -0.038888 -0.004485 0.017522 0.000000 0.000000 0.000000
# 4 0.000000 0.000000 0.000000 0.017541 0.000000 0.000000
# 5 0.000000 0.000000 0.000000 0.000000 0.044116 0.000000
# 6 0.000000 0.000000 0.000000 0.000000 0.000000 0.025399
#
#
# Mechanical properties :
#
#
# Convention : Reuss Voigt Hill
#
# Bulk Modulus (GPa) = 10.91576 56.27793 33.59685
# Shear Modulus (GPa) = 12.61325 33.96210 23.28768
#
# Velocity S-wave (km/s) = 2.50713 4.11397 3.40664
# Velocity P-wave (km/s) = 3.71762 7.11421 5.67594
#
# Compressibility (1/GPa) = 0.09161069
#
# Stress axis : x y z
#
# Youngs Moduli (GPa) = 6.62224 59.93393 57.07021
#
# Poissons Ratio (x) = 0.20547 2.21937
# Poissons Ratio (y) = 0.02270 0.25595
# Poissons Ratio (z) = 0.25753 0.26879
#
# Static dielectric constant tensor:
#      x y z
#    x 1.768560 0.000000 0.000000 
#    y 0.000000 1.758520 0.000000 
#    z 0.000000 0.000000 1.782660 
# 
# From -- ./inp_files/20816.got.cif
#   From: 2010.05.17/outbox.cif.g08.bks.cpg/sg58_11_cif.got.tgz:20816.got - 2010.06.03 14:20:14.
