data_PCOD9441609
_publ_section_title
;
Structure prediction by ZEFSAII (Michael W. Deem and Ramdas Pophale) SiO2 
 PCOD9441609
Probable space group: P N N M
;
_chemical_formula_sum "Si O2"
_cell_formula_units_Z 58
_cell_length_a 18.134666
_cell_length_b 15.830426
_cell_length_c 8.933039
_cell_angle_alpha 90.000000
_cell_angle_beta 90.000000
_cell_angle_gamma 90.000000
_cell_volume 2564.492264
_symmetry_space_group_name_H-M "P N N M"
_symmetry_group_IT_number 58
_symmetry_cell_setting 'orthorhombic'
loop_
_space_group_symop_operation_xyz
x,y,z
-x,-y,z
1/2+x,1/2-y,1/2-z
1/2-x,1/2+y,1/2-z
-x,-y,-z
x,y,-z
1/2-x,1/2+y,1/2+z
1/2+x,1/2-y,1/2+z
loop_
_atom_site_type_symbol
_atom_site_label
_atom_site_fract_x
_atom_site_fract_y
_atom_site_fract_z
Si Si1 0.727499 0.798099 0.825836
Si Si2 0.010862 0.834723 0.336574
Si Si3 0.839871 0.134715 0.177300
Si Si4 0.500000 0.500000 0.000000
Si Si5 0.567327 0.889632 0.831366
Si Si6 0.206539 0.039483 0.328275
Si Si7 0.563460 0.202704 0.327547
Si Si8 0.630297 0.037983 0.332128
O O1 0.713697 0.706908 0.748211
O O2 0.646161 0.842054 0.823378
O O3 0.781199 0.868560 0.748812
O O4 0.748830 0.786335 0.000000
O O5 0.960731 0.197212 0.500000
O O6 0.077973 0.834410 0.221265
O O7 0.942607 0.781601 0.279707
O O8 0.987500 0.928395 0.371783
O O9 0.833191 0.039461 0.245409
O O10 0.828737 0.131477 0.000000
O O11 0.510864 0.848677 0.715117
O O12 0.584103 0.985204 0.785567
O O13 0.538533 0.885039 0.000000
O O14 0.178258 0.046365 0.500000
O O15 0.289272 0.001383 0.335704
O O16 0.563966 0.227735 0.500000
O O17 0.628170 0.136751 0.297870
O O18 0.598378 0.029065 0.500000
#
# Coordination Sequence:
#
# PCOD9441609 Si02
#       8
#     8   8   8   2   8   8   8   8
#     4  10  20  36  58  88 122 157 202 262 307 366
#     4  10  21  41  64  88 113 153 201 261 308 366
#     4  12  23  38  65  95 122 160 212 259 314 380
#     4   8  24  44  66  84 118 144 198 256 326 358
#     4  10  19  30  50  83 120 156 194 240 288 352
#     4  10  21  39  60  85 124 169 207 260 316 374
#     4  11  20  32  55  87 118 155 199 245 298 364
#     4   9  20  35  51  78 124 166 195 235 303 361
#
# _framework density 22.616562999999999
#
# number of rings (size 3 to 8) (size 9 to 14) (size 15 to 20)
#    0.414    1.379    1.379    3.724    0.000    4.414 
#    0.000    2.759    3.034    1.655    0.000    0.000 
#    0.000    0.000    0.000    0.000    0.000    0.000 
#
# Total GULP energy -323319.059705 kJ/mol
# GULP energy per Si atom -5574.466547 kJ/mol
# Density = 2.256509 g / cm^3
# Si number density = 22.616563 Si / 1000 Ang^3
#
#
#
# Elastic Constant Matrix: (Units=GPa)
#
#
# Indices 1 2 3 4 5 6 
#
# 1 53.1764 19.4655 20.8910 0.0000 0.0000 0.0000
# 2 19.4655 109.3039 44.5230 0.0000 0.0000 0.0000
# 3 20.8910 44.5230 109.7133 0.0000 0.0000 0.0000
# 4 0.0000 0.0000 0.0000 39.4687 0.0000 0.0000
# 5 0.0000 0.0000 0.0000 0.0000 -10.3549 0.0000
# 6 0.0000 0.0000 0.0000 0.0000 0.0000 27.6267
#
#
#
# Elastic Compliance Matrix: (Units=1/GPa)
#
#
# Indices 1 2 3 4 5 6 
#
# 1 0.020888 -0.002516 -0.002956 0.000000 0.000000 0.000000
# 2 -0.002516 0.011264 -0.004092 0.000000 0.000000 0.000000
# 3 -0.002956 -0.004092 0.011338 0.000000 0.000000 0.000000
# 4 0.000000 0.000000 0.000000 0.025337 0.000000 0.000000
# 5 0.000000 0.000000 0.000000 0.000000 -0.096573 0.000000
# 6 0.000000 0.000000 0.000000 0.000000 0.000000 0.036197
#
#
# Mechanical properties :
#
#
# Convention : Reuss Voigt Hill
#
# Bulk Modulus (GPa) = 41.04828 49.10583 45.07705
# Shear Modulus (GPa) = 140.06225 23.83572 81.94899
#
# Velocity S-wave (km/s) = 7.87804 3.24991 6.02600
# Velocity P-wave (km/s) = 10.04691 5.98682 8.26990
#
# Compressibility (1/GPa) = 0.02436155
#
# Stress axis : x y z
#
# Youngs Moduli (GPa) = 47.87525 88.78200 88.19771
#
# Poissons Ratio (x) = 0.22333 0.26075
# Poissons Ratio (y) = 0.12043 0.36090
# Poissons Ratio (z) = 0.14154 0.36329
#
# Static dielectric constant tensor:
#      x y z
#    x 1.889330 0.000000 0.000000 
#    y 0.000000 1.874100 0.000000 
#    z 0.000000 0.000000 1.775860 
# 
# From -- ./inp_files/9906.got.cif
#   From: 2010.05.17/outbox.cif.g08.bks.cpg/sg58_5_cif.got.tgz:9906.got - 2010.06.03 14:20:14.
