data_PCOD9441606
_publ_section_title
;
Structure prediction by ZEFSAII (Michael W. Deem and Ramdas Pophale) SiO2 
 PCOD9441606
Probable space group: P N N M
;
_chemical_formula_sum "Si O2"
_cell_formula_units_Z 64
_cell_length_a 22.235500
_cell_length_b 18.810036
_cell_length_c 9.163735
_cell_angle_alpha 90.000000
_cell_angle_beta 90.000000
_cell_angle_gamma 90.000000
_cell_volume 3832.737254
_symmetry_space_group_name_H-M "P N N M"
_symmetry_group_IT_number 58
_symmetry_cell_setting 'orthorhombic'
loop_
_space_group_symop_operation_xyz
x,y,z
-x,-y,z
1/2+x,1/2-y,1/2-z
1/2-x,1/2+y,1/2-z
-x,-y,-z
x,y,-z
1/2-x,1/2+y,1/2+z
1/2+x,1/2-y,1/2+z
loop_
_atom_site_type_symbol
_atom_site_label
_atom_site_fract_x
_atom_site_fract_y
_atom_site_fract_z
Si Si1 0.261996 0.618896 0.672351
Si Si2 0.352946 0.079374 0.672724
Si Si3 0.110703 0.172943 0.174190
Si Si4 0.187259 0.415042 0.172213
Si Si5 0.021682 0.579035 0.325787
Si Si6 0.909526 0.681367 0.326127
Si Si7 0.435054 0.529152 0.825788
Si Si8 0.691451 0.522055 0.827106
O O1 0.250863 0.617083 0.500000
O O2 0.199821 0.626643 0.757305
O O3 0.317064 0.671936 0.702409
O O4 0.288103 0.543630 0.728001
O O5 0.354164 0.088760 0.500000
O O6 0.416887 0.095369 0.743454
O O7 0.336378 0.995832 0.700514
O O8 0.085027 0.243203 0.247573
O O9 0.082734 0.101674 0.244026
O O10 0.102184 0.172027 0.000000
O O11 0.148401 0.360843 0.265749
O O12 0.259251 0.416973 0.201553
O O13 0.178250 0.400253 0.000000
O O14 0.967298 0.420943 0.500000
O O15 0.000000 0.500000 0.284253
O O16 0.967937 0.633280 0.294253
O O17 0.904875 0.690251 0.500000
O O18 0.500000 0.500000 0.780128
O O19 0.380100 0.472896 0.803619
O O20 0.437400 0.543478 0.000000
O O21 0.699987 0.503662 0.000000
#
# Coordination Sequence:
#
# PCOD9441606 Si02
#       8
#     8   8   8   8   8   8   8   8
#     4   9  17  30  50  73  97 127 164 208 256 302
#     4  10  19  30  50  77 103 133 169 213 258 302
#     4  10  21  36  54  77 105 137 175 219 268 320
#     4   9  17  29  46  71 102 133 167 208 257 306
#     4  10  20  34  50  74 107 141 181 222 259 307
#     4  11  22  34  52  74 101 140 179 220 266 315
#     4   9  17  32  57  84 108 136 175 218 263 317
#     4   8  15  28  47  75 104 128 160 205 253 302
#
# _framework density 16.698249000000001
#
# number of rings (size 3 to 8) (size 9 to 14) (size 15 to 20)
#    0.000    2.500    1.250    2.250    0.000    5.000 
#    0.000    0.000    2.750    0.000    0.000    0.000 
#    0.000    0.000    0.000    0.000    0.000    0.000 
#
# Total GULP energy -356552.675830 kJ/mol
# GULP energy per Si atom -5571.135560 kJ/mol
# Density = 1.666024 g / cm^3
# Si number density = 16.698249 Si / 1000 Ang^3
#
#
#
# Elastic Constant Matrix: (Units=GPa)
#
#
# Indices 1 2 3 4 5 6 
#
# 1 153.6748 52.3908 61.2326 0.0000 0.0000 0.0000
# 2 52.3908 62.4719 41.0638 0.0000 0.0000 0.0000
# 3 61.2326 41.0638 48.3169 0.0000 0.0000 0.0000
# 4 0.0000 0.0000 0.0000 20.2193 0.0000 0.0000
# 5 0.0000 0.0000 0.0000 0.0000 23.3136 0.0000
# 6 0.0000 0.0000 0.0000 0.0000 0.0000 19.0044
#
#
#
# Elastic Compliance Matrix: (Units=1/GPa)
#
#
# Indices 1 2 3 4 5 6 
#
# 1 0.013146 -0.000167 -0.016518 0.000000 0.000000 0.000000
# 2 -0.000167 0.036270 -0.030614 0.000000 0.000000 0.000000
# 3 -0.016518 -0.030614 0.067648 0.000000 0.000000 0.000000
# 4 0.000000 0.000000 0.000000 0.049458 0.000000 0.000000
# 5 0.000000 0.000000 0.000000 0.000000 0.042893 0.000000
# 6 0.000000 0.000000 0.000000 0.000000 0.000000 0.052619
#
#
# Mechanical properties :
#
#
# Convention : Reuss Voigt Hill
#
# Bulk Modulus (GPa) = 44.51019 63.75978 54.13499
# Shear Modulus (GPa) = 13.73167 19.82588 16.77878
#
# Velocity S-wave (km/s) = 2.87076 3.44946 3.17333
# Velocity P-wave (km/s) = 6.14018 7.35741 6.77618
#
# Compressibility (1/GPa) = 0.02246676
#
# Stress axis : x y z
#
# Youngs Moduli (GPa) = 76.06963 27.57079 14.78232
#
# Poissons Ratio (x) = 0.00460 0.24417
# Poissons Ratio (y) = 0.01270 0.45254
# Poissons Ratio (z) = 1.25652 0.84405
#
# Static dielectric constant tensor:
#      x y z
#    x 1.595810 0.000000 0.000000 
#    y 0.000000 1.542220 0.000000 
#    z 0.000000 0.000000 1.551750 
# 
# From -- ./inp_files/9310.got.cif
#   From: 2010.05.17/outbox.cif.g08.bks.cpg/sg58_5_cif.got.tgz:9310.got - 2010.06.03 14:20:14.
