data_PCOD9441346
_publ_section_title
;
Structure prediction by ZEFSAII (Michael W. Deem and Ramdas Pophale) SiO2 
 PCOD9441346
Probable space group: P N N M
;
_chemical_formula_sum "Si O2"
_cell_formula_units_Z 48
_cell_length_a 30.279902
_cell_length_b 10.336967
_cell_length_c 8.635482
_cell_angle_alpha 90.000000
_cell_angle_beta 90.000000
_cell_angle_gamma 90.000000
_cell_volume 2702.926140
_symmetry_space_group_name_H-M "P N N M"
_symmetry_group_IT_number 58
_symmetry_cell_setting 'orthorhombic'
loop_
_space_group_symop_operation_xyz
x,y,z
-x,-y,z
1/2+x,1/2-y,1/2-z
1/2-x,1/2+y,1/2-z
-x,-y,-z
x,y,-z
1/2-x,1/2+y,1/2+z
1/2+x,1/2-y,1/2+z
loop_
_atom_site_type_symbol
_atom_site_label
_atom_site_fract_x
_atom_site_fract_y
_atom_site_fract_z
Si Si1 0.974471 0.864490 0.315239
Si Si2 0.383395 0.221425 0.814732
Si Si3 0.472375 0.124498 0.315667
Si Si4 0.615551 0.479357 0.812159
Si Si5 0.284697 0.511878 0.812519
Si Si6 0.287054 0.224062 0.314233
O O1 0.974606 0.836617 0.500000
O O2 0.924287 0.888420 0.259734
O O3 0.999882 0.750996 0.230105
O O4 0.000000 0.000000 0.295120
O O5 0.424147 0.135891 0.759560
O O6 0.392944 0.371073 0.767903
O O7 0.335967 0.187525 0.744003
O O8 0.380087 0.218473 0.000000
O O9 0.467054 0.118050 0.500000
O O10 0.500000 0.000000 0.262693
O O11 0.665511 0.447978 0.763994
O O12 0.614244 0.476060 0.000000
O O13 0.276690 0.367421 0.749822
O O14 0.248646 0.617124 0.763626
O O15 0.284453 0.504859 0.000000
O O16 0.286932 0.229395 0.500000
#
# Coordination Sequence:
#
# PCOD9441346 Si02
#       6
#     8   8   8   8   8   8
#     4  10  18  33  58  84 107 137 182 229 269 318
#     4  10  19  36  60  81 106 144 188 225 273 335
#     4  11  24  39  53  77 117 151 180 224 276 329
#     4   8  15  31  55  80 105 135 177 228 270 313
#     4   9  19  36  56  79 112 149 184 226 274 328
#     4  10  20  35  57  84 114 145 183 230 279 325
#
# _framework density 17.758531999999999
#
# number of rings (size 3 to 8) (size 9 to 14) (size 15 to 20)
#    0.000    2.333    1.667    2.500    0.000    3.000 
#    3.000    0.833    0.000    0.000    0.000    0.000 
#    0.000    0.000    0.000    0.000    0.000    0.000 
#
# Total GULP energy -267758.061117 kJ/mol
# GULP energy per Si atom -5578.292940 kJ/mol
# Density = 1.771811 g / cm^3
# Si number density = 17.758532 Si / 1000 Ang^3
#
#
#
# Elastic Constant Matrix: (Units=GPa)
#
#
# Indices 1 2 3 4 5 6 
#
# 1 152.0125 63.4106 26.4767 0.0000 0.0000 0.0000
# 2 63.4106 59.1061 16.9855 0.0000 0.0000 0.0000
# 3 26.4767 16.9855 22.3611 0.0000 0.0000 0.0000
# 4 0.0000 0.0000 0.0000 28.1254 0.0000 0.0000
# 5 0.0000 0.0000 0.0000 0.0000 29.3359 0.0000
# 6 0.0000 0.0000 0.0000 0.0000 0.0000 36.3069
#
#
#
# Elastic Compliance Matrix: (Units=1/GPa)
#
#
# Indices 1 2 3 4 5 6 
#
# 1 0.012487 -0.011701 -0.005896 0.000000 0.000000 0.000000
# 2 -0.011701 0.032609 -0.010915 0.000000 0.000000 0.000000
# 3 -0.005896 -0.010915 0.059993 0.000000 0.000000 0.000000
# 4 0.000000 0.000000 0.000000 0.035555 0.000000 0.000000
# 5 0.000000 0.000000 0.000000 0.000000 0.034088 0.000000
# 6 0.000000 0.000000 0.000000 0.000000 0.000000 0.027543
#
#
# Mechanical properties :
#
#
# Convention : Reuss Voigt Hill
#
# Bulk Modulus (GPa) = 20.80583 49.69173 35.24878
# Shear Modulus (GPa) = 18.16067 27.19410 22.67738
#
# Velocity S-wave (km/s) = 3.20135 3.91746 3.57737
# Velocity P-wave (km/s) = 5.04046 6.96453 6.07910
#
# Compressibility (1/GPa) = 0.04806346
#
# Stress axis : x y z
#
# Youngs Moduli (GPa) = 80.08615 30.66640 16.66868
#
# Poissons Ratio (x) = 0.35884 0.09828
# Poissons Ratio (y) = 0.93713 0.18193
# Poissons Ratio (z) = 0.47221 0.33471
#
# Static dielectric constant tensor:
#      x y z
#    x 1.618530 0.000000 0.000000 
#    y 0.000000 1.580840 0.000000 
#    z 0.000000 0.000000 1.605430 
# 
# From -- ./inp_files/3002.got.cif
#   From: 2010.05.17/outbox.cif.g08.bks.cpg/sg58_2_cif.got.tgz:3002.got - 2010.06.03 14:20:14.
