data_PCOD9441529
_publ_section_title
;
Structure prediction by ZEFSAII (Michael W. Deem and Ramdas Pophale) SiO2 
 PCOD9441529
Probable space group: P N N M
;
_chemical_formula_sum "Si O2"
_cell_formula_units_Z 42
_cell_length_a 14.511766
_cell_length_b 6.838148
_cell_length_c 14.636268
_cell_angle_alpha 90.000000
_cell_angle_beta 90.000000
_cell_angle_gamma 90.000000
_cell_volume 1452.409618
_symmetry_space_group_name_H-M "P N N M"
_symmetry_group_IT_number 58
_symmetry_cell_setting 'orthorhombic'
loop_
_space_group_symop_operation_xyz
x,y,z
-x,-y,z
1/2+x,1/2-y,1/2-z
1/2-x,1/2+y,1/2-z
-x,-y,-z
x,y,-z
1/2-x,1/2+y,1/2+z
1/2+x,1/2-y,1/2+z
loop_
_atom_site_type_symbol
_atom_site_label
_atom_site_fract_x
_atom_site_fract_y
_atom_site_fract_z
Si Si1 0.338427 0.305016 0.111053
Si Si2 0.781776 0.644675 0.606399
Si Si3 0.361264 0.874772 0.645156
Si Si4 0.466697 0.792469 0.165431
Si Si5 0.903772 0.054628 0.102830
Si Si6 0.500000 0.000000 0.500000
O O1 0.247651 0.416341 0.150236
O O2 0.439438 0.330477 0.156591
O O3 0.314643 0.074782 0.130359
O O4 0.342873 0.327496 0.000000
O O5 0.757215 0.648320 0.500000
O O6 0.873147 0.775611 0.615555
O O7 0.679935 0.669973 0.650695
O O8 0.419806 0.845983 0.737294
O O9 0.364211 0.664015 0.595555
O O10 0.420468 0.008705 0.579888
O O11 0.500000 0.000000 0.122690
O O12 0.930503 0.126897 0.000000
O O13 0.000000 0.000000 0.150780
#
# Coordination Sequence:
#
# PCOD9441529 Si02
#       6
#     8   8   8   8   8   2
#     4   9  17  32  50  72 105 145 183 230 291 339
#     4   8  15  29  48  72 102 134 170 225 281 332
#     4  11  20  33  53  80 110 149 187 233 286 347
#     4  10  19  29  49  80 108 136 187 239 279 339
#     4   9  17  31  51  73 101 138 181 223 279 334
#     4  12  20  36  54  76 120 154 188 236 282 362
#
# _framework density 28.917463999999999
#
# number of rings (size 3 to 8) (size 9 to 14) (size 15 to 20)
#    0.000    2.476    2.857    1.714    0.000    3.810 
#    0.000    0.000    0.000    0.000    0.000    0.000 
#    0.000   18.286    0.000    0.000    0.000    0.000 
#
# Total GULP energy -234027.422544 kJ/mol
# GULP energy per Si atom -5572.081489 kJ/mol
# Density = 2.885165 g / cm^3
# Si number density = 28.917464 Si / 1000 Ang^3
#
#
#
# Elastic Constant Matrix: (Units=GPa)
#
#
# Indices 1 2 3 4 5 6 
#
# 1 422.1548 56.0769 69.9380 0.0000 0.0000 0.0000
# 2 56.0769 74.3267 4.6062 0.0000 0.0000 0.0000
# 3 69.9380 4.6062 140.3812 0.0000 0.0000 0.0000
# 4 0.0000 0.0000 0.0000 19.8831 0.0000 0.0000
# 5 0.0000 0.0000 0.0000 0.0000 25.3116 0.0000
# 6 0.0000 0.0000 0.0000 0.0000 0.0000 41.2934
#
#
#
# Elastic Compliance Matrix: (Units=1/GPa)
#
#
# Indices 1 2 3 4 5 6 
#
# 1 0.002871 -0.002082 -0.001362 0.000000 0.000000 0.000000
# 2 -0.002082 0.014991 0.000545 0.000000 0.000000 0.000000
# 3 -0.001362 0.000545 0.007784 0.000000 0.000000 0.000000
# 4 0.000000 0.000000 0.000000 0.050294 0.000000 0.000000
# 5 0.000000 0.000000 0.000000 0.000000 0.039508 0.000000
# 6 0.000000 0.000000 0.000000 0.000000 0.000000 0.024217
#
#
# Mechanical properties :
#
#
# Convention : Reuss Voigt Hill
#
# Bulk Modulus (GPa) = 50.38028 99.78941 75.08484
# Shear Modulus (GPa) = 32.87794 51.04706 41.96250
#
# Velocity S-wave (km/s) = 3.37554 4.20607 3.81348
# Velocity P-wave (km/s) = 5.71422 7.62701 6.73883
#
# Compressibility (1/GPa) = 0.01984904
#
# Stress axis : x y z
#
# Youngs Moduli (GPa) = 348.31620 66.70735 128.46660
#
# Poissons Ratio (x) = 0.13886 0.17497
# Poissons Ratio (y) = 0.72506 -0.07004
# Poissons Ratio (z) = 0.47441 -0.03637
#
# Static dielectric constant tensor:
#      x y z
#    x 2.475300 0.000000 0.000000 
#    y 0.000000 2.421450 0.000000 
#    z 0.000000 0.000000 2.063690 
# 
# From -- ./inp_files/26087.got.cif
#   From: 2010.05.17/outbox.cif.g08.bks.cpg/sg58_14_cif.got.tgz:26087.got - 2010.06.03 14:20:14.
