data_PCOD9441995
_publ_section_title
;
Structure prediction by ZEFSAII (Michael W. Deem and Ramdas Pophale) SiO2 
 PCOD9441995
Probable space group: P N N M
;
_chemical_formula_sum "Si O2"
_cell_formula_units_Z 48
_cell_length_a 21.865200
_cell_length_b 5.116565
_cell_length_c 22.121154
_cell_angle_alpha 90.000000
_cell_angle_beta 90.000000
_cell_angle_gamma 90.000000
_cell_volume 2474.797844
_symmetry_space_group_name_H-M "P N N M"
_symmetry_group_IT_number 58
_symmetry_cell_setting 'orthorhombic'
loop_
_space_group_symop_operation_xyz
x,y,z
-x,-y,z
1/2+x,1/2-y,1/2-z
1/2-x,1/2+y,1/2-z
-x,-y,-z
x,y,-z
1/2-x,1/2+y,1/2+z
1/2+x,1/2-y,1/2+z
loop_
_atom_site_type_symbol
_atom_site_label
_atom_site_fract_x
_atom_site_fract_y
_atom_site_fract_z
Si Si1 0.456371 0.248978 0.801705
Si Si2 0.544230 0.749298 0.064545
Si Si3 0.352829 0.564119 0.430597
Si Si4 0.831215 0.260207 0.760274
Si Si5 0.934802 0.416807 0.929669
Si Si6 0.280058 0.736017 0.676749
O O1 0.500000 0.500000 0.792612
O O2 0.426223 0.262742 0.869246
O O3 0.401984 0.214443 0.754608
O O4 0.500000 0.000000 0.799886
O O5 0.500000 0.500000 0.063224
O O6 0.500000 0.000000 0.064823
O O7 0.579168 0.753300 0.000000
O O8 0.336612 0.500936 0.500000
O O9 0.394709 0.325567 0.405583
O O10 0.294525 0.639216 0.390449
O O11 0.394241 0.823596 0.429778
O O12 0.788871 0.291141 0.700509
O O13 0.805491 0.476335 0.807160
O O14 0.818420 0.969154 0.783224
O O15 0.000000 0.500000 0.901657
O O16 0.947980 0.339243 0.000000
#
# Coordination Sequence:
#
# PCOD9441995 Si02
#       6
#     8   8   8   8   8   8
#     4  10  19  33  54  79 107 133 166 216 264 303
#     4   8  14  25  43  68  98 131 160 189 240 306
#     4  10  19  33  54  78 104 133 173 224 265 302
#     4  10  21  38  57  75 102 142 179 210 253 314
#     4   9  17  30  49  74 106 141 170 202 259 325
#     4  10  21  38  57  75 101 140 182 213 252 312
#
# _framework density 19.395523000000001
#
# number of rings (size 3 to 8) (size 9 to 14) (size 15 to 20)
#    0.000    2.500    0.000    2.500    0.000    2.000 
#    0.000    9.167    0.000    0.000    0.000   14.000 
#    0.000    0.000    0.000    0.000    0.000    0.000 
#
# Total GULP energy -267353.594492 kJ/mol
# GULP energy per Si atom -5569.866552 kJ/mol
# Density = 1.935138 g / cm^3
# Si number density = 19.395523 Si / 1000 Ang^3
#
#
#
# Elastic Constant Matrix: (Units=GPa)
#
#
# Indices 1 2 3 4 5 6 
#
# 1 55.9132 7.8878 22.7665 0.0000 0.0000 0.0000
# 2 7.8878 103.6485 -4.2900 0.0000 0.0000 0.0000
# 3 22.7665 -4.2900 40.2880 0.0000 0.0000 0.0000
# 4 0.0000 0.0000 0.0000 23.0320 0.0000 0.0000
# 5 0.0000 0.0000 0.0000 0.0000 19.4866 0.0000
# 6 0.0000 0.0000 0.0000 0.0000 0.0000 19.2349
#
#
#
# Elastic Compliance Matrix: (Units=1/GPa)
#
#
# Indices 1 2 3 4 5 6 
#
# 1 0.023800 -0.002378 -0.013702 0.000000 0.000000 0.000000
# 2 -0.002378 0.009928 0.002401 0.000000 0.000000 0.000000
# 3 -0.013702 0.002401 0.032820 0.000000 0.000000 0.000000
# 4 0.000000 0.000000 0.000000 0.043418 0.000000 0.000000
# 5 0.000000 0.000000 0.000000 0.000000 0.051317 0.000000
# 6 0.000000 0.000000 0.000000 0.000000 0.000000 0.051989
#
#
# Mechanical properties :
#
#
# Convention : Reuss Voigt Hill
#
# Bulk Modulus (GPa) = 25.51722 28.06426 26.79074
# Shear Modulus (GPa) = 19.70879 23.91640 21.81260
#
# Velocity S-wave (km/s) = 3.19117 3.51535 3.35717
# Velocity P-wave (km/s) = 5.17329 5.56576 5.37311
#
# Compressibility (1/GPa) = 0.03918923
#
# Stress axis : x y z
#
# Youngs Moduli (GPa) = 42.01743 100.72140 30.46912
#
# Poissons Ratio (x) = 0.23955 0.41750
# Poissons Ratio (y) = 0.09993 -0.07316
# Poissons Ratio (z) = 0.57574 -0.24185
#
# Static dielectric constant tensor:
#      x y z
#    x 1.645070 0.000000 0.000000 
#    y 0.000000 1.617840 0.000000 
#    z 0.000000 0.000000 1.789420 
# 
# From -- ./inp_files/30502.got.cif
#   From: 2010.05.17/outbox.cif.g08.bks.cpg/sg58_16_cif.got.tgz:30502.got - 2010.06.03 14:20:14.
