data_PCOD9441628
_publ_section_title
;
Structure prediction by ZEFSAII (Michael W. Deem and Ramdas Pophale) SiO2 
 PCOD9441628
Probable space group: P N N M
;
_chemical_formula_sum "Si O2"
_cell_formula_units_Z 64
_cell_length_a 23.843869
_cell_length_b 19.593284
_cell_length_c 8.818938
_cell_angle_alpha 90.000000
_cell_angle_beta 90.000000
_cell_angle_gamma 90.000000
_cell_volume 4120.028782
_symmetry_space_group_name_H-M "P N N M"
_symmetry_group_IT_number 58
_symmetry_cell_setting 'orthorhombic'
loop_
_space_group_symop_operation_xyz
x,y,z
-x,-y,z
1/2+x,1/2-y,1/2-z
1/2-x,1/2+y,1/2-z
-x,-y,-z
x,y,-z
1/2-x,1/2+y,1/2+z
1/2+x,1/2-y,1/2+z
loop_
_atom_site_type_symbol
_atom_site_label
_atom_site_fract_x
_atom_site_fract_y
_atom_site_fract_z
Si Si1 0.771710 0.358927 0.181848
Si Si2 0.062813 0.858025 0.682550
Si Si3 0.166614 0.222344 0.819512
Si Si4 0.066133 0.141827 0.317117
Si Si5 0.624221 0.502216 0.817234
Si Si6 0.226401 0.347683 0.317737
Si Si7 0.341407 0.270500 0.318581
Si Si8 0.748862 0.499961 0.318478
O O1 0.714379 0.326937 0.248277
O O2 0.820852 0.305542 0.222401
O O3 0.778417 0.434426 0.246116
O O4 0.766606 0.360379 0.000000
O O5 0.062889 0.857511 0.500000
O O6 0.090035 0.930404 0.729805
O O7 0.103017 0.798504 0.741714
O O8 0.998390 0.852215 0.731934
O O9 0.107202 0.196226 0.759012
O O10 0.182721 0.297951 0.763196
O O11 0.169320 0.218161 0.000000
O O12 0.068833 0.149477 0.500000
O O13 0.089965 0.066407 0.281333
O O14 0.684853 0.500598 0.740263
O O15 0.631818 0.504239 0.000000
O O16 0.220461 0.340165 0.500000
O O17 0.288660 0.319466 0.278480
O O18 0.223952 0.427182 0.277781
O O19 0.348006 0.273525 0.500000
O O20 0.748625 0.494090 0.500000
#
# Coordination Sequence:
#
# PCOD9441628 Si02
#       8
#     8   8   8   8   8   8   8   8
#     4  10  20  34  50  69  98 133 162 198 253 300
#     4  10  20  32  49  72  96 131 176 207 236 285
#     4  11  21  32  49  73  96 125 169 210 241 287
#     4  10  20  34  49  67  99 138 169 203 246 289
#     4  10  19  31  47  68  99 136 170 201 238 284
#     4   9  19  34  50  69  99 131 158 198 254 300
#     4   9  18  33  49  67  95 130 162 199 248 291
#     4  11  20  31  50  76 101 128 165 203 243 294
#
# _framework density 15.533872000000001
#
# number of rings (size 3 to 8) (size 9 to 14) (size 15 to 20)
#    0.000    2.000    2.500    3.000    0.000    5.500 
#    0.000    0.000    0.000    2.250    0.000    0.875 
#    0.000    7.000    0.000    0.000    0.000    0.000 
#
# Total GULP energy -357148.452207 kJ/mol
# GULP energy per Si atom -5580.444566 kJ/mol
# Density = 1.549852 g / cm^3
# Si number density = 15.533872 Si / 1000 Ang^3
#
#
#
# Elastic Constant Matrix: (Units=GPa)
#
#
# Indices 1 2 3 4 5 6 
#
# 1 90.2287 66.4383 33.1960 0.0000 0.0000 0.0000
# 2 66.4383 144.5802 48.1905 0.0000 0.0000 0.0000
# 3 33.1960 48.1905 37.5978 0.0000 0.0000 0.0000
# 4 0.0000 0.0000 0.0000 25.2940 0.0000 0.0000
# 5 0.0000 0.0000 0.0000 0.0000 21.2981 0.0000
# 6 0.0000 0.0000 0.0000 0.0000 0.0000 19.4505
#
#
#
# Elastic Compliance Matrix: (Units=1/GPa)
#
#
# Indices 1 2 3 4 5 6 
#
# 1 0.018509 -0.005339 -0.009498 0.000000 0.000000 0.000000
# 2 -0.005339 0.013616 -0.012738 0.000000 0.000000 0.000000
# 3 -0.009498 -0.012738 0.051310 0.000000 0.000000 0.000000
# 4 0.000000 0.000000 0.000000 0.039535 0.000000 0.000000
# 5 0.000000 0.000000 0.000000 0.000000 0.046953 0.000000
# 6 0.000000 0.000000 0.000000 0.000000 0.000000 0.051412
#
#
# Mechanical properties :
#
#
# Convention : Reuss Voigt Hill
#
# Bulk Modulus (GPa) = 35.35563 63.11736 49.23649
# Shear Modulus (GPa) = 17.48780 21.51397 19.50089
#
# Velocity S-wave (km/s) = 3.35891 3.72556 3.54698
# Velocity P-wave (km/s) = 6.15246 7.69589 6.96705
#
# Compressibility (1/GPa) = 0.02828404
#
# Stress axis : x y z
#
# Youngs Moduli (GPa) = 54.02742 73.44410 19.48945
#
# Poissons Ratio (x) = 0.39215 0.18512
# Poissons Ratio (y) = 0.28848 0.24825
# Poissons Ratio (z) = 0.51317 0.93550
#
# Static dielectric constant tensor:
#      x y z
#    x 1.489270 0.000000 0.000000 
#    y 0.000000 1.525680 0.000000 
#    z 0.000000 0.000000 1.521250 
# 
# From -- ./inp_files/9441.got.cif
#   From: 2010.05.17/outbox.cif.g08.bks.cpg/sg58_5_cif.got.tgz:9441.got - 2010.06.03 14:20:14.
