data_PCOD9441998
_publ_section_title
;
Structure prediction by ZEFSAII (Michael W. Deem and Ramdas Pophale) SiO2 
 PCOD9441998
Probable space group: P N N M
;
_chemical_formula_sum "Si O2"
_cell_formula_units_Z 56
_cell_length_a 15.371821
_cell_length_b 21.270944
_cell_length_c 7.422411
_cell_angle_alpha 90.000000
_cell_angle_beta 90.000000
_cell_angle_gamma 90.000000
_cell_volume 2426.929058
_symmetry_space_group_name_H-M "P N N M"
_symmetry_group_IT_number 58
_symmetry_cell_setting 'orthorhombic'
loop_
_space_group_symop_operation_xyz
x,y,z
-x,-y,z
1/2+x,1/2-y,1/2-z
1/2-x,1/2+y,1/2-z
-x,-y,-z
x,y,-z
1/2-x,1/2+y,1/2+z
1/2+x,1/2-y,1/2+z
loop_
_atom_site_type_symbol
_atom_site_label
_atom_site_fract_x
_atom_site_fract_y
_atom_site_fract_z
Si Si1 0.392090 0.935127 0.719006
Si Si2 0.915330 0.962182 0.211294
Si Si3 0.799334 0.077342 0.282750
Si Si4 0.913682 0.192609 0.283227
Si Si5 0.917611 0.419331 0.780397
Si Si6 0.792184 0.310794 0.214476
Si Si7 0.102495 0.181222 0.295711
O O1 0.391927 0.932682 0.500000
O O2 0.298936 0.909750 0.780576
O O3 0.483180 0.904428 0.777465
O O4 0.397406 0.008832 0.769352
O O5 0.902625 0.894785 0.299916
O O6 0.833493 0.008249 0.234328
O O7 0.929143 0.950193 0.000000
O O8 0.000000 0.000000 0.280700
O O9 0.798265 0.080461 0.500000
O O10 0.868492 0.128655 0.216457
O O11 0.921068 0.186501 0.500000
O O12 0.850816 0.249998 0.242389
O O13 0.011177 0.202253 0.211935
O O14 0.845815 0.370581 0.714857
O O15 0.917175 0.417535 0.000000
O O16 0.695170 0.302656 0.289697
O O17 0.781661 0.321270 0.000000
O O18 0.103713 0.206404 0.500000
#
# Coordination Sequence:
#
# PCOD9441998 Si02
#       7
#     8   8   8   8   8   8   8
#     4   8  14  26  49  77 103 128 167 219 267 314
#     4  11  22  34  54  85 115 142 176 228 287 334
#     4  10  19  33  54  78 105 144 184 221 271 334
#     4  10  22  37  53  76 108 144 184 228 272 322
#     4   8  14  27  47  76 105 129 165 221 271 310
#     4  10  21  36  57  80 106 145 189 229 272 327
#     4  10  21  39  59  81 110 147 189 228 278 340
#
# _framework density 23.074428999999999
#
# number of rings (size 3 to 8) (size 9 to 14) (size 15 to 20)
#    0.000    2.429    1.429    2.143    0.000    5.714 
#    0.000    1.429    0.000    0.857    0.000    3.000 
#    0.000    0.000    0.000    0.000    0.000    0.000 
#
# Total GULP energy -312893.960330 kJ/mol
# GULP energy per Si atom -5587.392149 kJ/mol
# Density = 2.302191 g / cm^3
# Si number density = 23.074429 Si / 1000 Ang^3
#
#
#
# Elastic Constant Matrix: (Units=GPa)
#
#
# Indices 1 2 3 4 5 6 
#
# 1 230.3413 40.0522 5.9561 0.0000 0.0000 0.0000
# 2 40.0522 41.5367 -9.6293 0.0000 0.0000 0.0000
# 3 5.9561 -9.6293 79.7633 0.0000 0.0000 0.0000
# 4 0.0000 0.0000 0.0000 13.3997 0.0000 0.0000
# 5 0.0000 0.0000 0.0000 0.0000 -8.6678 0.0000
# 6 0.0000 0.0000 0.0000 0.0000 0.0000 28.5439
#
#
#
# Elastic Compliance Matrix: (Units=1/GPa)
#
#
# Indices 1 2 3 4 5 6 
#
# 1 0.005299 -0.005351 -0.001042 0.000000 0.000000 0.000000
# 2 -0.005351 0.030172 0.004042 0.000000 0.000000 0.000000
# 3 -0.001042 0.004042 0.013103 0.000000 0.000000 0.000000
# 4 0.000000 0.000000 0.000000 0.074628 0.000000 0.000000
# 5 0.000000 0.000000 0.000000 0.000000 -0.115370 0.000000
# 6 0.000000 0.000000 0.000000 0.000000 0.000000 0.035034
#
#
# Mechanical properties :
#
#
# Convention : Reuss Voigt Hill
#
# Bulk Modulus (GPa) = 22.79337 47.15546 34.97442
# Shear Modulus (GPa) = 80.39792 27.67266 54.03529
#
# Velocity S-wave (km/s) = 5.90919 3.46682 4.84445
# Velocity P-wave (km/s) = 7.51383 6.04199 6.81775
#
# Compressibility (1/GPa) = 0.04387240
#
# Stress axis : x y z
#
# Youngs Moduli (GPa) = 188.72421 33.14354 76.31929
#
# Poissons Ratio (x) = 0.17735 0.07950
# Poissons Ratio (y) = 1.00984 -0.30848
# Poissons Ratio (z) = 0.19658 -0.13397
#
# Static dielectric constant tensor:
#      x y z
#    x 1.910100 0.000000 0.000000 
#    y 0.000000 1.795630 0.000000 
#    z 0.000000 0.000000 1.893390 
# 
# From -- ./inp_files/6283.got.cif
#   From: 2010.05.17/outbox.cif.g08.bks.cpg/sg58_4_cif.got.tgz:6283.got - 2010.06.03 14:20:14.
