data_PCOD9441003
_publ_section_title
;
Structure prediction by ZEFSAII (Michael W. Deem and Ramdas Pophale) SiO2 
 PCOD9441003
Probable space group: P N N M
;
_chemical_formula_sum "Si O2"
_cell_formula_units_Z 64
_cell_length_a 14.670944
_cell_length_b 17.107510
_cell_length_c 14.725458
_cell_angle_alpha 90.000000
_cell_angle_beta 90.000000
_cell_angle_gamma 90.000000
_cell_volume 3695.844355
_symmetry_space_group_name_H-M "P N N M"
_symmetry_group_IT_number 58
_symmetry_cell_setting 'orthorhombic'
loop_
_space_group_symop_operation_xyz
x,y,z
-x,-y,z
1/2+x,1/2-y,1/2-z
1/2-x,1/2+y,1/2-z
-x,-y,-z
x,y,-z
1/2-x,1/2+y,1/2+z
1/2+x,1/2-y,1/2+z
loop_
_atom_site_type_symbol
_atom_site_label
_atom_site_fract_x
_atom_site_fract_y
_atom_site_fract_z
Si Si1 0.136446 0.834672 0.895524
Si Si2 0.123022 0.706691 0.393108
Si Si3 0.775680 0.808151 0.604992
Si Si4 0.470966 0.909420 0.105082
Si Si5 0.731979 0.379623 0.706851
Si Si6 0.285324 0.965010 0.892934
Si Si7 0.519220 0.342574 0.102169
Si Si8 0.022823 0.089043 0.207947
O O1 0.207835 0.764501 0.877006
O O2 0.194956 0.914019 0.888895
O O3 0.049568 0.849480 0.832667
O O4 0.106363 0.825081 0.000000
O O5 0.140792 0.690412 0.500000
O O6 0.215643 0.693204 0.338712
O O7 0.049081 0.644371 0.354647
O O8 0.069238 0.787868 0.387799
O O9 0.759797 0.832575 0.500000
O O10 0.758620 0.870627 0.684644
O O11 0.885524 0.793098 0.610996
O O12 0.368725 0.911325 0.141150
O O13 0.500000 0.000000 0.106618
O O14 0.464532 0.882987 0.000000
O O15 0.776649 0.457167 0.664981
O O16 0.625396 0.386359 0.682477
O O17 0.302991 0.984364 0.000000
O O18 0.518607 0.404071 0.182975
O O19 0.519915 0.375069 0.000000
O O20 0.000000 0.000000 0.179526
#
# Coordination Sequence:
#
# PCOD9441003 Si02
#       8
#     8   8   8   8   8   8   8   8
#     4  10  20  34  52  70  99 136 169 202 240 297
#     4  10  18  30  50  77 105 127 154 200 260 309
#     4   9  19  36  54  72  93 129 174 211 249 289
#     4   9  15  24  41  68 102 127 149 188 242 305
#     4  11  20  31  49  73 102 132 161 207 248 294
#     4  10  18  29  47  74 102 129 158 195 249 304
#     4   9  19  35  55  75  97 127 166 215 258 292
#     4  11  22  35  48  72 105 136 174 202 237 299
#
# _framework density 17.316746999999999
#
# number of rings (size 3 to 8) (size 9 to 14) (size 15 to 20)
#    0.000    2.125    2.500    1.875    0.000    4.500 
#    0.000    0.000    0.000    0.000    0.000    1.750 
#    0.000    0.000    0.000    0.000    0.000    0.000 
#
# Total GULP energy -356382.040827 kJ/mol
# GULP energy per Si atom -5568.469388 kJ/mol
# Density = 1.727733 g / cm^3
# Si number density = 17.316747 Si / 1000 Ang^3
#
#
#
# Elastic Constant Matrix: (Units=GPa)
#
#
# Indices 1 2 3 4 5 6 
#
# 1 102.6578 13.4796 36.9129 0.0000 0.0000 0.0000
# 2 13.4796 29.8505 19.4693 0.0000 0.0000 0.0000
# 3 36.9129 19.4693 67.1045 0.0000 0.0000 0.0000
# 4 0.0000 0.0000 0.0000 22.4753 0.0000 0.0000
# 5 0.0000 0.0000 0.0000 0.0000 23.4934 0.0000
# 6 0.0000 0.0000 0.0000 0.0000 0.0000 15.9682
#
#
#
# Elastic Compliance Matrix: (Units=1/GPa)
#
#
# Indices 1 2 3 4 5 6 
#
# 1 0.012190 -0.001395 -0.006301 0.000000 0.000000 0.000000
# 2 -0.001395 0.041479 -0.011267 0.000000 0.000000 0.000000
# 3 -0.006301 -0.011267 0.021637 0.000000 0.000000 0.000000
# 4 0.000000 0.000000 0.000000 0.044493 0.000000 0.000000
# 5 0.000000 0.000000 0.000000 0.000000 0.042565 0.000000
# 6 0.000000 0.000000 0.000000 0.000000 0.000000 0.062624
#
#
# Mechanical properties :
#
#
# Convention : Reuss Voigt Hill
#
# Bulk Modulus (GPa) = 26.75215 37.70403 32.22809
# Shear Modulus (GPa) = 18.15712 21.03746 19.59729
#
# Velocity S-wave (km/s) = 3.24161 3.48927 3.36772
# Velocity P-wave (km/s) = 5.43075 6.16877 5.81149
#
# Compressibility (1/GPa) = 0.03738017
#
# Stress axis : x y z
#
# Youngs Moduli (GPa) = 82.03573 24.10862 46.21731
#
# Poissons Ratio (x) = 0.03363 0.29120
# Poissons Ratio (y) = 0.11445 0.52073
# Poissons Ratio (z) = 0.51687 0.27163
#
# Static dielectric constant tensor:
#      x y z
#    x 1.632660 0.000000 0.000000 
#    y 0.000000 1.596120 0.000000 
#    z 0.000000 0.000000 1.594300 
# 
# From -- ./inp_files/22438.got.cif
#   From: 2010.05.17/outbox.cif.g08.bks.cpg/sg58_12_cif.got.tgz:22438.got - 2010.06.03 14:20:14.
