data_PCOD9441729
_publ_section_title
;
Structure prediction by ZEFSAII (Michael W. Deem and Ramdas Pophale) SiO2 
 PCOD9441729
Probable space group: P N N M
;
_chemical_formula_sum "Si O2"
_cell_formula_units_Z 64
_cell_length_a 20.671936
_cell_length_b 19.306184
_cell_length_c 7.429632
_cell_angle_alpha 90.000000
_cell_angle_beta 90.000000
_cell_angle_gamma 90.000000
_cell_volume 2965.137899
_symmetry_space_group_name_H-M "P N N M"
_symmetry_group_IT_number 58
_symmetry_cell_setting 'orthorhombic'
loop_
_space_group_symop_operation_xyz
x,y,z
-x,-y,z
1/2+x,1/2-y,1/2-z
1/2-x,1/2+y,1/2-z
-x,-y,-z
x,y,-z
1/2-x,1/2+y,1/2+z
1/2+x,1/2-y,1/2+z
loop_
_atom_site_type_symbol
_atom_site_label
_atom_site_fract_x
_atom_site_fract_y
_atom_site_fract_z
Si Si1 0.351046 0.293260 0.784290
Si Si2 0.182677 0.951864 0.785661
Si Si3 0.905437 0.804658 0.784686
Si Si4 0.024676 0.711238 0.285546
Si Si5 0.562365 0.456989 0.279787
Si Si6 0.241382 0.187037 0.219817
Si Si7 0.700013 0.961752 0.780671
Si Si8 0.946737 0.444416 0.720357
O O1 0.337112 0.373055 0.745662
O O2 0.419524 0.263348 0.716359
O O3 0.292753 0.244361 0.719449
O O4 0.352159 0.287026 0.000000
O O5 0.126895 0.003485 0.719219
O O6 0.252897 0.976487 0.719495
O O7 0.184236 0.961546 0.000000
O O8 0.935745 0.877418 0.720219
O O9 0.831752 0.798785 0.718794
O O10 0.954017 0.742412 0.745914
O O11 0.901071 0.809989 0.000000
O O12 0.033099 0.707539 0.500000
O O13 0.035946 0.633339 0.218980
O O14 0.500000 0.500000 0.221146
O O15 0.561767 0.457026 0.500000
O O16 0.266699 0.110979 0.271457
O O17 0.240976 0.187804 0.000000
O O18 0.625850 0.963567 0.721190
O O19 0.697905 0.962300 0.000000
O O20 0.946830 0.444198 0.500000
O O21 0.000000 0.500000 0.777688
#
# Coordination Sequence:
#
# PCOD9441729 Si02
#       8
#     8   8   8   8   8   8   8   8
#     4  10  20  34  52  74 104 143 176 202 251 323
#     4  10  19  31  52  80 103 126 169 224 264 294
#     4  10  19  32  53  77 101 133 173 215 258 302
#     4  10  20  34  52  76 109 143 173 210 258 316
#     4   9  16  27  45  70  98 127 161 203 247 293
#     4   9  16  31  53  72  94 135 181 209 242 307
#     4   9  15  29  52  74  96 129 175 218 253 299
#     4   9  17  30  51  77 103 134 173 216 261 304
#
# _framework density 21.584156
#
# number of rings (size 3 to 8) (size 9 to 14) (size 15 to 20)
#    0.000    2.500    2.500    0.750    0.000    2.500 
#    0.000    2.500    0.000    4.125    0.000    0.000 
#    0.000    0.000    0.000    0.000    0.000    0.000 
#
# Total GULP energy -357491.218644 kJ/mol
# GULP energy per Si atom -5585.800291 kJ/mol
# Density = 2.153503 g / cm^3
# Si number density = 21.584156 Si / 1000 Ang^3
#
#
#
# Elastic Constant Matrix: (Units=GPa)
#
#
# Indices 1 2 3 4 5 6 
#
# 1 200.4183 80.2702 5.4208 0.0000 0.0000 0.0000
# 2 80.2702 118.6093 -0.2794 0.0000 0.0000 0.0000
# 3 5.4208 -0.2794 65.2681 0.0000 0.0000 0.0000
# 4 0.0000 0.0000 0.0000 -25.8460 0.0000 0.0000
# 5 0.0000 0.0000 0.0000 0.0000 5.7605 0.0000
# 6 0.0000 0.0000 0.0000 0.0000 0.0000 43.6837
#
#
#
# Elastic Compliance Matrix: (Units=1/GPa)
#
#
# Indices 1 2 3 4 5 6 
#
# 1 0.006868 -0.004649 -0.000590 0.000000 0.000000 0.000000
# 2 -0.004649 0.011578 0.000436 0.000000 0.000000 0.000000
# 3 -0.000590 0.000436 0.015372 0.000000 0.000000 0.000000
# 4 0.000000 0.000000 0.000000 -0.038691 0.000000 0.000000
# 5 0.000000 0.000000 0.000000 0.000000 0.173597 0.000000
# 6 0.000000 0.000000 0.000000 0.000000 0.000000 0.022892
#
#
# Mechanical properties :
#
#
# Convention : Reuss Voigt Hill
#
# Bulk Modulus (GPa) = 41.30373 61.67989 51.49181
# Shear Modulus (GPa) = 23.88981 24.64523 24.26752
#
# Velocity S-wave (km/s) = 3.33050 3.38275 3.35673
# Velocity P-wave (km/s) = 5.82815 6.62539 6.23952
#
# Compressibility (1/GPa) = 0.02421089
#
# Stress axis : x y z
#
# Youngs Moduli (GPa) = 145.61227 86.36777 65.05206
#
# Poissons Ratio (x) = 0.40153 0.03840
# Poissons Ratio (y) = 0.67696 -0.02834
# Poissons Ratio (z) = 0.08595 -0.03763
#
# Static dielectric constant tensor:
#      x y z
#    x 1.769150 0.000000 0.000000 
#    y 0.000000 1.745590 0.000000 
#    z 0.000000 0.000000 1.859610 
# 
# From -- ./inp_files/8320.got.cif
#   From: 2010.05.17/outbox.cif.g08.bks.cpg/sg58_5_cif.got.tgz:8320.got - 2010.06.03 14:20:14.
