data_PCOD9441270
_publ_section_title
;
Structure prediction by ZEFSAII (Michael W. Deem and Ramdas Pophale) SiO2 
 PCOD9441270
Probable space group: P N N M
;
_chemical_formula_sum "Si O2"
_cell_formula_units_Z 56
_cell_length_a 19.206488
_cell_length_b 18.031204
_cell_length_c 7.449132
_cell_angle_alpha 90.000000
_cell_angle_beta 90.000000
_cell_angle_gamma 90.000000
_cell_volume 2579.754367
_symmetry_space_group_name_H-M "P N N M"
_symmetry_group_IT_number 58
_symmetry_cell_setting 'orthorhombic'
loop_
_space_group_symop_operation_xyz
x,y,z
-x,-y,z
1/2+x,1/2-y,1/2-z
1/2-x,1/2+y,1/2-z
-x,-y,-z
x,y,-z
1/2-x,1/2+y,1/2+z
1/2+x,1/2-y,1/2+z
loop_
_atom_site_type_symbol
_atom_site_label
_atom_site_fract_x
_atom_site_fract_y
_atom_site_fract_z
Si Si1 0.144104 0.614578 0.282267
Si Si2 0.539124 0.759879 0.217063
Si Si3 0.599146 0.442972 0.217022
Si Si4 0.211716 0.180484 0.791498
Si Si5 0.114312 0.307024 0.210532
Si Si6 0.940824 0.099367 0.282033
Si Si7 0.927957 0.533532 0.790289
O O1 0.144929 0.613256 0.500000
O O2 0.081139 0.667984 0.223254
O O3 0.215923 0.650297 0.215795
O O4 0.128653 0.531316 0.222408
O O5 0.459277 0.764541 0.275461
O O6 0.574323 0.682888 0.276952
O O7 0.538955 0.759974 0.000000
O O8 0.656416 0.386500 0.285285
O O9 0.521202 0.417212 0.266740
O O10 0.604480 0.528845 0.276673
O O11 0.602649 0.440842 0.000000
O O12 0.173983 0.253278 0.712689
O O13 0.226320 0.197613 0.000000
O O14 0.099376 0.388819 0.287806
O O15 0.130921 0.316749 0.000000
O O16 0.938048 0.098795 0.500000
O O17 0.000000 0.500000 0.712210
O O18 0.942900 0.549029 0.000000
#
# Coordination Sequence:
#
# PCOD9441270 Si02
#       7
#     8   8   8   8   8   8   8
#     4  10  22  37  54  77 108 143 178 220 269 321
#     4  10  18  32  55  79 103 136 178 221 261 310
#     4   9  16  30  52  76 101 134 174 218 261 308
#     4  10  21  37  52  74 111 147 177 216 272 330
#     4  10  20  35  56  80 108 141 176 219 270 321
#     4   8  15  28  49  78 104 125 168 224 261 300
#     4  10  20  36  58  83 108 135 177 228 272 319
#
# _framework density 21.707492999999999
#
# number of rings (size 3 to 8) (size 9 to 14) (size 15 to 20)
#    0.000    2.429    2.857    0.857    0.000    1.429 
#    2.571    2.143    0.000    0.000    0.000    0.000 
#    0.000    0.000    0.000    0.000    0.000    0.000 
#
# Total GULP energy -312500.016677 kJ/mol
# GULP energy per Si atom -5580.357441 kJ/mol
# Density = 2.165809 g / cm^3
# Si number density = 21.707493 Si / 1000 Ang^3
#
#
#
# Elastic Constant Matrix: (Units=GPa)
#
#
# Indices 1 2 3 4 5 6 
#
# 1 82.7874 37.7267 -4.5371 0.0000 0.0000 0.0000
# 2 37.7267 173.2380 -2.1450 0.0000 0.0000 0.0000
# 3 -4.5371 -2.1450 64.2287 0.0000 0.0000 0.0000
# 4 0.0000 0.0000 0.0000 -13.2609 0.0000 0.0000
# 5 0.0000 0.0000 0.0000 0.0000 13.8419 0.0000
# 6 0.0000 0.0000 0.0000 0.0000 0.0000 30.0428
#
#
#
# Elastic Compliance Matrix: (Units=1/GPa)
#
#
# Indices 1 2 3 4 5 6 
#
# 1 0.013457 -0.002920 0.000853 0.000000 0.000000 0.000000
# 2 -0.002920 0.006408 0.000008 0.000000 0.000000 0.000000
# 3 0.000853 0.000008 0.015630 0.000000 0.000000 0.000000
# 4 0.000000 0.000000 0.000000 -0.075410 0.000000 0.000000
# 5 0.000000 0.000000 0.000000 0.000000 0.072244 0.000000
# 6 0.000000 0.000000 0.000000 0.000000 0.000000 0.033286
#
#
# Mechanical properties :
#
#
# Convention : Reuss Voigt Hill
#
# Bulk Modulus (GPa) = 31.87093 42.48260 37.17677
# Shear Modulus (GPa) = 62.34993 25.40539 43.87766
#
# Velocity S-wave (km/s) = 5.36518 3.42475 4.50078
# Velocity P-wave (km/s) = 7.28657 5.93730 6.64626
#
# Compressibility (1/GPa) = 0.03137655
#
# Stress axis : x y z
#
# Youngs Moduli (GPa) = 74.31347 156.04564 63.98001
#
# Poissons Ratio (x) = 0.45564 -0.05458
# Poissons Ratio (y) = 0.21699 -0.00050
# Poissons Ratio (z) = -0.06339 -0.00121
#
# Static dielectric constant tensor:
#      x y z
#    x 1.750120 0.000000 0.000000 
#    y 0.000000 1.816980 0.000000 
#    z 0.000000 0.000000 1.838350 
# 
# From -- ./inp_files/9181.got.cif
#   From: 2010.05.17/outbox.cif.g08.bks.cpg/sg58_5_cif.got.tgz:9181.got - 2010.06.03 14:20:14.
