data_PCOD9441309
_publ_section_title
;
Structure prediction by ZEFSAII (Michael W. Deem and Ramdas Pophale) SiO2 
 PCOD9441309
Probable space group: P N N M
;
_chemical_formula_sum "Si O2"
_cell_formula_units_Z 48
_cell_length_a 7.496020
_cell_length_b 13.781136
_cell_length_c 19.321412
_cell_angle_alpha 90.000000
_cell_angle_beta 90.000000
_cell_angle_gamma 90.000000
_cell_volume 1995.972790
_symmetry_space_group_name_H-M "P N N M"
_symmetry_group_IT_number 58
_symmetry_cell_setting 'orthorhombic'
loop_
_space_group_symop_operation_xyz
x,y,z
-x,-y,z
1/2+x,1/2-y,1/2-z
1/2-x,1/2+y,1/2-z
-x,-y,-z
x,y,-z
1/2-x,1/2+y,1/2+z
1/2+x,1/2-y,1/2+z
loop_
_atom_site_type_symbol
_atom_site_label
_atom_site_fract_x
_atom_site_fract_y
_atom_site_fract_z
Si Si1 0.751235 0.411016 0.500000
Si Si2 0.699635 0.413594 0.843224
Si Si3 0.214479 0.063319 0.500000
Si Si4 0.718188 0.285512 0.380452
Si Si5 0.682734 0.629894 0.500000
Si Si6 0.817554 0.115749 0.713634
Si Si7 0.168442 0.798005 0.850546
Si Si8 0.879885 0.638278 0.000000
O O1 0.819770 0.360992 0.429602
O O2 0.771678 0.524962 0.500000
O O3 0.534160 0.388525 0.500000
O O4 0.527904 0.403123 0.795039
O O5 0.771776 0.521954 0.824524
O O6 0.817087 0.316802 0.833801
O O7 0.639748 0.410553 0.924444
O O8 0.417849 0.102381 0.500000
O O9 0.240025 0.948070 0.500000
O O10 0.806960 0.221263 0.322430
O O11 0.538114 0.330702 0.350711
O O12 0.651887 0.203781 0.434080
O O13 0.730763 0.684637 0.570761
O O14 0.746823 0.135373 0.790920
#
# Coordination Sequence:
#
# PCOD9441309 Si02
#       8
#     4   8   4   8   4   8   8   4
#     4   8  18  32  62  85 116 137 199 248 294 334
#     4  11  24  40  59  89 122 166 193 251 312 360
#     4  11  19  35  63  86 124 155 200 252 295 358
#     4  10  19  37  60  91 114 156 200 248 292 356
#     4   9  19  38  61  91 104 154 203 257 291 347
#     4  11  25  38  56  88 131 156 195 246 315 369
#     4  11  22  40  63  84 118 157 209 249 297 364
#     4  10  18  32  61  92 112 150 204 253 281 352
#
# _framework density 24.048424000000001
#
# number of rings (size 3 to 8) (size 9 to 14) (size 15 to 20)
#    0.000    1.667    3.333    2.000    0.000   10.000 
#    0.000    0.000    0.000    4.000    0.000    0.000 
#    0.000    0.000    0.000    0.000    0.000    0.000 
#
# Total GULP energy -267866.449815 kJ/mol
# GULP energy per Si atom -5580.551038 kJ/mol
# Density = 2.399369 g / cm^3
# Si number density = 24.048424 Si / 1000 Ang^3
#
#
#
# Elastic Constant Matrix: (Units=GPa)
#
#
# Indices 1 2 3 4 5 6 
#
# 1 16.0710 -6.2175 -1.6699 0.0000 0.0000 0.0000
# 2 -6.2175 132.0523 66.3831 0.0000 0.0000 0.0000
# 3 -1.6699 66.3831 169.1756 0.0000 0.0000 0.0000
# 4 0.0000 0.0000 0.0000 2.5987 0.0000 0.0000
# 5 0.0000 0.0000 0.0000 0.0000 7.9939 0.0000
# 6 0.0000 0.0000 0.0000 0.0000 0.0000 23.4949
#
#
#
# Elastic Compliance Matrix: (Units=1/GPa)
#
#
# Indices 1 2 3 4 5 6 
#
# 1 0.063441 0.003329 -0.000680 0.000000 0.000000 0.000000
# 2 0.003329 0.009608 -0.003737 0.000000 0.000000 0.000000
# 3 -0.000680 -0.003737 0.007371 0.000000 0.000000 0.000000
# 4 0.000000 0.000000 0.000000 0.384808 0.000000 0.000000
# 5 0.000000 0.000000 0.000000 0.000000 0.125096 0.000000
# 6 0.000000 0.000000 0.000000 0.000000 0.000000 0.042563
#
#
# Mechanical properties :
#
#
# Convention : Reuss Voigt Hill
#
# Bulk Modulus (GPa) = 12.78069 48.25448 30.51758
# Shear Modulus (GPa) = 7.56264 24.07104 15.81684
#
# Velocity S-wave (km/s) = 1.77527 3.16720 2.56736
# Velocity P-wave (km/s) = 3.08678 5.78653 4.63746
#
# Compressibility (1/GPa) = 0.07824306
#
# Stress axis : x y z
#
# Youngs Moduli (GPa) = 15.76269 104.07708 135.67036
#
# Poissons Ratio (x) = -0.34646 0.09225
# Poissons Ratio (y) = -0.05247 0.50705
# Poissons Ratio (z) = 0.01072 0.38897
#
# Static dielectric constant tensor:
#      x y z
#    x 2.006320 0.000000 0.000000 
#    y 0.000000 1.953850 0.000000 
#    z 0.000000 0.000000 1.962810 
# 
# From -- ./inp_files/25364.got.cif
#   From: 2010.05.17/outbox.cif.g08.bks.cpg/sg58_13_cif.got.tgz:25364.got - 2010.06.03 14:20:14.
