data_PCOD9441887
_publ_section_title
;
Structure prediction by ZEFSAII (Michael W. Deem and Ramdas Pophale) SiO2 
 PCOD9441887
Probable space group: P N N M
;
_chemical_formula_sum "Si O2"
_cell_formula_units_Z 40
_cell_length_a 5.131906
_cell_length_b 13.138971
_cell_length_c 28.431040
_cell_angle_alpha 90.000000
_cell_angle_beta 90.000000
_cell_angle_gamma 90.000000
_cell_volume 1917.047145
_symmetry_space_group_name_H-M "P N N M"
_symmetry_group_IT_number 58
_symmetry_cell_setting 'orthorhombic'
loop_
_space_group_symop_operation_xyz
x,y,z
-x,-y,z
1/2+x,1/2-y,1/2-z
1/2-x,1/2+y,1/2-z
-x,-y,-z
x,y,-z
1/2-x,1/2+y,1/2+z
1/2+x,1/2-y,1/2+z
loop_
_atom_site_type_symbol
_atom_site_label
_atom_site_fract_x
_atom_site_fract_y
_atom_site_fract_z
Si Si1 0.575272 0.196810 0.849950
Si Si2 0.535544 0.888107 0.555587
Si Si3 0.553496 0.215436 0.305532
Si Si4 0.810861 0.094505 0.765619
Si Si5 0.456102 0.256547 0.945318
O O1 0.306146 0.243511 0.832073
O O2 0.660898 0.104799 0.815558
O O3 0.544377 0.176958 0.905302
O O4 0.804268 0.279484 0.839526
O O5 0.475644 0.898638 0.500000
O O6 0.826948 0.845496 0.558293
O O7 0.319794 0.805105 0.569521
O O8 0.500000 0.000000 0.577465
O O9 0.616610 0.113106 0.277569
O O10 0.485857 0.302521 0.266805
O O11 0.000000 0.000000 0.762547
O O12 0.449457 0.222296 0.000000
#
# Coordination Sequence:
#
# PCOD9441887 Si02
#       5
#     8   8   8   8   8
#     4  10  20  37  55  83 121 148 194 241 284 346
#     4   9  17  30  49  73 101 142 198 245 287 343
#     4  10  20  39  57  87 118 145 188 249 282 360
#     4  10  21  39  65  87 115 156 189 238 307 356
#     4  10  19  32  54  77 110 157 195 241 296 339
#
# _framework density 20.865424999999998
#
# number of rings (size 3 to 8) (size 9 to 14) (size 15 to 20)
#    1.200    1.000    2.000    1.800    0.000    3.200 
#    0.000    4.000    0.000    0.600    0.000    1.400 
#    0.000    0.000    0.000    0.000    0.000    0.000 
#
# Total GULP energy -222768.502031 kJ/mol
# GULP energy per Si atom -5569.212551 kJ/mol
# Density = 2.081793 g / cm^3
# Si number density = 20.865425 Si / 1000 Ang^3
#
#
#
# Elastic Constant Matrix: (Units=GPa)
#
#
# Indices 1 2 3 4 5 6 
#
# 1 93.7247 -4.7683 14.4419 0.0000 0.0000 0.0000
# 2 -4.7683 34.3299 8.3347 0.0000 0.0000 0.0000
# 3 14.4419 8.3347 95.9787 0.0000 0.0000 0.0000
# 4 0.0000 0.0000 0.0000 4.6618 0.0000 0.0000
# 5 0.0000 0.0000 0.0000 0.0000 23.6178 0.0000
# 6 0.0000 0.0000 0.0000 0.0000 0.0000 11.7849
#
#
#
# Elastic Compliance Matrix: (Units=1/GPa)
#
#
# Indices 1 2 3 4 5 6 
#
# 1 0.011053 0.001981 -0.001835 0.000000 0.000000 0.000000
# 2 0.001981 0.030111 -0.002913 0.000000 0.000000 0.000000
# 3 -0.001835 -0.002913 0.010948 0.000000 0.000000 0.000000
# 4 0.000000 0.000000 0.000000 0.214511 0.000000 0.000000
# 5 0.000000 0.000000 0.000000 0.000000 0.042341 0.000000
# 6 0.000000 0.000000 0.000000 0.000000 0.000000 0.084854
#
#
# Mechanical properties :
#
#
# Convention : Reuss Voigt Hill
#
# Bulk Modulus (GPa) = 21.46934 28.89443 25.18189
# Shear Modulus (GPa) = 12.05170 21.74791 16.89981
#
# Velocity S-wave (km/s) = 2.40592 3.23196 2.84904
# Velocity P-wave (km/s) = 4.24614 5.27309 4.78723
#
# Compressibility (1/GPa) = 0.04657804
#
# Stress axis : x y z
#
# Youngs Moduli (GPa) = 90.47241 33.20996 91.34032
#
# Poissons Ratio (x) = -0.06578 0.16762
# Poissons Ratio (y) = -0.17921 0.26606
# Poissons Ratio (z) = 0.16603 0.09674
#
# Static dielectric constant tensor:
#      x y z
#    x 1.774940 0.000000 0.000000 
#    y 0.000000 1.758230 0.000000 
#    z 0.000000 0.000000 1.839500 
# 
# From -- ./inp_files/32738.got.cif
#   From: 2010.05.17/outbox.cif.g08.bks.cpg/sg58_17_cif.got.tgz:32738.got - 2010.06.03 14:20:14.
