data_PCOD9441527
_publ_section_title
;
Structure prediction by ZEFSAII (Michael W. Deem and Ramdas Pophale) SiO2 
 PCOD9441527
Probable space group: P N N M
;
_chemical_formula_sum "Si O2"
_cell_formula_units_Z 64
_cell_length_a 21.931678
_cell_length_b 18.945792
_cell_length_c 8.979506
_cell_angle_alpha 90.000000
_cell_angle_beta 90.000000
_cell_angle_gamma 90.000000
_cell_volume 3731.101563
_symmetry_space_group_name_H-M "P N N M"
_symmetry_group_IT_number 58
_symmetry_cell_setting 'orthorhombic'
loop_
_space_group_symop_operation_xyz
x,y,z
-x,-y,z
1/2+x,1/2-y,1/2-z
1/2-x,1/2+y,1/2-z
-x,-y,-z
x,y,-z
1/2-x,1/2+y,1/2+z
1/2+x,1/2-y,1/2+z
loop_
_atom_site_type_symbol
_atom_site_label
_atom_site_fract_x
_atom_site_fract_y
_atom_site_fract_z
Si Si1 0.569300 0.475861 0.322287
Si Si2 0.890829 0.828547 0.320765
Si Si3 0.305110 0.915418 0.821179
Si Si4 0.815533 0.037342 0.327977
Si Si5 0.981552 0.421586 0.178755
Si Si6 0.354002 0.072868 0.824296
Si Si7 0.592955 0.181086 0.679088
Si Si8 0.238912 0.122067 0.330273
O O1 0.500000 0.500000 0.295254
O O2 0.579302 0.471005 0.500000
O O3 0.580769 0.399500 0.248061
O O4 0.619468 0.529242 0.253079
O O5 0.897115 0.829867 0.500000
O O6 0.916443 0.758027 0.248314
O O7 0.818173 0.830084 0.286491
O O8 0.236526 0.918216 0.756147
O O9 0.347203 0.855890 0.748012
O O10 0.336185 0.991651 0.784117
O O11 0.303595 0.908499 0.000000
O O12 0.822289 0.059332 0.500000
O O13 0.788992 0.957210 0.328668
O O14 0.915950 0.404923 0.245422
O O15 0.000000 0.500000 0.230356
O O16 0.035110 0.367820 0.218276
O O17 0.976646 0.423020 0.000000
O O18 0.297267 0.120464 0.773646
O O19 0.361626 0.075444 0.000000
O O20 0.598235 0.184270 0.500000
O O21 0.257128 0.137894 0.500000
#
# Coordination Sequence:
#
# PCOD9441527 Si02
#       8
#     8   8   8   8   8   8   8   8
#     4  10  20  35  58  86 113 142 179 225 276 332
#     4  10  21  37  57  81 108 141 180 226 277 332
#     4  10  19  31  49  76 108 140 176 221 271 319
#     4   9  17  30  51  79 107 135 171 216 264 314
#     4  10  20  34  51  74 107 148 189 224 266 322
#     4  10  19  29  49  78 105 134 173 224 266 302
#     4  11  22  35  54  77 106 147 186 227 277 332
#     4   8  16  31  51  73  99 131 166 207 259 315
#
# _framework density 17.153110999999999
#
# number of rings (size 3 to 8) (size 9 to 14) (size 15 to 20)
#    0.000    2.250    1.250    3.000    0.000    6.750 
#    0.000    0.000    2.750    0.000    0.000    0.000 
#    0.000    0.000    0.000    0.000    0.000    0.000 
#
# Total GULP energy -356944.058429 kJ/mol
# GULP energy per Si atom -5577.250913 kJ/mol
# Density = 1.711407 g / cm^3
# Si number density = 17.153111 Si / 1000 Ang^3
#
#
#
# Elastic Constant Matrix: (Units=GPa)
#
#
# Indices 1 2 3 4 5 6 
#
# 1 128.1141 41.9878 61.7154 0.0000 0.0000 0.0000
# 2 41.9878 64.4430 37.4148 0.0000 0.0000 0.0000
# 3 61.7154 37.4148 66.9271 0.0000 0.0000 0.0000
# 4 0.0000 0.0000 0.0000 -10.0289 0.0000 0.0000
# 5 0.0000 0.0000 0.0000 0.0000 29.9965 0.0000
# 6 0.0000 0.0000 0.0000 0.0000 0.0000 22.0893
#
#
#
# Elastic Compliance Matrix: (Units=1/GPa)
#
#
# Indices 1 2 3 4 5 6 
#
# 1 0.014303 -0.002460 -0.011814 0.000000 0.000000 0.000000
# 2 -0.002460 0.023398 -0.010812 0.000000 0.000000 0.000000
# 3 -0.011814 -0.010812 0.031879 0.000000 0.000000 0.000000
# 4 0.000000 0.000000 0.000000 -0.099712 0.000000 0.000000
# 5 0.000000 0.000000 0.000000 0.000000 0.033337 0.000000
# 6 0.000000 0.000000 0.000000 0.000000 0.000000 0.045271
#
#
# Mechanical properties :
#
#
# Convention : Reuss Voigt Hill
#
# Bulk Modulus (GPa) = 51.52247 60.19114 55.85680
# Shear Modulus (GPa) = 47.56640 16.30246 31.93443
#
# Velocity S-wave (km/s) = 5.27169 3.08621 4.31946
# Velocity P-wave (km/s) = 8.19489 6.91855 7.58362
#
# Compressibility (1/GPa) = 0.01940901
#
# Stress axis : x y z
#
# Youngs Moduli (GPa) = 69.91684 42.73958 31.36816
#
# Poissons Ratio (x) = 0.10514 0.37057
# Poissons Ratio (y) = 0.17200 0.33914
# Poissons Ratio (z) = 0.82598 0.46208
#
# Static dielectric constant tensor:
#      x y z
#    x 1.580750 0.000000 0.000000 
#    y 0.000000 1.574560 0.000000 
#    z 0.000000 0.000000 1.572590 
# 
# From -- ./inp_files/9220.got.cif
#   From: 2010.05.17/outbox.cif.g08.bks.cpg/sg58_5_cif.got.tgz:9220.got - 2010.06.03 14:20:14.
