data_PCOD9441912
_publ_section_title
;
Structure prediction by ZEFSAII (Michael W. Deem and Ramdas Pophale) SiO2 
 PCOD9441912
Probable space group: P N N M
;
_chemical_formula_sum "Si O2"
_cell_formula_units_Z 56
_cell_length_a 21.961870
_cell_length_b 14.820099
_cell_length_c 9.459589
_cell_angle_alpha 90.000000
_cell_angle_beta 90.000000
_cell_angle_gamma 90.000000
_cell_volume 3078.879478
_symmetry_space_group_name_H-M "P N N M"
_symmetry_group_IT_number 58
_symmetry_cell_setting 'orthorhombic'
loop_
_space_group_symop_operation_xyz
x,y,z
-x,-y,z
1/2+x,1/2-y,1/2-z
1/2-x,1/2+y,1/2-z
-x,-y,-z
x,y,-z
1/2-x,1/2+y,1/2+z
1/2+x,1/2-y,1/2+z
loop_
_atom_site_type_symbol
_atom_site_label
_atom_site_fract_x
_atom_site_fract_y
_atom_site_fract_z
Si Si1 0.220375 0.325615 0.331973
Si Si2 0.631104 0.298189 0.335408
Si Si3 0.530954 0.140050 0.663094
Si Si4 0.155155 0.861157 0.333087
Si Si5 0.572567 0.494119 0.669613
Si Si6 0.881354 0.523420 0.663279
Si Si7 0.911228 0.329238 0.661957
O O1 0.230234 0.312199 0.500000
O O2 0.185222 0.239991 0.262813
O O3 0.281542 0.350532 0.249560
O O4 0.175606 0.411474 0.313160
O O5 0.651511 0.300088 0.500000
O O6 0.577074 0.224695 0.324703
O O7 0.601905 0.395466 0.301373
O O8 0.521563 0.119776 0.500000
O O9 0.564181 0.057460 0.739405
O O10 0.468409 0.165065 0.736498
O O11 0.163767 0.882138 0.500000
O O12 0.111216 0.933493 0.257820
O O13 0.123790 0.763503 0.322322
O O14 0.500000 0.500000 0.702549
O O15 0.578312 0.510560 0.500000
O O16 0.899765 0.535923 0.500000
O O17 0.869968 0.417795 0.686517
O O18 0.933522 0.334775 0.500000
#
# Coordination Sequence:
#
# PCOD9441912 Si02
#       7
#     8   8   8   8   8   8   8
#     4  10  21  38  59  82 108 143 189 233 276 332
#     4   9  19  36  58  82 112 149 184 225 279 335
#     4  10  19  32  54  85 114 138 172 220 268 317
#     4  11  24  39  56  81 113 147 187 237 285 330
#     4  10  21  39  62  86 114 152 195 237 288 347
#     4   9  19  36  56  77 106 145 182 215 261 326
#     4  10  21  36  53  75 107 146 179 212 265 327
#
# _framework density 18.188434999999998
#
# number of rings (size 3 to 8) (size 9 to 14) (size 15 to 20)
#    0.000    2.143    0.000    2.571    0.000    7.714 
#    0.000    2.857    0.000    0.000    0.000    0.000 
#    0.000    0.000    0.000    0.000    0.000    0.000 
#
# Total GULP energy -312523.104443 kJ/mol
# GULP energy per Si atom -5580.769722 kJ/mol
# Density = 1.814704 g / cm^3
# Si number density = 18.188435 Si / 1000 Ang^3
#
#
#
# Elastic Constant Matrix: (Units=GPa)
#
#
# Indices 1 2 3 4 5 6 
#
# 1 122.3637 52.7030 100.7172 0.0000 0.0000 0.0000
# 2 52.7030 120.4211 75.1664 0.0000 0.0000 0.0000
# 3 100.7172 75.1664 104.5117 0.0000 0.0000 0.0000
# 4 0.0000 0.0000 0.0000 9.9542 0.0000 0.0000
# 5 0.0000 0.0000 0.0000 0.0000 36.3386 0.0000
# 6 0.0000 0.0000 0.0000 0.0000 0.0000 17.1052
#
#
#
# Elastic Compliance Matrix: (Units=1/GPa)
#
#
# Indices 1 2 3 4 5 6 
#
# 1 0.051454 0.015301 -0.060591 0.000000 0.000000 0.000000
# 2 0.015301 0.019620 -0.028857 0.000000 0.000000 0.000000
# 3 -0.060591 -0.028857 0.088714 0.000000 0.000000 0.000000
# 4 0.000000 0.000000 0.000000 0.100461 0.000000 0.000000
# 5 0.000000 0.000000 0.000000 0.000000 0.027519 0.000000
# 6 0.000000 0.000000 0.000000 0.000000 0.000000 0.058462
#
#
# Mechanical properties :
#
#
# Convention : Reuss Voigt Hill
#
# Bulk Modulus (GPa) = 86.99485 89.38552 88.19019
# Shear Modulus (GPa) = 10.03306 20.59359 15.31332
#
# Velocity S-wave (km/s) = 2.35120 3.36852 2.90474
# Velocity P-wave (km/s) = 7.43670 8.02372 7.73578
#
# Compressibility (1/GPa) = 0.01149493
#
# Stress axis : x y z
#
# Youngs Moduli (GPa) = 19.43475 50.96945 11.27223
#
# Poissons Ratio (x) = -0.77991 0.68300
# Poissons Ratio (y) = -0.29738 0.32528
# Poissons Ratio (z) = 1.17757 1.47081
#
# Static dielectric constant tensor:
#      x y z
#    x 1.603110 0.000000 0.000000 
#    y 0.000000 1.627840 0.000000 
#    z 0.000000 0.000000 1.614790 
# 
# From -- ./inp_files/9046.got.cif
#   From: 2010.05.17/outbox.cif.g08.bks.cpg/sg58_5_cif.got.tgz:9046.got - 2010.06.03 14:20:14.
