data_PCOD9441266
_publ_section_title
;
Structure prediction by ZEFSAII (Michael W. Deem and Ramdas Pophale) SiO2 
 PCOD9441266
Probable space group: P N N M
;
_chemical_formula_sum "Si O2"
_cell_formula_units_Z 64
_cell_length_a 15.971396
_cell_length_b 24.812453
_cell_length_c 7.380402
_cell_angle_alpha 90.000000
_cell_angle_beta 90.000000
_cell_angle_gamma 90.000000
_cell_volume 2924.775911
_symmetry_space_group_name_H-M "P N N M"
_symmetry_group_IT_number 58
_symmetry_cell_setting 'orthorhombic'
loop_
_space_group_symop_operation_xyz
x,y,z
-x,-y,z
1/2+x,1/2-y,1/2-z
1/2-x,1/2+y,1/2-z
-x,-y,-z
x,y,-z
1/2-x,1/2+y,1/2+z
1/2+x,1/2-y,1/2+z
loop_
_atom_site_type_symbol
_atom_site_label
_atom_site_fract_x
_atom_site_fract_y
_atom_site_fract_z
Si Si1 0.908423 0.753736 0.218205
Si Si2 0.246710 0.449901 0.721447
Si Si3 0.745183 0.174055 0.784237
Si Si4 0.588715 0.977274 0.778790
Si Si5 0.651170 0.864174 0.781352
Si Si6 0.342009 0.631177 0.719824
Si Si7 0.598256 0.744619 0.292612
Si Si8 0.408862 0.518283 0.278684
O O1 0.841882 0.706478 0.258756
O O2 0.870948 0.810507 0.282674
O O3 0.004293 0.752341 0.286621
O O4 0.912475 0.754126 0.000000
O O5 0.245804 0.449683 0.500000
O O6 0.242172 0.387652 0.782087
O O7 0.166888 0.485705 0.778295
O O8 0.332492 0.479598 0.776998
O O9 0.826125 0.207989 0.713893
O O10 0.756148 0.170872 0.000000
O O11 0.500000 0.000000 0.720335
O O12 0.597414 0.915204 0.722504
O O13 0.590612 0.977345 0.000000
O O14 0.746038 0.877687 0.732010
O O15 0.628561 0.806109 0.707414
O O16 0.646152 0.859854 0.000000
O O17 0.346403 0.632399 0.500000
O O18 0.393354 0.579532 0.780192
O O19 0.587670 0.725540 0.500000
O O20 0.500000 0.500000 0.219526
O O21 0.407898 0.517849 0.500000
#
# Coordination Sequence:
#
# PCOD9441266 Si02
#       8
#     8   8   8   8   8   8   8   8
#     4  10  21  36  53  73 103 140 172 207 253 303
#     4   9  17  29  43  68 103 129 155 200 254 300
#     4  10  21  35  52  76 106 136 169 210 255 302
#     4   9  17  28  45  72 100 124 156 207 259 292
#     4  10  18  32  55  76  97 131 175 213 246 298
#     4   9  16  29  48  71  97 128 168 208 244 292
#     4  10  22  36  50  74 108 139 167 209 261 302
#     4   9  16  25  43  71 101 130 159 198 252 306
#
# _framework density 21.882017000000001
#
# number of rings (size 3 to 8) (size 9 to 14) (size 15 to 20)
#    0.000    2.500    2.500    0.000    3.500    0.500 
#    0.000    0.000    0.000    1.125    0.000    0.000 
#    0.000    2.500    0.000    0.000    0.000    0.000 
#
# Total GULP energy -357294.357409 kJ/mol
# GULP energy per Si atom -5582.724335 kJ/mol
# Density = 2.183221 g / cm^3
# Si number density = 21.882017 Si / 1000 Ang^3
#
#
#
# Elastic Constant Matrix: (Units=GPa)
#
#
# Indices 1 2 3 4 5 6 
#
# 1 99.7555 17.2767 -0.1925 0.0000 0.0000 0.0000
# 2 17.2767 110.1965 -3.9140 0.0000 0.0000 0.0000
# 3 -0.1925 -3.9140 74.7980 0.0000 0.0000 0.0000
# 4 0.0000 0.0000 0.0000 10.2159 0.0000 0.0000
# 5 0.0000 0.0000 0.0000 0.0000 10.6672 0.0000
# 6 0.0000 0.0000 0.0000 0.0000 0.0000 42.5787
#
#
#
# Elastic Compliance Matrix: (Units=1/GPa)
#
#
# Indices 1 2 3 4 5 6 
#
# 1 0.010305 -0.001618 -0.000058 0.000000 0.000000 0.000000
# 2 -0.001618 0.009346 0.000485 0.000000 0.000000 0.000000
# 3 -0.000058 0.000485 0.013395 0.000000 0.000000 0.000000
# 4 0.000000 0.000000 0.000000 0.097886 0.000000 0.000000
# 5 0.000000 0.000000 0.000000 0.000000 0.093745 0.000000
# 6 0.000000 0.000000 0.000000 0.000000 0.000000 0.023486
#
#
# Mechanical properties :
#
#
# Convention : Reuss Voigt Hill
#
# Bulk Modulus (GPa) = 32.61272 34.56561 33.58916
# Shear Modulus (GPa) = 19.17438 30.79769 24.98603
#
# Velocity S-wave (km/s) = 2.96338 3.75566 3.38280
# Velocity P-wave (km/s) = 5.16189 5.88535 5.53545
#
# Compressibility (1/GPa) = 0.03066288
#
# Stress axis : x y z
#
# Youngs Moduli (GPa) = 97.04445 107.00300 74.65718
#
# Poissons Ratio (x) = 0.17309 0.00434
# Poissons Ratio (y) = 0.15698 -0.03620
# Poissons Ratio (z) = 0.00564 -0.05188
#
# Static dielectric constant tensor:
#      x y z
#    x 1.777300 0.000000 0.000000 
#    y 0.000000 1.782830 0.000000 
#    z 0.000000 0.000000 1.885370 
# 
# From -- ./inp_files/6788.got.cif
#   From: 2010.05.17/outbox.cif.g08.bks.cpg/sg58_4_cif.got.tgz:6788.got - 2010.06.03 14:20:14.
