data_PCOD9441974
_publ_section_title
;
Structure prediction by ZEFSAII (Michael W. Deem and Ramdas Pophale) SiO2 
 PCOD9441974
Probable space group: P N N M
;
_chemical_formula_sum "Si O2"
_cell_formula_units_Z 64
_cell_length_a 12.811058
_cell_length_b 28.839356
_cell_length_c 7.523665
_cell_angle_alpha 90.000000
_cell_angle_beta 90.000000
_cell_angle_gamma 90.000000
_cell_volume 2779.713302
_symmetry_space_group_name_H-M "P N N M"
_symmetry_group_IT_number 58
_symmetry_cell_setting 'orthorhombic'
loop_
_space_group_symop_operation_xyz
x,y,z
-x,-y,z
1/2+x,1/2-y,1/2-z
1/2-x,1/2+y,1/2-z
-x,-y,-z
x,y,-z
1/2-x,1/2+y,1/2+z
1/2+x,1/2-y,1/2+z
loop_
_atom_site_type_symbol
_atom_site_label
_atom_site_fract_x
_atom_site_fract_y
_atom_site_fract_z
Si Si1 0.976939 0.929731 0.297701
Si Si2 0.849057 0.566157 0.216614
Si Si3 0.723628 0.474341 0.216469
Si Si4 0.630066 0.823949 0.796147
Si Si5 0.365060 0.664078 0.283414
Si Si6 0.670902 0.629232 0.215151
Si Si7 0.576114 0.920881 0.702136
Si Si8 0.942733 0.223427 0.208147
O O1 0.003309 0.943873 0.500000
O O2 0.895174 0.966772 0.218111
O O3 0.902419 0.884260 0.297299
O O4 0.083019 0.907848 0.219244
O O5 0.776767 0.522758 0.264116
O O6 0.784591 0.611731 0.271357
O O7 0.967296 0.562090 0.283841
O O8 0.855180 0.567003 0.000000
O O9 0.811553 0.436931 0.276259
O O10 0.714225 0.472024 0.000000
O O11 0.748819 0.823522 0.729864
O O12 0.570484 0.865235 0.699090
O O13 0.587034 0.772300 0.789239
O O14 0.631516 0.839374 0.000000
O O15 0.370981 0.660227 0.500000
O O16 0.447986 0.702658 0.226063
O O17 0.638530 0.681061 0.267359
O O18 0.665911 0.627892 0.000000
O O19 0.577733 0.939253 0.500000
O O20 0.952848 0.232295 0.000000
#
# Coordination Sequence:
#
# PCOD9441974 Si02
#       8
#     8   8   8   8   8   8   8   8
#     4   9  16  28  51  78 102 130 171 220 255 291
#     4   9  18  31  50  77 111 147 176 210 260 315
#     4   9  16  28  50  80 106 136 180 222 257 298
#     4  11  22  36  55  79 104 132 170 217 267 314
#     4   9  19  35  53  72  99 133 166 206 258 312
#     4   9  18  33  51  75 108 141 172 213 266 312
#     4  10  19  33  53  76 105 140 180 219 255 305
#     4  10  21  37  56  77 101 134 174 213 259 316
#
# _framework density 23.023955999999998
#
# number of rings (size 3 to 8) (size 9 to 14) (size 15 to 20)
#    0.000    2.500    1.250    1.125    0.000    4.000 
#    0.000    8.125    0.000    3.750    0.000    3.500 
#    0.000    0.000    0.000    0.000    0.000    0.000 
#
# Total GULP energy -357230.300053 kJ/mol
# GULP energy per Si atom -5581.723438 kJ/mol
# Density = 2.297155 g / cm^3
# Si number density = 23.023956 Si / 1000 Ang^3
#
#
#
# Elastic Constant Matrix: (Units=GPa)
#
#
# Indices 1 2 3 4 5 6 
#
# 1 71.8747 11.0742 -1.8964 0.0000 0.0000 0.0000
# 2 11.0742 76.9913 -6.5600 0.0000 0.0000 0.0000
# 3 -1.8964 -6.5600 59.5183 0.0000 0.0000 0.0000
# 4 0.0000 0.0000 0.0000 7.5999 0.0000 0.0000
# 5 0.0000 0.0000 0.0000 0.0000 4.0094 0.0000
# 6 0.0000 0.0000 0.0000 0.0000 0.0000 33.0239
#
#
#
# Elastic Compliance Matrix: (Units=1/GPa)
#
#
# Indices 1 2 3 4 5 6 
#
# 1 0.014232 -0.002027 0.000230 0.000000 0.000000 0.000000
# 2 -0.002027 0.013400 0.001412 0.000000 0.000000 0.000000
# 3 0.000230 0.001412 0.016965 0.000000 0.000000 0.000000
# 4 0.000000 0.000000 0.000000 0.131581 0.000000 0.000000
# 5 0.000000 0.000000 0.000000 0.000000 0.249414 0.000000
# 6 0.000000 0.000000 0.000000 0.000000 0.000000 0.030281
#
#
# Mechanical properties :
#
#
# Convention : Reuss Voigt Hill
#
# Bulk Modulus (GPa) = 22.81729 23.73555 23.27642
# Shear Modulus (GPa) = 10.61004 22.64440 16.62722
#
# Velocity S-wave (km/s) = 2.14902 3.13951 2.69024
# Velocity P-wave (km/s) = 4.01116 4.84494 4.44763
#
# Compressibility (1/GPa) = 0.04382642
#
# Stress axis : x y z
#
# Youngs Moduli (GPa) = 70.26640 74.62443 58.94640
#
# Poissons Ratio (x) = 0.15130 -0.01356
# Poissons Ratio (y) = 0.14246 -0.08325
# Poissons Ratio (z) = -0.01616 -0.10540
#
# Static dielectric constant tensor:
#      x y z
#    x 1.873980 0.000000 0.000000 
#    y 0.000000 1.858230 0.000000 
#    z 0.000000 0.000000 1.928940 
# 
# From -- ./inp_files/4832.got.cif
#   From: 2010.05.17/outbox.cif.g08.bks.cpg/sg58_3_cif.got.tgz:4832.got - 2010.06.03 14:20:14.
