data_PCOD9441936
_publ_section_title
;
Structure prediction by ZEFSAII (Michael W. Deem and Ramdas Pophale) SiO2 
 PCOD9441936
Probable space group: P N N M
;
_chemical_formula_sum "Si O2"
_cell_formula_units_Z 58
_cell_length_a 19.471557
_cell_length_b 17.454139
_cell_length_c 7.308726
_cell_angle_alpha 90.000000
_cell_angle_beta 90.000000
_cell_angle_gamma 90.000000
_cell_volume 2483.938228
_symmetry_space_group_name_H-M "P N N M"
_symmetry_group_IT_number 58
_symmetry_cell_setting 'orthorhombic'
loop_
_space_group_symop_operation_xyz
x,y,z
-x,-y,z
1/2+x,1/2-y,1/2-z
1/2-x,1/2+y,1/2-z
-x,-y,-z
x,y,-z
1/2-x,1/2+y,1/2+z
1/2+x,1/2-y,1/2+z
loop_
_atom_site_type_symbol
_atom_site_label
_atom_site_fract_x
_atom_site_fract_y
_atom_site_fract_z
Si Si1 0.568301 0.625420 0.286515
Si Si2 0.000000 0.500000 0.000000
Si Si3 0.578695 0.323686 0.722653
Si Si4 0.150822 0.019329 0.223656
Si Si5 0.811703 0.708488 0.220900
Si Si6 0.300088 0.970885 0.212864
Si Si7 0.081393 0.582525 0.720810
Si Si8 0.333434 0.233707 0.780696
O O1 0.554224 0.610043 0.500000
O O2 0.498036 0.660121 0.210267
O O3 0.597964 0.546020 0.211987
O O4 0.626949 0.689137 0.271676
O O5 0.014521 0.565377 0.161569
O O6 0.576316 0.319853 0.500000
O O7 0.624618 0.397078 0.772178
O O8 0.618352 0.248137 0.784727
O O9 0.227426 0.999890 0.288342
O O10 0.151897 0.015565 0.000000
O O11 0.804459 0.620168 0.272970
O O12 0.744984 0.756943 0.283361
O O13 0.811127 0.710322 0.000000
O O14 0.367107 0.013963 0.284412
O O15 0.299294 0.993009 0.000000
O O16 0.070068 0.581679 0.500000
O O17 0.121935 0.660120 0.773279
O O18 0.330354 0.229560 0.000000
#
# Coordination Sequence:
#
# PCOD9441936 Si02
#       8
#     8   2   8   8   8   8   8   8
#     4  10  19  32  56  89 119 148 196 249 300 369
#     4  12  26  44  68  94 120 172 210 284 328 374
#     4   9  18  32  53  84 115 148 190 243 301 361
#     4   9  16  31  57  85 116 153 193 244 303 367
#     4  10  20  35  58  86 120 159 207 254 307 374
#     4  10  20  37  61  88 120 158 202 259 307 362
#     4  10  24  44  65  93 127 169 221 265 321 387
#     4  10  21  39  60  83 120 167 205 254 311 375
#
# _framework density 23.350016
#
# number of rings (size 3 to 8) (size 9 to 14) (size 15 to 20)
#    0.000    2.207    1.379    1.448    1.931    6.069 
#    2.483    2.069    0.000    3.310    0.000    0.000 
#    0.000    0.000    0.000    0.000    0.000    0.000 
#
# Total GULP energy -323661.970834 kJ/mol
# GULP energy per Si atom -5580.378807 kJ/mol
# Density = 2.329687 g / cm^3
# Si number density = 23.350016 Si / 1000 Ang^3
#
#
#
# Elastic Constant Matrix: (Units=GPa)
#
#
# Indices 1 2 3 4 5 6 
#
# 1 63.8454 -17.3082 -10.0782 0.0000 0.0000 0.0000
# 2 -17.3082 31.8355 -10.7848 0.0000 0.0000 0.0000
# 3 -10.0782 -10.7848 103.9034 0.0000 0.0000 0.0000
# 4 0.0000 0.0000 0.0000 -67.2999 0.0000 0.0000
# 5 0.0000 0.0000 0.0000 0.0000 -22.2520 0.0000
# 6 0.0000 0.0000 0.0000 0.0000 0.0000 35.7497
#
#
#
# Elastic Compliance Matrix: (Units=1/GPa)
#
#
# Indices 1 2 3 4 5 6 
#
# 1 0.019268 0.011513 0.003064 0.000000 0.000000 0.000000
# 2 0.011513 0.039436 0.005210 0.000000 0.000000 0.000000
# 3 0.003064 0.005210 0.010462 0.000000 0.000000 0.000000
# 4 0.000000 0.000000 0.000000 -0.014859 0.000000 0.000000
# 5 0.000000 0.000000 0.000000 0.000000 -0.044940 0.000000
# 6 0.000000 0.000000 0.000000 0.000000 0.000000 0.027972
#
#
# Mechanical properties :
#
#
# Convention : Reuss Voigt Hill
#
# Bulk Modulus (GPa) = 9.19618 13.69354 11.44486
# Shear Modulus (GPa) = 147.00777 5.08993 76.04885
#
# Velocity S-wave (km/s) = 7.94324 1.47803 5.71312
# Velocity P-wave (km/s) = 9.38475 2.96479 6.95929
#
# Compressibility (1/GPa) = 0.10874077
#
# Stress axis : x y z
#
# Youngs Moduli (GPa) = 51.90032 25.35752 95.58123
#
# Poissons Ratio (x) = -0.29195 -0.29285
# Poissons Ratio (y) = -0.59755 -0.49798
# Poissons Ratio (z) = -0.15902 -0.13211
#
# Static dielectric constant tensor:
#      x y z
#    x 1.926570 0.000000 0.000000 
#    y 0.000000 1.788130 0.000000 
#    z 0.000000 0.000000 1.943850 
# 
# From -- ./inp_files/7998.got.cif
#   From: 2010.05.17/outbox.cif.g08.bks.cpg/sg58_4_cif.got.tgz:7998.got - 2010.06.03 14:20:14.
