data_PCOD9441179
_publ_section_title
;
Structure prediction by ZEFSAII (Michael W. Deem and Ramdas Pophale) SiO2 
 PCOD9441179
Probable space group: P N N M
;
_chemical_formula_sum "Si O2"
_cell_formula_units_Z 64
_cell_length_a 16.927147
_cell_length_b 16.553751
_cell_length_c 13.655390
_cell_angle_alpha 90.000000
_cell_angle_beta 90.000000
_cell_angle_gamma 90.000000
_cell_volume 3826.346470
_symmetry_space_group_name_H-M "P N N M"
_symmetry_group_IT_number 58
_symmetry_cell_setting 'orthorhombic'
loop_
_space_group_symop_operation_xyz
x,y,z
-x,-y,z
1/2+x,1/2-y,1/2-z
1/2-x,1/2+y,1/2-z
-x,-y,-z
x,y,-z
1/2-x,1/2+y,1/2+z
1/2+x,1/2-y,1/2+z
loop_
_atom_site_type_symbol
_atom_site_label
_atom_site_fract_x
_atom_site_fract_y
_atom_site_fract_z
Si Si1 0.404861 0.508116 0.884209
Si Si2 0.355360 0.907004 0.612219
Si Si3 0.158741 0.591439 0.884530
Si Si4 0.995058 0.407359 0.251952
Si Si5 0.894496 0.169872 0.618401
Si Si6 0.242604 0.242559 0.114803
Si Si7 0.683252 0.339753 0.800479
Si Si8 0.952617 0.736932 0.616933
O O1 0.500000 0.500000 0.879350
O O2 0.373878 0.420595 0.850088
O O3 0.368299 0.580542 0.822533
O O4 0.385175 0.521855 0.000000
O O5 0.382443 0.907213 0.500000
O O6 0.431213 0.897384 0.679200
O O7 0.298814 0.830382 0.623966
O O8 0.319005 0.996114 0.628815
O O9 0.233739 0.645312 0.855317
O O10 0.084528 0.605514 0.811932
O O11 0.138803 0.602621 0.000000
O O12 0.011625 0.344322 0.337817
O O13 0.000000 0.500000 0.287093
O O14 0.891447 0.166647 0.500000
O O15 0.832249 0.238295 0.647186
O O16 0.982768 0.194973 0.645089
O O17 0.202351 0.179649 0.187606
O O18 0.240240 0.219403 0.000000
O O19 0.631559 0.265146 0.841537
O O20 0.948346 0.732778 0.500000
#
# Coordination Sequence:
#
# PCOD9441179 Si02
#       8
#     8   8   8   8   8   8   8   8
#     4  10  18  31  53  84 112 135 168 216 278 332
#     4   9  17  33  54  77 104 133 172 222 268 310
#     4  10  20  33  54  82 107 133 170 226 279 316
#     4  10  20  35  53  77 108 144 184 216 263 322
#     4   9  18  33  53  78 106 136 173 221 269 315
#     4  10  20  34  53  76 104 141 183 220 258 316
#     4  12  21  33  53  82 111 140 174 222 278 326
#     4  11  21  34  52  77 111 144 178 220 266 321
#
# _framework density 16.726137999999999
#
# number of rings (size 3 to 8) (size 9 to 14) (size 15 to 20)
#    0.000    1.875    2.500    3.000    0.000    3.750 
#    0.000    0.000    0.000    1.125    0.000    0.000 
#    0.000    0.000    0.000    0.000    0.000    0.000 
#
# Total GULP energy -356732.825431 kJ/mol
# GULP energy per Si atom -5573.950397 kJ/mol
# Density = 1.668807 g / cm^3
# Si number density = 16.726138 Si / 1000 Ang^3
#
#
#
# Elastic Constant Matrix: (Units=GPa)
#
#
# Indices 1 2 3 4 5 6 
#
# 1 78.2711 33.0441 38.7016 0.0000 0.0000 0.0000
# 2 33.0441 70.7549 44.7067 0.0000 0.0000 0.0000
# 3 38.7016 44.7067 73.6953 0.0000 0.0000 0.0000
# 4 0.0000 0.0000 0.0000 29.0972 0.0000 0.0000
# 5 0.0000 0.0000 0.0000 0.0000 20.2925 0.0000
# 6 0.0000 0.0000 0.0000 0.0000 0.0000 27.4895
#
#
#
# Elastic Compliance Matrix: (Units=1/GPa)
#
#
# Indices 1 2 3 4 5 6 
#
# 1 0.017905 -0.003925 -0.007022 0.000000 0.000000 0.000000
# 2 -0.003925 0.023779 -0.012364 0.000000 0.000000 0.000000
# 3 -0.007022 -0.012364 0.024757 0.000000 0.000000 0.000000
# 4 0.000000 0.000000 0.000000 0.034368 0.000000 0.000000
# 5 0.000000 0.000000 0.000000 0.000000 0.049279 0.000000
# 6 0.000000 0.000000 0.000000 0.000000 0.000000 0.036378
#
#
# Mechanical properties :
#
#
# Convention : Reuss Voigt Hill
#
# Bulk Modulus (GPa) = 50.45555 50.62514 50.54035
# Shear Modulus (GPa) = 20.85998 22.46043 21.66021
#
# Velocity S-wave (km/s) = 3.53533 3.66845 3.60250
# Velocity P-wave (km/s) = 6.84806 6.94810 6.89826
#
# Compressibility (1/GPa) = 0.01981943
#
# Stress axis : x y z
#
# Youngs Moduli (GPa) = 55.84941 42.05469 40.39233
#
# Poissons Ratio (x) = 0.16508 0.28362
# Poissons Ratio (y) = 0.21924 0.49939
# Poissons Ratio (z) = 0.39216 0.51995
#
# Static dielectric constant tensor:
#      x y z
#    x 1.596550 0.000000 0.000000 
#    y 0.000000 1.594040 0.000000 
#    z 0.000000 0.000000 1.535920 
# 
# From -- ./inp_files/23034.got.cif
#   From: 2010.05.17/outbox.cif.g08.bks.cpg/sg58_12_cif.got.tgz:23034.got - 2010.06.03 14:20:14.
