data_PCOD9441391
_publ_section_title
;
Structure prediction by ZEFSAII (Michael W. Deem and Ramdas Pophale) SiO2 
 PCOD9441391
Probable space group: P N N M
;
_chemical_formula_sum "Si O2"
_cell_formula_units_Z 48
_cell_length_a 9.300680
_cell_length_b 30.405962
_cell_length_c 8.100306
_cell_angle_alpha 90.000000
_cell_angle_beta 90.000000
_cell_angle_gamma 90.000000
_cell_volume 2290.735129
_symmetry_space_group_name_H-M "P N N M"
_symmetry_group_IT_number 58
_symmetry_cell_setting 'orthorhombic'
loop_
_space_group_symop_operation_xyz
x,y,z
-x,-y,z
1/2+x,1/2-y,1/2-z
1/2-x,1/2+y,1/2-z
-x,-y,-z
x,y,-z
1/2-x,1/2+y,1/2+z
1/2+x,1/2-y,1/2+z
loop_
_atom_site_type_symbol
_atom_site_label
_atom_site_fract_x
_atom_site_fract_y
_atom_site_fract_z
Si Si1 0.922138 0.394585 0.186340
Si Si2 0.826085 0.006147 0.000000
Si Si3 0.131332 0.219492 0.801782
Si Si4 0.564548 0.951642 0.000000
Si Si5 0.104608 0.957071 0.679740
Si Si6 0.458802 0.197554 0.192756
Si Si7 0.594258 0.377853 0.700397
O O1 0.972880 0.425646 0.334295
O O2 0.752420 0.387147 0.226185
O O3 0.992696 0.346468 0.206605
O O4 0.939169 0.411220 0.000000
O O5 0.793345 0.032104 0.832894
O O6 0.000000 0.000000 0.000000
O O7 0.737091 0.961517 0.000000
O O8 0.299235 0.213890 0.760198
O O9 0.064676 0.262080 0.719090
O O10 0.058431 0.172840 0.755466
O O11 0.119361 0.224504 0.000000
O O12 0.500000 0.000000 0.000000
O O13 0.172526 0.951589 0.500000
O O14 0.011975 0.914397 0.727503
O O15 0.000000 0.000000 0.668902
O O16 0.452263 0.184644 0.000000
O O17 0.595799 0.379487 0.500000
#
# Coordination Sequence:
#
# PCOD9441391 Si02
#       7
#     8   4   8   4   8   8   8
#     4  11  21  38  65  88 118 166 210 251 300 372
#     4  10  20  36  60  82 116 152 194 256 306 353
#     4   9  20  35  57  89 122 158 204 258 303 369
#     4  12  26  44  64  92 124 160 212 260 307 367
#     4  10  19  30  51  84 116 152 196 245 307 357
#     4  10  20  38  61  90 125 160 204 252 312 365
#     4  10  18  34  58  89 125 159 208 257 306 363
#
# _framework density 20.953973000000001
#
# number of rings (size 3 to 8) (size 9 to 14) (size 15 to 20)
#    0.000    1.833    2.500    4.000    0.000    6.333 
#    0.000    1.667    0.000    0.000    0.000    0.000 
#    0.000    0.000    0.000    0.000    0.000    0.000 
#
# Total GULP energy -268028.056112 kJ/mol
# GULP energy per Si atom -5583.917836 kJ/mol
# Density = 2.090628 g / cm^3
# Si number density = 20.953973 Si / 1000 Ang^3
#
#
#
# Elastic Constant Matrix: (Units=GPa)
#
#
# Indices 1 2 3 4 5 6 
#
# 1 27.1044 22.9437 14.8274 0.0000 0.0000 0.0000
# 2 22.9437 119.8700 55.7014 0.0000 0.0000 0.0000
# 3 14.8274 55.7014 165.3986 0.0000 0.0000 0.0000
# 4 0.0000 0.0000 0.0000 22.1258 0.0000 0.0000
# 5 0.0000 0.0000 0.0000 0.0000 -23.6446 0.0000
# 6 0.0000 0.0000 0.0000 0.0000 0.0000 32.8152
#
#
#
# Elastic Compliance Matrix: (Units=1/GPa)
#
#
# Indices 1 2 3 4 5 6 
#
# 1 0.044270 -0.007859 -0.001322 0.000000 0.000000 0.000000
# 2 -0.007859 0.011285 -0.003096 0.000000 0.000000 0.000000
# 3 -0.001322 -0.003096 0.007207 0.000000 0.000000 0.000000
# 4 0.000000 0.000000 0.000000 0.045196 0.000000 0.000000
# 5 0.000000 0.000000 0.000000 0.000000 -0.042293 0.000000
# 6 0.000000 0.000000 0.000000 0.000000 0.000000 0.030474
#
#
# Mechanical properties :
#
#
# Convention : Reuss Voigt Hill
#
# Bulk Modulus (GPa) = 26.17222 55.47980 40.82601
# Shear Modulus (GPa) = 37.47279 20.85267 29.16273
#
# Velocity S-wave (km/s) = 4.23346 3.15805 3.73467
# Velocity P-wave (km/s) = 6.03438 6.31127 6.17438
#
# Compressibility (1/GPa) = 0.03820845
#
# Stress axis : x y z
#
# Youngs Moduli (GPa) = 22.58845 88.61052 138.75110
#
# Poissons Ratio (x) = 0.69642 0.18341
# Poissons Ratio (y) = 0.17753 0.42958
# Poissons Ratio (z) = 0.02986 0.27434
#
# Static dielectric constant tensor:
#      x y z
#    x 1.815300 0.000000 0.000000 
#    y 0.000000 1.751760 0.000000 
#    z 0.000000 0.000000 1.786320 
# 
# From -- ./inp_files/3057.got.cif
#   From: 2010.05.17/outbox.cif.g08.bks.cpg/sg58_2_cif.got.tgz:3057.got - 2010.06.03 14:20:14.
