data_PCOD9441869
_publ_section_title
;
Structure prediction by ZEFSAII (Michael W. Deem and Ramdas Pophale) SiO2 
 PCOD9441869
Probable space group: P N N M
;
_chemical_formula_sum "Si O2"
_cell_formula_units_Z 56
_cell_length_a 14.627475
_cell_length_b 19.767656
_cell_length_c 9.033924
_cell_angle_alpha 90.000000
_cell_angle_beta 90.000000
_cell_angle_gamma 90.000000
_cell_volume 2612.167200
_symmetry_space_group_name_H-M "P N N M"
_symmetry_group_IT_number 58
_symmetry_cell_setting 'orthorhombic'
loop_
_space_group_symop_operation_xyz
x,y,z
-x,-y,z
1/2+x,1/2-y,1/2-z
1/2-x,1/2+y,1/2-z
-x,-y,-z
x,y,-z
1/2-x,1/2+y,1/2+z
1/2+x,1/2-y,1/2+z
loop_
_atom_site_type_symbol
_atom_site_label
_atom_site_fract_x
_atom_site_fract_y
_atom_site_fract_z
Si Si1 0.430050 0.357600 0.322613
Si Si2 0.541920 0.929552 0.173794
Si Si3 0.230490 0.212162 0.821659
Si Si4 0.887263 0.918680 0.820069
Si Si5 0.223427 0.494823 0.673568
Si Si6 0.268737 0.861808 0.675692
Si Si7 0.569845 0.795449 0.675063
O O1 0.413769 0.365225 0.500000
O O2 0.507791 0.410492 0.274927
O O3 0.335306 0.363140 0.236902
O O4 0.466553 0.280695 0.299902
O O5 0.520101 0.859571 0.253171
O O6 0.500000 0.000000 0.230795
O O7 0.650739 0.944594 0.185624
O O8 0.518167 0.924084 0.000000
O O9 0.164399 0.150990 0.780914
O O10 0.193518 0.287399 0.786407
O O11 0.327873 0.205809 0.742036
O O12 0.244803 0.209261 0.000000
O O13 0.821466 0.979062 0.768875
O O14 0.888339 0.922727 0.000000
O O15 0.232087 0.479093 0.500000
O O16 0.187703 0.427833 0.752303
O O17 0.270081 0.868329 0.500000
O O18 0.573248 0.805901 0.500000
#
# Coordination Sequence:
#
# PCOD9441869 Si02
#       7
#     8   8   8   8   8   8   8
#     4   9  19  35  55  80 107 139 184 229 270 319
#     4  10  21  37  57  80 108 146 186 223 269 331
#     4   9  17  34  57  76 100 141 187 223 265 327
#     4   9  17  33  58  80  99 139 192 227 258 319
#     4  10  20  36  57  78 105 144 185 224 267 323
#     4  10  21  35  54  80 113 147 178 223 277 325
#     4  10  19  32  53  80 108 136 171 225 279 320
#
# _framework density 21.438137000000001
#
# number of rings (size 3 to 8) (size 9 to 14) (size 15 to 20)
#    0.000    2.429    1.429    0.857    0.000    3.714 
#    0.000    5.714    0.000    0.000    0.000    0.000 
#    0.000    0.000    0.000    0.000    0.000    0.000 
#
# Total GULP energy -312604.110903 kJ/mol
# GULP energy per Si atom -5582.216266 kJ/mol
# Density = 2.138934 g / cm^3
# Si number density = 21.438137 Si / 1000 Ang^3
#
#
#
# Elastic Constant Matrix: (Units=GPa)
#
#
# Indices 1 2 3 4 5 6 
#
# 1 33.8711 -0.4590 -4.6478 0.0000 0.0000 0.0000
# 2 -0.4590 109.5716 31.1958 0.0000 0.0000 0.0000
# 3 -4.6478 31.1958 23.4374 0.0000 0.0000 0.0000
# 4 0.0000 0.0000 0.0000 26.8743 0.0000 0.0000
# 5 0.0000 0.0000 0.0000 0.0000 7.5521 0.0000
# 6 0.0000 0.0000 0.0000 0.0000 0.0000 34.5798
#
#
#
# Elastic Compliance Matrix: (Units=1/GPa)
#
#
# Indices 1 2 3 4 5 6 
#
# 1 0.030800 -0.002592 0.009558 0.000000 0.000000 0.000000
# 2 -0.002592 0.014913 -0.020364 0.000000 0.000000 0.000000
# 3 0.009558 -0.020364 0.071668 0.000000 0.000000 0.000000
# 4 0.000000 0.000000 0.000000 0.037210 0.000000 0.000000
# 5 0.000000 0.000000 0.000000 0.000000 0.132413 0.000000
# 6 0.000000 0.000000 0.000000 0.000000 0.000000 0.028919
#
#
# Mechanical properties :
#
#
# Convention : Reuss Voigt Hill
#
# Bulk Modulus (GPa) = 11.03936 24.33978 17.68957
# Shear Modulus (GPa) = 13.40790 23.18732 18.29761
#
# Velocity S-wave (km/s) = 2.50356 3.29232 2.92465
# Velocity P-wave (km/s) = 3.67664 5.08239 4.43556
#
# Compressibility (1/GPa) = 0.09058496
#
# Stress axis : x y z
#
# Youngs Moduli (GPa) = 32.46736 67.05360 13.95327
#
# Poissons Ratio (x) = 0.17382 -0.13337
# Poissons Ratio (y) = 0.08417 0.28415
# Poissons Ratio (z) = -0.31033 1.36550
#
# Static dielectric constant tensor:
#      x y z
#    x 1.826230 0.000000 0.000000 
#    y 0.000000 1.814220 0.000000 
#    z 0.000000 0.000000 1.713180 
# 
# From -- ./inp_files/6413.got.cif
#   From: 2010.05.17/outbox.cif.g08.bks.cpg/sg58_4_cif.got.tgz:6413.got - 2010.06.03 14:20:14.
