data_PCOD9441093
_publ_section_title
;
Structure prediction by ZEFSAII (Michael W. Deem and Ramdas Pophale) SiO2 
 PCOD9441093
Probable space group: P N N M
;
_chemical_formula_sum "Si O2"
_cell_formula_units_Z 56
_cell_length_a 15.576798
_cell_length_b 15.460665
_cell_length_c 13.687571
_cell_angle_alpha 90.000000
_cell_angle_beta 90.000000
_cell_angle_gamma 90.000000
_cell_volume 3296.345635
_symmetry_space_group_name_H-M "P N N M"
_symmetry_group_IT_number 58
_symmetry_cell_setting 'orthorhombic'
loop_
_space_group_symop_operation_xyz
x,y,z
-x,-y,z
1/2+x,1/2-y,1/2-z
1/2-x,1/2+y,1/2-z
-x,-y,-z
x,y,-z
1/2-x,1/2+y,1/2+z
1/2+x,1/2-y,1/2+z
loop_
_atom_site_type_symbol
_atom_site_label
_atom_site_fract_x
_atom_site_fract_y
_atom_site_fract_z
Si Si1 0.059097 0.110446 0.383514
Si Si2 0.141832 0.646007 0.117002
Si Si3 0.309568 0.339758 0.616023
Si Si4 0.798840 0.539819 0.116366
Si Si5 0.380703 0.430088 0.201032
Si Si6 0.387001 0.802007 0.112838
Si Si7 0.970313 0.595116 0.778121
O O1 0.060410 0.088979 0.500000
O O2 0.112357 0.198520 0.370805
O O3 0.960803 0.121061 0.346656
O O4 0.095706 0.030106 0.321803
O O5 0.170615 0.741060 0.147939
O O6 0.196660 0.561748 0.148271
O O7 0.045605 0.629985 0.153383
O O8 0.145115 0.646452 0.000000
O O9 0.329192 0.350182 0.500000
O O10 0.362283 0.403150 0.687081
O O11 0.206415 0.345342 0.626971
O O12 0.710480 0.583245 0.148538
O O13 0.881873 0.584432 0.162846
O O14 0.805668 0.541647 0.000000
O O15 0.453025 0.844417 0.186651
O O16 0.411560 0.814437 0.000000
O O17 0.000000 0.500000 0.745406
#
# Coordination Sequence:
#
# PCOD9441093 Si02
#       7
#     8   8   8   8   8   8   8
#     4  10  21  35  55  80 106 134 171 216 263 311
#     4   9  18  32  51  76 103 132 169 210 254 308
#     4  10  20  34  53  75 101 140 179 209 245 303
#     4  10  18  30  51  77 105 132 165 213 263 306
#     4  11  19  33  53  79 102 134 170 217 262 302
#     4  10  20  36  53  75 105 140 178 211 250 307
#     4  10  19  32  51  79 106 134 168 210 261 304
#
# _framework density 16.988509000000001
#
# number of rings (size 3 to 8) (size 9 to 14) (size 15 to 20)
#    0.000    2.000    1.429    3.857    0.000    4.286 
#    0.000    1.429    0.000    1.714    0.000    0.000 
#    0.000    0.000    0.000    0.000    0.000    0.000 
#
# Total GULP energy -312103.088954 kJ/mol
# GULP energy per Si atom -5573.269446 kJ/mol
# Density = 1.694984 g / cm^3
# Si number density = 16.988509 Si / 1000 Ang^3
#
#
#
# Elastic Constant Matrix: (Units=GPa)
#
#
# Indices 1 2 3 4 5 6 
#
# 1 61.4645 4.2212 9.4684 0.0000 0.0000 0.0000
# 2 4.2212 22.4204 18.5604 0.0000 0.0000 0.0000
# 3 9.4684 18.5604 49.2032 0.0000 0.0000 0.0000
# 4 0.0000 0.0000 0.0000 29.9156 0.0000 0.0000
# 5 0.0000 0.0000 0.0000 0.0000 24.8389 0.0000
# 6 0.0000 0.0000 0.0000 0.0000 0.0000 17.7722
#
#
#
# Elastic Compliance Matrix: (Units=1/GPa)
#
#
# Indices 1 2 3 4 5 6 
#
# 1 0.016774 -0.000707 -0.002961 0.000000 0.000000 0.000000
# 2 -0.000707 0.064885 -0.024340 0.000000 0.000000 0.000000
# 3 -0.002961 -0.024340 0.030075 0.000000 0.000000 0.000000
# 4 0.000000 0.000000 0.000000 0.033427 0.000000 0.000000
# 5 0.000000 0.000000 0.000000 0.000000 0.040259 0.000000
# 6 0.000000 0.000000 0.000000 0.000000 0.000000 0.056268
#
#
# Mechanical properties :
#
#
# Convention : Reuss Voigt Hill
#
# Bulk Modulus (GPa) = 17.94737 21.95425 19.95081
# Shear Modulus (GPa) = 15.80893 21.22787 18.51840
#
# Velocity S-wave (km/s) = 3.05383 3.53872 3.30518
# Velocity P-wave (km/s) = 4.79811 5.44498 5.13175
#
# Compressibility (1/GPa) = 0.05571846
#
# Stress axis : x y z
#
# Youngs Moduli (GPa) = 59.61510 15.41198 33.24997
#
# Poissons Ratio (x) = 0.01089 0.09847
# Poissons Ratio (y) = 0.04213 0.80930
# Poissons Ratio (z) = 0.17655 0.37512
#
# Static dielectric constant tensor:
#      x y z
#    x 1.593210 0.000000 0.000000 
#    y 0.000000 1.593370 0.000000 
#    z 0.000000 0.000000 1.552610 
# 
# From -- ./inp_files/15691.got.cif
#   From: 2010.05.17/outbox.cif.g08.bks.cpg/sg58_8_cif.got.tgz:15691.got - 2010.06.03 14:20:14.
