data_PCOD9441315
_publ_section_title
;
Structure prediction by ZEFSAII (Michael W. Deem and Ramdas Pophale) SiO2 
 PCOD9441315
Probable space group: P N N M
;
_chemical_formula_sum "Si O2"
_cell_formula_units_Z 64
_cell_length_a 15.089391
_cell_length_b 31.295258
_cell_length_c 8.165922
_cell_angle_alpha 90.000000
_cell_angle_beta 90.000000
_cell_angle_gamma 90.000000
_cell_volume 3856.163821
_symmetry_space_group_name_H-M "P N N M"
_symmetry_group_IT_number 58
_symmetry_cell_setting 'orthorhombic'
loop_
_space_group_symop_operation_xyz
x,y,z
-x,-y,z
1/2+x,1/2-y,1/2-z
1/2-x,1/2+y,1/2-z
-x,-y,-z
x,y,-z
1/2-x,1/2+y,1/2+z
1/2+x,1/2-y,1/2+z
loop_
_atom_site_type_symbol
_atom_site_label
_atom_site_fract_x
_atom_site_fract_y
_atom_site_fract_z
Si Si1 0.174559 0.868038 0.697827
Si Si2 0.691654 0.794434 0.197387
Si Si3 0.994646 0.725528 0.302044
Si Si4 0.506839 0.323727 0.199293
Si Si5 0.911046 0.050918 0.810682
Si Si6 0.315125 0.630270 0.801870
Si Si7 0.798264 0.708755 0.197037
Si Si8 0.893431 0.956412 0.307338
O O1 0.177557 0.869216 0.500000
O O2 0.165959 0.916445 0.758776
O O3 0.248839 0.834438 0.754140
O O4 0.081514 0.847329 0.751829
O O5 0.589344 0.792837 0.253601
O O6 0.736551 0.839008 0.246226
O O7 0.748610 0.752615 0.255956
O O8 0.691142 0.791568 0.000000
O O9 0.993838 0.723996 0.500000
O O10 0.994688 0.774886 0.249281
O O11 0.901343 0.707191 0.242722
O O12 0.595520 0.346296 0.256511
O O13 0.507185 0.324385 0.000000
O O14 0.003645 0.058237 0.713965
O O15 0.885216 0.001721 0.780843
O O16 0.932074 0.057206 0.000000
O O17 0.327770 0.581110 0.749201
O O18 0.315272 0.629767 0.000000
O O19 0.790732 0.709739 0.000000
O O20 0.879112 0.963500 0.500000
#
# Coordination Sequence:
#
# PCOD9441315 Si02
#       8
#     8   8   8   8   8   8   8   8
#     4  10  18  33  51  67  95 135 171 199 238 294
#     4  10  20  32  48  71  99 131 164 202 248 290
#     4  10  19  33  49  66  97 135 166 200 245 289
#     4   9  15  27  47  68  92 128 168 199 230 278
#     4  11  21  31  46  73 103 126 158 206 250 286
#     4  10  19  31  50  72  94 129 170 203 235 283
#     4  10  20  32  49  72  96 127 170 210 239 279
#     4  10  19  33  51  69  95 134 169 194 239 300
#
# _framework density 16.596805
#
# number of rings (size 3 to 8) (size 9 to 14) (size 15 to 20)
#    0.000    2.000    3.750    2.250    0.000    2.000 
#    0.000    0.625    0.000    0.000    0.000    0.875 
#    0.000    7.000    0.000    0.000    0.000    0.000 
#
# Total GULP energy -356764.664026 kJ/mol
# GULP energy per Si atom -5574.447875 kJ/mol
# Density = 1.655903 g / cm^3
# Si number density = 16.596805 Si / 1000 Ang^3
#
#
#
# Elastic Constant Matrix: (Units=GPa)
#
#
# Indices 1 2 3 4 5 6 
#
# 1 105.6553 56.8213 3.8930 0.0000 0.0000 0.0000
# 2 56.8213 112.4393 5.1947 0.0000 0.0000 0.0000
# 3 3.8930 5.1947 13.1434 0.0000 0.0000 0.0000
# 4 0.0000 0.0000 0.0000 17.0040 0.0000 0.0000
# 5 0.0000 0.0000 0.0000 0.0000 20.0870 0.0000
# 6 0.0000 0.0000 0.0000 0.0000 0.0000 23.0546
#
#
#
# Elastic Compliance Matrix: (Units=1/GPa)
#
#
# Indices 1 2 3 4 5 6 
#
# 1 0.013018 -0.006520 -0.001279 0.000000 0.000000 0.000000
# 2 -0.006520 0.012324 -0.002940 0.000000 0.000000 0.000000
# 3 -0.001279 -0.002940 0.077624 0.000000 0.000000 0.000000
# 4 0.000000 0.000000 0.000000 0.058810 0.000000 0.000000
# 5 0.000000 0.000000 0.000000 0.000000 0.049783 0.000000
# 6 0.000000 0.000000 0.000000 0.000000 0.000000 0.043375
#
#
# Mechanical properties :
#
#
# Convention : Reuss Voigt Hill
#
# Bulk Modulus (GPa) = 12.27151 40.33957 26.30554
# Shear Modulus (GPa) = 16.47037 23.05106 19.76071
#
# Velocity S-wave (km/s) = 3.15363 3.73082 3.45430
# Velocity P-wave (km/s) = 4.54647 6.55111 5.63859
#
# Compressibility (1/GPa) = 0.08148959
#
# Stress axis : x y z
#
# Youngs Moduli (GPa) = 76.81601 81.14111 12.88254
#
# Poissons Ratio (x) = 0.52901 0.01648
# Poissons Ratio (y) = 0.50081 0.03787
# Poissons Ratio (z) = 0.09825 0.23854
#
# Static dielectric constant tensor:
#      x y z
#    x 1.554730 0.000000 0.000000 
#    y 0.000000 1.586060 0.000000 
#    z 0.000000 0.000000 1.586560 
# 
# From -- ./inp_files/7139.got.cif
#   From: 2010.05.17/outbox.cif.g08.bks.cpg/sg58_4_cif.got.tgz:7139.got - 2010.06.03 14:20:14.
