data_PCOD9441789
_publ_section_title
;
Structure prediction by ZEFSAII (Michael W. Deem and Ramdas Pophale) SiO2 
 PCOD9441789
Probable space group: P N N M
;
_chemical_formula_sum "Si O2"
_cell_formula_units_Z 64
_cell_length_a 23.442465
_cell_length_b 11.055226
_cell_length_c 14.073654
_cell_angle_alpha 90.000000
_cell_angle_beta 90.000000
_cell_angle_gamma 90.000000
_cell_volume 3647.352779
_symmetry_space_group_name_H-M "P N N M"
_symmetry_group_IT_number 58
_symmetry_cell_setting 'orthorhombic'
loop_
_space_group_symop_operation_xyz
x,y,z
-x,-y,z
1/2+x,1/2-y,1/2-z
1/2-x,1/2+y,1/2-z
-x,-y,-z
x,y,-z
1/2-x,1/2+y,1/2+z
1/2+x,1/2-y,1/2+z
loop_
_atom_site_type_symbol
_atom_site_label
_atom_site_fract_x
_atom_site_fract_y
_atom_site_fract_z
Si Si1 0.369411 0.785194 0.885337
Si Si2 0.161306 0.517130 0.112473
Si Si3 0.926336 0.259505 0.390848
Si Si4 0.271372 0.640924 0.196496
Si Si5 0.724625 0.241352 0.395092
Si Si6 0.332464 0.418971 0.892376
Si Si7 0.464716 0.610163 0.110263
Si Si8 0.430260 0.004599 0.770118
O O1 0.304462 0.751156 0.856983
O O2 0.405693 0.665304 0.855345
O O3 0.399266 0.895563 0.828762
O O4 0.374312 0.801420 0.000000
O O5 0.207287 0.609722 0.160230
O O6 0.187586 0.381012 0.119846
O O7 0.101806 0.514268 0.168974
O O8 0.156494 0.543804 0.000000
O O9 0.910526 0.285677 0.500000
O O10 0.892022 0.138563 0.363724
O O11 0.915425 0.372924 0.326093
O O12 0.992357 0.223437 0.388889
O O13 0.278150 0.669735 0.307108
O O14 0.304996 0.518655 0.172762
O O15 0.710720 0.290459 0.500000
O O16 0.789220 0.193018 0.395695
O O17 0.334897 0.469104 0.000000
O O18 0.500000 0.500000 0.155694
O O19 0.454820 0.574886 0.000000
O O20 0.500000 0.000000 0.765203
#
# Coordination Sequence:
#
# PCOD9441789 Si02
#       8
#     8   8   8   8   8   8   8   8
#     4  11  21  33  53  87 121 151 191 239 292 351
#     4  10  22  40  59  81 111 151 196 244 287 339
#     4  10  19  32  50  77 116 157 189 225 284 352
#     4  11  19  35  62  85 111 146 193 242 292 348
#     4   9  18  34  55  80 113 147 187 236 292 350
#     4   9  18  32  53  79 108 150 192 230 282 347
#     4   9  17  29  47  74 111 150 188 229 276 338
#     4  12  23  37  57  83 118 158 198 239 293 348
#
# _framework density 17.546973000000001
#
# number of rings (size 3 to 8) (size 9 to 14) (size 15 to 20)
#    0.000    1.875    2.500    3.750    0.000    2.750 
#    0.000    0.625    0.000    0.750    0.000    0.000 
#    0.000    4.500    0.000    0.000    0.000    0.000 
#
# Total GULP energy -356472.074796 kJ/mol
# GULP energy per Si atom -5569.876169 kJ/mol
# Density = 1.750704 g / cm^3
# Si number density = 17.546973 Si / 1000 Ang^3
#
#
#
# Elastic Constant Matrix: (Units=GPa)
#
#
# Indices 1 2 3 4 5 6 
#
# 1 81.8062 21.8954 42.7126 0.0000 0.0000 0.0000
# 2 21.8954 56.6808 57.3938 0.0000 0.0000 0.0000
# 3 42.7126 57.3938 113.8935 0.0000 0.0000 0.0000
# 4 0.0000 0.0000 0.0000 14.2454 0.0000 0.0000
# 5 0.0000 0.0000 0.0000 0.0000 22.4033 0.0000
# 6 0.0000 0.0000 0.0000 0.0000 0.0000 22.0230
#
#
#
# Elastic Compliance Matrix: (Units=1/GPa)
#
#
# Indices 1 2 3 4 5 6 
#
# 1 0.015201 -0.000203 -0.005598 0.000000 0.000000 0.000000
# 2 -0.000203 0.036028 -0.018079 0.000000 0.000000 0.000000
# 3 -0.005598 -0.018079 0.019990 0.000000 0.000000 0.000000
# 4 0.000000 0.000000 0.000000 0.070198 0.000000 0.000000
# 5 0.000000 0.000000 0.000000 0.000000 0.044636 0.000000
# 6 0.000000 0.000000 0.000000 0.000000 0.000000 0.045407
#
#
# Mechanical properties :
#
#
# Convention : Reuss Voigt Hill
#
# Bulk Modulus (GPa) = 42.62992 55.15379 48.89186
# Shear Modulus (GPa) = 17.41908 20.42624 18.92266
#
# Velocity S-wave (km/s) = 3.15415 3.41558 3.28746
# Velocity P-wave (km/s) = 6.13289 6.85968 6.50644
#
# Compressibility (1/GPa) = 0.02345770
#
# Stress axis : x y z
#
# Youngs Moduli (GPa) = 65.78305 27.75649 50.02480
#
# Poissons Ratio (x) = 0.00565 0.28006
# Poissons Ratio (y) = 0.01338 0.90440
# Poissons Ratio (z) = 0.36828 0.50181
#
# Static dielectric constant tensor:
#      x y z
#    x 1.664820 0.000000 0.000000 
#    y 0.000000 1.626620 0.000000 
#    z 0.000000 0.000000 1.596710 
# 
# From -- ./inp_files/14846.got.cif
#   From: 2010.05.17/outbox.cif.g08.bks.cpg/sg58_8_cif.got.tgz:14846.got - 2010.06.03 14:20:14.
