data_PCOD9441847
_publ_section_title
;
Structure prediction by ZEFSAII (Michael W. Deem and Ramdas Pophale) SiO2 
 PCOD9441847
Probable space group: P N N M
;
_chemical_formula_sum "Si O2"
_cell_formula_units_Z 64
_cell_length_a 25.671856
_cell_length_b 14.885781
_cell_length_c 8.539829
_cell_angle_alpha 90.000000
_cell_angle_beta 90.000000
_cell_angle_gamma 90.000000
_cell_volume 3263.458302
_symmetry_space_group_name_H-M "P N N M"
_symmetry_group_IT_number 58
_symmetry_cell_setting 'orthorhombic'
loop_
_space_group_symop_operation_xyz
x,y,z
-x,-y,z
1/2+x,1/2-y,1/2-z
1/2-x,1/2+y,1/2-z
-x,-y,-z
x,y,-z
1/2-x,1/2+y,1/2+z
1/2+x,1/2-y,1/2+z
loop_
_atom_site_type_symbol
_atom_site_label
_atom_site_fract_x
_atom_site_fract_y
_atom_site_fract_z
Si Si1 0.135205 0.090237 0.318522
Si Si2 0.206553 0.779482 0.184348
Si Si3 0.346923 0.957311 0.689761
Si Si4 0.550002 0.941310 0.308403
Si Si5 0.233538 0.970516 0.317443
Si Si6 0.412309 0.253246 0.689432
Si Si7 0.818981 0.741980 0.185205
Si Si8 0.447761 0.445499 0.810801
O O1 0.121165 0.106071 0.500000
O O2 0.192691 0.049300 0.310475
O O3 0.139212 0.183470 0.231178
O O4 0.097969 0.012354 0.256676
O O5 0.148815 0.751109 0.242788
O O6 0.260366 0.740293 0.253256
O O7 0.213333 0.885830 0.219505
O O8 0.207405 0.761419 0.000000
O O9 0.351361 0.956816 0.500000
O O10 0.339107 0.854851 0.743707
O O11 0.397769 0.007799 0.746552
O O12 0.291282 0.001183 0.728742
O O13 0.549102 0.940840 0.500000
O O14 0.556636 0.836823 0.261105
O O15 0.500000 0.000000 0.258400
O O16 0.236056 0.939645 0.500000
O O17 0.411078 0.254243 0.500000
O O18 0.438893 0.345918 0.744727
O O19 0.815115 0.737160 0.000000
O O20 0.500000 0.500000 0.770245
O O21 0.445335 0.437751 0.000000
#
# Coordination Sequence:
#
# PCOD9441847 Si02
#       8
#     8   8   8   8   8   8   8   8
#     4  10  20  34  54  80 111 150 188 226 282 340
#     4  10  19  32  52  80 114 145 183 230 281 333
#     4   8  16  31  50  73 103 139 180 221 267 323
#     4   9  18  33  54  79 107 140 181 225 272 327
#     4   9  17  31  53  76 105 145 183 222 275 335
#     4  10  21  35  57  86 111 142 187 238 282 331
#     4  10  21  34  52  81 115 152 190 229 281 336
#     4  10  22  40  60  82 112 152 192 229 283 354
#
# _framework density 19.611097999999998
#
# number of rings (size 3 to 8) (size 9 to 14) (size 15 to 20)
#    0.000    2.500    1.250    1.500    1.750    2.750 
#    0.000    1.250    0.000    1.875    0.000    0.000 
#    0.000    0.000    0.000    0.000    0.000    0.000 
#
# Total GULP energy -356672.046849 kJ/mol
# GULP energy per Si atom -5573.000732 kJ/mol
# Density = 1.956646 g / cm^3
# Si number density = 19.611098 Si / 1000 Ang^3
#
#
#
# Elastic Constant Matrix: (Units=GPa)
#
#
# Indices 1 2 3 4 5 6 
#
# 1 124.3611 77.8107 16.0055 0.0000 0.0000 0.0000
# 2 77.8107 123.2362 20.9152 0.0000 0.0000 0.0000
# 3 16.0055 20.9152 10.8455 0.0000 0.0000 0.0000
# 4 0.0000 0.0000 0.0000 22.7292 0.0000 0.0000
# 5 0.0000 0.0000 0.0000 0.0000 14.4008 0.0000
# 6 0.0000 0.0000 0.0000 0.0000 0.0000 26.6794
#
#
#
# Elastic Compliance Matrix: (Units=1/GPa)
#
#
# Indices 1 2 3 4 5 6 
#
# 1 0.013485 -0.007636 -0.005175 0.000000 0.000000 0.000000
# 2 -0.007636 0.016386 -0.020332 0.000000 0.000000 0.000000
# 3 -0.005175 -0.020332 0.139050 0.000000 0.000000 0.000000
# 4 0.000000 0.000000 0.000000 0.043996 0.000000 0.000000
# 5 0.000000 0.000000 0.000000 0.000000 0.069441 0.000000
# 6 0.000000 0.000000 0.000000 0.000000 0.000000 0.037482
#
#
# Mechanical properties :
#
#
# Convention : Reuss Voigt Hill
#
# Bulk Modulus (GPa) = 9.74314 54.21174 31.97744
# Shear Modulus (GPa) = 11.89521 22.34264 17.11893
#
# Velocity S-wave (km/s) = 2.46551 3.37899 2.95773
# Velocity P-wave (km/s) = 3.61717 6.55186 5.29201
#
# Compressibility (1/GPa) = 0.10263629
#
# Stress axis : x y z
#
# Youngs Moduli (GPa) = 74.15745 61.02602 7.19166
#
# Poissons Ratio (x) = 0.46599 0.03722
# Poissons Ratio (y) = 0.56627 0.14622
# Poissons Ratio (z) = 0.38375 1.24076
#
# Static dielectric constant tensor:
#      x y z
#    x 1.710250 0.000000 0.000000 
#    y 0.000000 1.698690 0.000000 
#    z 0.000000 0.000000 1.690880 
# 
# From -- ./inp_files/10087.got.cif
#   From: 2010.05.17/outbox.cif.g08.bks.cpg/sg58_6_cif.got.tgz:10087.got - 2010.06.03 14:20:14.
