data_PCOD9441862
_publ_section_title
;
Structure prediction by ZEFSAII (Michael W. Deem and Ramdas Pophale) SiO2 
 PCOD9441862
Probable space group: P N N M
;
_chemical_formula_sum "Si O2"
_cell_formula_units_Z 64
_cell_length_a 15.018957
_cell_length_b 25.174503
_cell_length_c 8.715028
_cell_angle_alpha 90.000000
_cell_angle_beta 90.000000
_cell_angle_gamma 90.000000
_cell_volume 3295.106577
_symmetry_space_group_name_H-M "P N N M"
_symmetry_group_IT_number 58
_symmetry_cell_setting 'orthorhombic'
loop_
_space_group_symop_operation_xyz
x,y,z
-x,-y,z
1/2+x,1/2-y,1/2-z
1/2-x,1/2+y,1/2-z
-x,-y,-z
x,y,-z
1/2-x,1/2+y,1/2+z
1/2+x,1/2-y,1/2+z
loop_
_atom_site_type_symbol
_atom_site_label
_atom_site_fract_x
_atom_site_fract_y
_atom_site_fract_z
Si Si1 0.144508 0.654670 0.673273
Si Si2 0.558283 0.935409 0.678846
Si Si3 0.868026 0.589094 0.185530
Si Si4 0.461160 0.690866 0.185444
Si Si5 0.652139 0.205483 0.182422
Si Si6 0.155345 0.780000 0.322336
Si Si7 0.163210 0.102714 0.819250
Si Si8 0.262107 0.007642 0.685631
O O1 0.121229 0.636252 0.500000
O O2 0.081795 0.626145 0.794336
O O3 0.135589 0.717300 0.676573
O O4 0.245994 0.637074 0.703819
O O5 0.556776 0.949056 0.500000
O O6 0.458245 0.941550 0.737614
O O7 0.646221 0.963925 0.741459
O O8 0.871838 0.648300 0.248417
O O9 0.781225 0.553812 0.227124
O O10 0.870778 0.590981 0.000000
O O11 0.406128 0.743652 0.237969
O O12 0.564426 0.693053 0.233976
O O13 0.412970 0.637558 0.240868
O O14 0.460624 0.692281 0.000000
O O15 0.755529 0.212812 0.226019
O O16 0.640707 0.203067 0.000000
O O17 0.173007 0.796395 0.500000
O O18 0.183983 0.044048 0.753209
O O19 0.147125 0.098972 0.000000
O O20 0.256749 0.011088 0.500000
#
# Coordination Sequence:
#
# PCOD9441862 Si02
#       8
#     8   8   8   8   8   8   8   8
#     4   9  17  30  48  72 105 140 172 212 263 314
#     4   9  17  29  49  77 106 139 181 222 259 310
#     4  10  20  34  52  75 107 147 183 218 267 324
#     4  10  21  36  56  80 109 145 181 221 272 324
#     4  11  23  37  55  81 113 146 181 225 270 320
#     4  10  20  36  55  76 107 146 183 221 268 325
#     4  10  19  32  53  78 105 137 176 222 266 312
#     4   9  18  33  53  76 106 143 183 224 266 318
#
# _framework density 19.422740000000001
#
# number of rings (size 3 to 8) (size 9 to 14) (size 15 to 20)
#    0.000    2.250    1.250    1.875    0.000    5.500 
#    0.000    0.000    0.000    4.500    0.000    5.250 
#    0.000    0.000    0.000    0.000    0.000    0.000 
#
# Total GULP energy -356683.923174 kJ/mol
# GULP energy per Si atom -5573.186300 kJ/mol
# Density = 1.937853 g / cm^3
# Si number density = 19.422740 Si / 1000 Ang^3
#
#
#
# Elastic Constant Matrix: (Units=GPa)
#
#
# Indices 1 2 3 4 5 6 
#
# 1 44.1178 -8.5630 5.6788 0.0000 0.0000 0.0000
# 2 -8.5630 26.9214 2.2997 0.0000 0.0000 0.0000
# 3 5.6788 2.2997 12.5307 0.0000 0.0000 0.0000
# 4 0.0000 0.0000 0.0000 17.4991 0.0000 0.0000
# 5 0.0000 0.0000 0.0000 0.0000 16.2016 0.0000
# 6 0.0000 0.0000 0.0000 0.0000 0.0000 23.3498
#
#
#
# Elastic Compliance Matrix: (Units=1/GPa)
#
#
# Indices 1 2 3 4 5 6 
#
# 1 0.026272 0.009523 -0.013654 0.000000 0.000000 0.000000
# 2 0.009523 0.041189 -0.011875 0.000000 0.000000 0.000000
# 3 -0.013654 -0.011875 0.088171 0.000000 0.000000 0.000000
# 4 0.000000 0.000000 0.000000 0.057146 0.000000 0.000000
# 5 0.000000 0.000000 0.000000 0.000000 0.061722 0.000000
# 6 0.000000 0.000000 0.000000 0.000000 0.000000 0.042827
#
#
# Mechanical properties :
#
#
# Convention : Reuss Voigt Hill
#
# Bulk Modulus (GPa) = 8.08930 9.15567 8.62249
# Shear Modulus (GPa) = 12.80258 17.02039 14.91149
#
# Velocity S-wave (km/s) = 2.57018 2.96347 2.77381
# Velocity P-wave (km/s) = 3.60301 4.05385 3.83506
#
# Compressibility (1/GPa) = 0.12362002
#
# Stress axis : x y z
#
# Youngs Moduli (GPa) = 38.06263 24.27856 11.34157
#
# Poissons Ratio (x) = -0.23120 0.15486
# Poissons Ratio (y) = -0.36247 0.13468
# Poissons Ratio (z) = 0.51971 0.28831
#
# Static dielectric constant tensor:
#      x y z
#    x 1.705430 0.000000 0.000000 
#    y 0.000000 1.716920 0.000000 
#    z 0.000000 0.000000 1.679390 
# 
# From -- ./inp_files/6854.got.cif
#   From: 2010.05.17/outbox.cif.g08.bks.cpg/sg58_4_cif.got.tgz:6854.got - 2010.06.03 14:20:14.
