data_PCOD9441940
_publ_section_title
;
Structure prediction by ZEFSAII (Michael W. Deem and Ramdas Pophale) SiO2 
 PCOD9441940
Probable space group: P N N M
;
_chemical_formula_sum "Si O2"
_cell_formula_units_Z 58
_cell_length_a 18.656000
_cell_length_b 17.933440
_cell_length_c 7.531761
_cell_angle_alpha 90.000000
_cell_angle_beta 90.000000
_cell_angle_gamma 90.000000
_cell_volume 2519.873084
_symmetry_space_group_name_H-M "P N N M"
_symmetry_group_IT_number 58
_symmetry_cell_setting 'orthorhombic'
loop_
_space_group_symop_operation_xyz
x,y,z
-x,-y,z
1/2+x,1/2-y,1/2-z
1/2-x,1/2+y,1/2-z
-x,-y,-z
x,y,-z
1/2-x,1/2+y,1/2+z
1/2+x,1/2-y,1/2+z
loop_
_atom_site_type_symbol
_atom_site_label
_atom_site_fract_x
_atom_site_fract_y
_atom_site_fract_z
Si Si1 0.770179 0.053854 0.299767
Si Si2 0.621322 0.432931 0.700652
Si Si3 0.387964 0.979924 0.287056
Si Si4 0.275746 0.696836 0.796240
Si Si5 0.157846 0.798770 0.203455
Si Si6 0.998816 0.173649 0.783246
Si Si7 0.500000 0.000000 0.000000
Si Si8 0.898420 0.693973 0.787138
O O1 0.754313 0.078633 0.500000
O O2 0.696846 0.013373 0.241924
O O3 0.792499 0.128295 0.200660
O O4 0.838163 0.999562 0.295597
O O5 0.606000 0.458453 0.500000
O O6 0.680236 0.366759 0.697990
O O7 0.550061 0.394099 0.777654
O O8 0.397841 0.993511 0.500000
O O9 0.405334 0.892569 0.243918
O O10 0.441116 0.022677 0.157880
O O11 0.202134 0.729430 0.719228
O O12 0.329394 0.767288 0.796442
O O13 0.265217 0.671209 0.000000
O O14 0.082148 0.823475 0.282325
O O15 0.143068 0.776634 0.000000
O O16 0.036155 0.252115 0.737188
O O17 0.999716 0.167202 0.000000
O O18 0.890158 0.698712 0.000000
#
# Coordination Sequence:
#
# PCOD9441940 Si02
#       8
#     8   8   8   8   8   8   2   8
#     4  11  23  39  61  87 123 161 206 253 308 371
#     4  10  21  38  60  82 117 163 206 254 314 379
#     4  10  23  42  64  92 124 169 211 261 314 376
#     4  10  19  32  57  88 115 148 200 257 310 372
#     4  10  20  35  59  88 117 152 204 255 304 374
#     4   8  17  35  57  85 115 153 200 255 315 371
#     4  12  26  40  68  86 132 154 218 254 316 376
#     4   9  17  35  61  81 113 158 204 247 308 374
#
# _framework density 23.017033000000001
#
# number of rings (size 3 to 8) (size 9 to 14) (size 15 to 20)
#    0.000    2.207    1.379    2.276    2.897    1.103 
#    2.483    6.207    0.000    0.000    0.000    0.000 
#    0.000    0.000    0.000    0.000    0.000    0.000 
#
# Total GULP energy -323171.455859 kJ/mol
# GULP energy per Si atom -5571.921653 kJ/mol
# Density = 2.296465 g / cm^3
# Si number density = 23.017033 Si / 1000 Ang^3
#
#
#
# Elastic Constant Matrix: (Units=GPa)
#
#
# Indices 1 2 3 4 5 6 
#
# 1 101.8288 -19.9427 10.8399 0.0000 0.0000 0.0000
# 2 -19.9427 14.5700 -9.4790 0.0000 0.0000 0.0000
# 3 10.8399 -9.4790 69.1927 0.0000 0.0000 0.0000
# 4 0.0000 0.0000 0.0000 5.0643 0.0000 0.0000
# 5 0.0000 0.0000 0.0000 0.0000 21.0574 0.0000
# 6 0.0000 0.0000 0.0000 0.0000 0.0000 -1.6540
#
#
#
# Elastic Compliance Matrix: (Units=1/GPa)
#
#
# Indices 1 2 3 4 5 6 
#
# 1 0.013430 0.018678 0.000455 0.000000 0.000000 0.000000
# 2 0.018678 0.101327 0.010955 0.000000 0.000000 0.000000
# 3 0.000455 0.010955 0.015882 0.000000 0.000000 0.000000
# 4 0.000000 0.000000 0.000000 0.197459 0.000000 0.000000
# 5 0.000000 0.000000 0.000000 0.000000 0.047489 0.000000
# 6 0.000000 0.000000 0.000000 0.000000 0.000000 -0.604606
#
#
# Mechanical properties :
#
#
# Convention : Reuss Voigt Hill
#
# Bulk Modulus (GPa) = 5.24066 16.49199 10.86632
# Shear Modulus (GPa) = -22.16411 18.50512 -1.82950
#
# Velocity S-wave (km/s) = -3.10650 2.83852 -0.89251
# Velocity P-wave (km/s) = 3.25351 4.23363 1.91550
#
# Compressibility (1/GPa) = 0.19081573
#
# Stress axis : x y z
#
# Youngs Moduli (GPa) = 74.45989 9.86901 62.96466
#
# Poissons Ratio (x) = -0.18434 -0.02864
# Poissons Ratio (y) = -1.39079 -0.68978
# Poissons Ratio (z) = -0.03387 -0.10812
#
# Static dielectric constant tensor:
#      x y z
#    x 1.904880 0.000000 0.000000 
#    y 0.000000 1.875350 0.000000 
#    z 0.000000 0.000000 1.624930 
# 
# From -- ./inp_files/7992.got.cif
#   From: 2010.05.17/outbox.cif.g08.bks.cpg/sg58_4_cif.got.tgz:7992.got - 2010.06.03 14:20:14.
