data_PCOD9441017
_publ_section_title
;
Structure prediction by ZEFSAII (Michael W. Deem and Ramdas Pophale) SiO2 
 PCOD9441017
Probable space group: P N N M
;
_chemical_formula_sum "Si O2"
_cell_formula_units_Z 64
_cell_length_a 25.423559
_cell_length_b 15.013658
_cell_length_c 7.533221
_cell_angle_alpha 90.000000
_cell_angle_beta 90.000000
_cell_angle_gamma 90.000000
_cell_volume 2875.435126
_symmetry_space_group_name_H-M "P N N M"
_symmetry_group_IT_number 58
_symmetry_cell_setting 'orthorhombic'
loop_
_space_group_symop_operation_xyz
x,y,z
-x,-y,z
1/2+x,1/2-y,1/2-z
1/2-x,1/2+y,1/2-z
-x,-y,-z
x,y,-z
1/2-x,1/2+y,1/2+z
1/2+x,1/2-y,1/2+z
loop_
_atom_site_type_symbol
_atom_site_label
_atom_site_fract_x
_atom_site_fract_y
_atom_site_fract_z
Si Si1 0.670536 0.485887 0.217447
Si Si2 0.242752 0.641598 0.789941
Si Si3 0.953298 0.568017 0.783003
Si Si4 0.945386 0.963971 0.703262
Si Si5 0.584604 0.747685 0.207882
Si Si6 0.803663 0.175605 0.286777
Si Si7 0.868144 0.433942 0.214481
Si Si8 0.468188 0.730523 0.701646
O O1 0.703651 0.400995 0.279062
O O2 0.610652 0.491922 0.282317
O O3 0.703441 0.573946 0.266746
O O4 0.666948 0.483340 0.000000
O O5 0.235987 0.746923 0.766214
O O6 0.189953 0.592562 0.718662
O O7 0.242260 0.624610 0.000000
O O8 0.897680 0.523795 0.730782
O O9 0.958650 0.670273 0.722645
O O10 0.000000 0.500000 0.727326
O O11 0.956241 0.570805 0.000000
O O12 0.945438 0.997804 0.500000
O O13 0.946062 0.856605 0.703778
O O14 0.000000 0.000000 0.784437
O O15 0.638282 0.704474 0.277206
O O16 0.594003 0.852730 0.231202
O O17 0.531213 0.719508 0.298569
O O18 0.579409 0.726253 0.000000
O O19 0.805197 0.177954 0.500000
O O20 0.866086 0.434674 0.000000
O O21 0.448166 0.728760 0.500000
#
# Coordination Sequence:
#
# PCOD9441017 Si02
#       8
#     8   8   8   8   8   8   8   8
#     4   9  18  36  58  79 105 139 179 219 267 330
#     4   9  18  33  55  80 103 132 174 221 267 315
#     4   9  16  29  48  71 104 143 176 211 261 317
#     4  10  21  39  60  78 103 142 182 223 276 333
#     4  10  18  29  49  76 105 138 181 222 261 309
#     4   9  18  34  56  79 103 137 179 221 261 313
#     4   9  16  30  50  71  99 138 180 218 260 310
#     4  11  21  33  51  78 110 141 177 221 269 319
#
# _framework density 22.257498999999999
#
# number of rings (size 3 to 8) (size 9 to 14) (size 15 to 20)
#    0.000    2.500    1.250    1.500    0.000    2.750 
#    2.250    3.750    0.000    0.000    0.000    0.000 
#    0.000    0.000    0.000    0.000    0.000    0.000 
#
# Total GULP energy -357130.453969 kJ/mol
# GULP energy per Si atom -5580.163343 kJ/mol
# Density = 2.220684 g / cm^3
# Si number density = 22.257499 Si / 1000 Ang^3
#
#
#
# Elastic Constant Matrix: (Units=GPa)
#
#
# Indices 1 2 3 4 5 6 
#
# 1 97.1676 48.5564 3.9127 0.0000 0.0000 0.0000
# 2 48.5564 124.5962 -3.1795 0.0000 0.0000 0.0000
# 3 3.9127 -3.1795 56.2864 0.0000 0.0000 0.0000
# 4 0.0000 0.0000 0.0000 20.7578 0.0000 0.0000
# 5 0.0000 0.0000 0.0000 0.0000 2.0244 0.0000
# 6 0.0000 0.0000 0.0000 0.0000 0.0000 30.3990
#
#
#
# Elastic Compliance Matrix: (Units=1/GPa)
#
#
# Indices 1 2 3 4 5 6 
#
# 1 0.012858 -0.005041 -0.001179 0.000000 0.000000 0.000000
# 2 -0.005041 0.010014 0.000916 0.000000 0.000000 0.000000
# 3 -0.001179 0.000916 0.017900 0.000000 0.000000 0.000000
# 4 0.000000 0.000000 0.000000 0.048175 0.000000 0.000000
# 5 0.000000 0.000000 0.000000 0.000000 0.493971 0.000000
# 6 0.000000 0.000000 0.000000 0.000000 0.000000 0.032896
#
#
# Mechanical properties :
#
#
# Convention : Reuss Voigt Hill
#
# Bulk Modulus (GPa) = 33.15117 41.84773 37.49945
# Shear Modulus (GPa) = 7.85576 25.88696 16.87136
#
# Velocity S-wave (km/s) = 1.88073 3.41408 2.75618
# Velocity P-wave (km/s) = 4.43203 5.86376 5.19743
#
# Compressibility (1/GPa) = 0.03016485
#
# Stress axis : x y z
#
# Youngs Moduli (GPa) = 77.77241 99.86197 55.86610
#
# Poissons Ratio (x) = 0.50340 0.06584
# Poissons Ratio (y) = 0.39205 -0.05118
# Poissons Ratio (z) = 0.09166 -0.09148
#
# Static dielectric constant tensor:
#      x y z
#    x 1.815640 0.000000 0.000000 
#    y 0.000000 1.820000 0.000000 
#    z 0.000000 0.000000 1.847560 
# 
# From -- ./inp_files/9945.got.cif
#   From: 2010.05.17/outbox.cif.g08.bks.cpg/sg58_5_cif.got.tgz:9945.got - 2010.06.03 14:20:14.
