data_PCOD9441710
_publ_section_title
;
Structure prediction by ZEFSAII (Michael W. Deem and Ramdas Pophale) SiO2 
 PCOD9441710
Probable space group: P N N M
;
_chemical_formula_sum "Si O2"
_cell_formula_units_Z 56
_cell_length_a 15.043119
_cell_length_b 22.786285
_cell_length_c 7.483746
_cell_angle_alpha 90.000000
_cell_angle_beta 90.000000
_cell_angle_gamma 90.000000
_cell_volume 2565.254482
_symmetry_space_group_name_H-M "P N N M"
_symmetry_group_IT_number 58
_symmetry_cell_setting 'orthorhombic'
loop_
_space_group_symop_operation_xyz
x,y,z
-x,-y,z
1/2+x,1/2-y,1/2-z
1/2-x,1/2+y,1/2-z
-x,-y,-z
x,y,-z
1/2-x,1/2+y,1/2+z
1/2+x,1/2-y,1/2+z
loop_
_atom_site_type_symbol
_atom_site_label
_atom_site_fract_x
_atom_site_fract_y
_atom_site_fract_z
Si Si1 0.668295 0.284107 0.783911
Si Si2 0.626782 0.471295 0.204177
Si Si3 0.509791 0.368617 0.217913
Si Si4 0.482537 0.067512 0.218788
Si Si5 0.788458 0.389021 0.290332
Si Si6 0.822531 0.098666 0.717059
Si Si7 0.363346 0.846348 0.794113
O O1 0.580887 0.320299 0.725074
O O2 0.755001 0.321968 0.731094
O O3 0.657336 0.217915 0.716417
O O4 0.669987 0.283382 0.000000
O O5 0.548229 0.431413 0.281206
O O6 0.712614 0.429103 0.203097
O O7 0.654397 0.533271 0.282048
O O8 0.601175 0.484306 0.000000
O O9 0.407452 0.361796 0.268225
O O10 0.512620 0.369620 0.000000
O O11 0.386381 0.093018 0.273460
O O12 0.559758 0.111855 0.281680
O O13 0.500000 0.000000 0.274989
O O14 0.484428 0.066735 0.000000
O O15 0.785614 0.402657 0.500000
O O16 0.815351 0.098663 0.500000
O O17 0.729186 0.119462 0.789207
O O18 0.390101 0.835722 0.000000
#
# Coordination Sequence:
#
# PCOD9441710 Si02
#       7
#     8   8   8   8   8   8   8
#     4   9  19  36  54  72  98 134 171 206 252 308
#     4   9  17  31  51  76 106 134 159 194 246 305
#     4   8  15  30  52  73  95 128 168 203 237 290
#     4   9  18  33  53  77 103 133 172 214 255 302
#     4  10  19  32  55  80 100 129 169 213 253 292
#     4  10  19  31  51  78 102 127 163 206 248 289
#     4  10  21  36  52  71 100 137 172 208 255 307
#
# _framework density 21.830193000000001
#
# number of rings (size 3 to 8) (size 9 to 14) (size 15 to 20)
#    0.000    2.714    0.000    2.571    0.000    5.143 
#    0.000    7.143    0.000    8.143    0.000    0.000 
#    0.000    0.000    0.000    0.000    0.000    0.000 
#
# Total GULP energy -312494.631416 kJ/mol
# GULP energy per Si atom -5580.261275 kJ/mol
# Density = 2.178051 g / cm^3
# Si number density = 21.830193 Si / 1000 Ang^3
#
#
#
# Elastic Constant Matrix: (Units=GPa)
#
#
# Indices 1 2 3 4 5 6 
#
# 1 165.5149 67.4000 -3.5722 0.0000 0.0000 0.0000
# 2 67.4000 136.8719 0.7922 0.0000 0.0000 0.0000
# 3 -3.5722 0.7922 65.0392 0.0000 0.0000 0.0000
# 4 0.0000 0.0000 0.0000 4.9489 0.0000 0.0000
# 5 0.0000 0.0000 0.0000 0.0000 12.6419 0.0000
# 6 0.0000 0.0000 0.0000 0.0000 0.0000 20.5227
#
#
#
# Elastic Compliance Matrix: (Units=1/GPa)
#
#
# Indices 1 2 3 4 5 6 
#
# 1 0.007571 -0.003731 0.000461 0.000000 0.000000 0.000000
# 2 -0.003731 0.009145 -0.000316 0.000000 0.000000 0.000000
# 3 0.000461 -0.000316 0.015405 0.000000 0.000000 0.000000
# 4 0.000000 0.000000 0.000000 0.202064 0.000000 0.000000
# 5 0.000000 0.000000 0.000000 0.000000 0.079102 0.000000
# 6 0.000000 0.000000 0.000000 0.000000 0.000000 0.048727
#
#
# Mechanical properties :
#
#
# Convention : Reuss Voigt Hill
#
# Bulk Modulus (GPa) = 40.08203 55.18512 47.63357
# Shear Modulus (GPa) = 13.24499 27.80977 20.52738
#
# Velocity S-wave (km/s) = 2.46586 3.57306 3.06979
# Velocity P-wave (km/s) = 5.14859 6.50819 5.86790
#
# Compressibility (1/GPa) = 0.02494884
#
# Stress axis : x y z
#
# Youngs Moduli (GPa) = 132.08358 109.34795 64.91597
#
# Poissons Ratio (x) = 0.40796 -0.02994
# Poissons Ratio (y) = 0.49278 0.02053
# Poissons Ratio (z) = -0.06093 0.03459
#
# Static dielectric constant tensor:
#      x y z
#    x 1.761720 0.000000 0.000000 
#    y 0.000000 1.799360 0.000000 
#    z 0.000000 0.000000 1.870040 
# 
# From -- ./inp_files/6361.got.cif
#   From: 2010.05.17/outbox.cif.g08.bks.cpg/sg58_4_cif.got.tgz:6361.got - 2010.06.03 14:20:14.
