data_PCOD9441171
_publ_section_title
;
Structure prediction by ZEFSAII (Michael W. Deem and Ramdas Pophale) SiO2 
 PCOD9441171
Probable space group: P N N M
;
_chemical_formula_sum "Si O2"
_cell_formula_units_Z 56
_cell_length_a 11.974281
_cell_length_b 12.452178
_cell_length_c 21.976253
_cell_angle_alpha 90.000000
_cell_angle_beta 90.000000
_cell_angle_gamma 90.000000
_cell_volume 3276.788508
_symmetry_space_group_name_H-M "P N N M"
_symmetry_group_IT_number 58
_symmetry_cell_setting 'orthorhombic'
loop_
_space_group_symop_operation_xyz
x,y,z
-x,-y,z
1/2+x,1/2-y,1/2-z
1/2-x,1/2+y,1/2-z
-x,-y,-z
x,y,-z
1/2-x,1/2+y,1/2+z
1/2+x,1/2-y,1/2+z
loop_
_atom_site_type_symbol
_atom_site_label
_atom_site_fract_x
_atom_site_fract_y
_atom_site_fract_z
Si Si1 0.795792 0.075888 0.847338
Si Si2 0.744571 0.386387 0.430023
Si Si3 0.132140 0.995689 0.713427
Si Si4 0.999884 0.628042 0.861501
Si Si5 0.749556 0.706761 0.834750
Si Si6 0.226667 0.697797 0.797889
Si Si7 0.482237 0.335043 0.432895
O O1 0.821660 0.024087 0.781904
O O2 0.743803 0.192293 0.833143
O O3 0.910421 0.106632 0.881729
O O4 0.731306 0.992904 0.890556
O O5 0.782538 0.390516 0.500000
O O6 0.779464 0.281057 0.392210
O O7 0.609321 0.374632 0.430799
O O8 0.173100 0.897154 0.672511
O O9 0.186608 0.104126 0.689009
O O10 0.000000 0.000000 0.716553
O O11 0.102424 0.658382 0.816660
O O12 0.019081 0.707432 0.918902
O O13 0.000000 0.500000 0.872717
O O14 0.878473 0.666113 0.837365
O O15 0.732473 0.774811 0.773384
O O16 0.436070 0.357961 0.500000
#
# Coordination Sequence:
#
# PCOD9441171 Si02
#       7
#     8   8   8   8   8   8   8
#     4  10  19  31  51  76 109 142 167 216 265 320
#     4  10  18  31  53  78 109 141 175 213 260 320
#     4  11  21  34  55  78 109 140 176 222 268 321
#     4  10  19  34  51  74 111 144 172 218 264 313
#     4  10  21  34  53  79 110 139 178 217 266 318
#     4  10  21  33  51  78 109 141 176 215 268 314
#     4   9  18  29  47  77 109 142 173 204 258 328
#
# _framework density 17.089904000000001
#
# number of rings (size 3 to 8) (size 9 to 14) (size 15 to 20)
#    0.000    2.000    2.857    1.714    6.000    1.429 
#    0.000    0.000    0.000    0.429    0.000    1.000 
#    0.000    0.000    0.000    0.000    0.000    0.000 
#
# Total GULP energy -312169.480861 kJ/mol
# GULP energy per Si atom -5574.455015 kJ/mol
# Density = 1.705101 g / cm^3
# Si number density = 17.089904 Si / 1000 Ang^3
#
#
#
# Elastic Constant Matrix: (Units=GPa)
#
#
# Indices 1 2 3 4 5 6 
#
# 1 19.8304 31.9656 8.4987 0.0000 0.0000 0.0000
# 2 31.9656 158.0886 55.5811 0.0000 0.0000 0.0000
# 3 8.4987 55.5811 92.0987 0.0000 0.0000 0.0000
# 4 0.0000 0.0000 0.0000 2.7591 0.0000 0.0000
# 5 0.0000 0.0000 0.0000 0.0000 14.4233 0.0000
# 6 0.0000 0.0000 0.0000 0.0000 0.0000 9.3544
#
#
#
# Elastic Compliance Matrix: (Units=1/GPa)
#
#
# Indices 1 2 3 4 5 6 
#
# 1 0.075395 -0.016246 0.002847 0.000000 0.000000 0.000000
# 2 -0.016246 0.011530 -0.005459 0.000000 0.000000 0.000000
# 3 0.002847 -0.005459 0.013890 0.000000 0.000000 0.000000
# 4 0.000000 0.000000 0.000000 0.362435 0.000000 0.000000
# 5 0.000000 0.000000 0.000000 0.000000 0.069332 0.000000
# 6 0.000000 0.000000 0.000000 0.000000 0.000000 0.106901
#
#
# Mechanical properties :
#
#
# Convention : Reuss Voigt Hill
#
# Bulk Modulus (GPa) = 15.84814 51.34539 33.59676
# Shear Modulus (GPa) = 7.16094 16.90552 12.03323
#
# Velocity S-wave (km/s) = 2.04921 3.14858 2.65639
# Velocity P-wave (km/s) = 3.85908 6.58237 5.39538
#
# Compressibility (1/GPa) = 0.06309890
#
# Stress axis : x y z
#
# Youngs Moduli (GPa) = 13.26343 86.73174 71.99576
#
# Poissons Ratio (x) = 1.40904 -0.20497
# Poissons Ratio (y) = 0.21548 0.39303
# Poissons Ratio (z) = -0.03776 0.47347
#
# Static dielectric constant tensor:
#      x y z
#    x 1.556280 0.000000 0.000000 
#    y 0.000000 1.619330 0.000000 
#    z 0.000000 0.000000 1.574630 
# 
# From -- ./inp_files/29603.got.cif
#   From: 2010.05.17/outbox.cif.g08.bks.cpg/sg58_15_cif.got.tgz:29603.got - 2010.06.03 14:20:14.
