data_PCOD9441562
_publ_section_title
;
Structure prediction by ZEFSAII (Michael W. Deem and Ramdas Pophale) SiO2 
 PCOD9441562
Probable space group: P N N M
;
_chemical_formula_sum "Si O2"
_cell_formula_units_Z 56
_cell_length_a 18.838696
_cell_length_b 21.035249
_cell_length_c 8.939339
_cell_angle_alpha 90.000000
_cell_angle_beta 90.000000
_cell_angle_gamma 90.000000
_cell_volume 3542.451412
_symmetry_space_group_name_H-M "P N N M"
_symmetry_group_IT_number 58
_symmetry_cell_setting 'orthorhombic'
loop_
_space_group_symop_operation_xyz
x,y,z
-x,-y,z
1/2+x,1/2-y,1/2-z
1/2-x,1/2+y,1/2-z
-x,-y,-z
x,y,-z
1/2-x,1/2+y,1/2+z
1/2+x,1/2-y,1/2+z
loop_
_atom_site_type_symbol
_atom_site_label
_atom_site_fract_x
_atom_site_fract_y
_atom_site_fract_z
Si Si1 0.578094 0.746358 0.180092
Si Si2 0.652126 0.869161 0.677716
Si Si3 0.286437 0.678756 0.328570
Si Si4 0.083578 0.494995 0.821268
Si Si5 0.924975 0.753589 0.180342
Si Si6 0.351609 0.870166 0.822803
Si Si7 0.717772 0.679654 0.828469
O O1 0.607947 0.813741 0.239951
O O2 0.501994 0.734143 0.252148
O O3 0.637077 0.692951 0.219676
O O4 0.574060 0.748957 0.000000
O O5 0.645960 0.859125 0.500000
O O6 0.733915 0.862382 0.728147
O O7 0.620673 0.938036 0.714352
O O8 0.285465 0.655607 0.500000
O O9 0.366977 0.692239 0.279500
O O10 0.252050 0.749541 0.329622
O O11 0.118128 0.436768 0.734026
O O12 0.000000 0.500000 0.787953
O O13 0.090923 0.483711 0.000000
O O14 0.895523 0.686802 0.244059
O O15 0.927138 0.749553 0.000000
O O16 0.269685 0.861560 0.772929
O O17 0.358309 0.863744 0.000000
O O18 0.719414 0.656335 0.000000
#
# Coordination Sequence:
#
# PCOD9441562 Si02
#       7
#     8   8   8   8   8   8   8
#     4  10  19  30  47  71  96 121 150 189 232 271
#     4  10  19  30  47  68  91 124 159 189 224 271
#     4   8  16  30  46  64  89 121 152 186 229 271
#     4  10  21  35  48  64  91 127 160 188 225 271
#     4  10  19  31  47  67  94 125 152 185 232 278
#     4  11  21  31  47  69  92 122 159 195 226 264
#     4   8  16  31  47  64  91 123 150 182 229 277
#
# _framework density 15.808261
#
# number of rings (size 3 to 8) (size 9 to 14) (size 15 to 20)
#    0.000    2.429    0.000    5.143    0.000    8.857 
#    0.000    0.000    0.000    0.000    0.000    1.000 
#    0.000    8.000    0.000    0.000    0.000    0.000 
#
# Total GULP energy -312194.576064 kJ/mol
# GULP energy per Si atom -5574.903144 kJ/mol
# Density = 1.577228 g / cm^3
# Si number density = 15.808261 Si / 1000 Ang^3
#
#
#
# Elastic Constant Matrix: (Units=GPa)
#
#
# Indices 1 2 3 4 5 6 
#
# 1 155.9169 49.6957 58.7755 0.0000 0.0000 0.0000
# 2 49.6957 54.4704 40.9983 0.0000 0.0000 0.0000
# 3 58.7755 40.9983 67.3775 0.0000 0.0000 0.0000
# 4 0.0000 0.0000 0.0000 19.7589 0.0000 0.0000
# 5 0.0000 0.0000 0.0000 0.0000 37.8339 0.0000
# 6 0.0000 0.0000 0.0000 0.0000 0.0000 23.0903
#
#
#
# Elastic Compliance Matrix: (Units=1/GPa)
#
#
# Indices 1 2 3 4 5 6 
#
# 1 0.010197 -0.004812 -0.005967 0.000000 0.000000 0.000000
# 2 -0.004812 0.036142 -0.017795 0.000000 0.000000 0.000000
# 3 -0.005967 -0.017795 0.030875 0.000000 0.000000 0.000000
# 4 0.000000 0.000000 0.000000 0.050610 0.000000 0.000000
# 5 0.000000 0.000000 0.000000 0.000000 0.026431 0.000000
# 6 0.000000 0.000000 0.000000 0.000000 0.000000 0.043308
#
#
# Mechanical properties :
#
#
# Convention : Reuss Voigt Hill
#
# Bulk Modulus (GPa) = 49.83339 64.07820 56.95580
# Shear Modulus (GPa) = 19.12788 24.68964 21.90876
#
# Velocity S-wave (km/s) = 3.48227 3.95627 3.72681
# Velocity P-wave (km/s) = 6.91089 7.84169 7.39095
#
# Compressibility (1/GPa) = 0.02006687
#
# Stress axis : x y z
#
# Youngs Moduli (GPa) = 98.07106 27.66865 32.38887
#
# Poissons Ratio (x) = 0.13313 0.19327
# Poissons Ratio (y) = 0.47188 0.57635
# Poissons Ratio (z) = 0.58520 0.49235
#
# Static dielectric constant tensor:
#      x y z
#    x 1.556260 0.000000 0.000000 
#    y 0.000000 1.495610 0.000000 
#    z 0.000000 0.000000 1.529470 
# 
# From -- ./inp_files/8200.got.cif
#   From: 2010.05.17/outbox.cif.g08.bks.cpg/sg58_5_cif.got.tgz:8200.got - 2010.06.03 14:20:14.
