data_PCOD9441052
_publ_section_title
;
Structure prediction by ZEFSAII (Michael W. Deem and Ramdas Pophale) SiO2 
 PCOD9441052
Probable space group: P N N M
;
_chemical_formula_sum "Si O2"
_cell_formula_units_Z 56
_cell_length_a 15.009619
_cell_length_b 16.960588
_cell_length_c 14.426256
_cell_angle_alpha 90.000000
_cell_angle_beta 90.000000
_cell_angle_gamma 90.000000
_cell_volume 3672.520322
_symmetry_space_group_name_H-M "P N N M"
_symmetry_group_IT_number 58
_symmetry_cell_setting 'orthorhombic'
loop_
_space_group_symop_operation_xyz
x,y,z
-x,-y,z
1/2+x,1/2-y,1/2-z
1/2-x,1/2+y,1/2-z
-x,-y,-z
x,y,-z
1/2-x,1/2+y,1/2+z
1/2+x,1/2-y,1/2+z
loop_
_atom_site_type_symbol
_atom_site_label
_atom_site_fract_x
_atom_site_fract_y
_atom_site_fract_z
Si Si1 0.108076 0.500000 0.894568
Si Si2 0.393675 0.849559 0.271644
Si Si3 0.602639 0.694194 0.608268
Si Si4 0.274714 0.093400 0.891641
Si Si5 0.602639 0.305806 0.608268
Si Si6 0.725286 0.093400 0.891641
Si Si7 0.893675 0.349559 0.771644
O O1 0.133669 0.421701 0.838837
O O2 0.133669 0.578299 0.838837
O O3 0.000000 0.500000 0.898345
O O4 0.141040 0.500000 0.000000
O O5 0.377747 0.767728 0.324880
O O6 0.340047 0.860478 0.177007
O O7 0.500000 0.856077 0.255258
O O8 0.608994 0.719718 0.500000
O O9 0.500000 0.669246 0.623396
O O10 0.674825 0.626064 0.622508
O O11 0.622253 0.767728 0.675121
O O12 0.174825 0.126064 0.877491
O O13 0.340047 0.139522 0.822993
O O14 0.280178 1.000000 0.873155
O O15 0.297303 0.105973 0.000000
O O16 0.608994 0.280282 0.500000
O O17 0.702697 0.105973 0.000000
#
# Coordination Sequence:
#
# PCOD9441052 Si02
#       7
#     8   8   8   8   8   8   8
#     4   9  16  26  43  67  92 117 145 181 227 274
#     4  10  18  30  47  68  95 123 151 187 230 275
#     4   9  18  32  50  70  91 118 154 197 238 269
#     4  10  20  32  46  67  96 127 157 187 221 271
#     4   9  18  32  50  70  91 118 154 197 238 269
#     4  10  20  32  46  67  96 127 157 187 221 271
#     4  10  18  30  47  68  95 123 151 187 230 275
#
# _framework density 15.248384
#
# number of rings (size 3 to 8) (size 9 to 14) (size 15 to 20)
#    0.000    2.429    1.429    1.714    0.000    4.571 
#    0.000    4.286    0.000    0.000    0.000    0.000 
#    0.000    1.143    0.000    0.000    0.000    0.000 
#
# Total GULP energy -312048.554122 kJ/mol
# GULP energy per Si atom -5572.295609 kJ/mol
# Density = 1.521368 g / cm^3
# Si number density = 15.248384 Si / 1000 Ang^3
#
#
#
# Elastic Constant Matrix: (Units=GPa)
#
#
# Indices 1 2 3 4 5 6 
#
# 1 48.4509 19.2374 41.7868 0.0000 0.0000 0.0000
# 2 19.2374 23.2732 22.6814 0.0000 0.0000 0.0000
# 3 41.7868 22.6814 78.3396 0.0000 0.0000 0.0000
# 4 0.0000 0.0000 0.0000 21.9702 0.0000 0.0000
# 5 0.0000 0.0000 0.0000 0.0000 26.1493 0.0000
# 6 0.0000 0.0000 0.0000 0.0000 0.0000 20.9951
#
#
#
# Elastic Compliance Matrix: (Units=1/GPa)
#
#
# Indices 1 2 3 4 5 6 
#
# 1 0.043270 -0.018490 -0.017727 0.000000 0.000000 0.000000
# 2 -0.018490 0.067759 -0.009755 0.000000 0.000000 0.000000
# 3 -0.017727 -0.009755 0.025045 0.000000 0.000000 0.000000
# 4 0.000000 0.000000 0.000000 0.045516 0.000000 0.000000
# 5 0.000000 0.000000 0.000000 0.000000 0.038242 0.000000
# 6 0.000000 0.000000 0.000000 0.000000 0.000000 0.047630
#
#
# Mechanical properties :
#
#
# Convention : Reuss Voigt Hill
#
# Bulk Modulus (GPa) = 22.66090 35.27498 28.96794
# Shear Modulus (GPa) = 13.36485 18.24678 15.80582
#
# Velocity S-wave (km/s) = 2.96375 3.46300 3.22305
# Velocity P-wave (km/s) = 5.15802 6.25888 5.73493
#
# Compressibility (1/GPa) = 0.04412888
#
# Stress axis : x y z
#
# Youngs Moduli (GPa) = 23.11093 14.75826 39.92817
#
# Poissons Ratio (x) = 0.27288 0.70780
# Poissons Ratio (y) = 0.42732 0.38951
# Poissons Ratio (z) = 0.40968 0.14397
#
# Static dielectric constant tensor:
#      x y z
#    x 1.492970 0.000000 0.000000 
#    y 0.000000 1.490070 0.000000 
#    z 0.000000 0.000000 1.502430 
# 
# From -- ./inp_files/22306.got.cif
#   From: 2010.05.17/outbox.cif.g08.bks.cpg/sg58_12_cif.got.tgz:22306.got - 2010.06.03 14:20:14.
