data_PCOD9441335
_publ_section_title
;
Structure prediction by ZEFSAII (Michael W. Deem and Ramdas Pophale) SiO2 
 PCOD9441335
Probable space group: P N N M
;
_chemical_formula_sum "Si O2"
_cell_formula_units_Z 64
_cell_length_a 31.490376
_cell_length_b 12.309679
_cell_length_c 7.422398
_cell_angle_alpha 90.000000
_cell_angle_beta 90.000000
_cell_angle_gamma 90.000000
_cell_volume 2877.191790
_symmetry_space_group_name_H-M "P N N M"
_symmetry_group_IT_number 58
_symmetry_cell_setting 'orthorhombic'
loop_
_space_group_symop_operation_xyz
x,y,z
-x,-y,z
1/2+x,1/2-y,1/2-z
1/2-x,1/2+y,1/2-z
-x,-y,-z
x,y,-z
1/2-x,1/2+y,1/2+z
1/2+x,1/2-y,1/2+z
loop_
_atom_site_type_symbol
_atom_site_label
_atom_site_fract_x
_atom_site_fract_y
_atom_site_fract_z
Si Si1 0.192231 0.010660 0.281210
Si Si2 0.549040 0.494682 0.279508
Si Si3 0.213011 0.543716 0.204658
Si Si4 0.628657 0.077169 0.278860
Si Si5 0.456175 0.052283 0.719685
Si Si6 0.323568 0.266959 0.793076
Si Si7 0.883246 0.823114 0.789677
Si Si8 0.919203 0.228348 0.782362
O O1 0.191071 0.013762 0.500000
O O2 0.240183 0.030630 0.216045
O O3 0.158059 0.099992 0.222634
O O4 0.180112 0.889113 0.221142
O O5 0.500000 0.500000 0.225490
O O6 0.549795 0.492707 0.500000
O O7 0.577023 0.392708 0.215884
O O8 0.570384 0.607419 0.220633
O O9 0.172318 0.480480 0.283473
O O10 0.202076 0.671006 0.201603
O O11 0.216770 0.502412 0.000000
O O12 0.629546 0.073255 0.500000
O O13 0.625352 0.202411 0.218390
O O14 0.586168 0.012523 0.224486
O O15 0.456512 0.049272 0.500000
O O16 0.451753 0.178123 0.772829
O O17 0.500000 0.000000 0.781959
O O18 0.372889 0.237450 0.781266
O O19 0.309424 0.269042 0.000000
O O20 0.892996 0.806119 0.000000
O O21 0.918361 0.226316 0.000000
#
# Coordination Sequence:
#
# PCOD9441335 Si02
#       8
#     8   8   8   8   8   8   8   8
#     4  10  23  39  56  79 111 145 177 222 275 326
#     4   9  18  30  49  82 114 139 178 233 276 311
#     4  10  21  39  58  78 106 142 180 222 276 327
#     4   9  18  32  52  78 108 138 173 221 270 319
#     4   9  17  28  49  81 109 136 175 223 272 320
#     4  11  22  37  58  82 109 141 183 231 273 320
#     4  10  20  34  56  81 109 145 183 223 270 325
#     4  10  18  33  56  79 108 146 184 226 276 328
#
# _framework density 22.243912000000002
#
# number of rings (size 3 to 8) (size 9 to 14) (size 15 to 20)
#    0.000    2.250    2.500    0.375    3.500    1.000 
#    0.000    0.625    0.000    1.875    0.000    0.000 
#    0.000    0.000    0.000    0.000    0.000    0.000 
#
# Total GULP energy -357453.157342 kJ/mol
# GULP energy per Si atom -5585.205583 kJ/mol
# Density = 2.219328 g / cm^3
# Si number density = 22.243912 Si / 1000 Ang^3
#
#
#
# Elastic Constant Matrix: (Units=GPa)
#
#
# Indices 1 2 3 4 5 6 
#
# 1 105.6964 17.5481 -9.6193 0.0000 0.0000 0.0000
# 2 17.5481 112.1216 -3.8095 0.0000 0.0000 0.0000
# 3 -9.6193 -3.8095 68.1263 0.0000 0.0000 0.0000
# 4 0.0000 0.0000 0.0000 0.0246 0.0000 0.0000
# 5 0.0000 0.0000 0.0000 0.0000 -577.1740 0.0000
# 6 0.0000 0.0000 0.0000 0.0000 0.0000 37.8977
#
#
#
# Elastic Compliance Matrix: (Units=1/GPa)
#
#
# Indices 1 2 3 4 5 6 
#
# 1 0.009828 -0.001494 0.001304 0.000000 0.000000 0.000000
# 2 -0.001494 0.009163 0.000301 0.000000 0.000000 0.000000
# 3 0.001304 0.000301 0.014880 0.000000 0.000000 0.000000
# 4 0.000000 0.000000 0.000000 40.640334 0.000000 0.000000
# 5 0.000000 0.000000 0.000000 0.000000 -0.001733 0.000000
# 6 0.000000 0.000000 0.000000 0.000000 0.000000 0.026387
#
#
# Mechanical properties :
#
#
# Convention : Reuss Voigt Hill
#
# Bulk Modulus (GPa) = 29.33087 32.68701 31.00894
# Shear Modulus (GPa) = 0.12282 -89.06199 -44.46959
#
# Velocity S-wave (km/s) = 0.23523 -6.33449 -4.47607
# Velocity P-wave (km/s) = 3.64533 6.22690 3.56972
#
# Compressibility (1/GPa) = 0.03409378
#
# Stress axis : x y z
#
# Youngs Moduli (GPa) = 101.75263 109.13536 67.20608
#
# Poissons Ratio (x) = 0.16303 -0.08765
# Poissons Ratio (y) = 0.15200 -0.02026
# Poissons Ratio (z) = -0.13270 -0.03290
#
# Static dielectric constant tensor:
#      x y z
#    x 1.783770 0.000000 0.000000 
#    y 0.000000 1.787330 0.000000 
#    z 0.000000 0.000000 1.968180 
# 
# From -- ./inp_files/4753.got.cif
#   From: 2010.05.17/outbox.cif.g08.bks.cpg/sg58_3_cif.got.tgz:4753.got - 2010.06.03 14:20:14.
