data_PCOD9441882
_publ_section_title
;
Structure prediction by ZEFSAII (Michael W. Deem and Ramdas Pophale) SiO2 
 PCOD9441882
Probable space group: P N N M
;
_chemical_formula_sum "Si O2"
_cell_formula_units_Z 56
_cell_length_a 24.460943
_cell_length_b 13.633662
_cell_length_c 9.150080
_cell_angle_alpha 90.000000
_cell_angle_beta 90.000000
_cell_angle_gamma 90.000000
_cell_volume 3051.480575
_symmetry_space_group_name_H-M "P N N M"
_symmetry_group_IT_number 58
_symmetry_cell_setting 'orthorhombic'
loop_
_space_group_symop_operation_xyz
x,y,z
-x,-y,z
1/2+x,1/2-y,1/2-z
1/2-x,1/2+y,1/2-z
-x,-y,-z
x,y,-z
1/2-x,1/2+y,1/2+z
1/2+x,1/2-y,1/2+z
loop_
_atom_site_type_symbol
_atom_site_label
_atom_site_fract_x
_atom_site_fract_y
_atom_site_fract_z
Si Si1 0.551305 0.725652 0.174529
Si Si2 0.130401 0.384273 0.826779
Si Si3 0.940148 0.455277 0.325700
Si Si4 0.272196 0.773798 0.174587
Si Si5 0.939053 0.812989 0.827199
Si Si6 0.169683 0.859169 0.674790
Si Si7 0.659404 0.417589 0.825153
O O1 0.559075 0.840515 0.211221
O O2 0.498646 0.684464 0.256663
O O3 0.607411 0.670024 0.208291
O O4 0.541573 0.719532 0.000000
O O5 0.104476 0.482243 0.760914
O O6 0.185480 0.350617 0.746347
O O7 0.087143 0.295357 0.801880
O O8 0.139721 0.392809 0.000000
O O9 0.930477 0.465365 0.500000
O O10 0.000000 0.500000 0.294376
O O11 0.212981 0.792994 0.240913
O O12 0.296253 0.666114 0.210568
O O13 0.272039 0.784506 0.000000
O O14 0.896663 0.887757 0.753674
O O15 0.941621 0.829191 0.000000
O O16 0.177518 0.847399 0.500000
O O17 0.177983 0.973258 0.713253
O O18 0.650237 0.414805 0.000000
#
# Coordination Sequence:
#
# PCOD9441882 Si02
#       7
#     8   8   8   8   8   8   8
#     4  10  21  36  55  80 114 153 187 229 282 335
#     4  10  20  34  55  82 112 148 188 230 276 328
#     4  10  19  32  53  82 116 150 186 228 278 334
#     4  10  21  38  60  82 107 142 185 228 276 329
#     4  10  20  34  55  83 112 144 186 231 276 327
#     4  10  22  40  59  82 112 145 185 229 276 329
#     4   9  20  39  61  81 107 145 184 223 272 333
#
# _framework density 18.351747
#
# number of rings (size 3 to 8) (size 9 to 14) (size 15 to 20)
#    0.000    2.143    1.429    1.286    0.000    5.429 
#    0.000    5.714    0.000    0.000    0.000    0.000 
#    0.000    0.000    0.000    0.000    0.000    0.000 
#
# Total GULP energy -312743.879882 kJ/mol
# GULP energy per Si atom -5584.712141 kJ/mol
# Density = 1.830998 g / cm^3
# Si number density = 18.351747 Si / 1000 Ang^3
#
#
#
# Elastic Constant Matrix: (Units=GPa)
#
#
# Indices 1 2 3 4 5 6 
#
# 1 106.5154 36.0836 49.9921 0.0000 0.0000 0.0000
# 2 36.0836 72.7250 30.2032 0.0000 0.0000 0.0000
# 3 49.9921 30.2032 38.1616 0.0000 0.0000 0.0000
# 4 0.0000 0.0000 0.0000 22.2081 0.0000 0.0000
# 5 0.0000 0.0000 0.0000 0.0000 35.4187 0.0000
# 6 0.0000 0.0000 0.0000 0.0000 0.0000 18.2037
#
#
#
# Elastic Compliance Matrix: (Units=1/GPa)
#
#
# Indices 1 2 3 4 5 6 
#
# 1 0.024524 0.001750 -0.033511 0.000000 0.000000 0.000000
# 2 0.001750 0.020608 -0.018602 0.000000 0.000000 0.000000
# 3 -0.033511 -0.018602 0.084827 0.000000 0.000000 0.000000
# 4 0.000000 0.000000 0.000000 0.045029 0.000000 0.000000
# 5 0.000000 0.000000 0.000000 0.000000 0.028234 0.000000
# 6 0.000000 0.000000 0.000000 0.000000 0.000000 0.054934
#
#
# Mechanical properties :
#
#
# Convention : Reuss Voigt Hill
#
# Bulk Modulus (GPa) = 34.20996 49.99554 42.10275
# Shear Modulus (GPa) = 13.56389 21.90764 17.73576
#
# Velocity S-wave (km/s) = 2.72160 3.45884 3.11213
# Velocity P-wave (km/s) = 5.34396 6.57674 5.99213
#
# Compressibility (1/GPa) = 0.02923125
#
# Stress axis : x y z
#
# Youngs Moduli (GPa) = 40.77681 48.52483 11.78872
#
# Poissons Ratio (x) = -0.08490 0.39505
# Poissons Ratio (y) = -0.07134 0.21930
# Poissons Ratio (z) = 1.36647 0.90267
#
# Static dielectric constant tensor:
#      x y z
#    x 1.602210 0.000000 0.000000 
#    y 0.000000 1.622930 0.000000 
#    z 0.000000 0.000000 1.607560 
# 
# From -- ./inp_files/8973.got.cif
#   From: 2010.05.17/outbox.cif.g08.bks.cpg/sg58_5_cif.got.tgz:8973.got - 2010.06.03 14:20:14.
