data_PCOD9441763
_publ_section_title
;
Structure prediction by ZEFSAII (Michael W. Deem and Ramdas Pophale) SiO2 
 PCOD9441763
Probable space group: P N N M
;
_chemical_formula_sum "Si O2"
_cell_formula_units_Z 36
_cell_length_a 13.368822
_cell_length_b 16.938753
_cell_length_c 5.634673
_cell_angle_alpha 90.000000
_cell_angle_beta 90.000000
_cell_angle_gamma 90.000000
_cell_volume 1275.978315
_symmetry_space_group_name_H-M "P N N M"
_symmetry_group_IT_number 58
_symmetry_cell_setting 'orthorhombic'
loop_
_space_group_symop_operation_xyz
x,y,z
-x,-y,z
1/2+x,1/2-y,1/2-z
1/2-x,1/2+y,1/2-z
-x,-y,-z
x,y,-z
1/2-x,1/2+y,1/2+z
1/2+x,1/2-y,1/2+z
loop_
_atom_site_type_symbol
_atom_site_label
_atom_site_fract_x
_atom_site_fract_y
_atom_site_fract_z
Si Si1 0.757696 0.275743 0.500000
Si Si2 0.964305 0.208186 0.000000
Si Si3 0.428172 0.576541 0.748917
Si Si4 0.918684 0.413375 0.500000
Si Si5 0.028849 0.385783 0.000000
Si Si6 0.233136 0.442573 0.500000
Si Si7 0.273681 0.761981 0.000000
Si Si8 0.764886 0.091574 0.500000
O O1 0.849009 0.335706 0.500000
O O2 0.701898 0.280673 0.246606
O O3 0.790419 0.183795 0.500000
O O4 0.021143 0.290881 0.000000
O O5 0.997834 0.151958 0.783353
O O6 0.847324 0.228533 0.000000
O O7 0.500000 0.500000 0.748923
O O8 0.368617 0.577675 0.500000
O O9 0.375029 0.579576 0.000000
O O10 0.976958 0.411547 0.752257
O O11 0.849174 0.490359 0.500000
O O12 0.856559 0.586713 0.000000
O O13 0.187567 0.352375 0.500000
O O14 0.293635 0.444374 0.747020
#
# Coordination Sequence:
#
# PCOD9441763 Si02
#       8
#     4   4   8   4   4   4   4   4
#     4  10  20  40  59  85 124 155 197 255 303 355
#     4  10  19  31  55  85 112 141 202 242 295 350
#     4   8  16  28  44  68 105 144 176 227 284 340
#     4  12  23  40  62  97 122 158 212 266 294 361
#     4  12  25  35  63  96 124 158 209 252 315 355
#     4  10  23  42  63  84 122 166 210 242 315 366
#     4  10  20  35  61  85 110 157 202 245 296 371
#     4  10  23  43  61  90 125 167 198 248 316 381
#
# _framework density 28.213647000000002
#
# number of rings (size 3 to 8) (size 9 to 14) (size 15 to 20)
#    0.667    1.333    2.222    1.333    3.111    2.667 
#    0.000    2.222    0.000    0.000    0.000    0.000 
#    0.000    0.000    0.000    0.000    0.000    0.000 
#
# Total GULP energy -201880.424459 kJ/mol
# GULP energy per Si atom -5607.789568 kJ/mol
# Density = 2.814943 g / cm^3
# Si number density = 28.213647 Si / 1000 Ang^3
#
#
#
# Elastic Constant Matrix: (Units=GPa)
#
#
# Indices 1 2 3 4 5 6 
#
# 1 133.7670 47.0245 51.9010 0.0000 0.0000 0.0000
# 2 47.0245 159.0090 83.4568 0.0000 0.0000 0.0000
# 3 51.9010 83.4568 343.0865 0.0000 0.0000 0.0000
# 4 0.0000 0.0000 0.0000 34.2685 0.0000 0.0000
# 5 0.0000 0.0000 0.0000 0.0000 44.5872 0.0000
# 6 0.0000 0.0000 0.0000 0.0000 0.0000 54.1820
#
#
#
# Elastic Compliance Matrix: (Units=1/GPa)
#
#
# Indices 1 2 3 4 5 6 
#
# 1 0.008519 -0.002113 -0.000775 0.000000 0.000000 0.000000
# 2 -0.002113 0.007733 -0.001562 0.000000 0.000000 0.000000
# 3 -0.000775 -0.001562 0.003412 0.000000 0.000000 0.000000
# 4 0.000000 0.000000 0.000000 0.029181 0.000000 0.000000
# 5 0.000000 0.000000 0.000000 0.000000 0.022428 0.000000
# 6 0.000000 0.000000 0.000000 0.000000 0.000000 0.018456
#
#
# Mechanical properties :
#
#
# Convention : Reuss Voigt Hill
#
# Bulk Modulus (GPa) = 92.88503 111.18079 102.03291
# Shear Modulus (GPa) = 48.91576 56.83954 52.87765
#
# Velocity S-wave (km/s) = 4.16836 4.49331 4.33388
# Velocity P-wave (km/s) = 7.49403 8.14936 7.82856
#
# Compressibility (1/GPa) = 0.01076600
#
# Stress axis : x y z
#
# Youngs Moduli (GPa) = 117.38450 129.31011 293.10209
#
# Poissons Ratio (x) = 0.27319 0.22710
# Poissons Ratio (y) = 0.24800 0.45770
# Poissons Ratio (z) = 0.09095 0.20193
#
# Static dielectric constant tensor:
#      x y z
#    x 2.088790 0.000000 0.000000 
#    y 0.000000 2.177830 0.000000 
#    z 0.000000 0.000000 2.249220 
# 
# From -- ./inp_files/792.got.cif
#   From: 2010.05.17/outbox.cif.g08.bks.cpg/sg58_1_cif.got.tgz:792.got - 2010.06.03 14:20:14.
