data_PCOD9441979
_publ_section_title
;
Structure prediction by ZEFSAII (Michael W. Deem and Ramdas Pophale) SiO2 
 PCOD9441979
Probable space group: P N N M
;
_chemical_formula_sum "Si O2"
_cell_formula_units_Z 48
_cell_length_a 14.247436
_cell_length_b 19.369369
_cell_length_c 7.427060
_cell_angle_alpha 90.000000
_cell_angle_beta 90.000000
_cell_angle_gamma 90.000000
_cell_volume 2049.600036
_symmetry_space_group_name_H-M "P N N M"
_symmetry_group_IT_number 58
_symmetry_cell_setting 'orthorhombic'
loop_
_space_group_symop_operation_xyz
x,y,z
-x,-y,z
1/2+x,1/2-y,1/2-z
1/2-x,1/2+y,1/2-z
-x,-y,-z
x,y,-z
1/2-x,1/2+y,1/2+z
1/2+x,1/2-y,1/2+z
loop_
_atom_site_type_symbol
_atom_site_label
_atom_site_fract_x
_atom_site_fract_y
_atom_site_fract_z
Si Si1 0.651243 0.004705 0.793852
Si Si2 0.958008 0.894263 0.719288
Si Si3 0.168930 0.230415 0.711957
Si Si4 0.144770 0.650673 0.716486
Si Si5 0.642753 0.538000 0.782536
Si Si6 0.935539 0.639773 0.280126
O O1 0.753083 0.040716 0.791845
O O2 0.582142 0.061987 0.713975
O O3 0.662584 0.927906 0.716054
O O4 0.620827 0.993018 0.000000
O O5 0.958538 0.892946 0.500000
O O6 0.901605 0.828110 0.785839
O O7 0.065990 0.905300 0.774634
O O8 0.901474 0.963688 0.768622
O O9 0.148697 0.233677 0.500000
O O10 0.274319 0.203184 0.728909
O O11 0.142500 0.305818 0.782460
O O12 0.149160 0.650245 0.500000
O O13 0.038326 0.667271 0.769249
O O14 0.649382 0.539805 0.000000
O O15 0.932630 0.635025 0.500000
#
# Coordination Sequence:
#
# PCOD9441979 Si02
#       6
#     8   8   8   8   8   8
#     4  10  19  33  53  78 106 137 174 216 257 303
#     4   8  15  28  48  73 101 133 168 206 251 304
#     4  10  19  35  57  77 102 138 177 215 260 311
#     4  10  20  36  57  78 103 137 175 214 257 309
#     4   9  16  29  50  76 103 133 172 213 252 301
#     4   9  20  36  54  76 104 141 177 207 254 319
#
# _framework density 23.419203
#
# number of rings (size 3 to 8) (size 9 to 14) (size 15 to 20)
#    0.000    2.667    1.667    1.500    0.000    3.333 
#    0.000    6.667    0.000    2.000    0.000    0.000 
#    0.000    0.000    0.000    0.000    0.000    0.000 
#
# Total GULP energy -268025.870274 kJ/mol
# GULP energy per Si atom -5583.872297 kJ/mol
# Density = 2.336590 g / cm^3
# Si number density = 23.419203 Si / 1000 Ang^3
#
#
#
# Elastic Constant Matrix: (Units=GPa)
#
#
# Indices 1 2 3 4 5 6 
#
# 1 99.2129 46.3644 -11.2890 0.0000 0.0000 0.0000
# 2 46.3644 101.8216 1.7488 0.0000 0.0000 0.0000
# 3 -11.2890 1.7488 72.1927 0.0000 0.0000 0.0000
# 4 0.0000 0.0000 0.0000 2.8827 0.0000 0.0000
# 5 0.0000 0.0000 0.0000 0.0000 23.3992 0.0000
# 6 0.0000 0.0000 0.0000 0.0000 0.0000 29.6751
#
#
#
# Elastic Compliance Matrix: (Units=1/GPa)
#
#
# Indices 1 2 3 4 5 6 
#
# 1 0.013145 -0.006023 0.002201 0.000000 0.000000 0.000000
# 2 -0.006023 0.012585 -0.001247 0.000000 0.000000 0.000000
# 3 0.002201 -0.001247 0.014226 0.000000 0.000000 0.000000
# 4 0.000000 0.000000 0.000000 0.346903 0.000000 0.000000
# 5 0.000000 0.000000 0.000000 0.000000 0.042736 0.000000
# 6 0.000000 0.000000 0.000000 0.000000 0.000000 0.033698
#
#
# Mechanical properties :
#
#
# Convention : Reuss Voigt Hill
#
# Bulk Modulus (GPa) = 33.53578 38.54174 36.03876
# Shear Modulus (GPa) = 10.34404 26.95159 18.64781
#
# Velocity S-wave (km/s) = 2.10392 3.39607 2.82487
# Velocity P-wave (km/s) = 4.50032 5.64542 5.10508
#
# Compressibility (1/GPa) = 0.02981890
#
# Stress axis : x y z
#
# Youngs Moduli (GPa) = 76.07697 79.45865 70.29257
#
# Poissons Ratio (x) = 0.47859 -0.15474
# Poissons Ratio (y) = 0.45823 0.08764
# Poissons Ratio (z) = -0.16747 0.09906
#
# Static dielectric constant tensor:
#      x y z
#    x 1.868740 0.000000 0.000000 
#    y 0.000000 1.885120 0.000000 
#    z 0.000000 0.000000 1.919500 
# 
# From -- ./inp_files/5794.got.cif
#   From: 2010.05.17/outbox.cif.g08.bks.cpg/sg58_3_cif.got.tgz:5794.got - 2010.06.03 14:20:14.
