data_PCOD9441618
_publ_section_title
;
Structure prediction by ZEFSAII (Michael W. Deem and Ramdas Pophale) SiO2 
 PCOD9441618
Probable space group: P N N M
;
_chemical_formula_sum "Si O2"
_cell_formula_units_Z 56
_cell_length_a 14.091100
_cell_length_b 29.876282
_cell_length_c 8.913467
_cell_angle_alpha 90.000000
_cell_angle_beta 90.000000
_cell_angle_gamma 90.000000
_cell_volume 3752.477596
_symmetry_space_group_name_H-M "P N N M"
_symmetry_group_IT_number 58
_symmetry_cell_setting 'orthorhombic'
loop_
_space_group_symop_operation_xyz
x,y,z
-x,-y,z
1/2+x,1/2-y,1/2-z
1/2-x,1/2+y,1/2-z
-x,-y,-z
x,y,-z
1/2-x,1/2+y,1/2+z
1/2+x,1/2-y,1/2+z
loop_
_atom_site_type_symbol
_atom_site_label
_atom_site_fract_x
_atom_site_fract_y
_atom_site_fract_z
Si Si1 0.118193 0.272890 0.180844
Si Si2 0.774366 0.818658 0.179814
Si Si3 0.099571 0.728291 0.819679
Si Si4 0.885112 0.004387 0.827594
Si Si5 0.294219 0.320072 0.320185
Si Si6 0.399118 0.403779 0.178303
Si Si7 0.108834 0.094446 0.818013
O O1 0.155574 0.222797 0.216563
O O2 0.190719 0.306701 0.259326
O O3 0.009089 0.277973 0.227772
O O4 0.124006 0.278106 0.000000
O O5 0.673666 0.806840 0.252042
O O6 0.822117 0.865233 0.226041
O O7 0.763868 0.819427 0.000000
O O8 0.138020 0.777844 0.779114
O O9 0.102756 0.725458 0.000000
O O10 0.852538 0.955019 0.778147
O O11 0.862033 0.047229 0.728181
O O12 0.855908 0.012485 0.000000
O O13 0.000000 0.000000 0.827441
O O14 0.293598 0.324085 0.500000
O O15 0.335068 0.364718 0.247093
O O16 0.505320 0.399205 0.245956
O O17 0.402780 0.400549 0.000000
O O18 0.097244 0.094984 0.000000
#
# Coordination Sequence:
#
# PCOD9441618 Si02
#       7
#     8   8   8   8   8   8   8
#     4   9  17  30  45  63  89 117 145 180 217 250
#     4   9  17  29  46  66  88 115 148 181 212 252
#     4   9  18  31  46  64  89 118 146 180 219 257
#     4   8  15  28  44  61  85 117 148 176 212 260
#     4  10  19  31  46  64  87 117 151 180 212 258
#     4  11  20  28  42  65  91 117 146 182 221 259
#     4   9  17  30  46  64  89 121 150 177 214 259
#
# _framework density 14.923473
#
# number of rings (size 3 to 8) (size 9 to 14) (size 15 to 20)
#    0.000    2.714    0.000    3.429    0.000    6.571 
#    0.000    2.857    0.000    0.000    0.000    1.000 
#    0.000    8.000    0.000    0.000    0.000    0.000 
#
# Total GULP energy -312078.416435 kJ/mol
# GULP energy per Si atom -5572.828865 kJ/mol
# Density = 1.488951 g / cm^3
# Si number density = 14.923473 Si / 1000 Ang^3
#
#
#
# Elastic Constant Matrix: (Units=GPa)
#
#
# Indices 1 2 3 4 5 6 
#
# 1 111.5994 70.1201 38.9679 0.0000 0.0000 0.0000
# 2 70.1201 137.9035 48.9376 0.0000 0.0000 0.0000
# 3 38.9679 48.9376 40.4644 0.0000 0.0000 0.0000
# 4 0.0000 0.0000 0.0000 20.8505 0.0000 0.0000
# 5 0.0000 0.0000 0.0000 0.0000 23.0104 0.0000
# 6 0.0000 0.0000 0.0000 0.0000 0.0000 24.6584
#
#
#
# Elastic Compliance Matrix: (Units=1/GPa)
#
#
# Indices 1 2 3 4 5 6 
#
# 1 0.014846 -0.004336 -0.009053 0.000000 0.000000 0.000000
# 2 -0.004336 0.013970 -0.012719 0.000000 0.000000 0.000000
# 3 -0.009053 -0.012719 0.048814 0.000000 0.000000 0.000000
# 4 0.000000 0.000000 0.000000 0.047960 0.000000 0.000000
# 5 0.000000 0.000000 0.000000 0.000000 0.043459 0.000000
# 6 0.000000 0.000000 0.000000 0.000000 0.000000 0.040554
#
#
# Mechanical properties :
#
#
# Convention : Reuss Voigt Hill
#
# Bulk Modulus (GPa) = 39.34975 67.33541 53.34258
# Shear Modulus (GPa) = 18.49851 22.49997 20.49924
#
# Velocity S-wave (km/s) = 3.52456 3.88711 3.71026
# Velocity P-wave (km/s) = 6.55654 8.08484 7.36046
#
# Compressibility (1/GPa) = 0.02541313
#
# Stress axis : x y z
#
# Youngs Moduli (GPa) = 67.35684 71.58148 20.48590
#
# Poissons Ratio (x) = 0.31040 0.18546
# Poissons Ratio (y) = 0.29208 0.26057
# Poissons Ratio (z) = 0.60977 0.91048
#
# Static dielectric constant tensor:
#      x y z
#    x 1.468530 0.000000 0.000000 
#    y 0.000000 1.504610 0.000000 
#    z 0.000000 0.000000 1.498940 
# 
# From -- ./inp_files/7117.got.cif
#   From: 2010.05.17/outbox.cif.g08.bks.cpg/sg58_4_cif.got.tgz:7117.got - 2010.06.03 14:20:14.
