data_PCOD9441474
_publ_section_title
;
Structure prediction by ZEFSAII (Michael W. Deem and Ramdas Pophale) SiO2 
 PCOD9441474
Probable space group: P N N M
;
_chemical_formula_sum "Si O2"
_cell_formula_units_Z 44
_cell_length_a 9.925936
_cell_length_b 15.293688
_cell_length_c 13.162790
_cell_angle_alpha 90.000000
_cell_angle_beta 90.000000
_cell_angle_gamma 90.000000
_cell_volume 1998.166388
_symmetry_space_group_name_H-M "P N N M"
_symmetry_group_IT_number 58
_symmetry_cell_setting 'orthorhombic'
loop_
_space_group_symop_operation_xyz
x,y,z
-x,-y,z
1/2+x,1/2-y,1/2-z
1/2-x,1/2+y,1/2-z
-x,-y,-z
x,y,-z
1/2-x,1/2+y,1/2+z
1/2+x,1/2-y,1/2+z
loop_
_atom_site_type_symbol
_atom_site_label
_atom_site_fract_x
_atom_site_fract_y
_atom_site_fract_z
Si Si1 0.500000 0.500000 0.336408
Si Si2 0.763352 0.110709 0.613862
Si Si3 0.470512 0.160003 0.318614
Si Si4 0.938003 0.730764 0.391619
Si Si5 0.673111 0.417773 0.162496
Si Si6 0.147017 0.836528 0.841538
O O1 0.601744 0.441112 0.268517
O O2 0.406827 0.427071 0.384590
O O3 0.783342 0.148495 0.500000
O O4 0.602146 0.112838 0.637024
O O5 0.825001 0.152948 0.718066
O O6 0.822600 0.012556 0.610540
O O7 0.488782 0.182066 0.199906
O O8 0.328792 0.111771 0.333071
O O9 0.454669 0.257493 0.363573
O O10 0.001238 0.712603 0.500000
O O11 0.910038 0.835274 0.380466
O O12 0.788675 0.690987 0.386430
#
# Coordination Sequence:
#
# PCOD9441474 Si02
#       6
#     4   8   8   8   8   8
#     4  10  18  38  60  78 112 150 186 234 284 336
#     4  10  21  36  59  90 116 144 188 244 299 345
#     4  10  20  36  56  83 119 153 189 227 288 349
#     4  10  20  36  58  84 117 151 190 233 278 339
#     4  10  20  35  60  87 117 147 182 237 295 347
#     4   9  20  36  56  83 113 153 190 231 286 340
#
# _framework density 22.020188000000001
#
# number of rings (size 3 to 8) (size 9 to 14) (size 15 to 20)
#    0.000    2.182    1.818    1.091    0.000    5.091 
#    0.000    2.727    0.000   19.636    0.000    0.000 
#    0.000    0.000    0.000    0.000    0.000    0.000 
#
# Total GULP energy -245328.160354 kJ/mol
# GULP energy per Si atom -5575.640008 kJ/mol
# Density = 2.197007 g / cm^3
# Si number density = 22.020188 Si / 1000 Ang^3
#
#
#
# Elastic Constant Matrix: (Units=GPa)
#
#
# Indices 1 2 3 4 5 6 
#
# 1 64.6447 0.5457 3.8563 0.0000 0.0000 0.0000
# 2 0.5457 77.2347 9.0241 0.0000 0.0000 0.0000
# 3 3.8563 9.0241 113.3302 0.0000 0.0000 0.0000
# 4 0.0000 0.0000 0.0000 -9.7489 0.0000 0.0000
# 5 0.0000 0.0000 0.0000 0.0000 -316.6801 0.0000
# 6 0.0000 0.0000 0.0000 0.0000 0.0000 30.4140
#
#
#
# Elastic Compliance Matrix: (Units=1/GPa)
#
#
# Indices 1 2 3 4 5 6 
#
# 1 0.015501 -0.000048 -0.000524 0.000000 0.000000 0.000000
# 2 -0.000048 0.013069 -0.001039 0.000000 0.000000 0.000000
# 3 -0.000524 -0.001039 0.008924 0.000000 0.000000 0.000000
# 4 0.000000 0.000000 0.000000 -0.102576 0.000000 0.000000
# 5 0.000000 0.000000 0.000000 0.000000 -0.003158 0.000000
# 6 0.000000 0.000000 0.000000 0.000000 0.000000 0.032880
#
#
# Mechanical properties :
#
#
# Convention : Reuss Voigt Hill
#
# Bulk Modulus (GPa) = 29.17790 31.34020 30.25905
# Shear Modulus (GPa) = -241.38444 -43.08407 -142.23425
#
# Velocity S-wave (km/s) = -10.48130 -4.42811 -8.04568
# Velocity P-wave (km/s) = 11.54112 3.44686 8.51699
#
# Compressibility (1/GPa) = 0.03427251
#
# Stress axis : x y z
#
# Youngs Moduli (GPa) = 64.51278 76.51527 112.05336
#
# Poissons Ratio (x) = 0.00370 0.05867
# Poissons Ratio (y) = 0.00312 0.11643
# Poissons Ratio (z) = 0.03378 0.07950
#
# Static dielectric constant tensor:
#      x y z
#    x 1.797200 0.000000 0.000000 
#    y 0.000000 1.800600 0.000000 
#    z 0.000000 0.000000 1.868330 
# 
# From -- ./inp_files/21330.got.cif
#   From: 2010.05.17/outbox.cif.g08.bks.cpg/sg58_11_cif.got.tgz:21330.got - 2010.06.03 14:20:14.
