data_PCOD9441317
_publ_section_title
;
Structure prediction by ZEFSAII (Michael W. Deem and Ramdas Pophale) SiO2 
 PCOD9441317
Probable space group: P N N M
;
_chemical_formula_sum "Si O2"
_cell_formula_units_Z 64
_cell_length_a 12.304677
_cell_length_b 29.798251
_cell_length_c 7.443376
_cell_angle_alpha 90.000000
_cell_angle_beta 90.000000
_cell_angle_gamma 90.000000
_cell_volume 2729.172269
_symmetry_space_group_name_H-M "P N N M"
_symmetry_group_IT_number 58
_symmetry_cell_setting 'orthorhombic'
loop_
_space_group_symop_operation_xyz
x,y,z
-x,-y,z
1/2+x,1/2-y,1/2-z
1/2-x,1/2+y,1/2-z
-x,-y,-z
x,y,-z
1/2-x,1/2+y,1/2+z
1/2+x,1/2-y,1/2+z
loop_
_atom_site_type_symbol
_atom_site_label
_atom_site_fract_x
_atom_site_fract_y
_atom_site_fract_z
Si Si1 0.327545 0.840975 0.209134
Si Si2 0.496073 0.771645 0.217168
Si Si3 0.063852 0.173543 0.210997
Si Si4 0.575222 0.066660 0.710813
Si Si5 0.695172 0.832475 0.780227
Si Si6 0.708163 0.516474 0.297270
Si Si7 0.830842 0.434825 0.716100
Si Si8 0.613935 0.606966 0.721619
O O1 0.386942 0.797084 0.284224
O O2 0.413900 0.881852 0.224078
O O3 0.216048 0.862095 0.281944
O O4 0.305908 0.832087 0.000000
O O5 0.499938 0.719944 0.268714
O O6 0.600415 0.799442 0.280730
O O7 0.493951 0.773888 0.000000
O O8 0.994809 0.131741 0.281699
O O9 0.184728 0.180770 0.282263
O O10 0.076649 0.164185 0.000000
O O11 0.598532 0.065249 0.500000
O O12 0.672374 0.039941 0.804471
O O13 0.453418 0.049981 0.741169
O O14 0.678689 0.883802 0.722200
O O15 0.691246 0.831721 0.000000
O O16 0.667888 0.508293 0.500000
O O17 0.738527 0.468643 0.213367
O O18 0.633444 0.555787 0.217805
O O19 0.820765 0.434998 0.500000
O O20 0.617493 0.605744 0.500000
#
# Coordination Sequence:
#
# PCOD9441317 Si02
#       8
#     8   8   8   8   8   8   8   8
#     4   9  17  33  54  72  99 139 175 208 251 310
#     4  10  20  35  55  76 103 137 175 213 256 317
#     4  10  21  36  55  77 106 137 170 219 270 308
#     4  11  20  29  46  77 113 138 164 214 267 305
#     4   9  19  36  55  77 105 137 172 217 265 308
#     4   9  18  32  53  75 100 141 185 212 249 318
#     4  10  18  33  54  73 100 143 183 211 254 316
#     4   8  16  32  52  76 103 133 171 215 257 300
#
# _framework density 23.450334000000002
#
# number of rings (size 3 to 8) (size 9 to 14) (size 15 to 20)
#    0.000    2.500    1.250    2.250    1.750    2.500 
#    0.000    3.750    0.000    3.750    0.000    0.000 
#    0.000    6.000    0.000    0.000    0.000    0.000 
#
# Total GULP energy -357357.587946 kJ/mol
# GULP energy per Si atom -5583.712312 kJ/mol
# Density = 2.339696 g / cm^3
# Si number density = 23.450334 Si / 1000 Ang^3
#
#
#
# Elastic Constant Matrix: (Units=GPa)
#
#
# Indices 1 2 3 4 5 6 
#
# 1 48.9597 7.4997 -0.6975 0.0000 0.0000 0.0000
# 2 7.4997 65.9826 -11.1794 0.0000 0.0000 0.0000
# 3 -0.6975 -11.1794 76.7958 0.0000 0.0000 0.0000
# 4 0.0000 0.0000 0.0000 -0.4809 0.0000 0.0000
# 5 0.0000 0.0000 0.0000 0.0000 -14.8793 0.0000
# 6 0.0000 0.0000 0.0000 0.0000 0.0000 20.6440
#
#
#
# Elastic Compliance Matrix: (Units=1/GPa)
#
#
# Indices 1 2 3 4 5 6 
#
# 1 0.020789 -0.002390 -0.000159 0.000000 0.000000 0.000000
# 2 -0.002390 0.015814 0.002280 0.000000 0.000000 0.000000
# 3 -0.000159 0.002280 0.013352 0.000000 0.000000 0.000000
# 4 0.000000 0.000000 0.000000 -2.079381 0.000000 0.000000
# 5 0.000000 0.000000 0.000000 0.000000 -0.067208 0.000000
# 6 0.000000 0.000000 0.000000 0.000000 0.000000 0.048440
#
#
# Mechanical properties :
#
#
# Convention : Reuss Voigt Hill
#
# Bulk Modulus (GPa) = 20.23589 20.33150 20.28370
# Shear Modulus (GPa) = -2.46162 14.13111 5.83475
#
# Velocity S-wave (km/s) = -1.02567 2.45745 1.57909
# Velocity P-wave (km/s) = 2.69172 4.09157 3.46311
#
# Compressibility (1/GPa) = 0.04941714
#
# Stress axis : x y z
#
# Youngs Moduli (GPa) = 48.10292 63.23708 74.89479
#
# Poissons Ratio (x) = 0.15113 0.01191
# Poissons Ratio (y) = 0.11496 -0.17078
# Poissons Ratio (z) = 0.00765 -0.14420
#
# Static dielectric constant tensor:
#      x y z
#    x 1.866980 0.000000 0.000000 
#    y 0.000000 1.892280 0.000000 
#    z 0.000000 0.000000 1.948080 
# 
# From -- ./inp_files/4723.got.cif
#   From: 2010.05.17/outbox.cif.g08.bks.cpg/sg58_3_cif.got.tgz:4723.got - 2010.06.03 14:20:14.
