data_PCOD9441642
_publ_section_title
;
Structure prediction by ZEFSAII (Michael W. Deem and Ramdas Pophale) SiO2 
 PCOD9441642
Probable space group: P N N M
;
_chemical_formula_sum "Si O2"
_cell_formula_units_Z 48
_cell_length_a 17.817345
_cell_length_b 12.810655
_cell_length_c 8.850512
_cell_angle_alpha 90.000000
_cell_angle_beta 90.000000
_cell_angle_gamma 90.000000
_cell_volume 2020.145824
_symmetry_space_group_name_H-M "P N N M"
_symmetry_group_IT_number 58
_symmetry_cell_setting 'orthorhombic'
loop_
_space_group_symop_operation_xyz
x,y,z
-x,-y,z
1/2+x,1/2-y,1/2-z
1/2-x,1/2+y,1/2-z
-x,-y,-z
x,y,-z
1/2-x,1/2+y,1/2+z
1/2+x,1/2-y,1/2+z
loop_
_atom_site_type_symbol
_atom_site_label
_atom_site_fract_x
_atom_site_fract_y
_atom_site_fract_z
Si Si1 0.716858 0.876633 0.171779
Si Si2 0.053306 0.684185 0.317468
Si Si3 0.870136 0.896501 0.674588
Si Si4 0.240379 0.871304 0.671444
Si Si5 0.391967 0.851839 0.178696
Si Si6 0.585757 0.595052 0.325319
O O1 0.630655 0.872812 0.226731
O O2 0.782732 0.916203 0.280745
O O3 0.737608 0.754357 0.158545
O O4 0.721985 0.920060 0.000000
O O5 0.054324 0.688233 0.500000
O O6 0.052728 0.804382 0.261273
O O7 0.976938 0.626536 0.271037
O O8 0.884202 0.918407 0.500000
O O9 0.884860 0.774052 0.696851
O O10 0.921948 0.975613 0.768592
O O11 0.224950 0.907755 0.500000
O O12 0.322482 0.900762 0.732353
O O13 0.174807 0.890057 0.792027
O O14 0.385079 0.875361 0.000000
O O15 0.567370 0.603277 0.500000
#
# Coordination Sequence:
#
# PCOD9441642 Si02
#       6
#     8   8   8   8   8   8
#     4   8  15  29  48  68  91 122 159 195 231 276
#     4   9  18  33  51  72 100 130 159 194 238 286
#     4  10  19  31  48  70  97 127 160 197 238 284
#     4   9  17  31  50  70  94 124 160 200 239 281
#     4   9  18  32  51  74  99 129 161 193 235 289
#     4  11  21  32  48  70  97 128 164 201 239 284
#
# _framework density 23.760659
#
# number of rings (size 3 to 8) (size 9 to 14) (size 15 to 20)
#    0.000    2.667    0.000    3.500    0.000    6.000 
#    0.000    3.333    0.000    1.000    0.000    7.000 
#    0.000    0.000    0.000    0.000    0.000    0.000 
#
# Total GULP energy -268066.647141 kJ/mol
# GULP energy per Si atom -5584.721815 kJ/mol
# Density = 2.370658 g / cm^3
# Si number density = 23.760659 Si / 1000 Ang^3
#
#
#
# Elastic Constant Matrix: (Units=GPa)
#
#
# Indices 1 2 3 4 5 6 
#
# 1 131.1250 -10.1820 17.2731 0.0000 0.0000 0.0000
# 2 -10.1820 58.9922 -0.8132 0.0000 0.0000 0.0000
# 3 17.2731 -0.8132 20.9985 0.0000 0.0000 0.0000
# 4 0.0000 0.0000 0.0000 25.5402 0.0000 0.0000
# 5 0.0000 0.0000 0.0000 0.0000 25.8240 0.0000
# 6 0.0000 0.0000 0.0000 0.0000 0.0000 23.4328
#
#
#
# Elastic Compliance Matrix: (Units=1/GPa)
#
#
# Indices 1 2 3 4 5 6 
#
# 1 0.008667 0.001398 -0.007075 0.000000 0.000000 0.000000
# 2 0.001398 0.017186 -0.000485 0.000000 0.000000 0.000000
# 3 -0.007075 -0.000485 0.053423 0.000000 0.000000 0.000000
# 4 0.000000 0.000000 0.000000 0.039154 0.000000 0.000000
# 5 0.000000 0.000000 0.000000 0.000000 0.038724 0.000000
# 6 0.000000 0.000000 0.000000 0.000000 0.000000 0.042675
#
#
# Mechanical properties :
#
#
# Convention : Reuss Voigt Hill
#
# Bulk Modulus (GPa) = 14.93574 24.85240 19.89407
# Shear Modulus (GPa) = 21.32468 28.61526 24.96997
#
# Velocity S-wave (km/s) = 2.99904 3.47409 3.24527
# Velocity P-wave (km/s) = 4.27690 5.15505 4.73637
#
# Compressibility (1/GPa) = 0.06695349
#
# Stress axis : x y z
#
# Youngs Moduli (GPa) = 115.38153 58.18663 18.71836
#
# Poissons Ratio (x) = -0.08137 0.13243
# Poissons Ratio (y) = -0.16135 0.00907
# Poissons Ratio (z) = 0.81634 0.02821
#
# Static dielectric constant tensor:
#      x y z
#    x 1.950900 0.000000 0.000000 
#    y 0.000000 1.999230 0.000000 
#    z 0.000000 0.000000 1.816370 
# 
# From -- ./inp_files/5779.got.cif
#   From: 2010.05.17/outbox.cif.g08.bks.cpg/sg58_3_cif.got.tgz:5779.got - 2010.06.03 14:20:14.
