data_PCOD9441616
_publ_section_title
;
Structure prediction by ZEFSAII (Michael W. Deem and Ramdas Pophale) SiO2 
 PCOD9441616
Probable space group: P N N M
;
_chemical_formula_sum "Si O2"
_cell_formula_units_Z 64
_cell_length_a 20.658642
_cell_length_b 20.794214
_cell_length_c 7.353560
_cell_angle_alpha 90.000000
_cell_angle_beta 90.000000
_cell_angle_gamma 90.000000
_cell_volume 3158.943942
_symmetry_space_group_name_H-M "P N N M"
_symmetry_group_IT_number 58
_symmetry_cell_setting 'orthorhombic'
loop_
_space_group_symop_operation_xyz
x,y,z
-x,-y,z
1/2+x,1/2-y,1/2-z
1/2-x,1/2+y,1/2-z
-x,-y,-z
x,y,-z
1/2-x,1/2+y,1/2+z
1/2+x,1/2-y,1/2+z
loop_
_atom_site_type_symbol
_atom_site_label
_atom_site_fract_x
_atom_site_fract_y
_atom_site_fract_z
Si Si1 0.423339 0.317812 0.789443
Si Si2 0.693495 0.593017 0.719579
Si Si3 0.513079 0.429387 0.210700
Si Si4 0.477894 0.928449 0.778319
Si Si5 0.657264 0.448566 0.280579
Si Si6 0.297425 0.086375 0.221050
Si Si7 0.086350 0.673415 0.277249
Si Si8 0.334032 0.941647 0.221083
O O1 0.352620 0.350128 0.782521
O O2 0.472111 0.370881 0.708440
O O3 0.422829 0.246157 0.712704
O O4 0.442692 0.309813 0.000000
O O5 0.692880 0.593521 0.500000
O O6 0.664494 0.523475 0.776349
O O7 0.768418 0.594150 0.779176
O O8 0.500000 0.500000 0.292567
O O9 0.589834 0.419528 0.217506
O O10 0.491945 0.433752 0.000000
O O11 0.528722 0.874377 0.721291
O O12 0.403936 0.916999 0.719586
O O13 0.500000 0.000000 0.722645
O O14 0.478446 0.928675 0.000000
O O15 0.656399 0.448494 0.500000
O O16 0.722678 0.412716 0.220781
O O17 0.345626 0.142018 0.280887
O O18 0.325722 0.016528 0.273217
O O19 0.296967 0.086903 0.000000
O O20 0.087181 0.673716 0.500000
O O21 0.333905 0.940471 0.000000
#
# Coordination Sequence:
#
# PCOD9441616 Si02
#       8
#     8   8   8   8   8   8   8   8
#     4  10  20  32  45  64  91 124 157 186 222 268
#     4   9  17  29  45  67  93 118 146 186 230 269
#     4  10  19  31  45  63  92 125 154 190 228 263
#     4   9  13  20  39  67  95 119 142 177 230 279
#     4   9  17  28  47  71  90 111 148 194 233 266
#     4   8  13  24  41  64  90 112 139 183 228 264
#     4   9  16  26  42  64  92 123 151 181 223 276
#     4   8  13  22  39  65  93 113 137 180 229 266
#
# _framework density 20.259934999999999
#
# number of rings (size 3 to 8) (size 9 to 14) (size 15 to 20)
#    0.000    3.000    2.500    1.500    0.000    0.750 
#    0.000    1.250    0.000    2.250    0.000    0.875 
#    0.000    1.000    0.000    0.000    0.000    0.000 
#
# Total GULP energy -357035.629437 kJ/mol
# GULP energy per Si atom -5578.681710 kJ/mol
# Density = 2.021382 g / cm^3
# Si number density = 20.259935 Si / 1000 Ang^3
#
#
#
# Elastic Constant Matrix: (Units=GPa)
#
#
# Indices 1 2 3 4 5 6 
#
# 1 172.5528 100.4778 -5.0278 0.0000 0.0000 0.0000
# 2 100.4778 161.3238 4.5968 0.0000 0.0000 0.0000
# 3 -5.0278 4.5968 73.1613 0.0000 0.0000 0.0000
# 4 0.0000 0.0000 0.0000 -5.9138 0.0000 0.0000
# 5 0.0000 0.0000 0.0000 0.0000 34.3611 0.0000
# 6 0.0000 0.0000 0.0000 0.0000 0.0000 26.7020
#
#
#
# Elastic Compliance Matrix: (Units=1/GPa)
#
#
# Indices 1 2 3 4 5 6 
#
# 1 0.009164 -0.005736 0.000990 0.000000 0.000000 0.000000
# 2 -0.005736 0.009800 -0.001010 0.000000 0.000000 0.000000
# 3 0.000990 -0.001010 0.013800 0.000000 0.000000 0.000000
# 4 0.000000 0.000000 0.000000 -0.169095 0.000000 0.000000
# 5 0.000000 0.000000 0.000000 0.000000 0.029103 0.000000
# 6 0.000000 0.000000 0.000000 0.000000 0.000000 0.037450
#
#
# Mechanical properties :
#
#
# Convention : Reuss Voigt Hill
#
# Bulk Modulus (GPa) = 47.05280 67.45907 57.25594
# Shear Modulus (GPa) = -97.69171 31.49592 -33.09790
#
# Velocity S-wave (km/s) = -6.95154 3.94711 -4.04624
# Velocity P-wave (km/s) = 6.41536 7.35812 2.54805
#
# Compressibility (1/GPa) = 0.02125272
#
# Stress axis : x y z
#
# Youngs Moduli (GPa) = 109.11926 102.03996 72.46414
#
# Poissons Ratio (x) = 0.58530 -0.07175
# Poissons Ratio (y) = 0.62591 0.07318
# Poissons Ratio (z) = -0.10805 0.10305
#
# Static dielectric constant tensor:
#      x y z
#    x 1.718740 0.000000 0.000000 
#    y 0.000000 1.685300 0.000000 
#    z 0.000000 0.000000 1.782190 
# 
# From -- ./inp_files/9457.got.cif
#   From: 2010.05.17/outbox.cif.g08.bks.cpg/sg58_5_cif.got.tgz:9457.got - 2010.06.03 14:20:14.
