data_PCOD9441284
_publ_section_title
;
Structure prediction by ZEFSAII (Michael W. Deem and Ramdas Pophale) SiO2 
 PCOD9441284
Probable space group: P N N M
;
_chemical_formula_sum "Si O2"
_cell_formula_units_Z 64
_cell_length_a 21.081791
_cell_length_b 19.808371
_cell_length_c 8.651213
_cell_angle_alpha 90.000000
_cell_angle_beta 90.000000
_cell_angle_gamma 90.000000
_cell_volume 3612.711403
_symmetry_space_group_name_H-M "P N N M"
_symmetry_group_IT_number 58
_symmetry_cell_setting 'orthorhombic'
loop_
_space_group_symop_operation_xyz
x,y,z
-x,-y,z
1/2+x,1/2-y,1/2-z
1/2-x,1/2+y,1/2-z
-x,-y,-z
x,y,-z
1/2-x,1/2+y,1/2+z
1/2+x,1/2-y,1/2+z
loop_
_atom_site_type_symbol
_atom_site_label
_atom_site_fract_x
_atom_site_fract_y
_atom_site_fract_z
Si Si1 0.438380 0.542608 0.186379
Si Si2 0.990828 0.823692 0.184743
Si Si3 0.494080 0.821865 0.814494
Si Si4 0.635971 0.825952 0.685571
Si Si5 0.689003 0.536008 0.814808
Si Si6 0.638559 0.671891 0.314018
Si Si7 0.188345 0.539196 0.685767
Si Si8 0.562746 0.040061 0.188001
O O1 0.500000 0.500000 0.236507
O O2 0.446707 0.616967 0.253924
O O3 0.374588 0.504366 0.233770
O O4 0.439201 0.546433 0.000000
O O5 0.973935 0.750792 0.252158
O O6 0.064389 0.837718 0.231671
O O7 0.989533 0.820831 0.000000
O O8 0.564842 0.836211 0.751090
O O9 0.447496 0.882349 0.766507
O O10 0.497603 0.820585 0.000000
O O11 0.633356 0.829100 0.500000
O O12 0.655441 0.749178 0.728486
O O13 0.680063 0.885181 0.749651
O O14 0.679990 0.613054 0.760198
O O15 0.749418 0.498888 0.743673
O O16 0.692975 0.534230 0.000000
O O17 0.642256 0.666296 0.500000
O O18 0.188084 0.541895 0.500000
O O19 0.126535 0.496656 0.739390
O O20 0.500000 0.000000 0.238967
O O21 0.563302 0.038065 0.000000
#
# Coordination Sequence:
#
# PCOD9441284 Si02
#       8
#     8   8   8   8   8   8   8   8
#     4  10  20  36  57  82 109 143 185 228 278 335
#     4  10  20  33  53  84 117 144 181 235 286 333
#     4  10  18  32  56  82 112 148 187 231 281 335
#     4  10  20  35  55  84 116 145 185 234 282 330
#     4  11  23  38  57  83 115 146 186 236 279 333
#     4   9  19  35  55  80 111 146 182 224 276 335
#     4  11  22  38  59  82 113 152 190 229 281 340
#     4   9  17  33  56  83 109 139 186 230 268 324
#
# _framework density 17.715226000000001
#
# number of rings (size 3 to 8) (size 9 to 14) (size 15 to 20)
#    0.000    2.000    2.500    2.625    0.000    3.750 
#    0.000    4.375    0.000    3.000    0.000    0.000 
#    0.000    0.000    0.000    0.000    0.000    0.000 
#
# Total GULP energy -357208.178097 kJ/mol
# GULP energy per Si atom -5581.377783 kJ/mol
# Density = 1.767491 g / cm^3
# Si number density = 17.715226 Si / 1000 Ang^3
#
#
#
# Elastic Constant Matrix: (Units=GPa)
#
#
# Indices 1 2 3 4 5 6 
#
# 1 106.2598 75.8443 30.6217 0.0000 0.0000 0.0000
# 2 75.8443 166.8222 38.2383 0.0000 0.0000 0.0000
# 3 30.6217 38.2383 32.4851 0.0000 0.0000 0.0000
# 4 0.0000 0.0000 0.0000 26.5981 0.0000 0.0000
# 5 0.0000 0.0000 0.0000 0.0000 23.8526 0.0000
# 6 0.0000 0.0000 0.0000 0.0000 0.0000 30.6521
#
#
#
# Elastic Compliance Matrix: (Units=1/GPa)
#
#
# Indices 1 2 3 4 5 6 
#
# 1 0.015530 -0.005074 -0.008667 0.000000 0.000000 0.000000
# 2 -0.005074 0.009867 -0.006832 0.000000 0.000000 0.000000
# 3 -0.008667 -0.006832 0.046994 0.000000 0.000000 0.000000
# 4 0.000000 0.000000 0.000000 0.037597 0.000000 0.000000
# 5 0.000000 0.000000 0.000000 0.000000 0.041924 0.000000
# 6 0.000000 0.000000 0.000000 0.000000 0.000000 0.032624
#
#
# Mechanical properties :
#
#
# Convention : Reuss Voigt Hill
#
# Bulk Modulus (GPa) = 32.00302 66.10841 49.05571
# Shear Modulus (GPa) = 21.17771 26.94473 24.06122
#
# Velocity S-wave (km/s) = 3.46128 3.90422 3.68941
# Velocity P-wave (km/s) = 5.83767 7.59751 6.77498
#
# Compressibility (1/GPa) = 0.03124705
#
# Stress axis : x y z
#
# Youngs Moduli (GPa) = 64.39097 101.34535 21.27914
#
# Poissons Ratio (x) = 0.51424 0.18442
# Poissons Ratio (y) = 0.32673 0.14537
# Poissons Ratio (z) = 0.55805 0.69236
#
# Static dielectric constant tensor:
#      x y z
#    x 1.581160 0.000000 0.000000 
#    y 0.000000 1.609870 0.000000 
#    z 0.000000 0.000000 1.598500 
# 
# From -- ./inp_files/9322.got.cif
#   From: 2010.05.17/outbox.cif.g08.bks.cpg/sg58_5_cif.got.tgz:9322.got - 2010.06.03 14:20:14.
