data_PCOD9441577
_publ_section_title
;
Structure prediction by ZEFSAII (Michael W. Deem and Ramdas Pophale) SiO2 
 PCOD9441577
Probable space group: P N N M
;
_chemical_formula_sum "Si O2"
_cell_formula_units_Z 64
_cell_length_a 6.706458
_cell_length_b 32.012204
_cell_length_c 16.851244
_cell_angle_alpha 90.000000
_cell_angle_beta 90.000000
_cell_angle_gamma 90.000000
_cell_volume 3617.768325
_symmetry_space_group_name_H-M "P N N M"
_symmetry_group_IT_number 58
_symmetry_cell_setting 'orthorhombic'
loop_
_space_group_symop_operation_xyz
x,y,z
-x,-y,z
1/2+x,1/2-y,1/2-z
1/2-x,1/2+y,1/2-z
-x,-y,-z
x,y,-z
1/2-x,1/2+y,1/2+z
1/2+x,1/2-y,1/2+z
loop_
_atom_site_type_symbol
_atom_site_label
_atom_site_fract_x
_atom_site_fract_y
_atom_site_fract_z
Si Si1 0.794217 0.738046 0.407854
Si Si2 0.475131 0.454597 0.782770
Si Si3 0.255970 0.086381 0.409329
Si Si4 0.859875 0.540629 0.913145
Si Si5 0.950148 0.322021 0.700172
Si Si6 0.563569 0.317833 0.592528
Si Si7 0.642987 0.325693 0.839994
Si Si8 0.839957 0.132405 0.782598
O O1 0.839015 0.725282 0.500000
O O2 0.559128 0.725973 0.396390
O O3 0.864991 0.785368 0.395420
O O4 0.908610 0.713252 0.338002
O O5 0.500000 0.500000 0.743055
O O6 0.658534 0.441413 0.839813
O O7 0.296693 0.460189 0.844585
O O8 0.415964 0.414556 0.730954
O O9 0.200092 0.074380 0.500000
O O10 0.492677 0.079801 0.404879
O O11 0.191475 0.133271 0.390655
O O12 0.000000 0.500000 0.911026
O O13 0.763390 0.541820 0.000000
O O14 0.773118 0.324484 0.635879
O O15 0.825896 0.315247 0.780357
O O16 0.102572 0.360170 0.717218
O O17 0.589069 0.323951 0.500000
O O18 0.417778 0.351232 0.633099
O O19 0.452888 0.338656 0.784397
#
# Coordination Sequence:
#
# PCOD9441577 Si02
#       8
#     8   8   8   8   8   8   8   8
#     4  10  21  34  53  80 107 137 179 220 262 314
#     4  11  20  33  53  76 105 138 178 221 265 315
#     4  10  20  34  49  71 105 143 180 218 263 311
#     4  10  19  30  47  72  99 137 183 219 254 298
#     4  10  20  34  55  75 105 138 177 219 264 313
#     4   9  19  37  58  80 102 132 176 221 264 318
#     4  10  21  33  52  74 109 143 177 216 265 314
#     4   9  21  36  52  82 106 139 178 216 268 324
#
# _framework density 17.690463999999999
#
# number of rings (size 3 to 8) (size 9 to 14) (size 15 to 20)
#    0.000    2.125    1.250    1.875    5.250    1.000 
#    0.000    0.000    0.000    4.875    0.000    0.875 
#    0.000    0.000    0.000    0.000    0.000    0.000 
#
# Total GULP energy -356298.227767 kJ/mol
# GULP energy per Si atom -5567.159809 kJ/mol
# Density = 1.765020 g / cm^3
# Si number density = 17.690464 Si / 1000 Ang^3
#
#
#
# Elastic Constant Matrix: (Units=GPa)
#
#
# Indices 1 2 3 4 5 6 
#
# 1 60.9533 -1.7221 6.8217 0.0000 0.0000 0.0000
# 2 -1.7221 79.1842 3.7134 0.0000 0.0000 0.0000
# 3 6.8217 3.7134 32.0354 0.0000 0.0000 0.0000
# 4 0.0000 0.0000 0.0000 14.8469 0.0000 0.0000
# 5 0.0000 0.0000 0.0000 0.0000 19.8584 0.0000
# 6 0.0000 0.0000 0.0000 0.0000 0.0000 16.9281
#
#
#
# Elastic Compliance Matrix: (Units=1/GPa)
#
#
# Indices 1 2 3 4 5 6 
#
# 1 0.016829 0.000537 -0.003646 0.000000 0.000000 0.000000
# 2 0.000537 0.012715 -0.001588 0.000000 0.000000 0.000000
# 3 -0.003646 -0.001588 0.032176 0.000000 0.000000 0.000000
# 4 0.000000 0.000000 0.000000 0.067354 0.000000 0.000000
# 5 0.000000 0.000000 0.000000 0.000000 0.050357 0.000000
# 6 0.000000 0.000000 0.000000 0.000000 0.000000 0.059073
#
#
# Mechanical properties :
#
#
# Convention : Reuss Voigt Hill
#
# Bulk Modulus (GPa) = 19.11101 21.08876 20.09988
# Shear Modulus (GPa) = 18.84374 21.21735 20.03054
#
# Velocity S-wave (km/s) = 3.26727 3.46694 3.36859
# Velocity P-wave (km/s) = 5.00598 5.28896 5.14942
#
# Compressibility (1/GPa) = 0.05232587
#
# Stress axis : x y z
#
# Youngs Moduli (GPa) = 59.42047 78.64762 31.07910
#
# Poissons Ratio (x) = -0.04223 0.11331
# Poissons Ratio (y) = -0.03191 0.04936
# Poissons Ratio (z) = 0.21664 0.12491
#
# Static dielectric constant tensor:
#      x y z
#    x 1.646820 0.000000 0.000000 
#    y 0.000000 1.654090 0.000000 
#    z 0.000000 0.000000 1.550350 
# 
# From -- ./inp_files/24507.got.cif
#   From: 2010.05.17/outbox.cif.g08.bks.cpg/sg58_13_cif.got.tgz:24507.got - 2010.06.03 14:20:14.
