data_PCOD9441614
_publ_section_title
;
Structure prediction by ZEFSAII (Michael W. Deem and Ramdas Pophale) SiO2 
 PCOD9441614
Probable space group: P N N M
;
_chemical_formula_sum "Si O2"
_cell_formula_units_Z 56
_cell_length_a 22.996138
_cell_length_b 18.115865
_cell_length_c 8.933714
_cell_angle_alpha 90.000000
_cell_angle_beta 90.000000
_cell_angle_gamma 90.000000
_cell_volume 3721.739972
_symmetry_space_group_name_H-M "P N N M"
_symmetry_group_IT_number 58
_symmetry_cell_setting 'orthorhombic'
loop_
_space_group_symop_operation_xyz
x,y,z
-x,-y,z
1/2+x,1/2-y,1/2-z
1/2-x,1/2+y,1/2-z
-x,-y,-z
x,y,-z
1/2-x,1/2+y,1/2+z
1/2+x,1/2-y,1/2+z
loop_
_atom_site_type_symbol
_atom_site_label
_atom_site_fract_x
_atom_site_fract_y
_atom_site_fract_z
Si Si1 0.684427 0.721833 0.672389
Si Si2 0.932764 0.508162 0.820549
Si Si3 0.152482 0.376013 0.320118
Si Si4 0.317386 0.717068 0.827539
Si Si5 0.657006 0.879870 0.679818
Si Si6 0.723615 0.579286 0.177764
Si Si7 0.779682 0.926234 0.822456
O O1 0.671251 0.702387 0.500000
O O2 0.750767 0.752840 0.675240
O O3 0.647786 0.793765 0.719201
O O4 0.684903 0.649230 0.772667
O O5 0.900083 0.574312 0.737139
O O6 0.896539 0.433547 0.788696
O O7 0.000000 0.500000 0.778740
O O8 0.929484 0.520827 0.000000
O O9 0.158880 0.380192 0.500000
O O10 0.146515 0.289232 0.280240
O O11 0.211972 0.406011 0.245867
O O12 0.317816 0.644009 0.728491
O O13 0.330759 0.698355 0.000000
O O14 0.668645 0.881840 0.500000
O O15 0.714309 0.909426 0.762937
O O16 0.701691 0.502577 0.246222
O O17 0.728053 0.574371 0.000000
O O18 0.779004 0.933495 0.000000
#
# Coordination Sequence:
#
# PCOD9441614 Si02
#       7
#     8   8   8   8   8   8   8
#     4   8  15  27  41  58  81 110 144 176 212 257
#     4  10  20  32  47  66  87 117 155 188 220 259
#     4  10  19  31  45  61  83 114 148 184 223 258
#     4   8  16  29  42  58  83 112 142 175 216 262
#     4   9  17  30  44  58  83 116 144 180 222 254
#     4  11  19  27  41  61  87 116 144 176 216 259
#     4  11  19  26  41  64  87 113 146 177 210 259
#
# _framework density 15.046725
#
# number of rings (size 3 to 8) (size 9 to 14) (size 15 to 20)
#    0.000    2.429    1.429    4.714    0.000    6.000 
#    0.000    0.000    0.000    0.000    0.000    0.000 
#    0.000    1.143    0.000   13.143    0.000    3.286 
#
# Total GULP energy -312030.873402 kJ/mol
# GULP energy per Si atom -5571.979882 kJ/mol
# Density = 1.501248 g / cm^3
# Si number density = 15.046725 Si / 1000 Ang^3
#
#
#
# Elastic Constant Matrix: (Units=GPa)
#
#
# Indices 1 2 3 4 5 6 
#
# 1 45.1972 42.9624 22.3586 0.0000 0.0000 0.0000
# 2 42.9624 151.2146 69.5424 0.0000 0.0000 0.0000
# 3 22.3586 69.5424 75.4753 0.0000 0.0000 0.0000
# 4 0.0000 0.0000 0.0000 26.2229 0.0000 0.0000
# 5 0.0000 0.0000 0.0000 0.0000 -11.8081 0.0000
# 6 0.0000 0.0000 0.0000 0.0000 0.0000 11.9274
#
#
#
# Elastic Compliance Matrix: (Units=1/GPa)
#
#
# Indices 1 2 3 4 5 6 
#
# 1 0.030455 -0.007815 -0.001821 0.000000 0.000000 0.000000
# 2 -0.007815 0.013482 -0.010107 0.000000 0.000000 0.000000
# 3 -0.001821 -0.010107 0.023101 0.000000 0.000000 0.000000
# 4 0.000000 0.000000 0.000000 0.038135 0.000000 0.000000
# 5 0.000000 0.000000 0.000000 0.000000 -0.084688 0.000000
# 6 0.000000 0.000000 0.000000 0.000000 0.000000 0.083841
#
#
# Mechanical properties :
#
#
# Convention : Reuss Voigt Hill
#
# Bulk Modulus (GPa) = 36.29528 60.17932 48.23730
# Shear Modulus (GPa) = 32.68087 14.40334 23.54210
#
# Velocity S-wave (km/s) = 4.66548 3.09729 3.95979
# Velocity P-wave (km/s) = 7.29359 7.27136 7.28248
#
# Compressibility (1/GPa) = 0.02755179
#
# Stress axis : x y z
#
# Youngs Moduli (GPa) = 32.83537 74.17561 43.28830
#
# Poissons Ratio (x) = 0.57971 0.07882
# Poissons Ratio (y) = 0.25662 0.43750
# Poissons Ratio (z) = 0.05979 0.74966
#
# Static dielectric constant tensor:
#      x y z
#    x 1.464660 0.000000 0.000000 
#    y 0.000000 1.542300 0.000000 
#    z 0.000000 0.000000 1.502910 
# 
# From -- ./inp_files/8149.got.cif
#   From: 2010.05.17/outbox.cif.g08.bks.cpg/sg58_5_cif.got.tgz:8149.got - 2010.06.03 14:20:14.
