data_PCOD9441539
_publ_section_title
;
Structure prediction by ZEFSAII (Michael W. Deem and Ramdas Pophale) SiO2 
 PCOD9441539
Probable space group: P N N M
;
_chemical_formula_sum "Si O2"
_cell_formula_units_Z 48
_cell_length_a 12.612282
_cell_length_b 5.242911
_cell_length_c 29.303060
_cell_angle_alpha 90.000000
_cell_angle_beta 90.000000
_cell_angle_gamma 90.000000
_cell_volume 1937.666953
_symmetry_space_group_name_H-M "P N N M"
_symmetry_group_IT_number 58
_symmetry_cell_setting 'orthorhombic'
loop_
_space_group_symop_operation_xyz
x,y,z
-x,-y,z
1/2+x,1/2-y,1/2-z
1/2-x,1/2+y,1/2-z
-x,-y,-z
x,y,-z
1/2-x,1/2+y,1/2+z
1/2+x,1/2-y,1/2+z
loop_
_atom_site_type_symbol
_atom_site_label
_atom_site_fract_x
_atom_site_fract_y
_atom_site_fract_z
Si Si1 0.624618 0.469051 0.952489
Si Si2 0.629582 0.652217 0.286632
Si Si3 0.893891 0.634102 0.369080
Si Si4 0.156679 0.371894 0.947698
Si Si5 0.655930 0.601511 0.610733
Si Si6 0.382146 0.844790 0.233010
O O1 0.500000 0.500000 0.957106
O O2 0.715796 0.681323 0.952438
O O3 0.629425 0.367377 0.901670
O O4 0.653968 0.318400 0.000000
O O5 0.607086 0.680266 0.340363
O O6 0.592405 0.879845 0.253833
O O7 0.756094 0.661653 0.277585
O O8 0.596783 0.374975 0.269281
O O9 0.776390 0.511195 0.373007
O O10 0.924283 0.706316 0.317745
O O11 0.000000 0.500000 0.388258
O O12 0.112092 0.145426 0.916178
O O13 0.150263 0.650334 0.922917
O O14 0.115722 0.375723 0.000000
#
# Coordination Sequence:
#
# PCOD9441539 Si02
#       6
#     8   8   8   8   8   8
#     4   9  18  30  43  60  86 121 159 196 230 265
#     4   9  17  31  47  64  82 108 147 184 223 267
#     4  10  20  30  44  65  89 116 153 195 236 269
#     4  10  19  30  44  65  90 116 149 186 225 263
#     4  10  19  31  48  65  87 119 153 188 222 265
#     4   9  18  30  46  64  84 107 141 191 230 265
#
# _framework density 24.77206
#
# number of rings (size 3 to 8) (size 9 to 14) (size 15 to 20)
#    0.000    2.500    0.000    2.500    0.000   10.333 
#    0.000    0.000    0.000    0.000    0.000    0.000 
#    0.000    0.000    0.000    0.000    0.000   58.333 
#
# Total GULP energy -267305.012610 kJ/mol
# GULP energy per Si atom -5568.854429 kJ/mol
# Density = 2.471568 g / cm^3
# Si number density = 24.772060 Si / 1000 Ang^3
#
#
#
# Elastic Constant Matrix: (Units=GPa)
#
#
# Indices 1 2 3 4 5 6 
#
# 1 50.0998 -4.9114 -5.7294 0.0000 0.0000 0.0000
# 2 -4.9114 108.0375 81.5722 0.0000 0.0000 0.0000
# 3 -5.7294 81.5722 247.5393 0.0000 0.0000 0.0000
# 4 0.0000 0.0000 0.0000 38.2767 0.0000 0.0000
# 5 0.0000 0.0000 0.0000 0.0000 37.6515 0.0000
# 6 0.0000 0.0000 0.0000 0.0000 0.0000 30.8694
#
#
#
# Elastic Compliance Matrix: (Units=1/GPa)
#
#
# Indices 1 2 3 4 5 6 
#
# 1 0.020058 0.000747 0.000218 0.000000 0.000000 0.000000
# 2 0.000747 0.012350 -0.004052 0.000000 0.000000 0.000000
# 3 0.000218 -0.004052 0.005380 0.000000 0.000000 0.000000
# 4 0.000000 0.000000 0.000000 0.026126 0.000000 0.000000
# 5 0.000000 0.000000 0.000000 0.000000 0.026559 0.000000
# 6 0.000000 0.000000 0.000000 0.000000 0.000000 0.032395
#
#
# Mechanical properties :
#
#
# Convention : Reuss Voigt Hill
#
# Bulk Modulus (GPa) = 31.63148 60.83771 46.23459
# Shear Modulus (GPa) = 35.82181 43.67587 39.74884
#
# Velocity S-wave (km/s) = 3.80683 4.20350 4.01007
# Velocity P-wave (km/s) = 5.66739 6.94057 6.33604
#
# Compressibility (1/GPa) = 0.03161408
#
# Stress axis : x y z
#
# Youngs Moduli (GPa) = 49.85458 80.97389 185.86749
#
# Poissons Ratio (x) = -0.06051 -0.04052
# Poissons Ratio (y) = -0.03725 0.75319
# Poissons Ratio (z) = -0.01087 0.32813
#
# Static dielectric constant tensor:
#      x y z
#    x 2.185330 0.000000 0.000000 
#    y 0.000000 1.968150 0.000000 
#    z 0.000000 0.000000 1.946110 
# 
# From -- ./inp_files/30958.got.cif
#   From: 2010.05.17/outbox.cif.g08.bks.cpg/sg58_16_cif.got.tgz:30958.got - 2010.06.03 14:20:14.
