data_PCOD9441206
_publ_section_title
;
Structure prediction by ZEFSAII (Michael W. Deem and Ramdas Pophale) SiO2 
 PCOD9441206
Probable space group: P N N M
;
_chemical_formula_sum "Si O2"
_cell_formula_units_Z 36
_cell_length_a 13.764783
_cell_length_b 13.319532
_cell_length_c 8.054568
_cell_angle_alpha 90.000000
_cell_angle_beta 90.000000
_cell_angle_gamma 90.000000
_cell_volume 1476.728264
_symmetry_space_group_name_H-M "P N N M"
_symmetry_group_IT_number 58
_symmetry_cell_setting 'orthorhombic'
loop_
_space_group_symop_operation_xyz
x,y,z
-x,-y,z
1/2+x,1/2-y,1/2-z
1/2-x,1/2+y,1/2-z
-x,-y,-z
x,y,-z
1/2-x,1/2+y,1/2+z
1/2+x,1/2-y,1/2+z
loop_
_atom_site_type_symbol
_atom_site_label
_atom_site_fract_x
_atom_site_fract_y
_atom_site_fract_z
Si Si1 0.447732 0.607878 0.500000
Si Si2 0.323448 0.137908 0.678727
Si Si3 0.787301 0.041855 0.000000
Si Si4 0.394557 0.730800 0.805791
Si Si5 0.910192 0.425285 0.500000
Si Si6 0.777712 0.598525 0.818683
O O1 0.500000 0.500000 0.500000
O O2 0.338775 0.564561 0.500000
O O3 0.456644 0.669076 0.671081
O O4 0.364751 0.170096 0.500000
O O5 0.217331 0.187950 0.698989
O O6 0.393630 0.143266 0.836985
O O7 0.300537 0.018941 0.666924
O O8 0.800418 0.103768 0.168802
O O9 0.676334 0.007600 0.000000
O O10 0.373712 0.841400 0.734985
O O11 0.423967 0.728034 0.000000
O O12 0.000000 0.500000 0.500000
O O13 0.745117 0.635139 0.000000
#
# Coordination Sequence:
#
# PCOD9441206 Si02
#       6
#     4   8   4   8   4   8
#     4  12  24  40  64  85 128 167 208 252 304 365
#     4   9  19  34  54  84 114 148 188 239 296 351
#     4  10  20  40  58  83 119 157 195 247 300 351
#     4  11  20  35  62  90 115 157 205 243 303 359
#     4  10  18  32  60  80 108 143 187 234 297 345
#     4  10  18  31  61  86 110 153 196 241 293 353
#
# _framework density 24.378216999999999
#
# number of rings (size 3 to 8) (size 9 to 14) (size 15 to 20)
#    0.000    1.778    6.667    0.000    0.000    0.889 
#    0.000    0.000    9.778    0.000    0.000    0.000 
#    0.000    0.000    0.000    0.000    0.000    0.000 
#
# Total GULP energy -200833.495682 kJ/mol
# GULP energy per Si atom -5578.708213 kJ/mol
# Density = 2.432273 g / cm^3
# Si number density = 24.378217 Si / 1000 Ang^3
#
#
#
# Elastic Constant Matrix: (Units=GPa)
#
#
# Indices 1 2 3 4 5 6 
#
# 1 53.2373 -3.4784 4.4440 0.0000 0.0000 0.0000
# 2 -3.4784 75.8635 0.3258 0.0000 0.0000 0.0000
# 3 4.4440 0.3258 263.3983 0.0000 0.0000 0.0000
# 4 0.0000 0.0000 0.0000 36.5204 0.0000 0.0000
# 5 0.0000 0.0000 0.0000 0.0000 103.8399 0.0000
# 6 0.0000 0.0000 0.0000 0.0000 0.0000 29.9503
#
#
#
# Elastic Compliance Matrix: (Units=1/GPa)
#
#
# Indices 1 2 3 4 5 6 
#
# 1 0.018867 0.000866 -0.000319 0.000000 0.000000 0.000000
# 2 0.000866 0.013221 -0.000031 0.000000 0.000000 0.000000
# 3 -0.000319 -0.000031 0.003802 0.000000 0.000000 0.000000
# 4 0.000000 0.000000 0.000000 0.027382 0.000000 0.000000
# 5 0.000000 0.000000 0.000000 0.000000 0.009630 0.000000
# 6 0.000000 0.000000 0.000000 0.000000 0.000000 0.033389
#
#
# Mechanical properties :
#
#
# Convention : Reuss Voigt Hill
#
# Bulk Modulus (GPa) = 27.08367 43.89799 35.49083
# Shear Modulus (GPa) = 42.52904 60.14263 51.33583
#
# Velocity S-wave (km/s) = 4.18131 4.97234 4.59389
# Velocity P-wave (km/s) = 5.86899 7.14225 6.53670
#
# Compressibility (1/GPa) = 0.03692262
#
# Stress axis : x y z
#
# Youngs Moduli (GPa) = 53.00237 75.63476 263.02234
#
# Poissons Ratio (x) = -0.06553 0.08401
# Poissons Ratio (y) = -0.04592 0.00815
# Poissons Ratio (z) = 0.01693 0.00234
#
# Static dielectric constant tensor:
#      x y z
#    x 0.744180 0.000000 0.000000 
#    y 0.000000 1.955970 0.000000 
#    z 0.000000 0.000000 2.155200 
# 
# From -- ./inp_files/5332.got.cif
#   From: 2010.05.17/outbox.cif.g08.bks.cpg/sg58_3_cif.got.tgz:5332.got - 2010.06.03 14:20:14.
