data_PCOD9441980
_publ_section_title
;
Structure prediction by ZEFSAII (Michael W. Deem and Ramdas Pophale) SiO2 
 PCOD9441980
Probable space group: P N N M
;
_chemical_formula_sum "Si O2"
_cell_formula_units_Z 64
_cell_length_a 20.605358
_cell_length_b 5.084195
_cell_length_c 33.511571
_cell_angle_alpha 90.000000
_cell_angle_beta 90.000000
_cell_angle_gamma 90.000000
_cell_volume 3510.727744
_symmetry_space_group_name_H-M "P N N M"
_symmetry_group_IT_number 58
_symmetry_cell_setting 'orthorhombic'
loop_
_space_group_symop_operation_xyz
x,y,z
-x,-y,z
1/2+x,1/2-y,1/2-z
1/2-x,1/2+y,1/2-z
-x,-y,-z
x,y,-z
1/2-x,1/2+y,1/2+z
1/2+x,1/2-y,1/2+z
loop_
_atom_site_type_symbol
_atom_site_label
_atom_site_fract_x
_atom_site_fract_y
_atom_site_fract_z
Si Si1 0.575409 0.972586 0.659712
Si Si2 0.200681 0.885740 0.643351
Si Si3 0.335924 0.903438 0.097974
Si Si4 0.328747 0.846187 0.406496
Si Si5 0.708257 0.635684 0.452574
Si Si6 0.922245 0.973326 0.212666
Si Si7 0.707616 0.574376 0.762672
Si Si8 0.955384 0.756171 0.454867
O O1 0.589087 0.183356 0.694863
O O2 0.500000 0.000000 0.651168
O O3 0.613278 0.047702 0.620147
O O4 0.588185 0.683424 0.676989
O O5 0.154407 0.677426 0.620960
O O6 0.186832 0.181924 0.629237
O O7 0.271007 0.810588 0.625709
O O8 0.199693 0.865344 0.690562
O O9 0.279732 0.932400 0.064594
O O10 0.398385 0.797704 0.075559
O O11 0.307536 0.071399 0.437607
O O12 0.337561 0.575360 0.430228
O O13 0.705381 0.613663 0.500000
O O14 0.864496 0.032656 0.243969
O O15 0.000000 0.000000 0.224616
O O16 0.747835 0.814601 0.743014
O O17 0.930275 0.808175 0.500000
O O18 0.000000 0.500000 0.456413
O O19 0.000000 0.000000 0.443185
#
# Coordination Sequence:
#
# PCOD9441980 Si02
#       8
#     8   8   8   8   8   8   8   8
#     4  10  20  36  59  83 107 140 179 220 268 317
#     4  10  21  34  53  80 105 139 177 218 270 321
#     4  10  20  36  53  74 106 137 177 221 264 319
#     4  10  19  33  53  78 108 134 173 221 260 312
#     4  10  20  33  53  77 104 139 172 213 265 316
#     4  10  21  37  57  82 112 145 185 228 271 326
#     4  12  23  37  59  85 115 147 184 230 282 330
#     4  10  20  34  54  78 103 136 180 228 273 316
#
# _framework density 18.229838000000001
#
# number of rings (size 3 to 8) (size 9 to 14) (size 15 to 20)
#    0.000    1.750    0.000    5.250    0.000    2.000 
#    0.000    5.625    0.000    2.250    0.000    0.000 
#    0.000    0.000    0.000    0.000    0.000    0.000 
#
# Total GULP energy -357187.097400 kJ/mol
# GULP energy per Si atom -5581.048397 kJ/mol
# Density = 1.818835 g / cm^3
# Si number density = 18.229838 Si / 1000 Ang^3
#
#
#
# Elastic Constant Matrix: (Units=GPa)
#
#
# Indices 1 2 3 4 5 6 
#
# 1 62.9145 18.4639 52.1212 0.0000 0.0000 0.0000
# 2 18.4639 63.2957 0.0182 0.0000 0.0000 0.0000
# 3 52.1212 0.0182 105.8197 0.0000 0.0000 0.0000
# 4 0.0000 0.0000 0.0000 16.1550 0.0000 0.0000
# 5 0.0000 0.0000 0.0000 0.0000 14.9591 0.0000
# 6 0.0000 0.0000 0.0000 0.0000 0.0000 24.5034
#
#
#
# Elastic Compliance Matrix: (Units=1/GPa)
#
#
# Indices 1 2 3 4 5 6 
#
# 1 0.031386 -0.009151 -0.015457 0.000000 0.000000 0.000000
# 2 -0.009151 0.018467 0.004504 0.000000 0.000000 0.000000
# 3 -0.015457 0.004504 0.017063 0.000000 0.000000 0.000000
# 4 0.000000 0.000000 0.000000 0.061900 0.000000 0.000000
# 5 0.000000 0.000000 0.000000 0.000000 0.066849 0.000000
# 6 0.000000 0.000000 0.000000 0.000000 0.000000 0.040811
#
#
# Mechanical properties :
#
#
# Convention : Reuss Voigt Hill
#
# Bulk Modulus (GPa) = 37.44344 41.47071 39.45707
# Shear Modulus (GPa) = 17.50782 21.88527 19.69655
#
# Velocity S-wave (km/s) = 3.10238 3.46861 3.29060
# Velocity P-wave (km/s) = 5.78077 6.23216 6.01070
#
# Compressibility (1/GPa) = 0.02670695
#
# Stress axis : x y z
#
# Youngs Moduli (GPa) = 31.86153 54.15056 58.60716
#
# Poissons Ratio (x) = 0.49554 0.90592
# Poissons Ratio (y) = 0.29157 -0.26398
# Poissons Ratio (z) = 0.49250 -0.24390
#
# Static dielectric constant tensor:
#      x y z
#    x 1.639040 0.000000 0.000000 
#    y 0.000000 1.649120 0.000000 
#    z 0.000000 0.000000 1.602450 
# 
# From -- ./inp_files/35152.got.cif
#   From: 2010.05.17/outbox.cif.g08.bks.cpg/sg58_18_cif.got.tgz:35152.got - 2010.06.03 14:20:14.
