data_PCOD9441331
_publ_section_title
;
Structure prediction by ZEFSAII (Michael W. Deem and Ramdas Pophale) SiO2 
 PCOD9441331
Probable space group: P N N M
;
_chemical_formula_sum "Si O2"
_cell_formula_units_Z 64
_cell_length_a 8.584659
_cell_length_b 20.034216
_cell_length_c 16.840890
_cell_angle_alpha 90.000000
_cell_angle_beta 90.000000
_cell_angle_gamma 90.000000
_cell_volume 2896.412678
_symmetry_space_group_name_H-M "P N N M"
_symmetry_group_IT_number 58
_symmetry_cell_setting 'orthorhombic'
loop_
_space_group_symop_operation_xyz
x,y,z
-x,-y,z
1/2+x,1/2-y,1/2-z
1/2-x,1/2+y,1/2-z
-x,-y,-z
x,y,-z
1/2-x,1/2+y,1/2+z
1/2+x,1/2-y,1/2+z
loop_
_atom_site_type_symbol
_atom_site_label
_atom_site_fract_x
_atom_site_fract_y
_atom_site_fract_z
Si Si1 0.971728 0.360642 0.417389
Si Si2 0.073098 0.883455 0.655653
Si Si3 0.390161 0.610806 0.409209
Si Si4 0.634959 0.045396 0.358873
Si Si5 0.850112 0.774975 0.586270
Si Si6 0.406273 0.289045 0.699882
Si Si7 0.469670 0.146354 0.747132
Si Si8 0.688361 0.446028 0.744416
O O1 0.025638 0.394337 0.500000
O O2 0.785568 0.361537 0.416923
O O3 0.030003 0.383935 0.331241
O O4 0.028079 0.285226 0.419847
O O5 0.205997 0.922797 0.607185
O O6 0.143196 0.835405 0.725611
O O7 0.951882 0.839338 0.606574
O O8 0.964639 0.933649 0.704584
O O9 0.445219 0.597506 0.500000
O O10 0.496909 0.663796 0.360900
O O11 0.360775 0.549351 0.347781
O O12 0.544124 0.108937 0.326009
O O13 0.500000 0.000000 0.399035
O O14 0.702067 0.001383 0.284634
O O15 0.772721 0.784019 0.500000
O O16 0.725041 0.748345 0.648921
O O17 0.493048 0.225278 0.738844
O O18 0.289137 0.122838 0.748318
#
# Coordination Sequence:
#
# PCOD9441331 Si02
#       8
#     8   8   8   8   8   8   8   8
#     4   9  18  31  49  77 120 152 182 228 288 356
#     4  11  21  34  62  84 115 151 196 243 299 351
#     4   9  19  34  55  83 120 160 191 239 298 358
#     4  10  22  36  57  84 109 149 200 256 282 340
#     4  11  22  35  53  87 123 153 187 238 304 369
#     4  11  21  33  58  88 121 151 192 241 303 366
#     4  10  18  33  55  83 116 147 195 243 297 351
#     4   9  19  36  54  81 111 151 204 243 287 344
#
# _framework density 22.096298999999998
#
# number of rings (size 3 to 8) (size 9 to 14) (size 15 to 20)
#    0.000    2.000    2.500    1.500    1.750    0.000 
#    0.000    0.625    0.000   12.375    0.000    0.000 
#    0.000    0.000    0.000    0.000    0.000    0.000 
#
# Total GULP energy -356273.960140 kJ/mol
# GULP energy per Si atom -5566.780627 kJ/mol
# Density = 2.204601 g / cm^3
# Si number density = 22.096299 Si / 1000 Ang^3
#
#
#
# Elastic Constant Matrix: (Units=GPa)
#
#
# Indices 1 2 3 4 5 6 
#
# 1 54.0268 5.2697 16.3020 0.0000 0.0000 0.0000
# 2 5.2697 47.6955 -2.1974 0.0000 0.0000 0.0000
# 3 16.3020 -2.1974 63.8407 0.0000 0.0000 0.0000
# 4 0.0000 0.0000 0.0000 4.2855 0.0000 0.0000
# 5 0.0000 0.0000 0.0000 0.0000 24.9874 0.0000
# 6 0.0000 0.0000 0.0000 0.0000 0.0000 37.7883
#
#
#
# Elastic Compliance Matrix: (Units=1/GPa)
#
#
# Indices 1 2 3 4 5 6 
#
# 1 0.020346 -0.002491 -0.005281 0.000000 0.000000 0.000000
# 2 -0.002491 0.021305 0.001369 0.000000 0.000000 0.000000
# 3 -0.005281 0.001369 0.017060 0.000000 0.000000 0.000000
# 4 0.000000 0.000000 0.000000 0.233343 0.000000 0.000000
# 5 0.000000 0.000000 0.000000 0.000000 0.040020 0.000000
# 6 0.000000 0.000000 0.000000 0.000000 0.000000 0.026463
#
#
# Mechanical properties :
#
#
# Convention : Reuss Voigt Hill
#
# Bulk Modulus (GPa) = 21.78441 22.70127 22.24284
# Shear Modulus (GPa) = 12.93179 23.15817 18.04498
#
# Velocity S-wave (km/s) = 2.42181 3.24088 2.86081
# Velocity P-wave (km/s) = 4.20719 4.92956 4.58263
#
# Compressibility (1/GPa) = 0.04590438
#
# Stress axis : x y z
#
# Youngs Moduli (GPa) = 49.15001 46.93808 58.61770
#
# Poissons Ratio (x) = 0.11693 0.30957
# Poissons Ratio (y) = 0.12244 -0.08028
# Poissons Ratio (z) = 0.25957 -0.06428
#
# Static dielectric constant tensor:
#      x y z
#    x 1.862200 0.000000 0.000000 
#    y 0.000000 1.818430 0.000000 
#    z 0.000000 0.000000 1.918170 
# 
# From -- ./inp_files/25673.got.cif
#   From: 2010.05.17/outbox.cif.g08.bks.cpg/sg58_13_cif.got.tgz:25673.got - 2010.06.03 14:20:14.
