data_PCOD9441808
_publ_section_title
;
Structure prediction by ZEFSAII (Michael W. Deem and Ramdas Pophale) SiO2 
 PCOD9441808
Probable space group: P N N M
;
_chemical_formula_sum "Si O2"
_cell_formula_units_Z 64
_cell_length_a 21.197147
_cell_length_b 20.164453
_cell_length_c 8.739083
_cell_angle_alpha 90.000000
_cell_angle_beta 90.000000
_cell_angle_gamma 90.000000
_cell_volume 3735.336410
_symmetry_space_group_name_H-M "P N N M"
_symmetry_group_IT_number 58
_symmetry_cell_setting 'orthorhombic'
loop_
_space_group_symop_operation_xyz
x,y,z
-x,-y,z
1/2+x,1/2-y,1/2-z
1/2-x,1/2+y,1/2-z
-x,-y,-z
x,y,-z
1/2-x,1/2+y,1/2+z
1/2+x,1/2-y,1/2+z
loop_
_atom_site_type_symbol
_atom_site_label
_atom_site_fract_x
_atom_site_fract_y
_atom_site_fract_z
Si Si1 0.936850 0.212118 0.315355
Si Si2 0.380837 0.426711 0.184485
Si Si3 0.069078 0.209965 0.818623
Si Si4 0.755641 0.426071 0.316473
Si Si5 0.312544 0.788333 0.816724
Si Si6 0.615658 0.424919 0.817075
Si Si7 0.259603 0.925942 0.183768
Si Si8 0.691141 0.786505 0.816024
O O1 0.942472 0.213681 0.500000
O O2 0.922127 0.136087 0.267884
O O3 0.875920 0.255603 0.271616
O O4 0.001990 0.234867 0.242557
O O5 0.403317 0.500278 0.230773
O O6 0.309879 0.417218 0.245486
O O7 0.378233 0.426385 0.000000
O O8 0.127109 0.252798 0.754579
O O9 0.078412 0.134790 0.759306
O O10 0.071051 0.210678 0.000000
O O11 0.743175 0.424586 0.500000
O O12 0.688968 0.417402 0.231220
O O13 0.780921 0.499333 0.277538
O O14 0.800550 0.364360 0.281219
O O15 0.304004 0.865243 0.769479
O O16 0.249011 0.751448 0.762527
O O17 0.317170 0.784297 0.000000
O O18 0.609519 0.419576 0.000000
O O19 0.253204 0.922370 0.000000
O O20 0.697475 0.777927 0.000000
#
# Coordination Sequence:
#
# PCOD9441808 Si02
#       8
#     8   8   8   8   8   8   8   8
#     4  10  21  37  54  76 107 143 179 219 265 318
#     4   9  18  32  52  77 108 142 176 211 255 316
#     4  12  25  38  52  73 104 143 184 228 270 315
#     4   9  17  31  52  81 111 138 170 210 261 314
#     4  11  21  34  55  80 107 140 178 221 264 313
#     4  10  19  32  51  77 107 142 178 214 258 313
#     4   9  18  31  51  80 111 138 170 215 260 309
#     4  10  19  33  57  82 107 138 174 217 264 317
#
# _framework density 17.133662999999999
#
# number of rings (size 3 to 8) (size 9 to 14) (size 15 to 20)
#    0.000    2.000    2.500    1.875    0.000    2.500 
#    0.000    2.500    0.000    0.750    0.000    5.250 
#    0.000    0.000    0.000    0.000    0.000    0.000 
#
# Total GULP energy -357124.537976 kJ/mol
# GULP energy per Si atom -5580.070906 kJ/mol
# Density = 1.709467 g / cm^3
# Si number density = 17.133663 Si / 1000 Ang^3
#
#
#
# Elastic Constant Matrix: (Units=GPa)
#
#
# Indices 1 2 3 4 5 6 
#
# 1 112.6036 61.6153 37.1534 0.0000 0.0000 0.0000
# 2 61.6153 108.2409 34.2823 0.0000 0.0000 0.0000
# 3 37.1534 34.2823 34.0535 0.0000 0.0000 0.0000
# 4 0.0000 0.0000 0.0000 18.3941 0.0000 0.0000
# 5 0.0000 0.0000 0.0000 0.0000 25.1884 0.0000
# 6 0.0000 0.0000 0.0000 0.0000 0.0000 19.9446
#
#
#
# Elastic Compliance Matrix: (Units=1/GPa)
#
#
# Indices 1 2 3 4 5 6 
#
# 1 0.015597 -0.005122 -0.011860 0.000000 0.000000 0.000000
# 2 -0.005122 0.015245 -0.009760 0.000000 0.000000 0.000000
# 3 -0.011860 -0.009760 0.052130 0.000000 0.000000 0.000000
# 4 0.000000 0.000000 0.000000 0.054365 0.000000 0.000000
# 5 0.000000 0.000000 0.000000 0.000000 0.039701 0.000000
# 6 0.000000 0.000000 0.000000 0.000000 0.000000 0.050139
#
#
# Mechanical properties :
#
#
# Convention : Reuss Voigt Hill
#
# Bulk Modulus (GPa) = 33.91072 57.88889 45.89981
# Shear Modulus (GPa) = 17.21231 20.82856 19.02044
#
# Velocity S-wave (km/s) = 3.17297 3.49040 3.33546
# Velocity P-wave (km/s) = 5.76701 7.07841 6.45609
#
# Compressibility (1/GPa) = 0.02948920
#
# Stress axis : x y z
#
# Youngs Moduli (GPa) = 64.11674 65.59383 19.18270
#
# Poissons Ratio (x) = 0.33597 0.22751
# Poissons Ratio (y) = 0.32840 0.18722
# Poissons Ratio (z) = 0.76042 0.64017
#
# Static dielectric constant tensor:
#      x y z
#    x 1.548670 0.000000 0.000000 
#    y 0.000000 1.616850 0.000000 
#    z 0.000000 0.000000 1.573730 
# 
# From -- ./inp_files/8250.got.cif
#   From: 2010.05.17/outbox.cif.g08.bks.cpg/sg58_5_cif.got.tgz:8250.got - 2010.06.03 14:20:14.
