data_PCOD9441511
_publ_section_title
;
Structure prediction by ZEFSAII (Michael W. Deem and Ramdas Pophale) SiO2 
 PCOD9441511
Probable space group: P N N M
;
_chemical_formula_sum "Si O2"
_cell_formula_units_Z 32
_cell_length_a 5.208915
_cell_length_b 17.533482
_cell_length_c 21.274571
_cell_angle_alpha 90.000000
_cell_angle_beta 90.000000
_cell_angle_gamma 90.000000
_cell_volume 1943.015449
_symmetry_space_group_name_H-M "P N N M"
_symmetry_group_IT_number 58
_symmetry_cell_setting 'orthorhombic'
loop_
_space_group_symop_operation_xyz
x,y,z
-x,-y,z
1/2+x,1/2-y,1/2-z
1/2-x,1/2+y,1/2-z
-x,-y,-z
x,y,-z
1/2-x,1/2+y,1/2+z
1/2+x,1/2-y,1/2+z
loop_
_atom_site_type_symbol
_atom_site_label
_atom_site_fract_x
_atom_site_fract_y
_atom_site_fract_z
Si Si1 0.254197 0.051509 0.926686
Si Si2 0.354558 0.667330 0.320052
Si Si3 0.572973 0.587724 0.795143
Si Si4 0.415571 0.174071 0.306374
O O1 0.240262 0.122959 0.880437
O O2 0.500000 0.000000 0.911047
O O3 0.272849 0.074054 0.000000
O O4 0.000000 0.000000 0.919423
O O5 0.532551 0.610860 0.278218
O O6 0.501047 0.745478 0.334266
O O7 0.132031 0.687162 0.268911
O O8 0.500000 0.500000 0.803615
O O9 0.354790 0.639552 0.828416
O O10 0.856519 0.613172 0.813951
#
# Coordination Sequence:
#
# PCOD9441511 Si02
#       4
#     8   8   8   8
#     4  10  23  36  50  73 100 138 179 204 233 290
#     4  10  20  31  50  66 102 127 164 205 251 290
#     4  10  19  29  44  69  95 124 157 191 248 302
#     4  10  20  30  44  71  94 128 161 200 251 303
#
# _framework density 16.469245999999998
#
# number of rings (size 3 to 8) (size 9 to 14) (size 15 to 20)
#    1.500    0.500    2.500    1.500    7.000    0.000 
#    0.000    0.000    0.000    0.000    0.000    0.000 
#    0.000    6.000    0.000    0.000    0.000    1.250 
#
# Total GULP energy -178167.889336 kJ/mol
# GULP energy per Si atom -5567.746542 kJ/mol
# Density = 1.643176 g / cm^3
# Si number density = 16.469246 Si / 1000 Ang^3
#
#
#
# Elastic Constant Matrix: (Units=GPa)
#
#
# Indices 1 2 3 4 5 6 
#
# 1 78.9688 8.2981 -2.5451 0.0000 0.0000 0.0000
# 2 8.2981 85.1474 23.4042 0.0000 0.0000 0.0000
# 3 -2.5451 23.4042 33.1689 0.0000 0.0000 0.0000
# 4 0.0000 0.0000 0.0000 44.3697 0.0000 0.0000
# 5 0.0000 0.0000 0.0000 0.0000 -10.6800 0.0000
# 6 0.0000 0.0000 0.0000 0.0000 0.0000 23.6846
#
#
#
# Elastic Compliance Matrix: (Units=1/GPa)
#
#
# Indices 1 2 3 4 5 6 
#
# 1 0.012938 -0.001903 0.002335 0.000000 0.000000 0.000000
# 2 -0.001903 0.014850 -0.010624 0.000000 0.000000 0.000000
# 3 0.002335 -0.010624 0.037824 0.000000 0.000000 0.000000
# 4 0.000000 0.000000 0.000000 0.022538 0.000000 0.000000
# 5 0.000000 0.000000 0.000000 0.000000 -0.093633 0.000000
# 6 0.000000 0.000000 0.000000 0.000000 0.000000 0.042221
#
#
# Mechanical properties :
#
#
# Convention : Reuss Voigt Hill
#
# Bulk Modulus (GPa) = 22.10943 28.39994 25.25469
# Shear Modulus (GPa) = 69.25234 22.68338 45.96786
#
# Velocity S-wave (km/s) = 6.49159 3.71525 5.28885
# Velocity P-wave (km/s) = 8.34515 5.97376 7.25697
#
# Compressibility (1/GPa) = 0.04522957
#
# Stress axis : x y z
#
# Youngs Moduli (GPa) = 77.28902 67.33983 26.43792
#
# Poissons Ratio (x) = 0.12814 -0.06174
# Poissons Ratio (y) = 0.14707 0.28088
# Poissons Ratio (z) = -0.18051 0.71544
#
# Static dielectric constant tensor:
#      x y z
#    x 1.606900 0.000000 0.000000 
#    y 0.000000 1.593100 0.000000 
#    z 0.000000 0.000000 1.532590 
# 
# From -- ./inp_files/24077.got.cif
#   From: 2010.05.17/outbox.cif.g08.bks.cpg/sg58_13_cif.got.tgz:24077.got - 2010.06.03 14:20:14.
