data_PCOD9441035
_publ_section_title
;
Structure prediction by ZEFSAII (Michael W. Deem and Ramdas Pophale) SiO2 
 PCOD9441035
Probable space group: P N N M
;
_chemical_formula_sum "Si O2"
_cell_formula_units_Z 56
_cell_length_a 16.125545
_cell_length_b 5.238527
_cell_length_c 34.670989
_cell_angle_alpha 90.000000
_cell_angle_beta 90.000000
_cell_angle_gamma 90.000000
_cell_volume 2928.800691
_symmetry_space_group_name_H-M "P N N M"
_symmetry_group_IT_number 58
_symmetry_cell_setting 'orthorhombic'
loop_
_space_group_symop_operation_xyz
x,y,z
-x,-y,z
1/2+x,1/2-y,1/2-z
1/2-x,1/2+y,1/2-z
-x,-y,-z
x,y,-z
1/2-x,1/2+y,1/2+z
1/2+x,1/2-y,1/2+z
loop_
_atom_site_type_symbol
_atom_site_label
_atom_site_fract_x
_atom_site_fract_y
_atom_site_fract_z
Si Si1 0.591717 0.384657 0.424290
Si Si2 0.712725 0.406461 0.882794
Si Si3 0.025594 0.246425 0.388186
Si Si4 0.322043 0.113469 0.455158
Si Si5 0.736644 0.761200 0.225875
Si Si6 0.452982 0.249402 0.802113
Si Si7 0.203803 0.094283 0.147068
O O1 0.500000 0.500000 0.425737
O O2 0.644620 0.602492 0.446182
O O3 0.624393 0.366385 0.380215
O O4 0.611751 0.107578 0.442681
O O5 0.621006 0.294790 0.878124
O O6 0.743539 0.414360 0.926873
O O7 0.730101 0.692114 0.867913
O O8 0.767902 0.196569 0.860274
O O9 0.000000 0.500000 0.409288
O O10 0.970623 0.251055 0.348535
O O11 0.000000 0.000000 0.411530
O O12 0.303937 0.084048 0.500000
O O13 0.757921 0.482933 0.242176
O O14 0.643141 0.755340 0.208729
O O15 0.799634 0.845964 0.192094
O O16 0.500000 0.500000 0.787409
O O17 0.500000 0.000000 0.787126
#
# Coordination Sequence:
#
# PCOD9441035 Si02
#       7
#     8   8   8   8   8   8   8
#     4  10  21  36  57  82 111 151 195 234 272 325
#     4  10  19  35  58  82 110 144 184 225 271 331
#     4  10  18  29  52  81 102 130 174 225 266 307
#     4  10  21  35  56  86 117 149 182 226 283 333
#     4  12  24  38  57  84 115 148 185 236 296 347
#     4  10  19  34  55  78 104 134 178 231 275 322
#     4  10  20  37  56  77 108 148 190 229 274 334
#
# _framework density 19.120455
#
# number of rings (size 3 to 8) (size 9 to 14) (size 15 to 20)
#    0.000    1.714    0.000    6.857    0.000    1.714 
#    0.000    2.143    0.000    2.571    0.000    0.000 
#    0.000    0.000    0.000    0.000    0.000    0.000 
#
# Total GULP energy -312171.350063 kJ/mol
# GULP energy per Si atom -5574.488394 kJ/mol
# Density = 1.907694 g / cm^3
# Si number density = 19.120455 Si / 1000 Ang^3
#
#
#
# Elastic Constant Matrix: (Units=GPa)
#
#
# Indices 1 2 3 4 5 6 
#
# 1 66.7216 8.8597 21.1377 0.0000 0.0000 0.0000
# 2 8.8597 121.4490 2.7775 0.0000 0.0000 0.0000
# 3 21.1377 2.7775 75.6367 0.0000 0.0000 0.0000
# 4 0.0000 0.0000 0.0000 9.2068 0.0000 0.0000
# 5 0.0000 0.0000 0.0000 0.0000 10.7586 0.0000
# 6 0.0000 0.0000 0.0000 0.0000 0.0000 30.0297
#
#
#
# Elastic Compliance Matrix: (Units=1/GPa)
#
#
# Indices 1 2 3 4 5 6 
#
# 1 0.016590 -0.001105 -0.004596 0.000000 0.000000 0.000000
# 2 -0.001105 0.008314 0.000004 0.000000 0.000000 0.000000
# 3 -0.004596 0.000004 0.014505 0.000000 0.000000 0.000000
# 4 0.000000 0.000000 0.000000 0.108615 0.000000 0.000000
# 5 0.000000 0.000000 0.000000 0.000000 0.092949 0.000000
# 6 0.000000 0.000000 0.000000 0.000000 0.000000 0.033300
#
#
# Mechanical properties :
#
#
# Convention : Reuss Voigt Hill
#
# Bulk Modulus (GPa) = 35.69485 36.59524 36.14505
# Shear Modulus (GPa) = 16.94871 25.40119 21.17495
#
# Velocity S-wave (km/s) = 2.98051 3.64879 3.33145
# Velocity P-wave (km/s) = 5.52752 6.07720 5.80887
#
# Compressibility (1/GPa) = 0.02801524
#
# Stress axis : x y z
#
# Youngs Moduli (GPa) = 60.27588 120.27255 68.94020
#
# Poissons Ratio (x) = 0.13292 0.31684
# Poissons Ratio (y) = 0.06661 -0.00024
# Poissons Ratio (z) = 0.27702 -0.00042
#
# Static dielectric constant tensor:
#      x y z
#    x 1.680750 0.000000 0.000000 
#    y 0.000000 1.778080 0.000000 
#    z 0.000000 0.000000 1.661990 
# 
# From -- ./inp_files/35020.got.cif
#   From: 2010.05.17/outbox.cif.g08.bks.cpg/sg58_18_cif.got.tgz:35020.got - 2010.06.03 14:20:14.
