data_PCOD9441423
_publ_section_title
;
Structure prediction by ZEFSAII (Michael W. Deem and Ramdas Pophale) SiO2 
 PCOD9441423
Probable space group: P N N M
;
_chemical_formula_sum "Si O2"
_cell_formula_units_Z 48
_cell_length_a 8.134738
_cell_length_b 16.237579
_cell_length_c 16.548581
_cell_angle_alpha 90.000000
_cell_angle_beta 90.000000
_cell_angle_gamma 90.000000
_cell_volume 2185.876429
_symmetry_space_group_name_H-M "P N N M"
_symmetry_group_IT_number 58
_symmetry_cell_setting 'orthorhombic'
loop_
_space_group_symop_operation_xyz
x,y,z
-x,-y,z
1/2+x,1/2-y,1/2-z
1/2-x,1/2+y,1/2-z
-x,-y,-z
x,y,-z
1/2-x,1/2+y,1/2+z
1/2+x,1/2-y,1/2+z
loop_
_atom_site_type_symbol
_atom_site_label
_atom_site_fract_x
_atom_site_fract_y
_atom_site_fract_z
Si Si1 0.806703 0.017216 0.671274
Si Si2 0.693383 0.018079 0.500000
Si Si3 0.379601 0.234684 0.000000
Si Si4 0.284461 0.672425 0.825612
Si Si5 0.395570 0.237199 0.825434
Si Si6 0.372692 0.923565 0.174678
Si Si7 0.123177 0.422773 0.500000
Si Si8 0.302425 0.668068 0.000000
O O1 0.743244 0.055287 0.586537
O O2 0.735448 0.923419 0.680742
O O3 0.745318 0.066843 0.748925
O O4 0.000000 0.000000 0.667715
O O5 0.783893 0.929679 0.500000
O O6 0.500000 0.000000 0.500000
O O7 0.299455 0.234470 0.088656
O O8 0.505919 0.310589 0.000000
O O9 0.504766 0.156895 0.000000
O O10 0.481446 0.685430 0.822815
O O11 0.212699 0.725239 0.753136
O O12 0.231474 0.700534 0.915627
O O13 0.519294 0.158957 0.823598
O O14 0.500000 0.000000 0.177176
O O15 0.286353 0.925091 0.086213
O O16 0.000000 0.500000 0.500000
#
# Coordination Sequence:
#
# PCOD9441423 Si02
#       8
#     8   4   4   8   8   8   4   4
#     4  11  23  37  56  83 119 147 185 235 289 337
#     4  10  21  37  60  82 109 150 192 233 281 345
#     4   8  16  34  54  77 107 147 181 230 274 331
#     4  10  21  37  56  80 110 148 187 230 279 340
#     4  10  20  35  58  80 109 145 190 229 284 334
#     4  10  18  35  57  82 108 144 186 235 275 339
#     4   8  16  28  55  83 105 139 190 227 274 324
#     4   8  18  35  54  76 109 141 178 228 280 326
#
# _framework density 21.959156
#
# number of rings (size 3 to 8) (size 9 to 14) (size 15 to 20)
#    0.000    2.333    1.667    0.750    4.667    0.000 
#    0.000    1.250    0.000    0.000    0.000    0.000 
#    0.000    0.000    0.000    0.000    0.000    0.000 
#
# Total GULP energy -267714.029513 kJ/mol
# GULP energy per Si atom -5577.375615 kJ/mol
# Density = 2.190918 g / cm^3
# Si number density = 21.959156 Si / 1000 Ang^3
#
#
#
# Elastic Constant Matrix: (Units=GPa)
#
#
# Indices 1 2 3 4 5 6 
#
# 1 34.9987 -2.8676 50.4172 0.0000 0.0000 0.0000
# 2 -2.8676 72.6496 2.2581 0.0000 0.0000 0.0000
# 3 50.4172 2.2581 279.4810 0.0000 0.0000 0.0000
# 4 0.0000 0.0000 0.0000 6.8731 0.0000 0.0000
# 5 0.0000 0.0000 0.0000 0.0000 25.6409 0.0000
# 6 0.0000 0.0000 0.0000 0.0000 0.0000 24.6173
#
#
#
# Elastic Compliance Matrix: (Units=1/GPa)
#
#
# Indices 1 2 3 4 5 6 
#
# 1 0.038826 0.001751 -0.007018 0.000000 0.000000 0.000000
# 2 0.001751 0.013847 -0.000428 0.000000 0.000000 0.000000
# 3 -0.007018 -0.000428 0.004848 0.000000 0.000000 0.000000
# 4 0.000000 0.000000 0.000000 0.145495 0.000000 0.000000
# 5 0.000000 0.000000 0.000000 0.000000 0.039000 0.000000
# 6 0.000000 0.000000 0.000000 0.000000 0.000000 0.040622
#
#
# Mechanical properties :
#
#
# Convention : Reuss Voigt Hill
#
# Bulk Modulus (GPa) = 21.67779 54.08274 37.88026
# Shear Modulus (GPa) = 16.16007 33.91437 25.03722
#
# Velocity S-wave (km/s) = 2.71572 3.93419 3.38031
# Velocity P-wave (km/s) = 4.44149 6.73197 5.70290
#
# Compressibility (1/GPa) = 0.04613017
#
# Stress axis : x y z
#
# Youngs Moduli (GPa) = 25.75597 72.21734 206.28910
#
# Poissons Ratio (x) = -0.12643 1.44777
# Poissons Ratio (y) = -0.04509 0.08823
# Poissons Ratio (z) = 0.18076 0.03089
#
# Static dielectric constant tensor:
#      x y z
#    x 1.762690 0.000000 0.000000 
#    y 0.000000 1.856440 0.000000 
#    z 0.000000 0.000000 1.884430 
# 
# From -- ./inp_files/19924.got.cif
#   From: 2010.05.17/outbox.cif.g08.bks.cpg/sg58_10_cif.got.tgz:19924.got - 2010.06.03 14:20:14.
