data_PCOD9441470
_publ_section_title
;
Structure prediction by ZEFSAII (Michael W. Deem and Ramdas Pophale) SiO2 
 PCOD9441470
Probable space group: P N N M
;
_chemical_formula_sum "Si O2"
_cell_formula_units_Z 32
_cell_length_a 9.496485
_cell_length_b 11.516775
_cell_length_c 15.414112
_cell_angle_alpha 90.000000
_cell_angle_beta 90.000000
_cell_angle_gamma 90.000000
_cell_volume 1685.824182
_symmetry_space_group_name_H-M "P N N M"
_symmetry_group_IT_number 58
_symmetry_cell_setting 'orthorhombic'
loop_
_space_group_symop_operation_xyz
x,y,z
-x,-y,z
1/2+x,1/2-y,1/2-z
1/2-x,1/2+y,1/2-z
-x,-y,-z
x,y,-z
1/2-x,1/2+y,1/2+z
1/2+x,1/2-y,1/2+z
loop_
_atom_site_type_symbol
_atom_site_label
_atom_site_fract_x
_atom_site_fract_y
_atom_site_fract_z
Si Si1 0.500000 0.000000 0.717661
Si Si2 0.298483 0.128374 0.399673
Si Si3 0.652412 0.555687 0.000000
Si Si4 0.648205 0.143254 0.138449
Si Si5 0.332665 0.484251 0.500000
Si Si6 0.402606 0.173991 0.000000
O O1 0.568129 0.900599 0.657874
O O2 0.387459 0.933565 0.778326
O O3 0.326676 0.168084 0.500000
O O4 0.198009 0.222793 0.354687
O O5 0.228593 0.002326 0.417413
O O6 0.500000 0.500000 0.000000
O O7 0.637792 0.691750 0.000000
O O8 0.773354 0.084240 0.083549
O O9 0.504767 0.145092 0.081072
O O10 0.500000 0.500000 0.500000
O O11 0.239881 0.601260 0.500000
#
# Coordination Sequence:
#
# PCOD9441470 Si02
#       6
#     4   8   4   8   4   4
#     4  12  25  41  64 104 140 176 222 293 355 386
#     4  10  23  43  66  92 134 175 221 273 330 421
#     4  10  18  37  68  93 116 176 230 255 322 413
#     4  11  21  44  67  94 131 176 226 277 344 401
#     4  11  22  39  67  97 130 174 227 272 342 415
#     4  11  18  39  76  91 130 177 216 276 345 408
#
# _framework density 18.981812999999999
#
# number of rings (size 3 to 8) (size 9 to 14) (size 15 to 20)
#    0.750    0.500    7.500    1.125    0.000    4.000 
#    4.500    0.000    0.000    0.000    0.000    0.000 
#    0.000    0.000    0.000    0.000    0.000    0.000 
#
# Total GULP energy -178282.063790 kJ/mol
# GULP energy per Si atom -5571.314493 kJ/mol
# Density = 1.893861 g / cm^3
# Si number density = 18.981813 Si / 1000 Ang^3
#
#
#
# Elastic Constant Matrix: (Units=GPa)
#
#
# Indices 1 2 3 4 5 6 
#
# 1 123.7748 38.2362 26.3100 0.0000 0.0000 0.0000
# 2 38.2362 114.6896 9.3463 0.0000 0.0000 0.0000
# 3 26.3100 9.3463 58.0965 0.0000 0.0000 0.0000
# 4 0.0000 0.0000 0.0000 17.5152 0.0000 0.0000
# 5 0.0000 0.0000 0.0000 0.0000 9.3390 0.0000
# 6 0.0000 0.0000 0.0000 0.0000 0.0000 36.9659
#
#
#
# Elastic Compliance Matrix: (Units=1/GPa)
#
#
# Indices 1 2 3 4 5 6 
#
# 1 0.009838 -0.002956 -0.003980 0.000000 0.000000 0.000000
# 2 -0.002956 0.009723 -0.000226 0.000000 0.000000 0.000000
# 3 -0.003980 -0.000226 0.019051 0.000000 0.000000 0.000000
# 4 0.000000 0.000000 0.000000 0.057093 0.000000 0.000000
# 5 0.000000 0.000000 0.000000 0.000000 0.107078 0.000000
# 6 0.000000 0.000000 0.000000 0.000000 0.000000 0.027052
#
#
# Mechanical properties :
#
#
# Convention : Reuss Voigt Hill
#
# Bulk Modulus (GPa) = 41.16892 49.37174 45.27033
# Shear Modulus (GPa) = 19.82121 27.60859 23.71490
#
# Velocity S-wave (km/s) = 3.23495 3.81790 3.53845
# Velocity P-wave (km/s) = 5.97402 6.74549 6.37144
#
# Compressibility (1/GPa) = 0.02429017
#
# Stress axis : x y z
#
# Youngs Moduli (GPa) = 101.64450 102.84947 52.48950
#
# Poissons Ratio (x) = 0.30398 0.20890
# Poissons Ratio (y) = 0.30042 0.01185
# Poissons Ratio (z) = 0.40454 0.02321
#
# Static dielectric constant tensor:
#      x y z
#    x 2.798830 0.000000 0.000000 
#    y 0.000000 1.598860 0.000000 
#    z 0.000000 0.000000 2.150960 
# 
# From -- ./inp_files/24896.got.cif
#   From: 2010.05.17/outbox.cif.g08.bks.cpg/sg58_13_cif.got.tgz:24896.got - 2010.06.03 14:20:14.
