data_PCOD9441579
_publ_section_title
;
Structure prediction by ZEFSAII (Michael W. Deem and Ramdas Pophale) SiO2 
 PCOD9441579
Probable space group: P N N M
;
_chemical_formula_sum "Si O2"
_cell_formula_units_Z 32
_cell_length_a 19.291661
_cell_length_b 5.148820
_cell_length_c 17.642968
_cell_angle_alpha 90.000000
_cell_angle_beta 90.000000
_cell_angle_gamma 90.000000
_cell_volume 1752.463485
_symmetry_space_group_name_H-M "P N N M"
_symmetry_group_IT_number 58
_symmetry_cell_setting 'orthorhombic'
loop_
_space_group_symop_operation_xyz
x,y,z
-x,-y,z
1/2+x,1/2-y,1/2-z
1/2-x,1/2+y,1/2-z
-x,-y,-z
x,y,-z
1/2-x,1/2+y,1/2+z
1/2+x,1/2-y,1/2+z
loop_
_atom_site_type_symbol
_atom_site_label
_atom_site_fract_x
_atom_site_fract_y
_atom_site_fract_z
Si Si1 0.813620 0.756344 0.320527
Si Si2 0.453321 0.241680 0.587221
Si Si3 0.329112 0.479763 0.324624
Si Si4 0.290633 0.226571 0.089545
O O1 0.853459 0.845206 0.245617
O O2 0.810171 0.991910 0.379611
O O3 0.733792 0.701404 0.294360
O O4 0.833223 0.493927 0.364340
O O5 0.500000 0.500000 0.587143
O O6 0.431546 0.188372 0.500000
O O7 0.387529 0.306202 0.638201
O O8 0.500000 0.000000 0.612744
O O9 0.288938 0.655874 0.386792
O O10 0.298951 0.205096 0.000000
#
# Coordination Sequence:
#
# PCOD9441579 Si02
#       4
#     8   8   8   8
#     4  10  20  31  50  75  98 137 168 214 270 311
#     4  10  23  36  50  74 105 146 184 207 239 303
#     4  10  20  35  51  73 105 138 173 219 262 305
#     4  10  19  30  47  74 102 131 162 201 263 318
#
# _framework density 18.260009
#
# number of rings (size 3 to 8) (size 9 to 14) (size 15 to 20)
#    1.500    0.500    2.500    1.500    3.500    0.000 
#    0.000    0.000    0.000    0.000    0.000    0.000 
#    0.000   20.000    0.000    0.000    0.000    0.000 
#
# Total GULP energy -178293.985906 kJ/mol
# GULP energy per Si atom -5571.687060 kJ/mol
# Density = 1.821845 g / cm^3
# Si number density = 18.260009 Si / 1000 Ang^3
#
#
#
# Elastic Constant Matrix: (Units=GPa)
#
#
# Indices 1 2 3 4 5 6 
#
# 1 14.1781 -11.0147 -5.2794 0.0000 0.0000 0.0000
# 2 -11.0147 90.4463 6.1037 0.0000 0.0000 0.0000
# 3 -5.2794 6.1037 76.3310 0.0000 0.0000 0.0000
# 4 0.0000 0.0000 0.0000 34.4101 0.0000 0.0000
# 5 0.0000 0.0000 0.0000 0.0000 32.9424 0.0000
# 6 0.0000 0.0000 0.0000 0.0000 0.0000 13.8771
#
#
#
# Elastic Compliance Matrix: (Units=1/GPa)
#
#
# Indices 1 2 3 4 5 6 
#
# 1 0.079582 0.009371 0.004755 0.000000 0.000000 0.000000
# 2 0.009371 0.012220 -0.000329 0.000000 0.000000 0.000000
# 3 0.004755 -0.000329 0.013456 0.000000 0.000000 0.000000
# 4 0.000000 0.000000 0.000000 0.029061 0.000000 0.000000
# 5 0.000000 0.000000 0.000000 0.000000 0.030356 0.000000
# 6 0.000000 0.000000 0.000000 0.000000 0.000000 0.072061
#
#
# Mechanical properties :
#
#
# Convention : Reuss Voigt Hill
#
# Bulk Modulus (GPa) = 7.52726 17.84164 12.68445
# Shear Modulus (GPa) = 19.72963 28.98898 24.35931
#
# Velocity S-wave (km/s) = 3.29064 3.98875 3.65639
# Velocity P-wave (km/s) = 4.30917 5.56827 4.97868
#
# Compressibility (1/GPa) = 0.13285046
#
# Stress axis : x y z
#
# Youngs Moduli (GPa) = 12.56571 81.83526 74.31627
#
# Poissons Ratio (x) = -0.76685 -0.35336
# Poissons Ratio (y) = -0.11775 0.02445
# Poissons Ratio (z) = -0.05975 0.02693
#
# Static dielectric constant tensor:
#      x y z
#    x 1.619090 0.000000 0.000000 
#    y 0.000000 1.674160 0.000000 
#    z 0.000000 0.000000 1.643590 
# 
# From -- ./inp_files/18310.got.cif
#   From: 2010.05.17/outbox.cif.g08.bks.cpg/sg58_10_cif.got.tgz:18310.got - 2010.06.03 14:20:14.
