data_PCOD9441085
_publ_section_title
;
Structure prediction by ZEFSAII (Michael W. Deem and Ramdas Pophale) SiO2 
 PCOD9441085
Probable space group: P N N M
;
_chemical_formula_sum "Si O2"
_cell_formula_units_Z 48
_cell_length_a 18.453538
_cell_length_b 15.292499
_cell_length_c 9.291947
_cell_angle_alpha 90.000000
_cell_angle_beta 90.000000
_cell_angle_gamma 90.000000
_cell_volume 2622.194054
_symmetry_space_group_name_H-M "P N N M"
_symmetry_group_IT_number 58
_symmetry_cell_setting 'orthorhombic'
loop_
_space_group_symop_operation_xyz
x,y,z
-x,-y,z
1/2+x,1/2-y,1/2-z
1/2-x,1/2+y,1/2-z
-x,-y,-z
x,y,-z
1/2-x,1/2+y,1/2+z
1/2+x,1/2-y,1/2+z
loop_
_atom_site_type_symbol
_atom_site_label
_atom_site_fract_x
_atom_site_fract_y
_atom_site_fract_z
Si Si1 0.180490 0.316523 0.335143
Si Si2 0.183244 0.516931 0.335475
Si Si3 0.546965 0.254985 0.329668
Si Si4 0.550301 0.915920 0.670294
Si Si5 0.965240 0.095405 0.666103
Si Si6 0.794444 0.085766 0.329508
O O1 0.193131 0.289845 0.500000
O O2 0.151298 0.417291 0.337566
O O3 0.122009 0.258394 0.254811
O O4 0.254330 0.331937 0.245991
O O5 0.198413 0.542058 0.500000
O O6 0.124085 0.577084 0.260244
O O7 0.256064 0.498721 0.243837
O O8 0.560510 0.258717 0.500000
O O9 0.495693 0.171012 0.301509
O O10 0.505122 0.338894 0.271876
O O11 0.567778 0.919438 0.500000
O O12 0.500000 0.000000 0.701906
O O13 0.974295 0.125740 0.500000
O O14 0.879672 0.089011 0.695363
O O15 0.000000 0.000000 0.677284
O O16 0.779790 0.085449 0.500000
#
# Coordination Sequence:
#
# PCOD9441085 Si02
#       6
#     8   8   8   8   8   8
#     4   9  18  32  54  83 115 147 182 226 279 341
#     4   9  18  29  50  80 111 148 183 222 275 332
#     4  11  22  35  57  88 117 151 192 235 286 341
#     4  10  18  30  50  79 117 150 179 219 272 342
#     4  10  23  43  63  82 109 150 196 243 292 337
#     4   9  17  34  59  81 108 147 189 234 287 341
#
# _framework density 18.30528
#
# number of rings (size 3 to 8) (size 9 to 14) (size 15 to 20)
#    1.000    1.333    1.667    1.500    0.000    3.333 
#    0.000    1.667    0.000    2.000    0.000    0.000 
#    0.000    0.000    0.000    0.000    0.000    0.000 
#
# Total GULP energy -267407.022554 kJ/mol
# GULP energy per Si atom -5570.979637 kJ/mol
# Density = 1.826362 g / cm^3
# Si number density = 18.305280 Si / 1000 Ang^3
#
#
#
# Elastic Constant Matrix: (Units=GPa)
#
#
# Indices 1 2 3 4 5 6 
#
# 1 115.4880 22.1273 79.7755 0.0000 0.0000 0.0000
# 2 22.1273 32.7084 30.6419 0.0000 0.0000 0.0000
# 3 79.7755 30.6419 107.6621 0.0000 0.0000 0.0000
# 4 0.0000 0.0000 0.0000 24.4859 0.0000 0.0000
# 5 0.0000 0.0000 0.0000 0.0000 18.2529 0.0000
# 6 0.0000 0.0000 0.0000 0.0000 0.0000 12.5398
#
#
#
# Elastic Compliance Matrix: (Units=1/GPa)
#
#
# Indices 1 2 3 4 5 6 
#
# 1 0.017742 0.000427 -0.013268 0.000000 0.000000 0.000000
# 2 0.000427 0.041699 -0.012185 0.000000 0.000000 0.000000
# 3 -0.013268 -0.012185 0.022588 0.000000 0.000000 0.000000
# 4 0.000000 0.000000 0.000000 0.040840 0.000000 0.000000
# 5 0.000000 0.000000 0.000000 0.000000 0.054786 0.000000
# 6 0.000000 0.000000 0.000000 0.000000 0.000000 0.079746
#
#
# Mechanical properties :
#
#
# Convention : Reuss Voigt Hill
#
# Bulk Modulus (GPa) = 31.27173 57.88310 44.57742
# Shear Modulus (GPa) = 15.71774 19.27664 17.49719
#
# Velocity S-wave (km/s) = 2.93344 3.24862 3.09504
# Velocity P-wave (km/s) = 5.34733 6.76469 6.09733
#
# Compressibility (1/GPa) = 0.03197776
#
# Stress axis : x y z
#
# Youngs Moduli (GPa) = 56.36203 23.98142 44.27156
#
# Poissons Ratio (x) = -0.01025 0.58741
# Poissons Ratio (y) = -0.02409 0.53943
# Poissons Ratio (z) = 0.74784 0.29221
#
# Static dielectric constant tensor:
#      x y z
#    x 1.611690 0.000000 0.000000 
#    y 0.000000 1.629140 0.000000 
#    z 0.000000 0.000000 1.626370 
# 
# From -- ./inp_files/7729.got.cif
#   From: 2010.05.17/outbox.cif.g08.bks.cpg/sg58_4_cif.got.tgz:7729.got - 2010.06.03 14:20:14.
