data_PCOD9441755
_publ_section_title
;
Structure prediction by ZEFSAII (Michael W. Deem and Ramdas Pophale) SiO2 
 PCOD9441755
Probable space group: P N N M
;
_chemical_formula_sum "Si O2"
_cell_formula_units_Z 64
_cell_length_a 25.021064
_cell_length_b 14.689532
_cell_length_c 7.598416
_cell_angle_alpha 90.000000
_cell_angle_beta 90.000000
_cell_angle_gamma 90.000000
_cell_volume 2792.780479
_symmetry_space_group_name_H-M "P N N M"
_symmetry_group_IT_number 58
_symmetry_cell_setting 'orthorhombic'
loop_
_space_group_symop_operation_xyz
x,y,z
-x,-y,z
1/2+x,1/2-y,1/2-z
1/2-x,1/2+y,1/2-z
-x,-y,-z
x,y,-z
1/2-x,1/2+y,1/2+z
1/2+x,1/2-y,1/2+z
loop_
_atom_site_type_symbol
_atom_site_label
_atom_site_fract_x
_atom_site_fract_y
_atom_site_fract_z
Si Si1 0.557459 0.983878 0.202058
Si Si2 0.807530 0.294354 0.300151
Si Si3 0.410233 0.738634 0.286763
Si Si4 0.173788 0.501957 0.716921
Si Si5 0.475531 0.205926 0.286651
Si Si6 0.604636 0.646405 0.291872
Si Si7 0.206417 0.310828 0.295770
Si Si8 0.059308 0.034810 0.785080
O O1 0.559355 0.874617 0.207457
O O2 0.500000 0.000000 0.290145
O O3 0.612969 0.017316 0.278035
O O4 0.554525 0.015532 0.000000
O O5 0.824991 0.305817 0.500000
O O6 0.811116 0.396430 0.222033
O O7 0.845209 0.213124 0.231280
O O8 0.747404 0.257394 0.293757
O O9 0.407792 0.739837 0.500000
O O10 0.462486 0.797191 0.234760
O O11 0.354274 0.775877 0.218842
O O12 0.423411 0.635451 0.228009
O O13 0.173790 0.500702 0.500000
O O14 0.208416 0.415000 0.772061
O O15 0.472742 0.200537 0.500000
O O16 0.447719 0.299069 0.229292
O O17 0.598110 0.637086 0.500000
O O18 0.601238 0.543197 0.225666
O O19 0.222121 0.312335 0.500000
O O20 0.058088 0.040789 0.000000
O O21 0.000000 0.000000 0.733562
#
# Coordination Sequence:
#
# PCOD9441755 Si02
#       8
#     8   8   8   8   8   8   8   8
#     4  10  19  33  55  82 112 152 196 231 277 345
#     4  11  23  42  64  85 113 151 196 243 291 345
#     4  10  20  36  58  87 121 157 196 238 288 343
#     4   9  20  39  61  83 111 151 193 232 281 348
#     4  10  19  31  53  85 119 148 185 237 288 334
#     4  10  19  34  58  88 116 150 195 239 282 335
#     4  11  24  43  63  85 114 151 197 244 290 342
#     4   9  16  31  57  85 118 161 201 233 275 345
#
# _framework density 22.916229999999999
#
# number of rings (size 3 to 8) (size 9 to 14) (size 15 to 20)
#    0.000    2.000    2.500    1.500    0.000    2.750 
#    0.000    9.375    0.000    0.750    0.000    0.000 
#    0.000    0.000    0.000    0.000    0.000    0.000 
#
# Total GULP energy -357278.884276 kJ/mol
# GULP energy per Si atom -5582.482567 kJ/mol
# Density = 2.286407 g / cm^3
# Si number density = 22.916230 Si / 1000 Ang^3
#
#
#
# Elastic Constant Matrix: (Units=GPa)
#
#
# Indices 1 2 3 4 5 6 
#
# 1 93.2769 30.6070 -5.9249 0.0000 0.0000 0.0000
# 2 30.6070 123.8589 3.2909 0.0000 0.0000 0.0000
# 3 -5.9249 3.2909 49.5601 0.0000 0.0000 0.0000
# 4 0.0000 0.0000 0.0000 -20.6985 0.0000 0.0000
# 5 0.0000 0.0000 0.0000 0.0000 18.9623 0.0000
# 6 0.0000 0.0000 0.0000 0.0000 0.0000 34.9933
#
#
#
# Elastic Compliance Matrix: (Units=1/GPa)
#
#
# Indices 1 2 3 4 5 6 
#
# 1 0.011793 -0.002957 0.001606 0.000000 0.000000 0.000000
# 2 -0.002957 0.008829 -0.000940 0.000000 0.000000 0.000000
# 3 0.001606 -0.000940 0.020432 0.000000 0.000000 0.000000
# 4 0.000000 0.000000 0.000000 -0.048313 0.000000 0.000000
# 5 0.000000 0.000000 0.000000 0.000000 0.052736 0.000000
# 6 0.000000 0.000000 0.000000 0.000000 0.000000 0.028577
#
#
# Mechanical properties :
#
#
# Convention : Reuss Voigt Hill
#
# Bulk Modulus (GPa) = 27.41723 35.84910 31.63317
# Shear Modulus (GPa) = 55.06994 22.56626 38.81810
#
# Velocity S-wave (km/s) = 4.90746 3.14144 4.12018
# Velocity P-wave (km/s) = 6.64085 5.36989 6.03890
#
# Compressibility (1/GPa) = 0.03647341
#
# Stress axis : x y z
#
# Youngs Moduli (GPa) = 84.79586 113.25857 48.94298
#
# Poissons Ratio (x) = 0.33489 -0.07861
# Poissons Ratio (y) = 0.25073 0.04600
# Poissons Ratio (z) = -0.13620 0.10644
#
# Static dielectric constant tensor:
#      x y z
#    x 1.836420 0.000000 0.000000 
#    y 0.000000 1.912540 0.000000 
#    z 0.000000 0.000000 1.869830 
# 
# From -- ./inp_files/10108.got.cif
#   From: 2010.05.17/outbox.cif.g08.bks.cpg/sg58_6_cif.got.tgz:10108.got - 2010.06.03 14:20:14.
