data_PCOD9441028
_publ_section_title
;
Structure prediction by ZEFSAII (Michael W. Deem and Ramdas Pophale) SiO2 
 PCOD9441028
Probable space group: P N N M
;
_chemical_formula_sum "Si O2"
_cell_formula_units_Z 40
_cell_length_a 22.632997
_cell_length_b 7.660287
_cell_length_c 11.300901
_cell_angle_alpha 90.000000
_cell_angle_beta 90.000000
_cell_angle_gamma 90.000000
_cell_volume 1959.296567
_symmetry_space_group_name_H-M "P N N M"
_symmetry_group_IT_number 58
_symmetry_cell_setting 'orthorhombic'
loop_
_space_group_symop_operation_xyz
x,y,z
-x,-y,z
1/2+x,1/2-y,1/2-z
1/2-x,1/2+y,1/2-z
-x,-y,-z
x,y,-z
1/2-x,1/2+y,1/2+z
1/2+x,1/2-y,1/2+z
loop_
_atom_site_type_symbol
_atom_site_label
_atom_site_fract_x
_atom_site_fract_y
_atom_site_fract_z
Si Si1 0.233050 0.295781 0.125676
Si Si2 0.932668 0.953199 0.359193
Si Si3 0.258202 0.707854 0.127603
Si Si4 0.569348 0.043121 0.138933
Si Si5 0.349942 0.245855 0.232413
O O1 0.248527 0.500476 0.126045
O O2 0.205898 0.255204 0.254037
O O3 0.297578 0.207709 0.137532
O O4 0.204477 0.250983 0.000000
O O5 0.926967 0.986199 0.500000
O O6 0.922780 0.748532 0.340105
O O7 0.887216 0.083408 0.297466
O O8 0.000000 0.000000 0.325673
O O9 0.191591 0.776974 0.153048
O O10 0.281669 0.763490 0.000000
O O11 0.500000 0.000000 0.153369
O O12 0.607059 0.918828 0.224490
O O13 0.583297 0.004171 0.000000
#
# Coordination Sequence:
#
# PCOD9441028 Si02
#       5
#     8   8   8   8   8
#     4   9  19  36  58  82 109 146 195 239 280 338
#     4  10  18  29  50  83 120 148 185 241 288 336
#     4   9  21  38  56  81 115 149 189 240 290 339
#     4  10  18  29  51  84 118 149 185 236 294 336
#     4  10  20  34  55  78 116 148 188 228 291 341
#
# _framework density 20.415489000000001
#
# number of rings (size 3 to 8) (size 9 to 14) (size 15 to 20)
#    1.200    1.200    2.000    1.800    0.000    2.400 
#    0.000    2.000    0.000    1.200    0.000    0.000 
#    0.000    0.000    0.000    0.000    0.000    0.000 
#
# Total GULP energy -222832.634126 kJ/mol
# GULP energy per Si atom -5570.815853 kJ/mol
# Density = 2.036902 g / cm^3
# Si number density = 20.415489 Si / 1000 Ang^3
#
#
#
# Elastic Constant Matrix: (Units=GPa)
#
#
# Indices 1 2 3 4 5 6 
#
# 1 80.5089 12.8191 8.5055 0.0000 0.0000 0.0000
# 2 12.8191 59.7976 19.5060 0.0000 0.0000 0.0000
# 3 8.5055 19.5060 134.7493 0.0000 0.0000 0.0000
# 4 0.0000 0.0000 0.0000 8.8685 0.0000 0.0000
# 5 0.0000 0.0000 0.0000 0.0000 -14.2723 0.0000
# 6 0.0000 0.0000 0.0000 0.0000 0.0000 37.4414
#
#
#
# Elastic Compliance Matrix: (Units=1/GPa)
#
#
# Indices 1 2 3 4 5 6 
#
# 1 0.012884 -0.002620 -0.000434 0.000000 0.000000 0.000000
# 2 -0.002620 0.018085 -0.002453 0.000000 0.000000 0.000000
# 3 -0.000434 -0.002453 0.007804 0.000000 0.000000 0.000000
# 4 0.000000 0.000000 0.000000 0.112759 0.000000 0.000000
# 5 0.000000 0.000000 0.000000 0.000000 -0.070066 0.000000
# 6 0.000000 0.000000 0.000000 0.000000 0.000000 0.026708
#
#
# Mechanical properties :
#
#
# Convention : Reuss Voigt Hill
#
# Bulk Modulus (GPa) = 36.02475 39.63524 37.82999
# Shear Modulus (GPa) = 38.92847 22.02253 30.47550
#
# Velocity S-wave (km/s) = 4.37144 3.28795 3.86782
# Velocity P-wave (km/s) = 6.56989 5.81984 6.20621
#
# Compressibility (1/GPa) = 0.02775869
#
# Stress axis : x y z
#
# Youngs Moduli (GPa) = 77.61515 55.29494 128.14607
#
# Poissons Ratio (x) = 0.14490 0.05561
# Poissons Ratio (y) = 0.20339 0.31428
# Poissons Ratio (z) = 0.03368 0.13561
#
# Static dielectric constant tensor:
#      x y z
#    x 1.716690 0.000000 0.000000 
#    y 0.000000 1.776200 0.000000 
#    z 0.000000 0.000000 1.795820 
# 
# From -- ./inp_files/10638.got.cif
#   From: 2010.05.17/outbox.cif.g08.bks.cpg/sg58_6_cif.got.tgz:10638.got - 2010.06.03 14:20:14.
