data_PCOD9441565
_publ_section_title
;
Structure prediction by ZEFSAII (Michael W. Deem and Ramdas Pophale) SiO2 
 PCOD9441565
Probable space group: P N N M
;
_chemical_formula_sum "Si O2"
_cell_formula_units_Z 64
_cell_length_a 15.649782
_cell_length_b 20.109647
_cell_length_c 9.570947
_cell_angle_alpha 90.000000
_cell_angle_beta 90.000000
_cell_angle_gamma 90.000000
_cell_volume 3012.087964
_symmetry_space_group_name_H-M "P N N M"
_symmetry_group_IT_number 58
_symmetry_cell_setting 'orthorhombic'
loop_
_space_group_symop_operation_xyz
x,y,z
-x,-y,z
1/2+x,1/2-y,1/2-z
1/2-x,1/2+y,1/2-z
-x,-y,-z
x,y,-z
1/2-x,1/2+y,1/2+z
1/2+x,1/2-y,1/2+z
loop_
_atom_site_type_symbol
_atom_site_label
_atom_site_fract_x
_atom_site_fract_y
_atom_site_fract_z
Si Si1 0.077363 0.050118 0.837923
Si Si2 0.680404 0.801969 0.341866
Si Si3 0.028481 0.305406 0.840738
Si Si4 0.028332 0.175426 0.664028
Si Si5 0.262913 0.451424 0.661782
Si Si6 0.678645 0.919938 0.155306
Si Si7 0.517807 0.074190 0.158530
Si Si8 0.821459 0.172700 0.336222
O O1 0.071787 0.112368 0.736339
O O2 0.160354 0.004550 0.822930
O O3 0.069114 0.072155 0.000000
O O4 0.000000 0.000000 0.808164
O O5 0.711428 0.794336 0.500000
O O6 0.576022 0.804477 0.348673
O O7 0.713240 0.869813 0.270660
O O8 0.703276 0.739709 0.245058
O O9 0.052383 0.242086 0.747356
O O10 0.058214 0.372717 0.762792
O O11 0.059768 0.301572 0.000000
O O12 0.047562 0.181081 0.500000
O O13 0.924984 0.166135 0.677713
O O14 0.262024 0.428709 0.500000
O O15 0.184627 0.501602 0.689212
O O16 0.277914 0.390378 0.763145
O O17 0.579828 0.900650 0.141896
O O18 0.717595 0.911152 0.000000
O O19 0.500000 0.000000 0.212335
O O20 0.554138 0.071885 0.000000
O O21 0.801745 0.176946 0.500000
#
# Coordination Sequence:
#
# PCOD9441565 Si02
#       8
#     8   8   8   8   8   8   8   8
#     4  10  19  31  48  70  99 134 169 205 243 289
#     4   9  17  30  50  73  97 125 162 205 246 290
#     4   9  17  29  48  74 100 127 161 202 245 292
#     4  10  19  30  47  71 100 130 165 209 248 286
#     4  10  20  33  50  72 100 134 167 202 249 298
#     4   9  18  33  52  74 100 129 162 201 246 298
#     4   9  17  31  53  78 102 127 158 200 250 300
#     4  10  19  30  48  74 100 128 165 208 248 287
#
# _framework density 21.247719
#
# number of rings (size 3 to 8) (size 9 to 14) (size 15 to 20)
#    0.000    2.500    1.250    1.500    0.000    5.500 
#    0.000    0.000    2.750    0.000    0.000    0.000 
#    0.000    0.000    0.000    0.000    0.000    0.000 
#
# Total GULP energy -357226.521036 kJ/mol
# GULP energy per Si atom -5581.664391 kJ/mol
# Density = 2.119936 g / cm^3
# Si number density = 21.247719 Si / 1000 Ang^3
#
#
#
# Elastic Constant Matrix: (Units=GPa)
#
#
# Indices 1 2 3 4 5 6 
#
# 1 38.3057 -0.3681 5.8708 0.0000 0.0000 0.0000
# 2 -0.3681 146.4351 117.5589 0.0000 0.0000 0.0000
# 3 5.8708 117.5589 164.5415 0.0000 0.0000 0.0000
# 4 0.0000 0.0000 0.0000 46.0737 0.0000 0.0000
# 5 0.0000 0.0000 0.0000 0.0000 7.7033 0.0000
# 6 0.0000 0.0000 0.0000 0.0000 0.0000 19.6770
#
#
#
# Elastic Compliance Matrix: (Units=1/GPa)
#
#
# Indices 1 2 3 4 5 6 
#
# 1 0.026481 0.001935 -0.002327 0.000000 0.000000 0.000000
# 2 0.001935 0.016156 -0.011612 0.000000 0.000000 0.000000
# 3 -0.002327 -0.011612 0.014457 0.000000 0.000000 0.000000
# 4 0.000000 0.000000 0.000000 0.021704 0.000000 0.000000
# 5 0.000000 0.000000 0.000000 0.000000 0.129814 0.000000
# 6 0.000000 0.000000 0.000000 0.000000 0.000000 0.050821
#
#
# Mechanical properties :
#
#
# Convention : Reuss Voigt Hill
#
# Bulk Modulus (GPa) = 30.22488 66.15616 48.19052
# Shear Modulus (GPa) = 16.97966 29.77216 23.37591
#
# Velocity S-wave (km/s) = 2.82995 3.74731 3.32047
# Velocity P-wave (km/s) = 4.99340 7.06586 6.11802
#
# Compressibility (1/GPa) = 0.03308532
#
# Stress axis : x y z
#
# Youngs Moduli (GPa) = 37.76285 61.89714 69.17192
#
# Poissons Ratio (x) = -0.11976 0.16098
# Poissons Ratio (y) = -0.07307 0.80321
# Poissons Ratio (z) = 0.08788 0.71874
#
# Static dielectric constant tensor:
#      x y z
#    x 1.984330 0.000000 0.000000 
#    y 0.000000 1.721740 0.000000 
#    z 0.000000 0.000000 1.737790 
# 
# From -- ./inp_files/8299.got.cif
#   From: 2010.05.17/outbox.cif.g08.bks.cpg/sg58_5_cif.got.tgz:8299.got - 2010.06.03 14:20:14.
