data_PCOD9441924
_publ_section_title
;
Structure prediction by ZEFSAII (Michael W. Deem and Ramdas Pophale) SiO2 
 PCOD9441924
Probable space group: P N N M
;
_chemical_formula_sum "Si O2"
_cell_formula_units_Z 48
_cell_length_a 11.636000
_cell_length_b 17.495511
_cell_length_c 14.182725
_cell_angle_alpha 90.000000
_cell_angle_beta 90.000000
_cell_angle_gamma 90.000000
_cell_volume 2887.287471
_symmetry_space_group_name_H-M "P N N M"
_symmetry_group_IT_number 58
_symmetry_cell_setting 'orthorhombic'
loop_
_space_group_symop_operation_xyz
x,y,z
-x,-y,z
1/2+x,1/2-y,1/2-z
1/2-x,1/2+y,1/2-z
-x,-y,-z
x,y,-z
1/2-x,1/2+y,1/2+z
1/2+x,1/2-y,1/2+z
loop_
_atom_site_type_symbol
_atom_site_label
_atom_site_fract_x
_atom_site_fract_y
_atom_site_fract_z
Si Si1 0.403904 0.706771 0.891576
Si Si2 0.656532 0.873397 0.610137
Si Si3 0.414720 0.428364 0.892114
Si Si4 0.511769 0.161626 0.238338
Si Si5 0.384184 0.051779 0.106009
Si Si6 0.805272 0.529410 0.221152
O O1 0.284676 0.660917 0.880514
O O2 0.508768 0.647230 0.882629
O O3 0.420088 0.770686 0.812189
O O4 0.405333 0.737529 0.000000
O O5 0.627173 0.875798 0.500000
O O6 0.567668 0.823106 0.671075
O O7 0.656906 0.958786 0.654194
O O8 0.500000 0.500000 0.880137
O O9 0.310845 0.435968 0.819971
O O10 0.369813 0.432144 0.000000
O O11 0.425667 0.127924 0.158707
O O12 0.598565 0.094571 0.269985
O O13 0.500000 0.000000 0.102382
O O14 0.296901 0.008132 0.174959
O O15 0.343492 0.063859 0.000000
#
# Coordination Sequence:
#
# PCOD9441924 Si02
#       6
#     8   8   8   8   8   8
#     4  10  21  36  55  77 107 145 182 222 264 322
#     4  10  20  36  56  81 111 142 179 223 272 324
#     4  10  19  34  55  78 105 141 183 221 264 321
#     4  10  21  32  54  82 109 140 172 223 278 320
#     4   8  15  30  50  75 102 132 175 215 254 310
#     4  10  19  32  55  84 105 137 180 227 272 317
#
# _framework density 16.624600000000001
#
# number of rings (size 3 to 8) (size 9 to 14) (size 15 to 20)
#    0.000    2.333    1.667    2.500    2.333    2.667 
#    0.000    0.000    0.000    1.500    0.000    0.000 
#    0.000    0.000    0.000    0.000    0.000    0.000 
#
# Total GULP energy -267499.504329 kJ/mol
# GULP energy per Si atom -5572.906340 kJ/mol
# Density = 1.658676 g / cm^3
# Si number density = 16.624600 Si / 1000 Ang^3
#
#
#
# Elastic Constant Matrix: (Units=GPa)
#
#
# Indices 1 2 3 4 5 6 
#
# 1 71.5910 25.6133 61.6553 0.0000 0.0000 0.0000
# 2 25.6133 58.9073 43.8089 0.0000 0.0000 0.0000
# 3 61.6553 43.8089 148.7981 0.0000 0.0000 0.0000
# 4 0.0000 0.0000 0.0000 19.6816 0.0000 0.0000
# 5 0.0000 0.0000 0.0000 0.0000 27.7561 0.0000
# 6 0.0000 0.0000 0.0000 0.0000 0.0000 17.6394
#
#
#
# Elastic Compliance Matrix: (Units=1/GPa)
#
#
# Indices 1 2 3 4 5 6 
#
# 1 0.022305 -0.003617 -0.008177 0.000000 0.000000 0.000000
# 2 -0.003617 0.022321 -0.005073 0.000000 0.000000 0.000000
# 3 -0.008177 -0.005073 0.011602 0.000000 0.000000 0.000000
# 4 0.000000 0.000000 0.000000 0.050809 0.000000 0.000000
# 5 0.000000 0.000000 0.000000 0.000000 0.036028 0.000000
# 6 0.000000 0.000000 0.000000 0.000000 0.000000 0.056691
#
#
# Mechanical properties :
#
#
# Convention : Reuss Voigt Hill
#
# Bulk Modulus (GPa) = 44.45648 60.16128 52.30888
# Shear Modulus (GPa) = 20.74787 22.89670 21.82228
#
# Velocity S-wave (km/s) = 3.53657 3.71520 3.62698
# Velocity P-wave (km/s) = 6.59362 7.39393 7.00522
#
# Compressibility (1/GPa) = 0.02249391
#
# Stress axis : x y z
#
# Youngs Moduli (GPa) = 44.83397 44.80024 86.18931
#
# Poissons Ratio (x) = 0.16204 0.70478
# Poissons Ratio (y) = 0.16216 0.43725
# Poissons Ratio (z) = 0.36661 0.22728
#
# Static dielectric constant tensor:
#      x y z
#    x 1.545640 0.000000 0.000000 
#    y 0.000000 1.569380 0.000000 
#    z 0.000000 0.000000 1.572190 
# 
# From -- ./inp_files/21145.got.cif
#   From: 2010.05.17/outbox.cif.g08.bks.cpg/sg58_11_cif.got.tgz:21145.got - 2010.06.03 14:20:14.
