data_PCOD9441848
_publ_section_title
;
Structure prediction by ZEFSAII (Michael W. Deem and Ramdas Pophale) SiO2 
 PCOD9441848
Probable space group: P N N M
;
_chemical_formula_sum "Si O2"
_cell_formula_units_Z 64
_cell_length_a 27.603586
_cell_length_b 13.315989
_cell_length_c 7.513586
_cell_angle_alpha 90.000000
_cell_angle_beta 90.000000
_cell_angle_gamma 90.000000
_cell_volume 2761.761650
_symmetry_space_group_name_H-M "P N N M"
_symmetry_group_IT_number 58
_symmetry_cell_setting 'orthorhombic'
loop_
_space_group_symop_operation_xyz
x,y,z
-x,-y,z
1/2+x,1/2-y,1/2-z
1/2-x,1/2+y,1/2-z
-x,-y,-z
x,y,-z
1/2-x,1/2+y,1/2+z
1/2+x,1/2-y,1/2+z
loop_
_atom_site_type_symbol
_atom_site_label
_atom_site_fract_x
_atom_site_fract_y
_atom_site_fract_z
Si Si1 0.064900 0.737279 0.199820
Si Si2 0.976269 0.608633 0.706497
Si Si3 0.822130 0.049265 0.782373
Si Si4 0.132390 0.364505 0.288419
Si Si5 0.505904 0.385772 0.282166
Si Si6 0.167778 0.716465 0.786311
Si Si7 0.283943 0.011496 0.791841
Si Si8 0.885306 0.858708 0.214361
O O1 0.112889 0.686451 0.272447
O O2 0.016417 0.672726 0.193982
O O3 0.042568 0.834010 0.290573
O O4 0.079949 0.766156 0.000000
O O5 0.975203 0.642553 0.500000
O O6 0.921961 0.612667 0.780685
O O7 0.000000 0.500000 0.708129
O O8 0.828027 0.166574 0.730131
O O9 0.769129 0.013375 0.720457
O O10 0.860247 0.962692 0.725048
O O11 0.824414 0.049232 0.000000
O O12 0.129641 0.382675 0.500000
O O13 0.173396 0.439906 0.216400
O O14 0.141577 0.245631 0.260982
O O15 0.500000 0.500000 0.237742
O O16 0.505251 0.376701 0.500000
O O17 0.558819 0.348736 0.223039
O O18 0.202862 0.628956 0.719964
O O19 0.174230 0.712809 0.000000
O O20 0.280987 0.985373 0.000000
O O21 0.886742 0.863537 0.000000
#
# Coordination Sequence:
#
# PCOD9441848 Si02
#       8
#     8   8   8   8   8   8   8   8
#     4  10  19  32  52  81 110 139 176 221 270 316
#     4  10  20  34  52  75 107 149 188 218 260 322
#     4   9  20  38  60  85 111 144 183 232 286 333
#     4  10  21  36  55  81 115 151 187 230 278 330
#     4   9  16  28  50  79 109 141 174 211 264 324
#     4  10  21  38  59  85 115 143 184 236 282 330
#     4  10  22  40  60  81 110 150 190 228 281 339
#     4  10  19  34  58  85 113 144 185 232 276 332
#
# _framework density 23.173614000000001
#
# number of rings (size 3 to 8) (size 9 to 14) (size 15 to 20)
#    0.000    2.250    1.250    1.500    1.750    5.250 
#    0.000    1.250    0.000    3.000    0.000    0.000 
#    0.000    0.000    0.000    0.000    0.000    0.000 
#
# Total GULP energy -356962.872380 kJ/mol
# GULP energy per Si atom -5577.544881 kJ/mol
# Density = 2.312087 g / cm^3
# Si number density = 23.173614 Si / 1000 Ang^3
#
#
#
# Elastic Constant Matrix: (Units=GPa)
#
#
# Indices 1 2 3 4 5 6 
#
# 1 91.0155 6.9984 -0.2012 0.0000 0.0000 0.0000
# 2 6.9984 72.0577 -5.8219 0.0000 0.0000 0.0000
# 3 -0.2012 -5.8219 55.3583 0.0000 0.0000 0.0000
# 4 0.0000 0.0000 0.0000 21.3863 0.0000 0.0000
# 5 0.0000 0.0000 0.0000 0.0000 7.1211 0.0000
# 6 0.0000 0.0000 0.0000 0.0000 0.0000 39.7605
#
#
#
# Elastic Compliance Matrix: (Units=1/GPa)
#
#
# Indices 1 2 3 4 5 6 
#
# 1 0.011070 -0.001081 -0.000073 0.000000 0.000000 0.000000
# 2 -0.001081 0.014102 0.001479 0.000000 0.000000 0.000000
# 3 -0.000073 0.001479 0.018219 0.000000 0.000000 0.000000
# 4 0.000000 0.000000 0.000000 0.046759 0.000000 0.000000
# 5 0.000000 0.000000 0.000000 0.000000 0.140428 0.000000
# 6 0.000000 0.000000 0.000000 0.000000 0.000000 0.025151
#
#
# Mechanical properties :
#
#
# Convention : Reuss Voigt Hill
#
# Bulk Modulus (GPa) = 22.70608 24.48690 23.59649
# Shear Modulus (GPa) = 18.53495 28.15065 23.34280
#
# Velocity S-wave (km/s) = 2.83119 3.48914 3.17724
# Velocity P-wave (km/s) = 4.52847 5.17897 4.86461
#
# Compressibility (1/GPa) = 0.04404106
#
# Stress axis : x y z
#
# Youngs Moduli (GPa) = 90.33334 70.91049 54.88646
#
# Poissons Ratio (x) = 0.07666 0.00403
# Poissons Ratio (y) = 0.09766 -0.08119
# Poissons Ratio (z) = 0.00664 -0.10489
#
# Static dielectric constant tensor:
#      x y z
#    x 1.873750 0.000000 0.000000 
#    y 0.000000 1.671960 0.000000 
#    z 0.000000 0.000000 1.886320 
# 
# From -- ./inp_files/17575.got.cif
#   From: 2010.05.17/outbox.cif.g08.bks.cpg/sg58_9_cif.got.tgz:17575.got - 2010.06.03 14:20:14.
