data_PCOD9441239
_publ_section_title
;
Structure prediction by ZEFSAII (Michael W. Deem and Ramdas Pophale) SiO2 
 PCOD9441239
Probable space group: P N N M
;
_chemical_formula_sum "Si O2"
_cell_formula_units_Z 42
_cell_length_a 6.796435
_cell_length_b 18.777175
_cell_length_c 13.251791
_cell_angle_alpha 90.000000
_cell_angle_beta 90.000000
_cell_angle_gamma 90.000000
_cell_volume 1691.165068
_symmetry_space_group_name_H-M "P N N M"
_symmetry_group_IT_number 58
_symmetry_cell_setting 'orthorhombic'
loop_
_space_group_symop_operation_xyz
x,y,z
-x,-y,z
1/2+x,1/2-y,1/2-z
1/2-x,1/2+y,1/2-z
-x,-y,-z
x,y,-z
1/2-x,1/2+y,1/2+z
1/2+x,1/2-y,1/2+z
loop_
_atom_site_type_symbol
_atom_site_label
_atom_site_fract_x
_atom_site_fract_y
_atom_site_fract_z
Si Si1 0.722384 0.562913 0.681226
Si Si2 0.630204 0.206157 0.885387
Si Si3 0.293525 0.586428 0.613391
Si Si4 0.000000 0.500000 0.000000
Si Si5 0.576078 0.263983 0.327810
Si Si6 0.249161 0.885974 0.393584
O O1 0.877486 0.622219 0.644608
O O2 0.530458 0.573094 0.612709
O O3 0.782058 0.480878 0.676647
O O4 0.649313 0.586099 0.792539
O O5 0.549338 0.252618 0.792316
O O6 0.864273 0.223480 0.877817
O O7 0.563624 0.219231 0.000000
O O8 0.218329 0.581036 0.500000
O O9 0.287776 0.667458 0.651964
O O10 0.076840 0.442447 0.085433
O O11 0.665167 0.191825 0.373086
O O12 0.131713 0.887021 0.500000
#
# Coordination Sequence:
#
# PCOD9441239 Si02
#       6
#     8   8   8   2   8   8
#     4   9  17  31  53  76 106 136 184 222 278 335
#     4  10  20  37  57  82 113 149 184 236 286 337
#     4  10  18  32  53  80 105 140 181 231 281 330
#     4   8  20  32  52  66  98 142 176 202 268 316
#     4  10  20  35  58  84 110 146 194 231 281 341
#     4   9  18  34  51  76 104 147 184 222 272 330
#
# _framework density 24.834949999999999
#
# number of rings (size 3 to 8) (size 9 to 14) (size 15 to 20)
#    0.571    1.905    0.000    5.143    0.000    1.524 
#    0.000   12.381    0.000    0.000    0.000   10.667 
#    0.000    0.000    0.000    0.000    0.000    0.000 
#
# Total GULP energy -234218.748123 kJ/mol
# GULP energy per Si atom -5576.636860 kJ/mol
# Density = 2.477842 g / cm^3
# Si number density = 24.834950 Si / 1000 Ang^3
#
#
#
# Elastic Constant Matrix: (Units=GPa)
#
#
# Indices 1 2 3 4 5 6 
#
# 1 46.3844 19.3639 -3.6348 0.0000 0.0000 0.0000
# 2 19.3639 188.1053 43.1086 0.0000 0.0000 0.0000
# 3 -3.6348 43.1086 209.4200 0.0000 0.0000 0.0000
# 4 0.0000 0.0000 0.0000 26.9090 0.0000 0.0000
# 5 0.0000 0.0000 0.0000 0.0000 18.1304 0.0000
# 6 0.0000 0.0000 0.0000 0.0000 0.0000 39.4075
#
#
#
# Elastic Compliance Matrix: (Units=1/GPa)
#
#
# Indices 1 2 3 4 5 6 
#
# 1 0.022694 -0.002547 0.000918 0.000000 0.000000 0.000000
# 2 -0.002547 0.005865 -0.001252 0.000000 0.000000 0.000000
# 3 0.000918 -0.001252 0.005049 0.000000 0.000000 0.000000
# 4 0.000000 0.000000 0.000000 0.037162 0.000000 0.000000
# 5 0.000000 0.000000 0.000000 0.000000 0.055156 0.000000
# 6 0.000000 0.000000 0.000000 0.000000 0.000000 0.025376
#
#
# Mechanical properties :
#
#
# Convention : Reuss Voigt Hill
#
# Bulk Modulus (GPa) = 35.90945 62.39833 49.15389
# Shear Modulus (GPa) = 30.05807 42.56084 36.30945
#
# Velocity S-wave (km/s) = 3.48273 4.14423 3.82780
# Velocity P-wave (km/s) = 5.53743 6.93393 6.27465
#
# Compressibility (1/GPa) = 0.02784782
#
# Stress axis : x y z
#
# Youngs Moduli (GPa) = 44.06446 170.49905 198.07269
#
# Poissons Ratio (x) = 0.43419 -0.18185
# Poissons Ratio (y) = 0.11221 0.24789
# Poissons Ratio (z) = -0.04046 0.21338
#
# Static dielectric constant tensor:
#      x y z
#    x 2.069880 0.000000 0.000000 
#    y 0.000000 1.965910 0.000000 
#    z 0.000000 0.000000 1.955200 
# 
# From -- ./inp_files/14279.got.cif
#   From: 2010.05.17/outbox.cif.g08.bks.cpg/sg58_8_cif.got.tgz:14279.got - 2010.06.03 14:20:14.
