data_PCOD9441670
_publ_section_title
;
Structure prediction by ZEFSAII (Michael W. Deem and Ramdas Pophale) SiO2 
 PCOD9441670
Probable space group: P N N M
;
_chemical_formula_sum "Si O2"
_cell_formula_units_Z 40
_cell_length_a 24.265560
_cell_length_b 7.918058
_cell_length_c 10.029049
_cell_angle_alpha 90.000000
_cell_angle_beta 90.000000
_cell_angle_gamma 90.000000
_cell_volume 1926.942477
_symmetry_space_group_name_H-M "P N N M"
_symmetry_group_IT_number 58
_symmetry_cell_setting 'orthorhombic'
loop_
_space_group_symop_operation_xyz
x,y,z
-x,-y,z
1/2+x,1/2-y,1/2-z
1/2-x,1/2+y,1/2-z
-x,-y,-z
x,y,-z
1/2-x,1/2+y,1/2+z
1/2+x,1/2-y,1/2+z
loop_
_atom_site_type_symbol
_atom_site_label
_atom_site_fract_x
_atom_site_fract_y
_atom_site_fract_z
Si Si1 0.308431 0.807774 0.500000
Si Si2 0.893148 0.382987 0.287893
Si Si3 0.863160 0.321475 0.000000
Si Si4 0.806169 0.285532 0.500000
Si Si5 0.752766 0.655862 0.500000
Si Si6 0.660661 0.255757 0.212448
Si Si7 0.585294 0.409512 0.000000
Si Si8 0.025997 0.729056 0.500000
O O1 0.243058 0.846216 0.500000
O O2 0.325797 0.711699 0.365710
O O3 0.337519 0.989544 0.500000
O O4 0.845683 0.286083 0.372249
O O5 0.871747 0.576150 0.291070
O O6 0.949140 0.362557 0.370608
O O7 0.896078 0.312955 0.138411
O O8 0.811411 0.195223 0.000000
O O9 0.772210 0.461726 0.500000
O O10 0.782776 0.733768 0.369975
O O11 0.623106 0.384170 0.129936
O O12 0.554782 0.586736 0.000000
O O13 0.538541 0.264262 0.000000
#
# Coordination Sequence:
#
# PCOD9441670 Si02
#       8
#     4   8   4   4   4   8   4   4
#     4  10  19  31  49  75 106 135 164 200 240 285
#     4   9  19  34  51  74 102 132 167 202 239 290
#     4  10  19  31  49  75 106 135 164 200 240 285
#     4   9  17  29  46  71 104 140 172 197 230 281
#     4   9  17  29  46  71 104 140 172 197 230 281
#     4   9  19  34  51  74 102 132 167 202 239 290
#     4  10  21  37  56  75  93 120 163 210 254 299
#     4  10  21  37  56  75  93 120 163 210 254 299
#
# _framework density 20.758272999999999
#
# number of rings (size 3 to 8) (size 9 to 14) (size 15 to 20)
#    0.000    2.600    0.000    3.000    0.000    6.400 
#    0.000    1.000    0.000    6.000    0.000    0.000 
#    0.000    0.000    0.000    0.000    0.000    0.000 
#
# Total GULP energy -223447.287701 kJ/mol
# GULP energy per Si atom -5586.182193 kJ/mol
# Density = 2.071103 g / cm^3
# Si number density = 20.758273 Si / 1000 Ang^3
#
#
#
# Elastic Constant Matrix: (Units=GPa)
#
#
# Indices 1 2 3 4 5 6 
#
# 1 53.0151 16.8452 25.5894 0.0000 0.0000 0.0000
# 2 16.8452 39.7576 27.3972 0.0000 0.0000 0.0000
# 3 25.5894 27.3972 172.9246 0.0000 0.0000 0.0000
# 4 0.0000 0.0000 0.0000 9.5334 0.0000 0.0000
# 5 0.0000 0.0000 0.0000 0.0000 4.4681 0.0000
# 6 0.0000 0.0000 0.0000 0.0000 0.0000 33.8697
#
#
#
# Elastic Compliance Matrix: (Units=1/GPa)
#
#
# Indices 1 2 3 4 5 6 
#
# 1 0.022417 -0.008096 -0.002035 0.000000 0.000000 0.000000
# 2 -0.008096 0.031159 -0.003739 0.000000 0.000000 0.000000
# 3 -0.002035 -0.003739 0.006676 0.000000 0.000000 0.000000
# 4 0.000000 0.000000 0.000000 0.104895 0.000000 0.000000
# 5 0.000000 0.000000 0.000000 0.000000 0.223807 0.000000
# 6 0.000000 0.000000 0.000000 0.000000 0.000000 0.029525
#
#
# Mechanical properties :
#
#
# Convention : Reuss Voigt Hill
#
# Bulk Modulus (GPa) = 30.75610 45.04011 37.89810
# Shear Modulus (GPa) = 10.93960 22.63195 16.78577
#
# Velocity S-wave (km/s) = 2.29814 3.30549 2.84673
# Velocity P-wave (km/s) = 4.67872 6.02602 5.39459
#
# Compressibility (1/GPa) = 0.03251388
#
# Stress axis : x y z
#
# Youngs Moduli (GPa) = 44.60886 32.09350 149.78423
#
# Poissons Ratio (x) = 0.25983 0.30475
# Poissons Ratio (y) = 0.36115 0.55998
# Poissons Ratio (z) = 0.09076 0.11998
#
# Static dielectric constant tensor:
#      x y z
#    x 1.715940 0.000000 0.000000 
#    y 0.000000 1.800430 0.000000 
#    z 0.000000 0.000000 1.735630 
# 
# From -- ./inp_files/2695.got.cif
#   From: 2010.05.17/outbox.cif.g08.bks.cpg/sg58_2_cif.got.tgz:2695.got - 2010.06.03 14:20:14.
