data_PCOD9441352
_publ_section_title
;
Structure prediction by ZEFSAII (Michael W. Deem and Ramdas Pophale) SiO2 
 PCOD9441352
Probable space group: P N N M
;
_chemical_formula_sum "Si O2"
_cell_formula_units_Z 48
_cell_length_a 19.529485
_cell_length_b 7.189364
_cell_length_c 13.905979
_cell_angle_alpha 90.000000
_cell_angle_beta 90.000000
_cell_angle_gamma 90.000000
_cell_volume 1952.463091
_symmetry_space_group_name_H-M "P N N M"
_symmetry_group_IT_number 58
_symmetry_cell_setting 'orthorhombic'
loop_
_space_group_symop_operation_xyz
x,y,z
-x,-y,z
1/2+x,1/2-y,1/2-z
1/2-x,1/2+y,1/2-z
-x,-y,-z
x,y,-z
1/2-x,1/2+y,1/2+z
1/2+x,1/2-y,1/2+z
loop_
_atom_site_type_symbol
_atom_site_label
_atom_site_fract_x
_atom_site_fract_y
_atom_site_fract_z
Si Si1 0.836164 0.326551 0.602982
Si Si2 0.337521 0.099053 0.313830
Si Si3 0.403752 0.742600 0.268737
Si Si4 0.003765 0.774961 0.392334
Si Si5 0.023196 0.720361 0.888998
Si Si6 0.696515 0.405851 0.892785
O O1 0.822706 0.419054 0.500000
O O2 0.817048 0.421033 0.701919
O O3 0.917190 0.281688 0.609614
O O4 0.799365 0.128417 0.604072
O O5 0.404575 0.224833 0.332224
O O6 0.272621 0.166492 0.372776
O O7 0.361752 0.888885 0.332592
O O8 0.456325 0.821314 0.186714
O O9 0.460409 0.665926 0.342204
O O10 0.352097 0.635987 0.198213
O O11 0.978847 0.734113 0.500000
O O12 0.000000 0.000000 0.377982
O O13 0.000000 0.500000 0.884793
O O14 0.034227 0.766256 0.000000
O O15 0.671479 0.351438 0.000000
#
# Coordination Sequence:
#
# PCOD9441352 Si02
#       6
#     8   8   8   8   8   8
#     4  10  21  36  57  85 117 154 194 239 298 360
#     4  11  22  38  58  89 123 153 198 256 303 351
#     4  11  21  36  62  92 115 151 207 253 293 346
#     4  10  18  33  58  86 117 153 193 238 291 355
#     4   9  19  36  58  84 115 153 196 241 291 349
#     4  11  23  40  61  84 118 165 202 238 302 377
#
# _framework density 24.584330999999999
#
# number of rings (size 3 to 8) (size 9 to 14) (size 15 to 20)
#    0.000    1.667    3.333    2.000    0.000    2.000 
#    0.000    2.500    0.000    5.500    0.000    0.000 
#    0.000    0.000    0.000    0.000    0.000    0.000 
#
# Total GULP energy -268011.313617 kJ/mol
# GULP energy per Si atom -5583.569034 kJ/mol
# Density = 2.452838 g / cm^3
# Si number density = 24.584331 Si / 1000 Ang^3
#
#
#
# Elastic Constant Matrix: (Units=GPa)
#
#
# Indices 1 2 3 4 5 6 
#
# 1 122.0899 3.5310 38.8120 0.0000 0.0000 0.0000
# 2 3.5310 54.3983 -7.5165 0.0000 0.0000 0.0000
# 3 38.8120 -7.5165 135.2808 0.0000 0.0000 0.0000
# 4 0.0000 0.0000 0.0000 23.9216 0.0000 0.0000
# 5 0.0000 0.0000 0.0000 0.0000 3.8080 0.0000
# 6 0.0000 0.0000 0.0000 0.0000 0.0000 23.2131
#
#
#
# Elastic Compliance Matrix: (Units=1/GPa)
#
#
# Indices 1 2 3 4 5 6 
#
# 1 0.009062 -0.000955 -0.002653 0.000000 0.000000 0.000000
# 2 -0.000955 0.018626 0.001309 0.000000 0.000000 0.000000
# 3 -0.002653 0.001309 0.008226 0.000000 0.000000 0.000000
# 4 0.000000 0.000000 0.000000 0.041803 0.000000 0.000000
# 5 0.000000 0.000000 0.000000 0.000000 0.262607 0.000000
# 6 0.000000 0.000000 0.000000 0.000000 0.000000 0.043079
#
#
# Mechanical properties :
#
#
# Convention : Reuss Voigt Hill
#
# Bulk Modulus (GPa) = 31.93289 42.38024 37.15656
# Shear Modulus (GPa) = 12.54898 28.65136 20.60017
#
# Velocity S-wave (km/s) = 2.26176 3.41755 2.89786
# Velocity P-wave (km/s) = 4.45399 5.73140 5.13259
#
# Compressibility (1/GPa) = 0.03131568
#
# Stress axis : x y z
#
# Youngs Moduli (GPa) = 110.35548 53.68911 121.56806
#
# Poissons Ratio (x) = 0.05126 0.32250
# Poissons Ratio (y) = 0.10536 -0.15911
# Poissons Ratio (z) = 0.29275 -0.07027
#
# Static dielectric constant tensor:
#      x y z
#    x 1.976890 0.000000 0.000000 
#    y 0.000000 2.065880 0.000000 
#    z 0.000000 0.000000 1.964470 
# 
# From -- ./inp_files/22753.got.cif
#   From: 2010.05.17/outbox.cif.g08.bks.cpg/sg58_12_cif.got.tgz:22753.got - 2010.06.03 14:20:14.
