data_PCOD9441964
_publ_section_title
;
Structure prediction by ZEFSAII (Michael W. Deem and Ramdas Pophale) SiO2 
 PCOD9441964
Probable space group: P N N M
;
_chemical_formula_sum "Si O2"
_cell_formula_units_Z 48
_cell_length_a 5.137153
_cell_length_b 14.272549
_cell_length_c 32.705587
_cell_angle_alpha 90.000000
_cell_angle_beta 90.000000
_cell_angle_gamma 90.000000
_cell_volume 2397.982401
_symmetry_space_group_name_H-M "P N N M"
_symmetry_group_IT_number 58
_symmetry_cell_setting 'orthorhombic'
loop_
_space_group_symop_operation_xyz
x,y,z
-x,-y,z
1/2+x,1/2-y,1/2-z
1/2-x,1/2+y,1/2-z
-x,-y,-z
x,y,-z
1/2-x,1/2+y,1/2+z
1/2+x,1/2-y,1/2+z
loop_
_atom_site_type_symbol
_atom_site_label
_atom_site_fract_x
_atom_site_fract_y
_atom_site_fract_z
Si Si1 0.061021 0.845692 0.357235
Si Si2 0.943006 0.345761 0.595247
Si Si3 0.578706 0.900306 0.404968
Si Si4 0.335428 0.249403 0.223052
Si Si5 0.573796 0.707376 0.451579
Si Si6 0.760527 0.440475 0.674629
O O1 0.996229 0.743163 0.375610
O O2 0.337947 0.872159 0.376123
O O3 0.086703 0.831021 0.308948
O O4 0.831025 0.908206 0.375863
O O5 0.712047 0.319750 0.564281
O O6 0.831144 0.419892 0.627271
O O7 0.209585 0.357812 0.570358
O O8 0.619007 0.815376 0.436838
O O9 0.500000 0.000000 0.424126
O O10 0.593877 0.224059 0.248308
O O11 0.240952 0.158691 0.197470
O O12 0.594594 0.700675 0.500000
O O13 0.500000 0.500000 0.677650
O O14 0.000000 0.500000 0.692170
#
# Coordination Sequence:
#
# PCOD9441964 Si02
#       6
#     8   8   8   8   8   8
#     4   9  19  35  53  74 102 146 188 216 261 329
#     4   9  19  35  56  78 105 143 184 221 267 330
#     4  10  19  33  52  77 109 144 187 229 265 316
#     4  11  22  39  60  83 114 147 180 224 281 339
#     4  10  19  33  55  81 109 144 184 226 276 332
#     4  11  22  39  63  87 110 142 190 236 272 321
#
# _framework density 20.016825999999998
#
# number of rings (size 3 to 8) (size 9 to 14) (size 15 to 20)
#    0.000    2.000    0.000    4.000    0.000    5.667 
#    0.000    8.333    0.000   16.000    0.000    0.000 
#    0.000    0.000    0.000    0.000    0.000    0.000 
#
# Total GULP energy -267846.720575 kJ/mol
# GULP energy per Si atom -5580.140012 kJ/mol
# Density = 1.997127 g / cm^3
# Si number density = 20.016826 Si / 1000 Ang^3
#
#
#
# Elastic Constant Matrix: (Units=GPa)
#
#
# Indices 1 2 3 4 5 6 
#
# 1 85.7922 9.5708 23.4333 0.0000 0.0000 0.0000
# 2 9.5708 31.9574 -3.0498 0.0000 0.0000 0.0000
# 3 23.4333 -3.0498 86.9403 0.0000 0.0000 0.0000
# 4 0.0000 0.0000 0.0000 11.9625 0.0000 0.0000
# 5 0.0000 0.0000 0.0000 0.0000 -3.5724 0.0000
# 6 0.0000 0.0000 0.0000 0.0000 0.0000 29.4282
#
#
#
# Elastic Compliance Matrix: (Units=1/GPa)
#
#
# Indices 1 2 3 4 5 6 
#
# 1 0.013143 -0.004289 -0.003693 0.000000 0.000000 0.000000
# 2 -0.004289 0.032796 0.002306 0.000000 0.000000 0.000000
# 3 -0.003693 0.002306 0.012578 0.000000 0.000000 0.000000
# 4 0.000000 0.000000 0.000000 0.083594 0.000000 0.000000
# 5 0.000000 0.000000 0.000000 0.000000 -0.279924 0.000000
# 6 0.000000 0.000000 0.000000 0.000000 0.000000 0.033981
#
#
# Mechanical properties :
#
#
# Convention : Reuss Voigt Hill
#
# Bulk Modulus (GPa) = 21.20113 29.39985 25.30049
# Shear Modulus (GPa) = -65.14000 19.21271 -22.96365
#
# Velocity S-wave (km/s) = -5.71080 3.10147 -3.39073
# Velocity P-wave (km/s) = 5.73321 5.24833 1.63168
#
# Compressibility (1/GPa) = 0.04716731
#
# Stress axis : x y z
#
# Youngs Moduli (GPa) = 76.08494 30.49141 79.50112
#
# Poissons Ratio (x) = 0.13077 0.29360
# Poissons Ratio (y) = 0.32630 -0.18336
# Poissons Ratio (z) = 0.28098 -0.07033
#
# Static dielectric constant tensor:
#      x y z
#    x 1.687700 0.000000 0.000000 
#    y 0.000000 1.812580 0.000000 
#    z 0.000000 0.000000 1.683230 
# 
# From -- ./inp_files/32825.got.cif
#   From: 2010.05.17/outbox.cif.g08.bks.cpg/sg58_17_cif.got.tgz:32825.got - 2010.06.03 14:20:14.
