data_PCOD9441793
_publ_section_title
;
Structure prediction by ZEFSAII (Michael W. Deem and Ramdas Pophale) SiO2 
 PCOD9441793
Probable space group: P N N M
;
_chemical_formula_sum "Si O2"
_cell_formula_units_Z 48
_cell_length_a 21.349612
_cell_length_b 13.208200
_cell_length_c 7.843042
_cell_angle_alpha 90.000000
_cell_angle_beta 90.000000
_cell_angle_gamma 90.000000
_cell_volume 2211.658984
_symmetry_space_group_name_H-M "P N N M"
_symmetry_group_IT_number 58
_symmetry_cell_setting 'orthorhombic'
loop_
_space_group_symop_operation_xyz
x,y,z
-x,-y,z
1/2+x,1/2-y,1/2-z
1/2-x,1/2+y,1/2-z
-x,-y,-z
x,y,-z
1/2-x,1/2+y,1/2+z
1/2+x,1/2-y,1/2+z
loop_
_atom_site_type_symbol
_atom_site_label
_atom_site_fract_x
_atom_site_fract_y
_atom_site_fract_z
Si Si1 0.589651 0.064994 0.806603
Si Si2 0.728843 0.111414 0.301885
Si Si3 0.960654 0.188743 0.000000
Si Si4 0.778519 0.373406 0.000000
Si Si5 0.692932 0.350321 0.307106
Si Si6 0.683100 0.636723 0.500000
Si Si7 0.422785 0.076956 0.500000
Si Si8 0.445691 0.698565 0.198755
O O1 0.664812 0.068585 0.779267
O O2 0.565332 0.179832 0.779691
O O3 0.563807 0.987731 0.668125
O O4 0.575859 0.034456 0.000000
O O5 0.738167 0.082751 0.500000
O O6 0.713558 0.232141 0.309634
O O7 0.786614 0.094576 0.174031
O O8 0.892076 0.138303 0.000000
O O9 0.950117 0.310739 0.000000
O O10 0.001433 0.164941 0.831942
O O11 0.739025 0.397640 0.831401
O O12 0.791612 0.252495 0.000000
O O13 0.847921 0.414084 0.000000
O O14 0.697874 0.388544 0.500000
O O15 0.621054 0.351578 0.245356
O O16 0.460665 0.680486 0.000000
#
# Coordination Sequence:
#
# PCOD9441793 Si02
#       8
#     8   8   4   4   8   4   4   8
#     4  10  19  32  51  71  95 134 179 210 231 276
#     4   9  15  27  50  72  87 116 164 210 248 282
#     4  11  23  34  45  70 111 141 159 196 254 301
#     4   9  18  31  46  69  98 124 154 205 261 297
#     4   9  15  27  50  72  87 116 164 210 248 282
#     4   9  18  31  46  69  98 124 154 205 261 297
#     4  11  23  34  45  70 111 141 159 196 254 301
#     4  10  19  32  51  71  95 134 179 210 231 276
#
# _framework density 21.703166
#
# number of rings (size 3 to 8) (size 9 to 14) (size 15 to 20)
#    0.000    2.333    3.333    0.500    0.000    3.333 
#    0.000    5.000    0.000    0.000    0.000    0.000 
#    0.000    4.000    0.000    0.000    0.000    0.000 
#
# Total GULP energy -268341.490459 kJ/mol
# GULP energy per Si atom -5590.447718 kJ/mol
# Density = 2.165377 g / cm^3
# Si number density = 21.703166 Si / 1000 Ang^3
#
#
#
# Elastic Constant Matrix: (Units=GPa)
#
#
# Indices 1 2 3 4 5 6 
#
# 1 184.5414 13.8132 103.5030 0.0000 0.0000 0.0000
# 2 13.8132 30.0362 22.2644 0.0000 0.0000 0.0000
# 3 103.5030 22.2644 185.2579 0.0000 0.0000 0.0000
# 4 0.0000 0.0000 0.0000 29.3385 0.0000 0.0000
# 5 0.0000 0.0000 0.0000 0.0000 81.9280 0.0000
# 6 0.0000 0.0000 0.0000 0.0000 0.0000 18.6475
#
#
#
# Elastic Compliance Matrix: (Units=1/GPa)
#
#
# Indices 1 2 3 4 5 6 
#
# 1 0.007896 -0.000397 -0.004364 0.000000 0.000000 0.000000
# 2 -0.000397 0.036569 -0.004173 0.000000 0.000000 0.000000
# 3 -0.004364 -0.004173 0.008337 0.000000 0.000000 0.000000
# 4 0.000000 0.000000 0.000000 0.034085 0.000000 0.000000
# 5 0.000000 0.000000 0.000000 0.000000 0.012206 0.000000
# 6 0.000000 0.000000 0.000000 0.000000 0.000000 0.053626
#
#
# Mechanical properties :
#
#
# Convention : Reuss Voigt Hill
#
# Bulk Modulus (GPa) = 28.62447 75.44407 52.03427
# Shear Modulus (GPa) = 27.43750 43.33313 35.38531
#
# Velocity S-wave (km/s) = 3.55944 4.47321 4.04223
# Velocity P-wave (km/s) = 5.48731 7.84326 6.76858
#
# Compressibility (1/GPa) = 0.03493515
#
# Stress axis : x y z
#
# Youngs Moduli (GPa) = 126.64563 27.34550 119.94017
#
# Poissons Ratio (x) = 0.01084 0.52340
# Poissons Ratio (y) = 0.05023 0.50055
# Poissons Ratio (z) = 0.55266 0.11412
#
# Static dielectric constant tensor:
#      x y z
#    x 1.739990 0.000000 0.000000 
#    y 0.000000 1.851310 0.000000 
#    z 0.000000 0.000000 1.755050 
# 
# From -- ./inp_files/7786.got.cif
#   From: 2010.05.17/outbox.cif.g08.bks.cpg/sg58_4_cif.got.tgz:7786.got - 2010.06.03 14:20:14.
