data_PCOD9441849
_publ_section_title
;
Structure prediction by ZEFSAII (Michael W. Deem and Ramdas Pophale) SiO2 
 PCOD9441849
Probable space group: P N N M
;
_chemical_formula_sum "Si O2"
_cell_formula_units_Z 40
_cell_length_a 13.360811
_cell_length_b 15.652879
_cell_length_c 7.485232
_cell_angle_alpha 90.000000
_cell_angle_beta 90.000000
_cell_angle_gamma 90.000000
_cell_volume 1565.425176
_symmetry_space_group_name_H-M "P N N M"
_symmetry_group_IT_number 58
_symmetry_cell_setting 'orthorhombic'
loop_
_space_group_symop_operation_xyz
x,y,z
-x,-y,z
1/2+x,1/2-y,1/2-z
1/2-x,1/2+y,1/2-z
-x,-y,-z
x,y,-z
1/2-x,1/2+y,1/2+z
1/2+x,1/2-y,1/2+z
loop_
_atom_site_type_symbol
_atom_site_label
_atom_site_fract_x
_atom_site_fract_y
_atom_site_fract_z
Si Si1 0.495734 0.138228 0.288984
Si Si2 0.838239 0.487434 0.211870
Si Si3 0.976470 0.902989 0.282164
Si Si4 0.688405 0.623744 0.791945
Si Si5 0.340476 0.731966 0.799582
O O1 0.486088 0.157624 0.500000
O O2 0.575390 0.060129 0.275544
O O3 0.554594 0.215046 0.197330
O O4 0.390408 0.099558 0.219893
O O5 0.743569 0.539764 0.286258
O O6 0.821226 0.472613 0.000000
O O7 0.966382 0.899200 0.500000
O O8 0.078803 0.857504 0.220002
O O9 0.875894 0.857143 0.216256
O O10 0.000000 0.000000 0.234661
O O11 0.760613 0.705100 0.785641
O O12 0.673772 0.602606 0.000000
O O13 0.303436 0.718168 0.000000
#
# Coordination Sequence:
#
# PCOD9441849 Si02
#       5
#     8   8   8   8   8
#     4   8  13  25  45  71 102 135 171 211 258 310
#     4   7  11  22  44  72  96 126 173 215 242 294
#     4   9  19  37  58  79 106 144 187 226 264 315
#     4   9  17  34  58  77 101 141 183 219 263 319
#     4  10  19  32  52  81 111 135 171 225 274 317
#
# _framework density 25.552163
#
# number of rings (size 3 to 8) (size 9 to 14) (size 15 to 20)
#    0.000    3.400    0.000    3.000    0.000    0.000 
#    3.600   10.000    0.000    5.400    0.000    0.000 
#    0.000    0.000    0.000    0.000    0.000    0.000 
#
# Total GULP energy -223048.298177 kJ/mol
# GULP energy per Si atom -5576.207454 kJ/mol
# Density = 2.549400 g / cm^3
# Si number density = 25.552163 Si / 1000 Ang^3
#
#
#
# Elastic Constant Matrix: (Units=GPa)
#
#
# Indices 1 2 3 4 5 6 
#
# 1 85.6878 27.1190 -5.2008 0.0000 0.0000 0.0000
# 2 27.1190 87.8335 -8.9829 0.0000 0.0000 0.0000
# 3 -5.2008 -8.9829 61.3475 0.0000 0.0000 0.0000
# 4 0.0000 0.0000 0.0000 30.3506 0.0000 0.0000
# 5 0.0000 0.0000 0.0000 0.0000 -3.4407 0.0000
# 6 0.0000 0.0000 0.0000 0.0000 0.0000 41.0295
#
#
#
# Elastic Compliance Matrix: (Units=1/GPa)
#
#
# Indices 1 2 3 4 5 6 
#
# 1 0.012950 -0.003945 0.000520 0.000000 0.000000 0.000000
# 2 -0.003945 0.012760 0.001534 0.000000 0.000000 0.000000
# 3 0.000520 0.001534 0.016569 0.000000 0.000000 0.000000
# 4 0.000000 0.000000 0.000000 0.032948 0.000000 0.000000
# 5 0.000000 0.000000 0.000000 0.000000 -0.290639 0.000000
# 6 0.000000 0.000000 0.000000 0.000000 0.000000 0.024373
#
#
# Mechanical properties :
#
#
# Convention : Reuss Voigt Hill
#
# Bulk Modulus (GPa) = 25.97562 28.97105 27.47334
# Shear Modulus (GPa) = -28.66594 28.38346 -0.14124
#
# Velocity S-wave (km/s) = -3.35305 3.33649 -0.23537
# Velocity P-wave (km/s) = 2.19153 5.11913 3.27129
#
# Compressibility (1/GPa) = 0.03849764
#
# Stress axis : x y z
#
# Youngs Moduli (GPa) = 77.21721 78.36871 60.35262
#
# Poissons Ratio (x) = 0.30919 -0.03140
# Poissons Ratio (y) = 0.30465 -0.09258
# Poissons Ratio (z) = -0.04017 -0.12021
#
# Static dielectric constant tensor:
#      x y z
#    x 2.061270 0.000000 0.000000 
#    y 0.000000 2.082830 0.000000 
#    z 0.000000 0.000000 1.944790 
# 
# From -- ./inp_files/5378.got.cif
#   From: 2010.05.17/outbox.cif.g08.bks.cpg/sg58_3_cif.got.tgz:5378.got - 2010.06.03 14:20:14.
