data_PCOD9441744
_publ_section_title
;
Structure prediction by ZEFSAII (Michael W. Deem and Ramdas Pophale) SiO2 
 PCOD9441744
Probable space group: P N N M
;
_chemical_formula_sum "Si O2"
_cell_formula_units_Z 64
_cell_length_a 15.019155
_cell_length_b 11.106309
_cell_length_c 18.429787
_cell_angle_alpha 90.000000
_cell_angle_beta 90.000000
_cell_angle_gamma 90.000000
_cell_volume 3074.224416
_symmetry_space_group_name_H-M "P N N M"
_symmetry_group_IT_number 58
_symmetry_cell_setting 'orthorhombic'
loop_
_space_group_symop_operation_xyz
x,y,z
-x,-y,z
1/2+x,1/2-y,1/2-z
1/2-x,1/2+y,1/2-z
-x,-y,-z
x,y,-z
1/2-x,1/2+y,1/2+z
1/2+x,1/2-y,1/2+z
loop_
_atom_site_type_symbol
_atom_site_label
_atom_site_fract_x
_atom_site_fract_y
_atom_site_fract_z
Si Si1 0.869715 0.248693 0.174089
Si Si2 0.994475 0.867588 0.080244
Si Si3 0.428050 0.609276 0.181589
Si Si4 0.993716 0.634830 0.730747
Si Si5 0.700521 0.493356 0.708199
Si Si6 0.240560 0.107096 0.415034
Si Si7 0.285034 0.673961 0.583398
Si Si8 0.825152 0.595363 0.831911
O O1 0.855369 0.114231 0.200053
O O2 0.780095 0.287202 0.134704
O O3 0.948430 0.234923 0.116545
O O4 0.909723 0.332283 0.236076
O O5 0.892045 0.833534 0.076523
O O6 0.033386 0.883822 0.000000
O O7 0.000000 0.000000 0.115533
O O8 0.500000 0.500000 0.182691
O O9 0.466735 0.746037 0.184034
O O10 0.366130 0.600833 0.253690
O O11 0.358471 0.584232 0.116084
O O12 0.921201 0.623317 0.796849
O O13 0.000000 0.500000 0.697444
O O14 0.738121 0.441675 0.632837
O O15 0.773733 0.533097 0.765646
O O16 0.239007 0.131785 0.500000
O O17 0.311785 0.001013 0.396692
O O18 0.250069 0.679586 0.500000
O O19 0.272830 0.789526 0.635262
#
# Coordination Sequence:
#
# PCOD9441744 Si02
#       8
#     8   8   8   8   8   8   8   8
#     4  12  21  36  61  96 130 170 219 276 332 416
#     4  10  19  31  52  85 125 166 208 257 322 407
#     4  11  23  45  73  98 125 179 239 288 329 402
#     4  12  23  39  64 100 136 168 218 277 349 420
#     4  11  23  37  65  91 127 171 231 280 323 399
#     4  11  26  44  64  95 135 179 228 285 349 412
#     4  11  22  37  61  91 129 172 215 274 339 403
#     4  11  23  40  60  92 130 174 218 271 339 410
#
# _framework density 20.818258
#
# number of rings (size 3 to 8) (size 9 to 14) (size 15 to 20)
#    0.000    0.875    6.250    1.500    1.750    0.750 
#    0.000    0.625    0.000    0.375    0.000    0.000 
#    0.000    0.000    0.000    0.000    0.000    0.000 
#
# Total GULP energy -356739.388026 kJ/mol
# GULP energy per Si atom -5574.052938 kJ/mol
# Density = 2.077087 g / cm^3
# Si number density = 20.818258 Si / 1000 Ang^3
#
#
#
# Elastic Constant Matrix: (Units=GPa)
#
#
# Indices 1 2 3 4 5 6 
#
# 1 59.6095 18.1655 28.8355 0.0000 0.0000 0.0000
# 2 18.1655 102.4450 7.6585 0.0000 0.0000 0.0000
# 3 28.8355 7.6585 55.9379 0.0000 0.0000 0.0000
# 4 0.0000 0.0000 0.0000 63.7750 0.0000 0.0000
# 5 0.0000 0.0000 0.0000 0.0000 24.5847 0.0000
# 6 0.0000 0.0000 0.0000 0.0000 0.0000 24.8821
#
#
#
# Elastic Compliance Matrix: (Units=1/GPa)
#
#
# Indices 1 2 3 4 5 6 
#
# 1 0.023391 -0.003280 -0.011609 0.000000 0.000000 0.000000
# 2 -0.003280 0.010322 0.000277 0.000000 0.000000 0.000000
# 3 -0.011609 0.000277 0.023823 0.000000 0.000000 0.000000
# 4 0.000000 0.000000 0.000000 0.015680 0.000000 0.000000
# 5 0.000000 0.000000 0.000000 0.000000 0.040676 0.000000
# 6 0.000000 0.000000 0.000000 0.000000 0.000000 0.040190
#
#
# Mechanical properties :
#
#
# Convention : Reuss Voigt Hill
#
# Bulk Modulus (GPa) = 35.31808 36.36793 35.84301
# Shear Modulus (GPa) = 25.94144 33.53723 29.73933
#
# Velocity S-wave (km/s) = 3.53383 4.01802 3.78368
# Velocity P-wave (km/s) = 5.80107 6.24765 6.02850
#
# Compressibility (1/GPa) = 0.02831411
#
# Stress axis : x y z
#
# Youngs Moduli (GPa) = 42.75157 96.87888 41.97591
#
# Poissons Ratio (x) = 0.31775 0.48729
# Poissons Ratio (y) = 0.14022 -0.01165
# Poissons Ratio (z) = 0.49629 -0.02688
#
# Static dielectric constant tensor:
#      x y z
#    x 1.935230 0.000000 0.000000 
#    y 0.000000 1.899830 0.000000 
#    z 0.000000 0.000000 1.783430 
# 
# From -- ./inp_files/27009.got.cif
#   From: 2010.05.17/outbox.cif.g08.bks.cpg/sg58_14_cif.got.tgz:27009.got - 2010.06.03 14:20:14.
