data_PCOD9441141
_publ_section_title
;
Structure prediction by ZEFSAII (Michael W. Deem and Ramdas Pophale) SiO2 
 PCOD9441141
Probable space group: P N N M
;
_chemical_formula_sum "Si O2"
_cell_formula_units_Z 48
_cell_length_a 30.233155
_cell_length_b 10.583588
_cell_length_c 7.611126
_cell_angle_alpha 90.000000
_cell_angle_beta 90.000000
_cell_angle_gamma 90.000000
_cell_volume 2435.371994
_symmetry_space_group_name_H-M "P N N M"
_symmetry_group_IT_number 58
_symmetry_cell_setting 'orthorhombic'
loop_
_space_group_symop_operation_xyz
x,y,z
-x,-y,z
1/2+x,1/2-y,1/2-z
1/2-x,1/2+y,1/2-z
-x,-y,-z
x,y,-z
1/2-x,1/2+y,1/2+z
1/2+x,1/2-y,1/2+z
loop_
_atom_site_type_symbol
_atom_site_label
_atom_site_fract_x
_atom_site_fract_y
_atom_site_fract_z
Si Si1 0.976107 0.372120 0.784168
Si Si2 0.284160 0.523231 0.210114
Si Si3 0.883573 0.996013 0.708706
Si Si4 0.473362 0.622245 0.711052
Si Si5 0.383882 0.219012 0.296382
Si Si6 0.215594 0.732861 0.212408
O O1 0.925536 0.356364 0.721753
O O2 0.000000 0.500000 0.729866
O O3 0.004251 0.250695 0.726184
O O4 0.975034 0.370606 0.000000
O O5 0.334648 0.539947 0.274886
O O6 0.249873 0.627576 0.277905
O O7 0.271680 0.377407 0.245283
O O8 0.285290 0.539173 0.000000
O O9 0.880685 0.015534 0.500000
O O10 0.922026 0.896814 0.745401
O O11 0.895872 0.132094 0.789038
O O12 0.500000 0.500000 0.778546
O O13 0.477081 0.622014 0.500000
O O14 0.380166 0.181289 0.500000
O O15 0.334494 0.209178 0.219766
O O16 0.213911 0.725742 0.000000
#
# Coordination Sequence:
#
# PCOD9441141 Si02
#       6
#     8   8   8   8   8   8
#     4   9  17  30  48  71  99 125 153 199 250 287
#     4   9  19  35  51  74 105 132 164 209 254 296
#     4  10  19  31  50  73 100 131 164 200 244 294
#     4  10  18  31  51  74  97 123 161 207 243 280
#     4   9  16  31  53  72  94 127 167 201 239 289
#     4   9  18  33  54  75  97 130 169 207 247 295
#
# _framework density 19.709515
#
# number of rings (size 3 to 8) (size 9 to 14) (size 15 to 20)
#    0.000    2.667    1.667    0.500    0.000    1.667 
#    3.000    0.000    0.000    2.000    0.000    0.000 
#    0.000    0.000    0.000    0.000    0.000    0.000 
#
# Total GULP energy -267716.854095 kJ/mol
# GULP energy per Si atom -5577.434460 kJ/mol
# Density = 1.966466 g / cm^3
# Si number density = 19.709515 Si / 1000 Ang^3
#
#
#
# Elastic Constant Matrix: (Units=GPa)
#
#
# Indices 1 2 3 4 5 6 
#
# 1 145.7541 101.0885 -0.9959 0.0000 0.0000 0.0000
# 2 101.0885 135.1931 -1.1663 0.0000 0.0000 0.0000
# 3 -0.9959 -1.1663 40.8068 0.0000 0.0000 0.0000
# 4 0.0000 0.0000 0.0000 9.7566 0.0000 0.0000
# 5 0.0000 0.0000 0.0000 0.0000 13.7848 0.0000
# 6 0.0000 0.0000 0.0000 0.0000 0.0000 38.6630
#
#
#
# Elastic Compliance Matrix: (Units=1/GPa)
#
#
# Indices 1 2 3 4 5 6 
#
# 1 0.014252 -0.010656 0.000043 0.000000 0.000000 0.000000
# 2 -0.010656 0.015366 0.000179 0.000000 0.000000 0.000000
# 3 0.000043 0.000179 0.024512 0.000000 0.000000 0.000000
# 4 0.000000 0.000000 0.000000 0.102495 0.000000 0.000000
# 5 0.000000 0.000000 0.000000 0.000000 0.072544 0.000000
# 6 0.000000 0.000000 0.000000 0.000000 0.000000 0.025865
#
#
# Mechanical properties :
#
#
# Convention : Reuss Voigt Hill
#
# Bulk Modulus (GPa) = 30.06393 57.73409 43.89901
# Shear Modulus (GPa) = 17.42233 27.29606 22.35919
#
# Velocity S-wave (km/s) = 2.97636 3.72549 3.37179
# Velocity P-wave (km/s) = 5.20560 6.91822 6.12209
#
# Compressibility (1/GPa) = 0.03326245
#
# Stress axis : x y z
#
# Youngs Moduli (GPa) = 70.16635 65.07710 40.79648
#
# Poissons Ratio (x) = 0.69348 -0.00176
# Poissons Ratio (y) = 0.74771 -0.00731
# Poissons Ratio (z) = -0.00303 -0.01166
#
# Static dielectric constant tensor:
#      x y z
#    x 1.719600 0.000000 0.000000 
#    y 0.000000 1.650890 0.000000 
#    z 0.000000 0.000000 1.734930 
# 
# From -- ./inp_files/2964.got.cif
#   From: 2010.05.17/outbox.cif.g08.bks.cpg/sg58_2_cif.got.tgz:2964.got - 2010.06.03 14:20:14.
