data_PCOD9441438
_publ_section_title
;
Structure prediction by ZEFSAII (Michael W. Deem and Ramdas Pophale) SiO2 
 PCOD9441438
Probable space group: P N N M
;
_chemical_formula_sum "Si O2"
_cell_formula_units_Z 58
_cell_length_a 18.407410
_cell_length_b 18.730371
_cell_length_c 7.662390
_cell_angle_alpha 90.000000
_cell_angle_beta 90.000000
_cell_angle_gamma 90.000000
_cell_volume 2641.820576
_symmetry_space_group_name_H-M "P N N M"
_symmetry_group_IT_number 58
_symmetry_cell_setting 'orthorhombic'
loop_
_space_group_symop_operation_xyz
x,y,z
-x,-y,z
1/2+x,1/2-y,1/2-z
1/2-x,1/2+y,1/2-z
-x,-y,-z
x,y,-z
1/2-x,1/2+y,1/2+z
1/2+x,1/2-y,1/2+z
loop_
_atom_site_type_symbol
_atom_site_label
_atom_site_fract_x
_atom_site_fract_y
_atom_site_fract_z
Si Si1 0.000000 0.000000 0.500000
Si Si2 0.482281 0.391219 0.699140
Si Si3 0.219357 0.273764 0.788321
Si Si4 0.950168 0.269565 0.198633
Si Si5 0.810917 0.350469 0.700415
Si Si6 0.177646 0.492400 0.710285
Si Si7 0.320510 0.406909 0.206652
Si Si8 0.418408 0.862878 0.201325
O O1 0.981892 0.940571 0.655339
O O2 0.510758 0.396980 0.500000
O O3 0.480047 0.307646 0.755146
O O4 0.397029 0.413970 0.700024
O O5 0.246074 0.197090 0.723641
O O6 0.282223 0.331729 0.750041
O O7 0.145997 0.304746 0.710717
O O8 0.211565 0.272576 0.000000
O O9 0.881596 0.300431 0.299697
O O10 0.012972 0.328620 0.206290
O O11 0.925664 0.259269 0.000000
O O12 0.790054 0.364812 0.500000
O O13 0.829531 0.427282 0.778306
O O14 0.169216 0.490964 0.500000
O O15 0.258181 0.464069 0.752540
O O16 0.118354 0.434969 0.775747
O O17 0.337257 0.409539 0.000000
O O18 0.439285 0.875182 0.000000
#
# Coordination Sequence:
#
# PCOD9441438 Si02
#       8
#     2   8   8   8   8   8   8   8
#     4  12  26  44  68  90 132 158 218 258 320 376
#     4  11  24  43  66  94 127 172 214 263 319 386
#     4   9  18  34  59  86 114 153 206 263 316 377
#     4  11  24  40  63  90 123 164 214 261 316 386
#     4  10  20  37  62  89 122 160 210 266 316 382
#     4   9  20  37  57  89 125 163 208 263 328 382
#     4  10  18  35  63  88 117 163 209 254 315 383
#     4  10  21  37  59  84 122 167 209 261 321 388
#
# _framework density 21.954556
#
# number of rings (size 3 to 8) (size 9 to 14) (size 15 to 20)
#    0.000    1.931    2.069    1.448    1.931    2.759 
#    2.483    2.759    0.000    0.000    0.000    0.000 
#    0.000    0.000    0.000    0.000    0.000    0.000 
#
# Total GULP energy -323324.527489 kJ/mol
# GULP energy per Si atom -5574.560819 kJ/mol
# Density = 2.190459 g / cm^3
# Si number density = 21.954556 Si / 1000 Ang^3
#
#
#
# Elastic Constant Matrix: (Units=GPa)
#
#
# Indices 1 2 3 4 5 6 
#
# 1 5.3873 -7.2810 -1.4433 0.0000 0.0000 0.0000
# 2 -7.2810 126.6584 15.8719 0.0000 0.0000 0.0000
# 3 -1.4433 15.8719 55.4998 0.0000 0.0000 0.0000
# 4 0.0000 0.0000 0.0000 16.1640 0.0000 0.0000
# 5 0.0000 0.0000 0.0000 0.0000 10.4786 0.0000
# 6 0.0000 0.0000 0.0000 0.0000 0.0000 -5.3513
#
#
#
# Elastic Compliance Matrix: (Units=1/GPa)
#
#
# Indices 1 2 3 4 5 6 
#
# 1 0.201470 0.011331 0.001999 0.000000 0.000000 0.000000
# 2 0.011331 0.008826 -0.002229 0.000000 0.000000 0.000000
# 3 0.001999 -0.002229 0.018708 0.000000 0.000000 0.000000
# 4 0.000000 0.000000 0.000000 0.061866 0.000000 0.000000
# 5 0.000000 0.000000 0.000000 0.000000 0.095433 0.000000
# 6 0.000000 0.000000 0.000000 0.000000 0.000000 -0.186870
#
#
# Mechanical properties :
#
#
# Convention : Reuss Voigt Hill
#
# Bulk Modulus (GPa) = 3.98082 22.42674 13.20378
# Shear Modulus (GPa) = 19.15961 16.28478 17.72219
#
# Velocity S-wave (km/s) = 2.95734 2.72646 2.84425
# Velocity P-wave (km/s) = 3.67128 4.48873 4.10043
#
# Compressibility (1/GPa) = 0.25120425
#
# Stress axis : x y z
#
# Youngs Moduli (GPa) = 4.96353 113.30157 53.45414
#
# Poissons Ratio (x) = -1.28384 -0.10684
# Poissons Ratio (y) = -0.05624 0.11917
# Poissons Ratio (z) = -0.00992 0.25259
#
# Static dielectric constant tensor:
#      x y z
#    x 1.801320 0.000000 0.000000 
#    y 0.000000 1.851410 0.000000 
#    z 0.000000 0.000000 1.818600 
# 
# From -- ./inp_files/8021.got.cif
#   From: 2010.05.17/outbox.cif.g08.bks.cpg/sg58_5_cif.got.tgz:8021.got - 2010.06.03 14:20:14.
