data_PCOD9441976
_publ_section_title
;
Structure prediction by ZEFSAII (Michael W. Deem and Ramdas Pophale) SiO2 
 PCOD9441976
Probable space group: P N N M
;
_chemical_formula_sum "Si O2"
_cell_formula_units_Z 64
_cell_length_a 25.375996
_cell_length_b 15.268964
_cell_length_c 7.433559
_cell_angle_alpha 90.000000
_cell_angle_beta 90.000000
_cell_angle_gamma 90.000000
_cell_volume 2880.245197
_symmetry_space_group_name_H-M "P N N M"
_symmetry_group_IT_number 58
_symmetry_cell_setting 'orthorhombic'
loop_
_space_group_symop_operation_xyz
x,y,z
-x,-y,z
1/2+x,1/2-y,1/2-z
1/2-x,1/2+y,1/2-z
-x,-y,-z
x,y,-z
1/2-x,1/2+y,1/2+z
1/2+x,1/2-y,1/2+z
loop_
_atom_site_type_symbol
_atom_site_label
_atom_site_fract_x
_atom_site_fract_y
_atom_site_fract_z
Si Si1 0.512373 0.404124 0.209615
Si Si2 0.446164 0.047388 0.220369
Si Si3 0.874683 0.946273 0.782453
Si Si4 0.169589 0.488401 0.279919
Si Si5 0.644988 0.638174 0.717086
Si Si6 0.738290 0.380777 0.287592
Si Si7 0.737873 0.174062 0.216318
Si Si8 0.946660 0.256102 0.707169
O O1 0.500000 0.500000 0.290110
O O2 0.575068 0.392066 0.220192
O O3 0.481460 0.321844 0.290041
O O4 0.496563 0.408567 0.000000
O O5 0.390369 0.005866 0.277980
O O6 0.448905 0.147568 0.284585
O O7 0.500000 0.000000 0.274664
O O8 0.444892 0.046879 0.000000
O O9 0.817781 0.915029 0.716251
O O10 0.881609 0.047329 0.726275
O O11 0.874445 0.943621 0.000000
O O12 0.169107 0.489342 0.500000
O O13 0.210669 0.565149 0.220683
O O14 0.193113 0.394042 0.222421
O O15 0.643930 0.642135 0.500000
O O16 0.705389 0.637558 0.774581
O O17 0.612784 0.720239 0.787993
O O18 0.737525 0.399905 0.500000
O O19 0.737666 0.276138 0.266195
O O20 0.736468 0.171566 0.000000
O O21 0.964104 0.265069 0.500000
#
# Coordination Sequence:
#
# PCOD9441976 Si02
#       8
#     8   8   8   8   8   8   8   8
#     4  10  20  33  49  76 113 140 167 217 274 321
#     4   9  18  32  52  78 102 131 177 222 257 306
#     4  10  20  34  53  75 104 142 181 217 258 321
#     4   9  17  33  55  75 103 141 177 215 264 319
#     4  10  19  33  53  77 106 138 178 221 261 316
#     4  10  20  36  55  79 109 142 180 222 266 320
#     4  10  20  34  54  80 107 140 179 220 270 322
#     4  10  20  34  54  79 106 139 179 221 266 317
#
# _framework density 22.220331000000002
#
# number of rings (size 3 to 8) (size 9 to 14) (size 15 to 20)
#    0.000    2.250    2.500    0.750    0.000    3.750 
#    0.000    3.125    0.000    1.125    0.000    0.000 
#    0.000    0.000    0.000    0.000    0.000    0.000 
#
# Total GULP energy -357368.622019 kJ/mol
# GULP energy per Si atom -5583.884719 kJ/mol
# Density = 2.216976 g / cm^3
# Si number density = 22.220331 Si / 1000 Ang^3
#
#
#
# Elastic Constant Matrix: (Units=GPa)
#
#
# Indices 1 2 3 4 5 6 
#
# 1 173.6851 67.3757 1.2186 0.0000 0.0000 0.0000
# 2 67.3757 99.1069 -4.1021 0.0000 0.0000 0.0000
# 3 1.2186 -4.1021 69.0474 0.0000 0.0000 0.0000
# 4 0.0000 0.0000 0.0000 11.7224 0.0000 0.0000
# 5 0.0000 0.0000 0.0000 0.0000 23.7480 0.0000
# 6 0.0000 0.0000 0.0000 0.0000 0.0000 36.0510
#
#
#
# Elastic Compliance Matrix: (Units=1/GPa)
#
#
# Indices 1 2 3 4 5 6 
#
# 1 0.007834 -0.005345 -0.000456 0.000000 0.000000 0.000000
# 2 -0.005345 0.013761 0.000912 0.000000 0.000000 0.000000
# 3 -0.000456 0.000912 0.014545 0.000000 0.000000 0.000000
# 4 0.000000 0.000000 0.000000 0.085307 0.000000 0.000000
# 5 0.000000 0.000000 0.000000 0.000000 0.042109 0.000000
# 6 0.000000 0.000000 0.000000 0.000000 0.000000 0.027738
#
#
# Mechanical properties :
#
#
# Convention : Reuss Voigt Hill
#
# Bulk Modulus (GPa) = 37.93159 52.31374 45.12267
# Shear Modulus (GPa) = 23.82544 32.79408 28.30976
#
# Velocity S-wave (km/s) = 3.27805 3.84586 3.57325
# Velocity P-wave (km/s) = 5.60671 6.58142 6.11353
#
# Compressibility (1/GPa) = 0.02636325
#
# Stress axis : x y z
#
# Youngs Moduli (GPa) = 127.64805 72.66747 68.75201
#
# Poissons Ratio (x) = 0.38838 0.03134
# Poissons Ratio (y) = 0.68224 -0.06269
# Poissons Ratio (z) = 0.05818 -0.06626
#
# Static dielectric constant tensor:
#      x y z
#    x 1.805570 0.000000 0.000000 
#    y 0.000000 1.816030 0.000000 
#    z 0.000000 0.000000 1.848830 
# 
# From -- ./inp_files/9942.got.cif
#   From: 2010.05.17/outbox.cif.g08.bks.cpg/sg58_5_cif.got.tgz:9942.got - 2010.06.03 14:20:14.
