data_PCOD9441055
_publ_section_title
;
Structure prediction by ZEFSAII (Michael W. Deem and Ramdas Pophale) SiO2 
 PCOD9441055
Probable space group: P N N M
;
_chemical_formula_sum "Si O2"
_cell_formula_units_Z 48
_cell_length_a 6.529452
_cell_length_b 16.973432
_cell_length_c 17.124740
_cell_angle_alpha 90.000000
_cell_angle_beta 90.000000
_cell_angle_gamma 90.000000
_cell_volume 1897.887148
_symmetry_space_group_name_H-M "P N N M"
_symmetry_group_IT_number 58
_symmetry_cell_setting 'orthorhombic'
loop_
_space_group_symop_operation_xyz
x,y,z
-x,-y,z
1/2+x,1/2-y,1/2-z
1/2-x,1/2+y,1/2-z
-x,-y,-z
x,y,-z
1/2-x,1/2+y,1/2+z
1/2+x,1/2-y,1/2+z
loop_
_atom_site_type_symbol
_atom_site_label
_atom_site_fract_x
_atom_site_fract_y
_atom_site_fract_z
Si Si1 0.329794 0.290637 0.831829
Si Si2 0.339041 0.572702 0.834519
Si Si3 0.241447 0.020440 0.000000
Si Si4 0.338087 0.572101 0.000000
Si Si5 0.256414 0.520303 0.328452
Si Si6 0.352547 0.839872 0.000000
Si Si7 0.369372 0.841235 0.170081
Si Si8 0.177716 0.791126 0.500000
O O1 0.527195 0.348234 0.832208
O O2 0.413662 0.202350 0.832341
O O3 0.223510 0.309940 0.750757
O O4 0.217788 0.303417 0.915567
O O5 0.500000 0.500000 0.837295
O O6 0.220221 0.562780 0.754130
O O7 0.222538 0.570194 0.917386
O O8 0.275742 0.057141 0.914428
O O9 0.353493 0.934926 0.000000
O O10 0.000000 0.000000 0.000000
O O11 0.500000 0.500000 0.000000
O O12 0.515687 0.351250 0.000000
O O13 0.500000 0.500000 0.326992
O O14 0.146444 0.435378 0.327109
O O15 0.262072 0.819232 0.086052
O O16 0.568415 0.794118 0.000000
#
# Coordination Sequence:
#
# PCOD9441055 Si02
#       8
#     8   8   4   4   8   4   8   4
#     4  10  18  30  47  70  95 125 156 193 232 278
#     4   9  14  25  42  64  87 114 150 188 222 261
#     4   8  14  20  36  62  85 107 145 191 219 251
#     4   8  14  20  36  62  85 107 145 191 219 251
#     4   9  14  25  42  64  87 114 150 188 222 261
#     4   8  16  28  43  62  92 126 157 180 223 286
#     4  10  18  30  47  70  95 125 156 193 232 278
#     4   8  16  28  43  62  92 126 157 180 223 286
#
# _framework density 25.291281999999999
#
# number of rings (size 3 to 8) (size 9 to 14) (size 15 to 20)
#    0.000    3.000    3.333    0.000    0.000    0.000 
#    0.000    0.833    0.000    1.000    0.000    0.000 
#    0.000   16.000    0.000    0.000    0.000    0.000 
#
# Total GULP energy -267702.880771 kJ/mol
# GULP energy per Si atom -5577.143349 kJ/mol
# Density = 2.523372 g / cm^3
# Si number density = 25.291282 Si / 1000 Ang^3
#
#
#
# Elastic Constant Matrix: (Units=GPa)
#
#
# Indices 1 2 3 4 5 6 
#
# 1 37.3626 10.1212 45.9588 0.0000 0.0000 0.0000
# 2 10.1212 129.8219 42.8767 0.0000 0.0000 0.0000
# 3 45.9588 42.8767 395.6193 0.0000 0.0000 0.0000
# 4 0.0000 0.0000 0.0000 39.2581 0.0000 0.0000
# 5 0.0000 0.0000 0.0000 0.0000 19.5857 0.0000
# 6 0.0000 0.0000 0.0000 0.0000 0.0000 28.8789
#
#
#
# Elastic Compliance Matrix: (Units=1/GPa)
#
#
# Indices 1 2 3 4 5 6 
#
# 1 0.031434 -0.001291 -0.003512 0.000000 0.000000 0.000000
# 2 -0.001291 0.008042 -0.000722 0.000000 0.000000 0.000000
# 3 -0.003512 -0.000722 0.003014 0.000000 0.000000 0.000000
# 4 0.000000 0.000000 0.000000 0.025472 0.000000 0.000000
# 5 0.000000 0.000000 0.000000 0.000000 0.051058 0.000000
# 6 0.000000 0.000000 0.000000 0.000000 0.000000 0.034627
#
#
# Mechanical properties :
#
#
# Convention : Reuss Voigt Hill
#
# Bulk Modulus (GPa) = 31.80524 84.52415 58.16469
# Shear Modulus (GPa) = 28.54268 48.46768 38.50518
#
# Velocity S-wave (km/s) = 3.36305 4.38240 3.90612
# Velocity P-wave (km/s) = 5.26146 7.68765 6.58722
#
# Compressibility (1/GPa) = 0.03144136
#
# Stress axis : x y z
#
# Youngs Moduli (GPa) = 31.81256 124.34984 331.80155
#
# Poissons Ratio (x) = 0.16052 1.16521
# Poissons Ratio (y) = 0.04106 0.23943
# Poissons Ratio (z) = 0.11172 0.08973
#
# Static dielectric constant tensor:
#      x y z
#    x 2.063780 0.000000 0.000000 
#    y 0.000000 2.001520 0.000000 
#    z 0.000000 0.000000 2.063660 
# 
# From -- ./inp_files/25365.got.cif
#   From: 2010.05.17/outbox.cif.g08.bks.cpg/sg58_13_cif.got.tgz:25365.got - 2010.06.03 14:20:14.
