data_PCOD9441471
_publ_section_title
;
Structure prediction by ZEFSAII (Michael W. Deem and Ramdas Pophale) SiO2 
 PCOD9441471
Probable space group: P N N M
;
_chemical_formula_sum "Si O2"
_cell_formula_units_Z 52
_cell_length_a 11.134258
_cell_length_b 16.764274
_cell_length_c 12.308901
_cell_angle_alpha 90.000000
_cell_angle_beta 90.000000
_cell_angle_gamma 90.000000
_cell_volume 2297.551789
_symmetry_space_group_name_H-M "P N N M"
_symmetry_group_IT_number 58
_symmetry_cell_setting 'orthorhombic'
loop_
_space_group_symop_operation_xyz
x,y,z
-x,-y,z
1/2+x,1/2-y,1/2-z
1/2-x,1/2+y,1/2-z
-x,-y,-z
x,y,-z
1/2-x,1/2+y,1/2+z
1/2+x,1/2-y,1/2+z
loop_
_atom_site_type_symbol
_atom_site_label
_atom_site_fract_x
_atom_site_fract_y
_atom_site_fract_z
Si Si1 0.442798 0.717908 0.874151
Si Si2 0.069270 0.339194 0.184813
Si Si3 0.539025 0.395082 0.500000
Si Si4 0.809354 0.366920 0.882426
Si Si5 0.193120 0.573989 0.500000
Si Si6 0.567069 0.579528 0.263142
Si Si7 0.698010 0.250788 0.500000
Si Si8 0.672797 0.009481 0.777424
O O1 0.442490 0.795777 0.800332
O O2 0.303770 0.690708 0.873336
O O3 0.524528 0.652185 0.812805
O O4 0.478668 0.726380 0.000000
O O5 0.939671 0.327789 0.129142
O O6 0.082907 0.432217 0.214026
O O7 0.176416 0.303502 0.108016
O O8 0.336383 0.555448 0.500000
O O9 0.477202 0.408589 0.386074
O O10 0.579339 0.304278 0.500000
O O11 0.795221 0.432085 0.791065
O O12 0.802991 0.407094 0.000000
O O13 0.203932 0.673695 0.500000
O O14 0.142081 0.529076 0.605719
O O15 0.500000 0.500000 0.220457
O O16 0.707510 0.563712 0.275930
#
# Coordination Sequence:
#
# PCOD9441471 Si02
#       8
#     8   8   4   8   4   8   4   8
#     4  11  26  46  67 101 143 184 225 296 358 424
#     4  12  26  45  70 106 139 187 240 290 355 428
#     4  10  18  37  74  99 136 169 252 299 332 388
#     4  11  25  49  73  97 138 186 237 290 350 421
#     4  10  21  46  69 106 142 188 233 299 358 411
#     4  12  20  41  69 103 135 178 236 292 354 407
#     4  10  20  44  74  99 132 182 252 304 335 396
#     4  12  26  41  72 108 144 185 236 293 354 436
#
# _framework density 22.632788000000001
#
# number of rings (size 3 to 8) (size 9 to 14) (size 15 to 20)
#    0.462    0.308    5.385    2.077    4.308    1.538 
#    1.385    0.769    0.000    0.000    0.000    0.000 
#    0.000    0.000    0.000    0.000    0.000    0.000 
#
# Total GULP energy -290264.072274 kJ/mol
# GULP energy per Si atom -5582.001390 kJ/mol
# Density = 2.258127 g / cm^3
# Si number density = 22.632788 Si / 1000 Ang^3
#
#
#
# Elastic Constant Matrix: (Units=GPa)
#
#
# Indices 1 2 3 4 5 6 
#
# 1 81.3576 7.5361 6.2295 0.0000 0.0000 0.0000
# 2 7.5361 87.0933 22.8804 0.0000 0.0000 0.0000
# 3 6.2295 22.8804 128.5576 0.0000 0.0000 0.0000
# 4 0.0000 0.0000 0.0000 25.5329 0.0000 0.0000
# 5 0.0000 0.0000 0.0000 0.0000 7.0854 0.0000
# 6 0.0000 0.0000 0.0000 0.0000 0.0000 28.3037
#
#
#
# Elastic Compliance Matrix: (Units=1/GPa)
#
#
# Indices 1 2 3 4 5 6 
#
# 1 0.012413 -0.000961 -0.000430 0.000000 0.000000 0.000000
# 2 -0.000961 0.012120 -0.002110 0.000000 0.000000 0.000000
# 3 -0.000430 -0.002110 0.008175 0.000000 0.000000 0.000000
# 4 0.000000 0.000000 0.000000 0.039165 0.000000 0.000000
# 5 0.000000 0.000000 0.000000 0.000000 0.141135 0.000000
# 6 0.000000 0.000000 0.000000 0.000000 0.000000 0.035331
#
#
# Mechanical properties :
#
#
# Convention : Reuss Voigt Hill
#
# Bulk Modulus (GPa) = 38.90425 41.14451 40.02438
# Shear Modulus (GPa) = 18.94581 29.54191 24.24386
#
# Velocity S-wave (km/s) = 2.89640 3.61677 3.27644
# Velocity P-wave (km/s) = 5.33031 5.97160 5.66004
#
# Compressibility (1/GPa) = 0.02570413
#
# Stress axis : x y z
#
# Youngs Moduli (GPa) = 80.55813 82.51143 122.32291
#
# Poissons Ratio (x) = 0.07930 0.05266
# Poissons Ratio (y) = 0.07742 0.25816
# Poissons Ratio (z) = 0.03468 0.17414
#
# Static dielectric constant tensor:
#      x y z
#    x 1.906010 0.000000 0.000000 
#    y 0.000000 1.844980 0.000000 
#    z 0.000000 0.000000 1.859790 
# 
# From -- ./inp_files/15975.got.cif
#   From: 2010.05.17/outbox.cif.g08.bks.cpg/sg58_8_cif.got.tgz:15975.got - 2010.06.03 14:20:14.
