data_PCOD9441125
_publ_section_title
;
Structure prediction by ZEFSAII (Michael W. Deem and Ramdas Pophale) SiO2 
 PCOD9441125
Probable space group: P N N M
;
_chemical_formula_sum "Si O2"
_cell_formula_units_Z 64
_cell_length_a 30.917709
_cell_length_b 14.895076
_cell_length_c 8.830198
_cell_angle_alpha 90.000000
_cell_angle_beta 90.000000
_cell_angle_gamma 90.000000
_cell_volume 4066.497135
_symmetry_space_group_name_H-M "P N N M"
_symmetry_group_IT_number 58
_symmetry_cell_setting 'orthorhombic'
loop_
_space_group_symop_operation_xyz
x,y,z
-x,-y,z
1/2+x,1/2-y,1/2-z
1/2-x,1/2+y,1/2-z
-x,-y,-z
x,y,-z
1/2-x,1/2+y,1/2+z
1/2+x,1/2-y,1/2+z
loop_
_atom_site_type_symbol
_atom_site_label
_atom_site_fract_x
_atom_site_fract_y
_atom_site_fract_z
Si Si1 0.202547 0.818460 0.817210
Si Si2 0.547812 0.095999 0.317389
Si Si3 0.711407 0.290827 0.180593
Si Si4 0.825582 0.500970 0.326770
Si Si5 0.367746 0.192334 0.179873
Si Si6 0.777634 0.984087 0.175876
Si Si7 0.637382 0.172668 0.322374
Si Si8 0.045050 0.602011 0.682664
O O1 0.245617 0.763887 0.764582
O O2 0.159733 0.767111 0.764885
O O3 0.203343 0.921900 0.764710
O O4 0.204583 0.820452 0.000000
O O5 0.545640 0.088168 0.500000
O O6 0.587105 0.162448 0.277474
O O7 0.501657 0.125071 0.250821
O O8 0.556383 0.996848 0.248042
O O9 0.712268 0.392895 0.237201
O O10 0.668176 0.241505 0.236176
O O11 0.712740 0.288815 0.000000
O O12 0.838539 0.525542 0.500000
O O13 0.843742 0.402640 0.294739
O O14 0.774019 0.497930 0.321287
O O15 0.843214 0.574520 0.212861
O O16 0.417332 0.172377 0.223494
O O17 0.366354 0.210635 0.000000
O O18 0.790594 0.972419 0.000000
O O19 0.639457 0.192338 0.500000
O O20 0.043018 0.595494 0.500000
#
# Coordination Sequence:
#
# PCOD9441125 Si02
#       8
#     8   8   8   8   8   8   8   8
#     4  10  21  34  50  72 100 133 170 207 247 294
#     4  10  20  32  47  71 101 131 166 206 247 297
#     4  11  22  35  51  74 100 131 172 210 247 296
#     4  10  18  31  49  70 102 136 168 209 246 286
#     4  10  20  32  49  73 100 134 171 205 246 294
#     4  10  20  36  51  69 100 135 169 210 250 287
#     4  11  22  33  49  73 100 136 173 206 249 298
#     4  10  19  31  49  72  99 133 167 202 250 299
#
# _framework density 15.738360999999999
#
# number of rings (size 3 to 8) (size 9 to 14) (size 15 to 20)
#    0.000    1.750    3.750    2.250    0.000    4.500 
#    0.000    0.000    0.000    0.000    0.000    0.875 
#    0.000    7.000    0.000    0.000    0.000    0.000 
#
# Total GULP energy -357020.118963 kJ/mol
# GULP energy per Si atom -5578.439359 kJ/mol
# Density = 1.570254 g / cm^3
# Si number density = 15.738361 Si / 1000 Ang^3
#
#
#
# Elastic Constant Matrix: (Units=GPa)
#
#
# Indices 1 2 3 4 5 6 
#
# 1 92.7744 46.4833 28.1604 0.0000 0.0000 0.0000
# 2 46.4833 81.4204 28.5894 0.0000 0.0000 0.0000
# 3 28.1604 28.5894 35.1271 0.0000 0.0000 0.0000
# 4 0.0000 0.0000 0.0000 27.3745 0.0000 0.0000
# 5 0.0000 0.0000 0.0000 0.0000 -103.3991 0.0000
# 6 0.0000 0.0000 0.0000 0.0000 0.0000 21.3230
#
#
#
# Elastic Compliance Matrix: (Units=1/GPa)
#
#
# Indices 1 2 3 4 5 6 
#
# 1 0.016488 -0.006681 -0.007780 0.000000 0.000000 0.000000
# 2 -0.006681 0.019904 -0.010843 0.000000 0.000000 0.000000
# 3 -0.007780 -0.010843 0.043530 0.000000 0.000000 0.000000
# 4 0.000000 0.000000 0.000000 0.036530 0.000000 0.000000
# 5 0.000000 0.000000 0.000000 0.000000 -0.009671 0.000000
# 6 0.000000 0.000000 0.000000 0.000000 0.000000 0.046898
#
#
# Mechanical properties :
#
#
# Convention : Reuss Voigt Hill
#
# Bulk Modulus (GPa) = 34.11480 46.19867 40.15674
# Shear Modulus (GPa) = 23.35809 -3.86774 9.74517
#
# Velocity S-wave (km/s) = 3.85665 -1.56935 2.49107
# Velocity P-wave (km/s) = 6.44631 5.11215 5.81760
#
# Compressibility (1/GPa) = 0.02931279
#
# Stress axis : x y z
#
# Youngs Moduli (GPa) = 60.65057 50.24203 22.97250
#
# Poissons Ratio (x) = 0.33567 0.17873
# Poissons Ratio (y) = 0.40521 0.24910
# Poissons Ratio (z) = 0.47187 0.54479
#
# Static dielectric constant tensor:
#      x y z
#    x 1.538100 0.000000 0.000000 
#    y 0.000000 1.506230 0.000000 
#    z 0.000000 0.000000 1.537170 
# 
# From -- ./inp_files/11149.got.cif
#   From: 2010.05.17/outbox.cif.g08.bks.cpg/sg58_6_cif.got.tgz:11149.got - 2010.06.03 14:20:14.
