data_PCOD9441745
_publ_section_title
;
Structure prediction by ZEFSAII (Michael W. Deem and Ramdas Pophale) SiO2 
 PCOD9441745
Probable space group: P N N M
;
_chemical_formula_sum "Si O2"
_cell_formula_units_Z 60
_cell_length_a 13.457504
_cell_length_b 23.296515
_cell_length_c 7.905385
_cell_angle_alpha 90.000000
_cell_angle_beta 90.000000
_cell_angle_gamma 90.000000
_cell_volume 2478.440523
_symmetry_space_group_name_H-M "P N N M"
_symmetry_group_IT_number 58
_symmetry_cell_setting 'orthorhombic'
loop_
_space_group_symop_operation_xyz
x,y,z
-x,-y,z
1/2+x,1/2-y,1/2-z
1/2-x,1/2+y,1/2-z
-x,-y,-z
x,y,-z
1/2-x,1/2+y,1/2+z
1/2+x,1/2-y,1/2+z
loop_
_atom_site_type_symbol
_atom_site_label
_atom_site_fract_x
_atom_site_fract_y
_atom_site_fract_z
Si Si1 0.723955 0.276453 0.500000
Si Si2 0.639266 0.140526 0.811441
Si Si3 0.262424 0.544732 0.199300
Si Si4 0.428881 0.110019 0.695282
Si Si5 0.371432 0.245076 0.304884
Si Si6 0.970078 0.935725 0.196801
Si Si7 0.586092 0.275782 0.803364
Si Si8 0.175877 0.920600 0.693859
O O1 0.795530 0.249900 0.348919
O O2 0.650687 0.301522 0.651870
O O3 0.536602 0.106642 0.779967
O O4 0.611578 0.207239 0.794351
O O5 0.731169 0.121815 0.698820
O O6 0.674225 0.129440 0.000000
O O7 0.164187 0.575244 0.271260
O O8 0.366206 0.578814 0.215666
O O9 0.283943 0.481079 0.269247
O O10 0.242351 0.538621 0.000000
O O11 0.444514 0.093234 0.500000
O O12 0.396839 0.176739 0.695235
O O13 0.340564 0.259295 0.500000
O O14 0.471621 0.277258 0.251787
O O15 0.072933 0.902132 0.221083
O O16 0.947224 0.939201 0.000000
O O17 0.000000 0.000000 0.258228
O O18 0.601326 0.293676 0.000000
O O19 0.148333 0.930977 0.500000
#
# Coordination Sequence:
#
# PCOD9441745 Si02
#       8
#     4   8   8   8   8   8   8   8
#     4  12  22  36  70  88 118 156 194 248 296 370
#     4  10  21  35  55  80 114 149 189 235 285 342
#     4   9  18  33  52  78 108 147 195 237 277 334
#     4   9  19  35  57  80 113 150 188 233 286 344
#     4  10  20  38  63  92 120 156 197 241 297 363
#     4   9  17  30  48  71 100 139 185 234 284 330
#     4  10  21  39  62  91 120 157 198 240 296 364
#     4  10  19  31  53  77 107 149 196 238 280 333
#
# _framework density 24.208773000000001
#
# number of rings (size 3 to 8) (size 9 to 14) (size 15 to 20)
#    0.000    2.267    1.333    1.600    2.800    3.200 
#    0.000    2.667    2.933    0.000    0.000    0.000 
#    0.000    0.000    0.000    0.000    0.000    0.000 
#
# Total GULP energy -334097.634805 kJ/mol
# GULP energy per Si atom -5568.293913 kJ/mol
# Density = 2.415367 g / cm^3
# Si number density = 24.208773 Si / 1000 Ang^3
#
#
#
# Elastic Constant Matrix: (Units=GPa)
#
#
# Indices 1 2 3 4 5 6 
#
# 1 147.5533 26.1895 42.3289 0.0000 0.0000 0.0000
# 2 26.1895 67.0591 22.0395 0.0000 0.0000 0.0000
# 3 42.3289 22.0395 145.6741 0.0000 0.0000 0.0000
# 4 0.0000 0.0000 0.0000 -3.7062 0.0000 0.0000
# 5 0.0000 0.0000 0.0000 0.0000 45.6659 0.0000
# 6 0.0000 0.0000 0.0000 0.0000 0.0000 13.9462
#
#
#
# Elastic Compliance Matrix: (Units=1/GPa)
#
#
# Indices 1 2 3 4 5 6 
#
# 1 0.007745 -0.002405 -0.001887 0.000000 0.000000 0.000000
# 2 -0.002405 0.016439 -0.001788 0.000000 0.000000 0.000000
# 3 -0.001887 -0.001788 0.007683 0.000000 0.000000 0.000000
# 4 0.000000 0.000000 0.000000 -0.269815 0.000000 0.000000
# 5 0.000000 0.000000 0.000000 0.000000 0.021898 0.000000
# 6 0.000000 0.000000 0.000000 0.000000 0.000000 0.071704
#
#
# Mechanical properties :
#
#
# Convention : Reuss Voigt Hill
#
# Bulk Modulus (GPa) = 50.74055 60.15581 55.44818
# Shear Modulus (GPa) = -39.80383 29.16307 -5.32038
#
# Velocity S-wave (km/s) = -4.05926 3.47457 -1.48407
# Velocity P-wave (km/s) = 0.98237 6.40309 4.47406
#
# Compressibility (1/GPa) = 0.01970810
#
# Stress axis : x y z
#
# Youngs Moduli (GPa) = 129.11060 60.83039 130.14999
#
# Poissons Ratio (x) = 0.14628 0.24556
# Poissons Ratio (y) = 0.31048 0.23276
# Poissons Ratio (z) = 0.24360 0.10879
#
# Static dielectric constant tensor:
#      x y z
#    x 1.928970 0.000000 0.000000 
#    y 0.000000 2.032310 0.000000 
#    z 0.000000 0.000000 1.872180 
# 
# From -- ./inp_files/4619.got.cif
#   From: 2010.05.17/outbox.cif.g08.bks.cpg/sg58_3_cif.got.tgz:4619.got - 2010.06.03 14:20:14.
