data_PCOD9441913
_publ_section_title
;
Structure prediction by ZEFSAII (Michael W. Deem and Ramdas Pophale) SiO2 
 PCOD9441913
Probable space group: P N N M
;
_chemical_formula_sum "Si O2"
_cell_formula_units_Z 64
_cell_length_a 17.807740
_cell_length_b 21.244940
_cell_length_c 8.834059
_cell_angle_alpha 90.000000
_cell_angle_beta 90.000000
_cell_angle_gamma 90.000000
_cell_volume 3342.139787
_symmetry_space_group_name_H-M "P N N M"
_symmetry_group_IT_number 58
_symmetry_cell_setting 'orthorhombic'
loop_
_space_group_symop_operation_xyz
x,y,z
-x,-y,z
1/2+x,1/2-y,1/2-z
1/2-x,1/2+y,1/2-z
-x,-y,-z
x,y,-z
1/2-x,1/2+y,1/2+z
1/2+x,1/2-y,1/2+z
loop_
_atom_site_type_symbol
_atom_site_label
_atom_site_fract_x
_atom_site_fract_y
_atom_site_fract_z
Si Si1 0.949808 0.939793 0.681456
Si Si2 0.152942 0.600682 0.174961
Si Si3 0.728184 0.602026 0.818987
Si Si4 0.973676 0.299001 0.181106
Si Si5 0.912091 0.509262 0.664644
Si Si6 0.931642 0.167052 0.318705
Si Si7 0.372305 0.844613 0.174566
Si Si8 0.711787 0.462565 0.679308
O O1 0.938646 0.941958 0.500000
O O2 0.869917 0.944829 0.759246
O O3 0.998654 0.878499 0.717902
O O4 0.000000 0.000000 0.723310
O O5 0.088620 0.648887 0.230719
O O6 0.117785 0.531558 0.197974
O O7 0.229956 0.591176 0.265785
O O8 0.168686 0.614589 0.000000
O O9 0.646236 0.631108 0.784633
O O10 0.792537 0.650007 0.760093
O O11 0.732937 0.532330 0.744380
O O12 0.735043 0.594496 0.000000
O O13 0.941689 0.231856 0.231047
O O14 0.056555 0.309386 0.251862
O O15 0.980368 0.304154 0.000000
O O16 0.881441 0.486632 0.500000
O O17 0.896233 0.582288 0.675756
O O18 0.000000 0.500000 0.660860
O O19 0.932404 0.178740 0.500000
O O20 0.362313 0.824257 0.000000
O O21 0.710295 0.466875 0.500000
#
# Coordination Sequence:
#
# PCOD9441913 Si02
#       8
#     8   8   8   8   8   8   8   8
#     4  10  20  41  69  95 123 157 201 254 315 377
#     4  11  23  38  59  86 122 167 208 254 308 366
#     4  11  22  40  65  94 126 161 202 256 317 376
#     4  11  25  43  63  89 124 169 217 260 308 374
#     4  10  19  32  54  85 119 155 197 249 304 360
#     4  10  23  44  69  91 119 165 209 256 317 374
#     4  11  22  37  61  93 126 163 207 255 311 373
#     4  12  24  37  60  97 131 161 200 254 316 373
#
# _framework density 19.149408999999999
#
# number of rings (size 3 to 8) (size 9 to 14) (size 15 to 20)
#    0.000    1.250    3.750    2.625    0.000    4.000 
#    2.250    0.000    0.000    0.000    0.000    0.000 
#    0.000    0.000    0.000    0.000    0.000    0.000 
#
# Total GULP energy -357218.748469 kJ/mol
# GULP energy per Si atom -5581.542945 kJ/mol
# Density = 1.910582 g / cm^3
# Si number density = 19.149409 Si / 1000 Ang^3
#
#
#
# Elastic Constant Matrix: (Units=GPa)
#
#
# Indices 1 2 3 4 5 6 
#
# 1 139.2205 26.1287 45.5000 0.0000 0.0000 0.0000
# 2 26.1287 56.2630 28.4078 0.0000 0.0000 0.0000
# 3 45.5000 28.4078 65.9703 0.0000 0.0000 0.0000
# 4 0.0000 0.0000 0.0000 73.1800 0.0000 0.0000
# 5 0.0000 0.0000 0.0000 0.0000 15.8458 0.0000
# 6 0.0000 0.0000 0.0000 0.0000 0.0000 19.0737
#
#
#
# Elastic Compliance Matrix: (Units=1/GPa)
#
#
# Indices 1 2 3 4 5 6 
#
# 1 0.009357 -0.001389 -0.005856 0.000000 0.000000 0.000000
# 2 -0.001389 0.022918 -0.008911 0.000000 0.000000 0.000000
# 3 -0.005856 -0.008911 0.023034 0.000000 0.000000 0.000000
# 4 0.000000 0.000000 0.000000 0.013665 0.000000 0.000000
# 5 0.000000 0.000000 0.000000 0.000000 0.063108 0.000000
# 6 0.000000 0.000000 0.000000 0.000000 0.000000 0.052428
#
#
# Mechanical properties :
#
#
# Convention : Reuss Voigt Hill
#
# Bulk Modulus (GPa) = 43.48120 51.28075 47.38097
# Shear Modulus (GPa) = 22.27293 32.38105 27.32699
#
# Velocity S-wave (km/s) = 3.41414 4.11660 3.78172
# Velocity P-wave (km/s) = 6.18849 7.03083 6.62307
#
# Compressibility (1/GPa) = 0.02299845
#
# Stress axis : x y z
#
# Youngs Moduli (GPa) = 106.86889 43.63405 43.41382
#
# Poissons Ratio (x) = 0.06061 0.25422
# Poissons Ratio (y) = 0.14844 0.38685
# Poissons Ratio (z) = 0.62579 0.38882
#
# Static dielectric constant tensor:
#      x y z
#    x 1.691980 0.000000 0.000000 
#    y 0.000000 1.642340 0.000000 
#    z 0.000000 0.000000 1.685890 
# 
# From -- ./inp_files/8517.got.cif
#   From: 2010.05.17/outbox.cif.g08.bks.cpg/sg58_5_cif.got.tgz:8517.got - 2010.06.03 14:20:14.
