data_PCOD9441985
_publ_section_title
;
Structure prediction by ZEFSAII (Michael W. Deem and Ramdas Pophale) SiO2 
 PCOD9441985
Probable space group: P N N M
;
_chemical_formula_sum "Si O2"
_cell_formula_units_Z 64
_cell_length_a 29.540463
_cell_length_b 11.396087
_cell_length_c 7.494245
_cell_angle_alpha 90.000000
_cell_angle_beta 90.000000
_cell_angle_gamma 90.000000
_cell_volume 2522.905252
_symmetry_space_group_name_H-M "P N N M"
_symmetry_group_IT_number 58
_symmetry_cell_setting 'orthorhombic'
loop_
_space_group_symop_operation_xyz
x,y,z
-x,-y,z
1/2+x,1/2-y,1/2-z
1/2-x,1/2+y,1/2-z
-x,-y,-z
x,y,-z
1/2-x,1/2+y,1/2+z
1/2+x,1/2-y,1/2+z
loop_
_atom_site_type_symbol
_atom_site_label
_atom_site_fract_x
_atom_site_fract_y
_atom_site_fract_z
Si Si1 0.346194 0.688700 0.296084
Si Si2 0.518028 0.695801 0.214648
Si Si3 0.170389 0.558133 0.298022
Si Si4 0.332019 0.318048 0.714692
Si Si5 0.088435 0.978431 0.295115
Si Si6 0.429486 0.074260 0.790872
Si Si7 0.070577 0.319779 0.211359
Si Si8 0.732886 0.468153 0.282233
O O1 0.336715 0.722966 0.500000
O O2 0.380495 0.576172 0.298181
O O3 0.379374 0.787383 0.215222
O O4 0.298796 0.640959 0.218356
O O5 0.542363 0.577381 0.280179
O O6 0.542926 0.815175 0.282831
O O7 0.465325 0.716717 0.251848
O O8 0.522417 0.691012 0.000000
O O9 0.166716 0.511718 0.500000
O O10 0.180907 0.696339 0.299925
O O11 0.120845 0.555597 0.211491
O O12 0.216450 0.511415 0.213708
O O13 0.335230 0.306712 0.500000
O O14 0.379500 0.363279 0.789647
O O15 0.295888 0.417148 0.757854
O O16 0.082240 0.017071 0.500000
O O17 0.449306 0.943038 0.779145
O O18 0.423414 0.100555 0.000000
O O19 0.074573 0.329475 0.000000
O O20 0.735296 0.457382 0.500000
#
# Coordination Sequence:
#
# PCOD9441985 Si02
#       8
#     8   8   8   8   8   8   8   8
#     4   9  20  39  56  79 117 153 183 229 289 335
#     4  10  21  38  58  82 111 144 187 237 286 329
#     4  10  19  35  58  82 107 144 191 231 274 333
#     4  10  19  33  53  80 113 145 178 227 285 330
#     4  10  19  35  60  85 107 141 190 232 273 332
#     4  10  21  38  57  79 111 146 185 236 285 329
#     4  11  24  38  55  81 115 152 189 226 279 344
#     4   8  17  34  56  78 106 146 182 220 276 332
#
# _framework density 25.36758
#
# number of rings (size 3 to 8) (size 9 to 14) (size 15 to 20)
#    0.000    2.250    1.250    2.250    0.000    6.000 
#    0.000    5.625    0.000    0.000    0.000    0.000 
#    0.000    0.000    0.000    0.000    0.000    0.000 
#
# Total GULP energy -357415.619453 kJ/mol
# GULP energy per Si atom -5584.619054 kJ/mol
# Density = 2.530984 g / cm^3
# Si number density = 25.367580 Si / 1000 Ang^3
#
#
#
# Elastic Constant Matrix: (Units=GPa)
#
#
# Indices 1 2 3 4 5 6 
#
# 1 112.0528 -13.0395 3.7240 0.0000 0.0000 0.0000
# 2 -13.0395 31.4064 0.6646 0.0000 0.0000 0.0000
# 3 3.7240 0.6646 89.2744 0.0000 0.0000 0.0000
# 4 0.0000 0.0000 0.0000 44.3187 0.0000 0.0000
# 5 0.0000 0.0000 0.0000 0.0000 8.0692 0.0000
# 6 0.0000 0.0000 0.0000 0.0000 0.0000 34.4296
#
#
#
# Elastic Compliance Matrix: (Units=1/GPa)
#
#
# Indices 1 2 3 4 5 6 
#
# 1 0.009393 0.003909 -0.000421 0.000000 0.000000 0.000000
# 2 0.003909 0.033472 -0.000412 0.000000 0.000000 0.000000
# 3 -0.000421 -0.000412 0.011222 0.000000 0.000000 0.000000
# 4 0.000000 0.000000 0.000000 0.022564 0.000000 0.000000
# 5 0.000000 0.000000 0.000000 0.000000 0.123928 0.000000
# 6 0.000000 0.000000 0.000000 0.000000 0.000000 0.029045
#
#
# Mechanical properties :
#
#
# Convention : Reuss Voigt Hill
#
# Bulk Modulus (GPa) = 16.60057 23.93687 20.26872
# Shear Modulus (GPa) = 20.52943 33.45579 26.99261
#
# Velocity S-wave (km/s) = 2.84787 3.63552 3.26553
# Velocity P-wave (km/s) = 4.16798 5.20377 4.71440
#
# Compressibility (1/GPa) = 0.06023891
#
# Stress axis : x y z
#
# Youngs Moduli (GPa) = 106.45968 29.87547 89.11033
#
# Poissons Ratio (x) = -0.11678 0.03751
# Poissons Ratio (y) = -0.41613 0.03673
# Poissons Ratio (z) = 0.04481 0.01232
#
# Static dielectric constant tensor:
#      x y z
#    x 2.089150 0.000000 0.000000 
#    y 0.000000 2.033150 0.000000 
#    z 0.000000 0.000000 1.950100 
# 
# From -- ./inp_files/11074.got.cif
#   From: 2010.05.17/outbox.cif.g08.bks.cpg/sg58_6_cif.got.tgz:11074.got - 2010.06.03 14:20:14.
