data_PCOD9441585
_publ_section_title
;
Structure prediction by ZEFSAII (Michael W. Deem and Ramdas Pophale) SiO2 
 PCOD9441585
Probable space group: P N N M
;
_chemical_formula_sum "Si O2"
_cell_formula_units_Z 64
_cell_length_a 20.685677
_cell_length_b 19.114133
_cell_length_c 7.336592
_cell_angle_alpha 90.000000
_cell_angle_beta 90.000000
_cell_angle_gamma 90.000000
_cell_volume 2900.806170
_symmetry_space_group_name_H-M "P N N M"
_symmetry_group_IT_number 58
_symmetry_cell_setting 'orthorhombic'
loop_
_space_group_symop_operation_xyz
x,y,z
-x,-y,z
1/2+x,1/2-y,1/2-z
1/2-x,1/2+y,1/2-z
-x,-y,-z
x,y,-z
1/2-x,1/2+y,1/2+z
1/2+x,1/2-y,1/2+z
loop_
_atom_site_type_symbol
_atom_site_label
_atom_site_fract_x
_atom_site_fract_y
_atom_site_fract_z
Si Si1 0.951292 0.056466 0.791168
Si Si2 0.686298 0.948287 0.278205
Si Si3 0.959915 0.694999 0.789001
Si Si4 0.924468 0.210416 0.776087
Si Si5 0.934498 0.539972 0.222445
Si Si6 0.332889 0.538072 0.779661
Si Si7 0.153643 0.197312 0.280026
Si Si8 0.700391 0.788839 0.721537
O O1 0.946036 0.133860 0.712256
O O2 0.881353 0.020395 0.789217
O O3 0.973456 0.066385 0.000000
O O4 0.000000 0.000000 0.706092
O O5 0.685758 0.948608 0.500000
O O6 0.628750 0.997938 0.215523
O O7 0.758420 0.971171 0.223137
O O8 0.678768 0.867138 0.224165
O O9 0.938748 0.620087 0.713581
O O10 0.902180 0.750906 0.781166
O O11 0.023856 0.731923 0.713703
O O12 0.975718 0.681000 0.000000
O O13 0.852619 0.232848 0.719818
O O14 0.924750 0.209096 0.000000
O O15 0.000000 0.500000 0.273599
O O16 0.931434 0.539714 0.000000
O O17 0.354820 0.616344 0.723128
O O18 0.334695 0.536380 0.000000
O O19 0.153042 0.197447 0.500000
O O20 0.225431 0.220884 0.220276
O O21 0.701297 0.788246 0.500000
#
# Coordination Sequence:
#
# PCOD9441585 Si02
#       8
#     8   8   8   8   8   8   8   8
#     4  10  20  32  46  66  93 122 152 191 233 268
#     4   8  14  26  44  67  95 121 147 186 230 268
#     4  10  19  30  48  73  97 121 150 189 235 274
#     4   9  17  29  45  66  92 122 156 189 222 267
#     4   9  16  26  44  72 100 122 149 188 231 273
#     4   9  18  32  49  68  91 121 154 187 227 274
#     4   9  18  32  49  68  91 121 155 189 226 271
#     4   8  14  27  47  67  89 122 159 188 218 266
#
# _framework density 22.062832
#
# number of rings (size 3 to 8) (size 9 to 14) (size 15 to 20)
#    0.000    3.000    0.000    3.000    0.000    5.750 
#    0.000    0.625    0.000    1.125    0.000    3.500 
#    0.000    0.000    0.000    0.000    0.000    0.000 
#
# Total GULP energy -357422.072777 kJ/mol
# GULP energy per Si atom -5584.719887 kJ/mol
# Density = 2.201262 g / cm^3
# Si number density = 22.062832 Si / 1000 Ang^3
#
#
#
# Elastic Constant Matrix: (Units=GPa)
#
#
# Indices 1 2 3 4 5 6 
#
# 1 59.2470 12.0111 -11.3150 0.0000 0.0000 0.0000
# 2 12.0111 45.2661 -6.5282 0.0000 0.0000 0.0000
# 3 -11.3150 -6.5282 82.9367 0.0000 0.0000 0.0000
# 4 0.0000 0.0000 0.0000 -26.8003 0.0000 0.0000
# 5 0.0000 0.0000 0.0000 0.0000 5.2540 0.0000
# 6 0.0000 0.0000 0.0000 0.0000 0.0000 43.2180
#
#
#
# Elastic Compliance Matrix: (Units=1/GPa)
#
#
# Indices 1 2 3 4 5 6 
#
# 1 0.018202 -0.004523 0.002127 0.000000 0.000000 0.000000
# 2 -0.004523 0.023469 0.001230 0.000000 0.000000 0.000000
# 3 0.002127 0.001230 0.012444 0.000000 0.000000 0.000000
# 4 0.000000 0.000000 0.000000 -0.037313 0.000000 0.000000
# 5 0.000000 0.000000 0.000000 0.000000 0.190332 0.000000
# 6 0.000000 0.000000 0.000000 0.000000 0.000000 0.023139
#
#
# Mechanical properties :
#
#
# Convention : Reuss Voigt Hill
#
# Bulk Modulus (GPa) = 19.31083 19.53173 19.42128
# Shear Modulus (GPa) = 20.01077 17.21979 18.61528
#
# Velocity S-wave (km/s) = 3.01489 2.79675 2.90787
# Velocity P-wave (km/s) = 4.57068 4.39330 4.48287
#
# Compressibility (1/GPa) = 0.05178441
#
# Stress axis : x y z
#
# Youngs Moduli (GPa) = 54.94001 42.60912 80.35718
#
# Poissons Ratio (x) = 0.19272 -0.17094
# Poissons Ratio (y) = 0.24849 -0.09886
# Poissons Ratio (z) = -0.11687 -0.05242
#
# Static dielectric constant tensor:
#      x y z
#    x 1.766900 0.000000 0.000000 
#    y 0.000000 1.770090 0.000000 
#    z 0.000000 0.000000 1.865720 
# 
# From -- ./inp_files/9304.got.cif
#   From: 2010.05.17/outbox.cif.g08.bks.cpg/sg58_5_cif.got.tgz:9304.got - 2010.06.03 14:20:14.
