data_PCOD9441260
_publ_section_title
;
Structure prediction by ZEFSAII (Michael W. Deem and Ramdas Pophale) SiO2 
 PCOD9441260
Probable space group: P N N M
;
_chemical_formula_sum "Si O2"
_cell_formula_units_Z 64
_cell_length_a 18.795070
_cell_length_b 20.094486
_cell_length_c 8.066609
_cell_angle_alpha 90.000000
_cell_angle_beta 90.000000
_cell_angle_gamma 90.000000
_cell_volume 3046.574873
_symmetry_space_group_name_H-M "P N N M"
_symmetry_group_IT_number 58
_symmetry_cell_setting 'orthorhombic'
loop_
_space_group_symop_operation_xyz
x,y,z
-x,-y,z
1/2+x,1/2-y,1/2-z
1/2-x,1/2+y,1/2-z
-x,-y,-z
x,y,-z
1/2-x,1/2+y,1/2+z
1/2+x,1/2-y,1/2+z
loop_
_atom_site_type_symbol
_atom_site_label
_atom_site_fract_x
_atom_site_fract_y
_atom_site_fract_z
Si Si1 0.390617 0.532609 0.299014
Si Si2 0.343166 0.751791 0.202863
Si Si3 0.991805 0.244105 0.696435
Si Si4 0.865608 0.461551 0.305816
Si Si5 0.238838 0.122710 0.694914
Si Si6 0.959211 0.101149 0.800660
Si Si7 0.997788 0.385190 0.187183
Si Si8 0.652350 0.103449 0.810305
O O1 0.384040 0.534633 0.500000
O O2 0.323898 0.569197 0.221178
O O3 0.462745 0.572582 0.253749
O O4 0.403430 0.455850 0.248786
O O5 0.425062 0.736488 0.250318
O O6 0.291738 0.693004 0.257366
O O7 0.323658 0.825943 0.263033
O O8 0.342564 0.752719 0.000000
O O9 0.990664 0.255045 0.500000
O O10 0.951924 0.175752 0.736163
O O11 0.965740 0.311598 0.782485
O O12 0.880952 0.471500 0.500000
O O13 0.808051 0.404091 0.285036
O O14 0.937979 0.439569 0.219421
O O15 0.833445 0.530817 0.236843
O O16 0.254716 0.128639 0.500000
O O17 0.957531 0.103413 0.000000
O O18 0.066097 0.391808 0.304803
O O19 0.024479 0.389918 0.000000
O O20 0.678458 0.102371 0.000000
#
# Coordination Sequence:
#
# PCOD9441260 Si02
#       8
#     8   8   8   8   8   8   8   8
#     4   9  18  32  50  75 110 148 186 228 276 329
#     4   8  16  32  54  80 105 136 176 221 270 321
#     4  10  18  32  54  81 112 144 182 226 274 330
#     4  11  23  39  58  80 109 149 186 226 281 339
#     4  11  21  35  55  80 111 146 189 234 275 329
#     4   9  17  30  50  78 111 146 186 232 276 320
#     4  11  22  36  57  85 113 141 178 230 285 335
#     4   9  19  38  62  84 108 139 182 228 277 336
#
# _framework density 21.007197000000001
#
# number of rings (size 3 to 8) (size 9 to 14) (size 15 to 20)
#    0.000    2.250    1.250    4.125    0.000    3.000 
#    0.000    3.125    0.000    6.000    0.000    0.000 
#    0.000    0.000    0.000    0.000    0.000    0.000 
#
# Total GULP energy -357209.971897 kJ/mol
# GULP energy per Si atom -5581.405811 kJ/mol
# Density = 2.095938 g / cm^3
# Si number density = 21.007197 Si / 1000 Ang^3
#
#
#
# Elastic Constant Matrix: (Units=GPa)
#
#
# Indices 1 2 3 4 5 6 
#
# 1 23.7812 19.0988 -4.1478 0.0000 0.0000 0.0000
# 2 19.0988 140.0810 7.3299 0.0000 0.0000 0.0000
# 3 -4.1478 7.3299 34.5185 0.0000 0.0000 0.0000
# 4 0.0000 0.0000 0.0000 24.3659 0.0000 0.0000
# 5 0.0000 0.0000 0.0000 0.0000 -5.0038 0.0000
# 6 0.0000 0.0000 0.0000 0.0000 0.0000 24.3979
#
#
#
# Elastic Compliance Matrix: (Units=1/GPa)
#
#
# Indices 1 2 3 4 5 6 
#
# 1 0.049017 -0.007070 0.007391 0.000000 0.000000 0.000000
# 2 -0.007070 0.008239 -0.002599 0.000000 0.000000 0.000000
# 3 0.007391 -0.002599 0.030410 0.000000 0.000000 0.000000
# 4 0.000000 0.000000 0.000000 0.041041 0.000000 0.000000
# 5 0.000000 0.000000 0.000000 0.000000 -0.199848 0.000000
# 6 0.000000 0.000000 0.000000 0.000000 0.000000 0.040987
#
#
# Mechanical properties :
#
#
# Convention : Reuss Voigt Hill
#
# Bulk Modulus (GPa) = 12.03219 26.99362 19.51290
# Shear Modulus (GPa) = 2376.49589 20.49198 1198.49394
#
# Velocity S-wave (km/s) = 33.67095 3.12665 23.91139
# Velocity P-wave (km/s) = 38.95361 5.09040 27.77855
#
# Compressibility (1/GPa) = 0.08311042
#
# Stress axis : x y z
#
# Youngs Moduli (GPa) = 20.40113 121.37957 32.88394
#
# Poissons Ratio (x) = 0.85812 -0.24305
# Poissons Ratio (y) = 0.14423 0.08546
# Poissons Ratio (z) = -0.15079 0.31546
#
# Static dielectric constant tensor:
#      x y z
#    x 1.710910 0.000000 0.000000 
#    y 0.000000 1.812110 0.000000 
#    z 0.000000 0.000000 1.757450 
# 
# From -- ./inp_files/9282.got.cif
#   From: 2010.05.17/outbox.cif.g08.bks.cpg/sg58_5_cif.got.tgz:9282.got - 2010.06.03 14:20:14.
