data_PCOD9441877
_publ_section_title
;
Structure prediction by ZEFSAII (Michael W. Deem and Ramdas Pophale) SiO2 
 PCOD9441877
Probable space group: P N N M
;
_chemical_formula_sum "Si O2"
_cell_formula_units_Z 48
_cell_length_a 13.773506
_cell_length_b 8.872068
_cell_length_c 21.531556
_cell_angle_alpha 90.000000
_cell_angle_beta 90.000000
_cell_angle_gamma 90.000000
_cell_volume 2631.144986
_symmetry_space_group_name_H-M "P N N M"
_symmetry_group_IT_number 58
_symmetry_cell_setting 'orthorhombic'
loop_
_space_group_symop_operation_xyz
x,y,z
-x,-y,z
1/2+x,1/2-y,1/2-z
1/2-x,1/2+y,1/2-z
-x,-y,-z
x,y,-z
1/2-x,1/2+y,1/2+z
1/2+x,1/2-y,1/2+z
loop_
_atom_site_type_symbol
_atom_site_label
_atom_site_fract_x
_atom_site_fract_y
_atom_site_fract_z
Si Si1 0.988525 0.168253 0.135960
Si Si2 0.689129 0.894759 0.764713
Si Si3 0.473047 0.328042 0.784658
Si Si4 0.798981 0.317273 0.072794
Si Si5 0.108430 0.440007 0.858835
Si Si6 0.826629 0.701588 0.679260
O O1 0.896264 0.238108 0.100322
O O2 0.967104 0.166311 0.209658
O O3 0.088649 0.263469 0.134063
O O4 0.000000 0.000000 0.113017
O O5 0.626128 0.763615 0.797762
O O6 0.776849 0.811215 0.730406
O O7 0.635163 0.987534 0.708175
O O8 0.711493 0.032197 0.810250
O O9 0.500000 0.500000 0.804890
O O10 0.559576 0.222015 0.808995
O O11 0.816924 0.490889 0.092472
O O12 0.709155 0.256939 0.112535
O O13 0.790720 0.296867 0.000000
O O14 0.000000 0.500000 0.871925
#
# Coordination Sequence:
#
# PCOD9441877 Si02
#       6
#     8   8   8   8   8   8
#     4  10  19  32  53  81 114 147 184 234 281 340
#     4  11  19  33  51  85 111 142 185 230 293 332
#     4  11  20  34  54  85 117 140 181 237 297 340
#     4  10  22  37  52  78 115 156 194 221 276 349
#     4   9  15  31  51  74 105 142 178 224 270 333
#     4  11  21  32  59  81 114 150 178 243 282 339
#
# _framework density 18.243009000000001
#
# number of rings (size 3 to 8) (size 9 to 14) (size 15 to 20)
#    0.000    1.667    6.667    1.500    2.333    3.333 
#    0.000    0.000    0.000    2.500    0.000    0.000 
#    0.000    0.000    0.000    0.000    0.000    0.000 
#
# Total GULP energy -267329.244874 kJ/mol
# GULP energy per Si atom -5569.359268 kJ/mol
# Density = 1.820149 g / cm^3
# Si number density = 18.243009 Si / 1000 Ang^3
#
#
#
# Elastic Constant Matrix: (Units=GPa)
#
#
# Indices 1 2 3 4 5 6 
#
# 1 23.0223 -16.5964 10.3675 0.0000 0.0000 0.0000
# 2 -16.5964 84.1525 5.0261 0.0000 0.0000 0.0000
# 3 10.3675 5.0261 55.2311 0.0000 0.0000 0.0000
# 4 0.0000 0.0000 0.0000 8.0796 0.0000 0.0000
# 5 0.0000 0.0000 0.0000 0.0000 15.5348 0.0000
# 6 0.0000 0.0000 0.0000 0.0000 0.0000 27.3270
#
#
#
# Elastic Compliance Matrix: (Units=1/GPa)
#
#
# Indices 1 2 3 4 5 6 
#
# 1 0.057470 0.012044 -0.011884 0.000000 0.000000 0.000000
# 2 0.012044 0.014472 -0.003578 0.000000 0.000000 0.000000
# 3 -0.011884 -0.003578 0.020662 0.000000 0.000000 0.000000
# 4 0.000000 0.000000 0.000000 0.123769 0.000000 0.000000
# 5 0.000000 0.000000 0.000000 0.000000 0.064372 0.000000
# 6 0.000000 0.000000 0.000000 0.000000 0.000000 0.036594
#
#
# Mechanical properties :
#
#
# Convention : Reuss Voigt Hill
#
# Bulk Modulus (GPa) = 11.65927 17.77782 14.71854
# Shear Modulus (GPa) = 14.17382 21.09553 17.63467
#
# Velocity S-wave (km/s) = 2.79040 3.40422 3.11248
# Velocity P-wave (km/s) = 4.09716 5.02173 4.58282
#
# Compressibility (1/GPa) = 0.08576868
#
# Stress axis : x y z
#
# Youngs Moduli (GPa) = 17.40043 69.09833 48.39791
#
# Poissons Ratio (x) = -0.83221 0.57515
# Poissons Ratio (y) = -0.20957 0.17316
# Poissons Ratio (z) = 0.20678 0.24722
#
# Static dielectric constant tensor:
#      x y z
#    x 1.648300 0.000000 0.000000 
#    y 0.000000 1.765460 0.000000 
#    z 0.000000 0.000000 1.601840 
# 
# From -- ./inp_files/29918.got.cif
#   From: 2010.05.17/outbox.cif.g08.bks.cpg/sg58_15_cif.got.tgz:29918.got - 2010.06.03 14:20:14.
