data_PCOD9441834
_publ_section_title
;
Structure prediction by ZEFSAII (Michael W. Deem and Ramdas Pophale) SiO2 
 PCOD9441834
Probable space group: P N N M
;
_chemical_formula_sum "Si O2"
_cell_formula_units_Z 56
_cell_length_a 18.215627
_cell_length_b 19.860373
_cell_length_c 7.631315
_cell_angle_alpha 90.000000
_cell_angle_beta 90.000000
_cell_angle_gamma 90.000000
_cell_volume 2760.774315
_symmetry_space_group_name_H-M "P N N M"
_symmetry_group_IT_number 58
_symmetry_cell_setting 'orthorhombic'
loop_
_space_group_symop_operation_xyz
x,y,z
-x,-y,z
1/2+x,1/2-y,1/2-z
1/2-x,1/2+y,1/2-z
-x,-y,-z
x,y,-z
1/2-x,1/2+y,1/2+z
1/2+x,1/2-y,1/2+z
loop_
_atom_site_type_symbol
_atom_site_label
_atom_site_fract_x
_atom_site_fract_y
_atom_site_fract_z
Si Si1 0.574003 0.310826 0.288632
Si Si2 0.964843 0.071318 0.785135
Si Si3 0.857559 0.545011 0.708281
Si Si4 0.623162 0.893498 0.296162
Si Si5 0.286295 0.606215 0.792092
Si Si6 0.694305 0.545049 0.702221
Si Si7 0.970951 0.663014 0.212257
O O1 0.570828 0.310197 0.500000
O O2 0.515640 0.366987 0.228067
O O3 0.654747 0.336008 0.238354
O O4 0.554182 0.236380 0.225670
O O5 0.880640 0.074958 0.722249
O O6 0.963521 0.071096 0.000000
O O7 0.000000 0.000000 0.731667
O O8 0.851188 0.533730 0.500000
O O9 0.885445 0.474304 0.784915
O O10 0.775064 0.559223 0.778393
O O11 0.912656 0.605605 0.740761
O O12 0.626000 0.873700 0.500000
O O13 0.704370 0.878625 0.223062
O O14 0.551564 0.857818 0.220199
O O15 0.313375 0.536174 0.708610
O O16 0.280705 0.593170 0.000000
O O17 0.697028 0.567208 0.500000
O O18 0.974102 0.664709 0.000000
#
# Coordination Sequence:
#
# PCOD9441834 Si02
#       7
#     8   8   8   8   8   8   8
#     4  10  20  35  54  74 101 140 180 214 257 312
#     4   9  15  28  54  78  96 128 176 220 246 290
#     4  10  20  33  54  83 108 134 169 219 273 312
#     4   9  19  36  56  78 102 137 180 217 255 309
#     4  10  19  32  52  78 106 134 166 213 266 309
#     4   9  17  32  53  79 104 131 171 214 257 306
#     4  10  21  37  54  74 103 141 181 216 256 312
#
# _framework density 20.284164000000001
#
# number of rings (size 3 to 8) (size 9 to 14) (size 15 to 20)
#    0.000    2.429    1.429    1.286    0.000    4.000 
#    2.571    1.429    0.000    0.000    0.000    0.000 
#    0.000    0.000    0.000    0.000    0.000    0.000 
#
# Total GULP energy -312503.083495 kJ/mol
# GULP energy per Si atom -5580.412205 kJ/mol
# Density = 2.023800 g / cm^3
# Si number density = 20.284164 Si / 1000 Ang^3
#
#
#
# Elastic Constant Matrix: (Units=GPa)
#
#
# Indices 1 2 3 4 5 6 
#
# 1 172.8632 97.8028 -4.2826 0.0000 0.0000 0.0000
# 2 97.8028 104.1774 -12.8519 0.0000 0.0000 0.0000
# 3 -4.2826 -12.8519 42.9302 0.0000 0.0000 0.0000
# 4 0.0000 0.0000 0.0000 13.2584 0.0000 0.0000
# 5 0.0000 0.0000 0.0000 0.0000 12.0835 0.0000
# 6 0.0000 0.0000 0.0000 0.0000 0.0000 23.3325
#
#
#
# Elastic Compliance Matrix: (Units=1/GPa)
#
#
# Indices 1 2 3 4 5 6 
#
# 1 0.012566 -0.012089 -0.002365 0.000000 0.000000 0.000000
# 2 -0.012089 0.021597 0.005259 0.000000 0.000000 0.000000
# 3 -0.002365 0.005259 0.024632 0.000000 0.000000 0.000000
# 4 0.000000 0.000000 0.000000 0.075424 0.000000 0.000000
# 5 0.000000 0.000000 0.000000 0.000000 0.082758 0.000000
# 6 0.000000 0.000000 0.000000 0.000000 0.000000 0.042859
#
#
# Mechanical properties :
#
#
# Convention : Reuss Voigt Hill
#
# Bulk Modulus (GPa) = 24.74916 53.47859 39.11387
# Shear Modulus (GPa) = 17.14131 25.68841 21.41486
#
# Velocity S-wave (km/s) = 2.91014 3.56255 3.25274
# Velocity P-wave (km/s) = 4.84970 6.58364 5.78204
#
# Compressibility (1/GPa) = 0.04040541
#
# Stress axis : x y z
#
# Youngs Moduli (GPa) = 79.58003 46.30276 40.59733
#
# Poissons Ratio (x) = 0.55975 0.09603
# Poissons Ratio (y) = 0.96203 -0.21352
# Poissons Ratio (z) = 0.18824 -0.24353
#
# Static dielectric constant tensor:
#      x y z
#    x 1.747480 0.000000 0.000000 
#    y 0.000000 1.663480 0.000000 
#    z 0.000000 0.000000 1.794520 
# 
# From -- ./inp_files/8179.got.cif
#   From: 2010.05.17/outbox.cif.g08.bks.cpg/sg58_5_cif.got.tgz:8179.got - 2010.06.03 14:20:14.
