data_PCOD9441189
_publ_section_title
;
Structure prediction by ZEFSAII (Michael W. Deem and Ramdas Pophale) SiO2 
 PCOD9441189
Probable space group: P N N M
;
_chemical_formula_sum "Si O2"
_cell_formula_units_Z 64
_cell_length_a 34.343809
_cell_length_b 12.077566
_cell_length_c 9.085259
_cell_angle_alpha 90.000000
_cell_angle_beta 90.000000
_cell_angle_gamma 90.000000
_cell_volume 3768.471127
_symmetry_space_group_name_H-M "P N N M"
_symmetry_group_IT_number 58
_symmetry_cell_setting 'orthorhombic'
loop_
_space_group_symop_operation_xyz
x,y,z
-x,-y,z
1/2+x,1/2-y,1/2-z
1/2-x,1/2+y,1/2-z
-x,-y,-z
x,y,-z
1/2-x,1/2+y,1/2+z
1/2+x,1/2-y,1/2+z
loop_
_atom_site_type_symbol
_atom_site_label
_atom_site_fract_x
_atom_site_fract_y
_atom_site_fract_z
Si Si1 0.267231 0.304790 0.824132
Si Si2 0.449189 0.611371 0.176602
Si Si3 0.536821 0.648291 0.175850
Si Si4 0.670267 0.548683 0.326005
Si Si5 0.813891 0.645739 0.323600
Si Si6 0.129863 0.184120 0.823865
Si Si7 0.326943 0.110452 0.175995
Si Si8 0.890696 0.246914 0.173688
O O1 0.293608 0.407078 0.767931
O O2 0.225968 0.308376 0.744910
O O3 0.291824 0.194396 0.785300
O O4 0.262427 0.308508 0.000000
O O5 0.491422 0.661723 0.215375
O O6 0.452185 0.479822 0.208627
O O7 0.413231 0.663242 0.262043
O O8 0.443856 0.622439 0.000000
O O9 0.567314 0.726716 0.255968
O O10 0.540204 0.661856 0.000000
O O11 0.680326 0.552880 0.500000
O O12 0.655189 0.426480 0.290354
O O13 0.635027 0.635424 0.301016
O O14 0.813553 0.657125 0.500000
O O15 0.849391 0.713461 0.254101
O O16 0.817364 0.515636 0.286875
O O17 0.129197 0.197203 0.000000
O O18 0.365610 0.155728 0.253757
O O19 0.332265 0.118506 0.000000
O O20 0.893824 0.263433 0.000000
#
# Coordination Sequence:
#
# PCOD9441189 Si02
#       8
#     8   8   8   8   8   8   8   8
#     4  10  21  37  58  82 104 135 177 225 273 317
#     4   9  18  32  51  78 113 149 184 220 263 323
#     4   9  17  30  51  80 113 147 181 219 265 320
#     4   9  19  34  51  76 110 143 174 215 266 321
#     4  11  24  40  57  78 106 144 184 223 273 327
#     4  11  22  36  54  79 113 148 181 223 272 322
#     4   9  21  40  57  75 105 142 180 223 268 320
#     4  10  18  31  54  82 109 140 178 219 267 318
#
# _framework density 16.983015000000002
#
# number of rings (size 3 to 8) (size 9 to 14) (size 15 to 20)
#    0.000    2.250    1.250    2.250    1.750    3.500 
#    0.000    1.250    0.000    0.750    0.000    5.250 
#    0.000    0.000    0.000    0.000    0.000    0.000 
#
# Total GULP energy -357209.836252 kJ/mol
# GULP energy per Si atom -5581.403691 kJ/mol
# Density = 1.694436 g / cm^3
# Si number density = 16.983015 Si / 1000 Ang^3
#
#
#
# Elastic Constant Matrix: (Units=GPa)
#
#
# Indices 1 2 3 4 5 6 
#
# 1 144.7907 61.5505 63.8680 0.0000 0.0000 0.0000
# 2 61.5505 85.5480 45.7889 0.0000 0.0000 0.0000
# 3 63.8680 45.7889 47.5924 0.0000 0.0000 0.0000
# 4 0.0000 0.0000 0.0000 17.3317 0.0000 0.0000
# 5 0.0000 0.0000 0.0000 0.0000 35.8595 0.0000
# 6 0.0000 0.0000 0.0000 0.0000 0.0000 19.1571
#
#
#
# Elastic Compliance Matrix: (Units=1/GPa)
#
#
# Indices 1 2 3 4 5 6 
#
# 1 0.016926 -0.000042 -0.022674 0.000000 0.000000 0.000000
# 2 -0.000042 0.024100 -0.023130 0.000000 0.000000 0.000000
# 3 -0.022674 -0.023130 0.073694 0.000000 0.000000 0.000000
# 4 0.000000 0.000000 0.000000 0.057698 0.000000 0.000000
# 5 0.000000 0.000000 0.000000 0.000000 0.027887 0.000000
# 6 0.000000 0.000000 0.000000 0.000000 0.000000 0.052200
#
#
# Mechanical properties :
#
#
# Convention : Reuss Voigt Hill
#
# Bulk Modulus (GPa) = 43.42742 68.92733 56.17738
# Shear Modulus (GPa) = 14.20973 21.58457 17.89715
#
# Velocity S-wave (km/s) = 2.89572 3.56891 3.24979
# Velocity P-wave (km/s) = 6.06687 7.59322 6.87255
#
# Compressibility (1/GPa) = 0.02302693
#
# Stress axis : x y z
#
# Youngs Moduli (GPa) = 59.08093 41.49403 13.56972
#
# Poissons Ratio (x) = 0.00174 0.30768
# Poissons Ratio (y) = 0.00248 0.31387
# Poissons Ratio (z) = 1.33960 0.95977
#
# Static dielectric constant tensor:
#      x y z
#    x 1.561560 0.000000 0.000000 
#    y 0.000000 1.558280 0.000000 
#    z 0.000000 0.000000 1.559920 
# 
# From -- ./inp_files/11066.got.cif
#   From: 2010.05.17/outbox.cif.g08.bks.cpg/sg58_6_cif.got.tgz:11066.got - 2010.06.03 14:20:14.
