data_PCOD9441863
_publ_section_title
;
Structure prediction by ZEFSAII (Michael W. Deem and Ramdas Pophale) SiO2 
 PCOD9441863
Probable space group: P N N M
;
_chemical_formula_sum "Si O2"
_cell_formula_units_Z 58
_cell_length_a 13.427367
_cell_length_b 23.671981
_cell_length_c 10.186419
_cell_angle_alpha 90.000000
_cell_angle_beta 90.000000
_cell_angle_gamma 90.000000
_cell_volume 3237.777487
_symmetry_space_group_name_H-M "P N N M"
_symmetry_group_IT_number 58
_symmetry_cell_setting 'orthorhombic'
loop_
_space_group_symop_operation_xyz
x,y,z
-x,-y,z
1/2+x,1/2-y,1/2-z
1/2-x,1/2+y,1/2-z
-x,-y,-z
x,y,-z
1/2-x,1/2+y,1/2+z
1/2+x,1/2-y,1/2+z
loop_
_atom_site_type_symbol
_atom_site_label
_atom_site_fract_x
_atom_site_fract_y
_atom_site_fract_z
Si Si1 0.770530 0.950390 0.341663
Si Si2 0.550499 0.374887 0.847611
Si Si3 0.000000 0.000000 0.000000
Si Si4 0.627120 0.559718 0.269267
Si Si5 0.773464 0.177619 0.152165
Si Si6 0.574291 0.730573 0.843751
Si Si7 0.043317 0.345125 0.348392
Si Si8 0.459129 0.063503 0.345486
O O1 0.776082 0.951473 0.500000
O O2 0.851681 0.904895 0.289646
O O3 0.657432 0.935823 0.306869
O O4 0.802860 0.011855 0.291506
O O5 0.457268 0.417201 0.830403
O O6 0.509924 0.314853 0.797511
O O7 0.572502 0.365843 0.000000
O O8 0.933750 0.031900 0.886677
O O9 0.688356 0.614181 0.317254
O O10 0.830649 0.217809 0.253955
O O11 0.655037 0.178021 0.169123
O O12 0.796651 0.191543 0.000000
O O13 0.532442 0.793244 0.829917
O O14 0.593408 0.720153 0.000000
O O15 0.035510 0.364984 0.500000
O O16 0.019128 0.394110 0.246380
O O17 0.467369 0.078840 0.500000
O O18 0.500000 0.000000 0.331689
#
# Coordination Sequence:
#
# PCOD9441863 Si02
#       8
#     8   8   2   8   8   8   8   8
#     4  10  19  32  53  78 105 141 184 225 272 323
#     4   9  17  31  52  77 101 135 175 224 271 325
#     4  12  20  28  46  76 122 148 176 230 270 336
#     4  11  19  32  49  78 114 147 179 223 278 328
#     4  10  21  36  58  81 109 146 187 221 276 336
#     4   9  20  37  57  79 107 136 178 225 272 316
#     4  10  22  41  59  82 111 145 183 229 273 336
#     4  10  22  39  57  81 110 143 186 232 272 323
#
# _framework density 17.913522
#
# number of rings (size 3 to 8) (size 9 to 14) (size 15 to 20)
#    0.000    2.069    2.069    1.241    0.000    4.138 
#    1.241    2.759    0.000    1.655    0.000    0.000 
#    0.000    0.000    0.000    0.000    0.000    0.000 
#
# Total GULP energy -322912.136530 kJ/mol
# GULP energy per Si atom -5567.450630 kJ/mol
# Density = 1.787275 g / cm^3
# Si number density = 17.913522 Si / 1000 Ang^3
#
#
#
# Elastic Constant Matrix: (Units=GPa)
#
#
# Indices 1 2 3 4 5 6 
#
# 1 81.6824 29.9484 47.4553 0.0000 0.0000 0.0000
# 2 29.9484 52.6076 46.9229 0.0000 0.0000 0.0000
# 3 47.4553 46.9229 68.1248 0.0000 0.0000 0.0000
# 4 0.0000 0.0000 0.0000 19.3457 0.0000 0.0000
# 5 0.0000 0.0000 0.0000 0.0000 22.6324 0.0000
# 6 0.0000 0.0000 0.0000 0.0000 0.0000 17.1071
#
#
#
# Elastic Compliance Matrix: (Units=1/GPa)
#
#
# Indices 1 2 3 4 5 6 
#
# 1 0.020723 0.002797 -0.016362 0.000000 0.000000 0.000000
# 2 0.002797 0.049667 -0.036158 0.000000 0.000000 0.000000
# 3 -0.016362 -0.036158 0.050981 0.000000 0.000000 0.000000
# 4 0.000000 0.000000 0.000000 0.051691 0.000000 0.000000
# 5 0.000000 0.000000 0.000000 0.000000 0.044184 0.000000
# 6 0.000000 0.000000 0.000000 0.000000 0.000000 0.058455
#
#
# Mechanical properties :
#
#
# Convention : Reuss Voigt Hill
#
# Bulk Modulus (GPa) = 45.60915 50.11867 47.86391
# Shear Modulus (GPa) = 13.07338 17.02294 15.04816
#
# Velocity S-wave (km/s) = 2.70442 3.08601 2.90150
# Velocity P-wave (km/s) = 5.93868 6.38254 6.16460
#
# Compressibility (1/GPa) = 0.02192543
#
# Stress axis : x y z
#
# Youngs Moduli (GPa) = 48.25594 20.13390 19.61507
#
# Poissons Ratio (x) = -0.05630 0.32093
# Poissons Ratio (y) = -0.13495 0.70924
# Poissons Ratio (z) = 0.78954 0.72800
#
# Static dielectric constant tensor:
#      x y z
#    x 1.618300 0.000000 0.000000 
#    y 0.000000 1.607890 0.000000 
#    z 0.000000 0.000000 1.598900 
# 
# From -- ./inp_files/6714.got.cif
#   From: 2010.05.17/outbox.cif.g08.bks.cpg/sg58_4_cif.got.tgz:6714.got - 2010.06.03 14:20:14.
