data_PCOD9441957
_publ_section_title
;
Structure prediction by ZEFSAII (Michael W. Deem and Ramdas Pophale) SiO2 
 PCOD9441957
Probable space group: P N N M
;
_chemical_formula_sum "Si O2"
_cell_formula_units_Z 48
_cell_length_a 14.859667
_cell_length_b 17.120037
_cell_length_c 7.208394
_cell_angle_alpha 90.000000
_cell_angle_beta 90.000000
_cell_angle_gamma 90.000000
_cell_volume 1833.801369
_symmetry_space_group_name_H-M "P N N M"
_symmetry_group_IT_number 58
_symmetry_cell_setting 'orthorhombic'
loop_
_space_group_symop_operation_xyz
x,y,z
-x,-y,z
1/2+x,1/2-y,1/2-z
1/2-x,1/2+y,1/2-z
-x,-y,-z
x,y,-z
1/2-x,1/2+y,1/2+z
1/2+x,1/2-y,1/2+z
loop_
_atom_site_type_symbol
_atom_site_label
_atom_site_fract_x
_atom_site_fract_y
_atom_site_fract_z
Si Si1 0.128986 0.943024 0.275736
Si Si2 0.181414 0.254742 0.724847
Si Si3 0.852752 0.328388 0.776095
Si Si4 0.683792 0.004078 0.725377
Si Si5 0.552431 0.385591 0.775752
Si Si6 0.541312 0.114398 0.710002
O O1 0.131855 0.937752 0.500000
O O2 0.231145 0.945324 0.209132
O O3 0.051747 0.883155 0.212817
O O4 0.091612 0.029448 0.229013
O O5 0.181180 0.258282 0.500000
O O6 0.283695 0.238405 0.787611
O O7 0.118942 0.181886 0.784002
O O8 0.126869 0.328443 0.795014
O O9 0.808504 0.412686 0.730519
O O10 0.955712 0.339044 0.710445
O O11 0.854823 0.320335 0.000000
O O12 0.683414 0.007598 0.500000
O O13 0.588675 0.037787 0.791738
O O14 0.551406 0.382611 0.000000
O O15 0.513169 0.094228 0.500000
#
# Coordination Sequence:
#
# PCOD9441957 Si02
#       6
#     8   8   8   8   8   8
#     4   8  12  20  39  69  96 114 148 206 251 272
#     4  10  19  33  52  72 100 138 171 198 244 311
#     4   9  17  32  52  72  97 134 172 205 246 297
#     4   9  15  27  48  72  96 126 167 209 246 288
#     4   8  13  22  39  66  96 121 150 196 246 283
#     4  10  21  33  49  76 105 129 162 212 258 292
#
# _framework density 26.175135000000001
#
# number of rings (size 3 to 8) (size 9 to 14) (size 15 to 20)
#    0.000    3.000    1.667    1.500    0.000    3.333 
#    0.000    2.500    0.000    3.000    0.000    2.333 
#    0.000    0.000    0.000    0.000    0.000    0.000 
#
# Total GULP energy -268165.393769 kJ/mol
# GULP energy per Si atom -5586.779037 kJ/mol
# Density = 2.611556 g / cm^3
# Si number density = 26.175135 Si / 1000 Ang^3
#
#
#
# Elastic Constant Matrix: (Units=GPa)
#
#
# Indices 1 2 3 4 5 6 
#
# 1 209.7607 22.1237 1.7883 0.0000 0.0000 0.0000
# 2 22.1237 28.6899 -6.5554 0.0000 0.0000 0.0000
# 3 1.7883 -6.5554 133.1190 0.0000 0.0000 0.0000
# 4 0.0000 0.0000 0.0000 -9.6331 0.0000 0.0000
# 5 0.0000 0.0000 0.0000 0.0000 -10.5515 0.0000
# 6 0.0000 0.0000 0.0000 0.0000 0.0000 47.7152
#
#
#
# Elastic Compliance Matrix: (Units=1/GPa)
#
#
# Indices 1 2 3 4 5 6 
#
# 1 0.005199 -0.004071 -0.000270 0.000000 0.000000 0.000000
# 2 -0.004071 0.038440 0.001948 0.000000 0.000000 0.000000
# 3 -0.000270 0.001948 0.007612 0.000000 0.000000 0.000000
# 4 0.000000 0.000000 0.000000 -0.103809 0.000000 0.000000
# 5 0.000000 0.000000 0.000000 0.000000 -0.094773 0.000000
# 6 0.000000 0.000000 0.000000 0.000000 0.000000 0.020958
#
#
# Mechanical properties :
#
#
# Convention : Reuss Voigt Hill
#
# Bulk Modulus (GPa) = 21.52243 45.14254 33.33249
# Shear Modulus (GPa) = -47.12560 29.12032 -9.00264
#
# Velocity S-wave (km/s) = -4.24771 3.33906 -1.85657
# Velocity P-wave (km/s) = 3.97707 5.67006 2.85766
#
# Compressibility (1/GPa) = 0.04646315
#
# Stress axis : x y z
#
# Youngs Moduli (GPa) = 192.34460 26.01480 131.37814
#
# Poissons Ratio (x) = 0.10590 0.03551
# Poissons Ratio (y) = 0.78301 -0.25588
# Poissons Ratio (z) = 0.05199 -0.05067
#
# Static dielectric constant tensor:
#      x y z
#    x 2.071460 0.000000 0.000000 
#    y 0.000000 2.034390 0.000000 
#    z 0.000000 0.000000 2.045330 
# 
# From -- ./inp_files/6048.got.cif
#   From: 2010.05.17/outbox.cif.g08.bks.cpg/sg58_4_cif.got.tgz:6048.got - 2010.06.03 14:20:14.
