data_PCOD9441855
_publ_section_title
;
Structure prediction by ZEFSAII (Michael W. Deem and Ramdas Pophale) SiO2 
 PCOD9441855
Probable space group: P N N M
;
_chemical_formula_sum "Si O2"
_cell_formula_units_Z 56
_cell_length_a 17.443139
_cell_length_b 5.086853
_cell_length_c 34.336263
_cell_angle_alpha 90.000000
_cell_angle_beta 90.000000
_cell_angle_gamma 90.000000
_cell_volume 3046.680100
_symmetry_space_group_name_H-M "P N N M"
_symmetry_group_IT_number 58
_symmetry_cell_setting 'orthorhombic'
loop_
_space_group_symop_operation_xyz
x,y,z
-x,-y,z
1/2+x,1/2-y,1/2-z
1/2-x,1/2+y,1/2-z
-x,-y,-z
x,y,-z
1/2-x,1/2+y,1/2+z
1/2+x,1/2-y,1/2+z
loop_
_atom_site_type_symbol
_atom_site_label
_atom_site_fract_x
_atom_site_fract_y
_atom_site_fract_z
Si Si1 0.845746 0.097512 0.045863
Si Si2 0.214960 0.416866 0.853102
Si Si3 0.085104 0.394336 0.084188
Si Si4 0.293717 0.775173 0.263139
Si Si5 0.948082 0.757899 0.284754
Si Si6 0.783467 0.575601 0.391227
Si Si7 0.052718 0.243089 0.374963
O O1 0.874801 0.387126 0.056964
O O2 0.766549 0.056310 0.069499
O O3 0.905907 0.884314 0.062703
O O4 0.836883 0.066382 0.000000
O O5 0.135980 0.372651 0.876744
O O6 0.204405 0.364713 0.807802
O O7 0.242036 0.709523 0.863665
O O8 0.276542 0.206980 0.870245
O O9 0.000000 0.500000 0.091697
O O10 0.259712 0.484012 0.259150
O O11 0.375499 0.778505 0.242417
O O12 0.924522 0.812121 0.329720
O O13 0.000000 0.500000 0.284679
O O14 0.000000 0.000000 0.271495
O O15 0.869144 0.682635 0.396920
O O16 0.000000 0.500000 0.375126
O O17 0.000000 0.000000 0.388533
#
# Coordination Sequence:
#
# PCOD9441855 Si02
#       7
#     8   8   8   8   8   8   8
#     4  10  21  36  57  83 109 141 175 214 267 316
#     4  10  21  36  54  76 105 145 181 218 266 315
#     4  10  21  36  55  81 111 143 181 219 259 315
#     4  12  23  36  56  79 105 142 188 230 271 317
#     4  10  21  35  50  74 104 134 172 221 271 312
#     4  10  20  37  56  77 107 137 175 218 262 323
#     4  10  19  32  53  76 100 132 171 215 261 309
#
# _framework density 18.380662999999998
#
# number of rings (size 3 to 8) (size 9 to 14) (size 15 to 20)
#    0.000    1.714    0.000    5.143    0.000    4.571 
#    0.000    2.857    0.000    0.857    0.000    0.000 
#    0.000    0.000    0.000    0.000    0.000    0.000 
#
# Total GULP energy -312806.274526 kJ/mol
# GULP energy per Si atom -5585.826331 kJ/mol
# Density = 1.833883 g / cm^3
# Si number density = 18.380663 Si / 1000 Ang^3
#
#
#
# Elastic Constant Matrix: (Units=GPa)
#
#
# Indices 1 2 3 4 5 6 
#
# 1 101.7968 4.5748 26.3132 0.0000 0.0000 0.0000
# 2 4.5748 74.2533 1.7478 0.0000 0.0000 0.0000
# 3 26.3132 1.7478 67.6223 0.0000 0.0000 0.0000
# 4 0.0000 0.0000 0.0000 -267.0774 0.0000 0.0000
# 5 0.0000 0.0000 0.0000 0.0000 7.1538 0.0000
# 6 0.0000 0.0000 0.0000 0.0000 0.0000 91.5430
#
#
#
# Elastic Compliance Matrix: (Units=1/GPa)
#
#
# Indices 1 2 3 4 5 6 
#
# 1 0.010947 -0.000575 -0.004245 0.000000 0.000000 0.000000
# 2 -0.000575 0.013506 -0.000126 0.000000 0.000000 0.000000
# 3 -0.004245 -0.000126 0.016443 0.000000 0.000000 0.000000
# 4 0.000000 0.000000 0.000000 -0.003744 0.000000 0.000000
# 5 0.000000 0.000000 0.000000 0.000000 0.139786 0.000000
# 6 0.000000 0.000000 0.000000 0.000000 0.000000 0.010924
#
#
# Mechanical properties :
#
#
# Convention : Reuss Voigt Hill
#
# Bulk Modulus (GPa) = 32.25200 34.32712 33.28956
# Shear Modulus (GPa) = 24.02859 -19.60700 2.21079
#
# Velocity S-wave (km/s) = 3.61955 -3.26961 1.09790
# Velocity P-wave (km/s) = 5.92055 2.11244 4.44496
#
# Compressibility (1/GPa) = 0.03100583
#
# Stress axis : x y z
#
# Youngs Moduli (GPa) = 91.35337 74.04250 60.81633
#
# Poissons Ratio (x) = 0.04254 0.25814
# Poissons Ratio (y) = 0.05248 0.00763
# Poissons Ratio (z) = 0.38776 0.00929
#
# Static dielectric constant tensor:
#      x y z
#    x 2.016880 0.000000 0.000000 
#    y 0.000000 1.631440 0.000000 
#    z 0.000000 0.000000 1.602030 
# 
# From -- ./inp_files/35046.got.cif
#   From: 2010.05.17/outbox.cif.g08.bks.cpg/sg58_18_cif.got.tgz:35046.got - 2010.06.03 14:20:14.
