data_PCOD9441054
_publ_section_title
;
Structure prediction by ZEFSAII (Michael W. Deem and Ramdas Pophale) SiO2 
 PCOD9441054
Probable space group: P N N M
;
_chemical_formula_sum "Si O2"
_cell_formula_units_Z 56
_cell_length_a 21.797096
_cell_length_b 14.450508
_cell_length_c 7.447269
_cell_angle_alpha 90.000000
_cell_angle_beta 90.000000
_cell_angle_gamma 90.000000
_cell_volume 2345.734162
_symmetry_space_group_name_H-M "P N N M"
_symmetry_group_IT_number 58
_symmetry_cell_setting 'orthorhombic'
loop_
_space_group_symop_operation_xyz
x,y,z
-x,-y,z
1/2+x,1/2-y,1/2-z
1/2-x,1/2+y,1/2-z
-x,-y,-z
x,y,-z
1/2-x,1/2+y,1/2+z
1/2+x,1/2-y,1/2+z
loop_
_atom_site_type_symbol
_atom_site_label
_atom_site_fract_x
_atom_site_fract_y
_atom_site_fract_z
Si Si1 0.259565 0.510671 0.780492
Si Si2 0.637935 0.068289 0.290551
Si Si3 0.519187 0.714316 0.221165
Si Si4 0.453526 0.078228 0.784648
Si Si5 0.387415 0.740628 0.798138
Si Si6 0.856300 0.126698 0.711377
Si Si7 0.751558 0.279301 0.782918
O O1 0.207009 0.439261 0.721923
O O2 0.323372 0.466162 0.718724
O O3 0.242127 0.613727 0.725730
O O4 0.259071 0.510495 0.000000
O O5 0.636460 0.090463 0.500000
O O6 0.599971 0.148654 0.194927
O O7 0.610956 0.966412 0.265681
O O8 0.535764 0.818682 0.279591
O O9 0.448983 0.695652 0.280372
O O10 0.576479 0.652484 0.282325
O O11 0.517583 0.713102 0.000000
O O12 0.500000 0.000000 0.714865
O O13 0.457699 0.080295 0.000000
O O14 0.318834 0.739649 0.719068
O O15 0.380911 0.702782 0.000000
O O16 0.865184 0.111891 0.500000
O O17 0.806697 0.211179 0.725949
O O18 0.751724 0.274391 0.000000
#
# Coordination Sequence:
#
# PCOD9441054 Si02
#       7
#     8   8   8   8   8   8   8
#     4   9  19  34  51  76 107 134 166 220 271 304
#     4  11  20  31  49  73 104 136 169 210 263 315
#     4   9  18  32  51  74 101 137 174 214 255 307
#     4  10  18  30  47  69 102 135 167 209 256 305
#     4  10  19  34  53  74 101 134 175 212 255 308
#     4  10  19  35  56  76 105 139 174 214 264 316
#     4  10  20  35  56  78 105 138 174 218 263 310
#
# _framework density 23.873123
#
# number of rings (size 3 to 8) (size 9 to 14) (size 15 to 20)
#    0.000    2.143    2.857    1.286    0.000    0.286 
#    0.000    2.857    0.000    4.286    0.000    0.000 
#    0.000    3.429    0.000    0.000    0.000    0.000 
#
# Total GULP energy -312451.659265 kJ/mol
# GULP energy per Si atom -5579.493915 kJ/mol
# Density = 2.381879 g / cm^3
# Si number density = 23.873123 Si / 1000 Ang^3
#
#
#
# Elastic Constant Matrix: (Units=GPa)
#
#
# Indices 1 2 3 4 5 6 
#
# 1 115.8281 -12.5213 -9.5833 0.0000 0.0000 0.0000
# 2 -12.5213 21.4965 -11.9140 0.0000 0.0000 0.0000
# 3 -9.5833 -11.9140 77.2153 0.0000 0.0000 0.0000
# 4 0.0000 0.0000 0.0000 10.3517 0.0000 0.0000
# 5 0.0000 0.0000 0.0000 0.0000 8.1577 0.0000
# 6 0.0000 0.0000 0.0000 0.0000 0.0000 36.4542
#
#
#
# Elastic Compliance Matrix: (Units=1/GPa)
#
#
# Indices 1 2 3 4 5 6 
#
# 1 0.009554 0.006804 0.002236 0.000000 0.000000 0.000000
# 2 0.006804 0.055715 0.009441 0.000000 0.000000 0.000000
# 3 0.002236 0.009441 0.014685 0.000000 0.000000 0.000000
# 4 0.000000 0.000000 0.000000 0.096603 0.000000 0.000000
# 5 0.000000 0.000000 0.000000 0.000000 0.122584 0.000000
# 6 0.000000 0.000000 0.000000 0.000000 0.000000 0.027432
#
#
# Mechanical properties :
#
#
# Convention : Reuss Voigt Hill
#
# Bulk Modulus (GPa) = 8.55321 16.27808 12.41564
# Shear Modulus (GPa) = 15.21688 27.56328 21.39008
#
# Velocity S-wave (km/s) = 2.52743 3.40159 2.99656
# Velocity P-wave (km/s) = 3.47962 4.71817 4.14541
#
# Compressibility (1/GPa) = 0.11691516
#
# Stress axis : x y z
#
# Youngs Moduli (GPa) = 104.66836 17.94853 68.09681
#
# Poissons Ratio (x) = -0.12212 -0.15224
# Poissons Ratio (y) = -0.71217 -0.64290
# Poissons Ratio (z) = -0.23400 -0.16945
#
# Static dielectric constant tensor:
#      x y z
#    x 2.007170 0.000000 0.000000 
#    y 0.000000 1.923650 0.000000 
#    z 0.000000 0.000000 1.914250 
# 
# From -- ./inp_files/8980.got.cif
#   From: 2010.05.17/outbox.cif.g08.bks.cpg/sg58_5_cif.got.tgz:8980.got - 2010.06.03 14:20:14.
