data_PCOD9441916
_publ_section_title
;
Structure prediction by ZEFSAII (Michael W. Deem and Ramdas Pophale) SiO2 
 PCOD9441916
Probable space group: P N N M
;
_chemical_formula_sum "Si O2"
_cell_formula_units_Z 40
_cell_length_a 24.351628
_cell_length_b 9.375817
_cell_length_c 10.029444
_cell_angle_alpha 90.000000
_cell_angle_beta 90.000000
_cell_angle_gamma 90.000000
_cell_volume 2289.886626
_symmetry_space_group_name_H-M "P N N M"
_symmetry_group_IT_number 58
_symmetry_cell_setting 'orthorhombic'
loop_
_space_group_symop_operation_xyz
x,y,z
-x,-y,z
1/2+x,1/2-y,1/2-z
1/2-x,1/2+y,1/2-z
-x,-y,-z
x,y,-z
1/2-x,1/2+y,1/2+z
1/2+x,1/2-y,1/2+z
loop_
_atom_site_type_symbol
_atom_site_label
_atom_site_fract_x
_atom_site_fract_y
_atom_site_fract_z
Si Si1 0.780474 0.330534 0.000000
Si Si2 0.856383 0.478214 0.207835
Si Si3 0.667640 0.973043 0.000000
Si Si4 0.348732 0.687036 0.000000
Si Si5 0.702031 0.489623 0.500000
Si Si6 0.947729 0.400459 0.000000
Si Si7 0.028918 0.150018 0.000000
Si Si8 0.127371 0.182103 0.204601
O O1 0.806265 0.407887 0.128125
O O2 0.797933 0.162932 0.000000
O O3 0.715536 0.350865 0.000000
O O4 0.855861 0.423049 0.359007
O O5 0.853394 0.651271 0.199669
O O6 0.910070 0.431136 0.127329
O O7 0.653126 0.141026 0.000000
O O8 0.733389 0.951937 0.000000
O O9 0.375408 0.640979 0.860272
O O10 0.670295 0.418999 0.374335
O O11 0.000000 0.500000 0.000000
O O12 0.976024 0.249674 0.000000
O O13 0.069713 0.173173 0.874116
O O14 0.000000 0.000000 0.000000
#
# Coordination Sequence:
#
# PCOD9441916 Si02
#       8
#     4   8   4   4   4   4   4   8
#     4  10  19  32  55  85 109 147 172 220 250 313
#     4  10  20  35  58  79 110 136 185 216 266 310
#     4   9  19  35  52  84 112 144 166 224 263 316
#     4   9  19  35  56  79 115 138 179 212 266 313
#     4  10  19  32  55  79 116 143 183 202 261 316
#     4  11  19  37  58  80  96 134 183 226 256 317
#     4  11  23  37  60  74 102 138 183 221 274 313
#     4  10  20  37  56  81 104 148 176 217 261 324
#
# _framework density 17.468112999999999
#
# number of rings (size 3 to 8) (size 9 to 14) (size 15 to 20)
#    0.000    2.000    2.000    3.000    5.600    0.000 
#    0.000    5.000    0.000    0.000    0.000    0.000 
#    0.000    0.000    0.000    0.000    0.000    0.000 
#
# Total GULP energy -222922.358608 kJ/mol
# GULP energy per Si atom -5573.058965 kJ/mol
# Density = 1.742835 g / cm^3
# Si number density = 17.468113 Si / 1000 Ang^3
#
#
#
# Elastic Constant Matrix: (Units=GPa)
#
#
# Indices 1 2 3 4 5 6 
#
# 1 46.8451 12.2447 58.0966 0.0000 0.0000 0.0000
# 2 12.2447 84.0136 27.6006 0.0000 0.0000 0.0000
# 3 58.0966 27.6006 192.8549 0.0000 0.0000 0.0000
# 4 0.0000 0.0000 0.0000 13.1259 0.0000 0.0000
# 5 0.0000 0.0000 0.0000 0.0000 -2.8821 0.0000
# 6 0.0000 0.0000 0.0000 0.0000 0.0000 31.3118
#
#
#
# Elastic Compliance Matrix: (Units=1/GPa)
#
#
# Indices 1 2 3 4 5 6 
#
# 1 0.034304 -0.001684 -0.010093 0.000000 0.000000 0.000000
# 2 -0.001684 0.012573 -0.001292 0.000000 0.000000 0.000000
# 3 -0.010093 -0.001292 0.008411 0.000000 0.000000 0.000000
# 4 0.000000 0.000000 0.000000 0.076185 0.000000 0.000000
# 5 0.000000 0.000000 0.000000 0.000000 -0.346975 0.000000
# 6 0.000000 0.000000 0.000000 0.000000 0.000000 0.031937
#
#
# Mechanical properties :
#
#
# Convention : Reuss Voigt Hill
#
# Bulk Modulus (GPa) = 34.30575 57.73304 46.01940
# Shear Modulus (GPa) = -33.85006 23.36257 -5.24375
#
# Velocity S-wave (km/s) = -4.40684 3.66107 -1.73448
# Velocity P-wave (km/s) = 2.49239 7.14098 4.73189
#
# Compressibility (1/GPa) = 0.02914963
#
# Stress axis : x y z
#
# Youngs Moduli (GPa) = 29.15088 79.53707 118.89717
#
# Poissons Ratio (x) = 0.13394 1.20003
# Poissons Ratio (y) = 0.04909 0.15363
# Poissons Ratio (z) = 0.29422 0.10277
#
# Static dielectric constant tensor:
#      x y z
#    x 1.559160 0.000000 0.000000 
#    y 0.000000 1.576990 0.000000 
#    z 0.000000 0.000000 1.627090 
# 
# From -- ./inp_files/10313.got.cif
#   From: 2010.05.17/outbox.cif.g08.bks.cpg/sg58_6_cif.got.tgz:10313.got - 2010.06.03 14:20:14.
