data_PCOD9441415
_publ_section_title
;
Structure prediction by ZEFSAII (Michael W. Deem and Ramdas Pophale) SiO2 
 PCOD9441415
Probable space group: P N N M
;
_chemical_formula_sum "Si O2"
_cell_formula_units_Z 48
_cell_length_a 18.535655
_cell_length_b 9.399696
_cell_length_c 14.403636
_cell_angle_alpha 90.000000
_cell_angle_beta 90.000000
_cell_angle_gamma 90.000000
_cell_volume 2509.538618
_symmetry_space_group_name_H-M "P N N M"
_symmetry_group_IT_number 58
_symmetry_cell_setting 'orthorhombic'
loop_
_space_group_symop_operation_xyz
x,y,z
-x,-y,z
1/2+x,1/2-y,1/2-z
1/2-x,1/2+y,1/2-z
-x,-y,-z
x,y,-z
1/2-x,1/2+y,1/2+z
1/2+x,1/2-y,1/2+z
loop_
_atom_site_type_symbol
_atom_site_label
_atom_site_fract_x
_atom_site_fract_y
_atom_site_fract_z
Si Si1 0.834760 0.686094 0.290455
Si Si2 0.021336 0.835711 0.000000
Si Si3 0.332339 0.743305 0.000000
Si Si4 0.685546 0.585848 0.500000
Si Si5 0.564134 0.620380 0.202244
Si Si6 0.583547 0.551769 0.000000
Si Si7 0.798054 0.982090 0.797681
Si Si8 0.518205 0.161652 0.680805
O O1 0.857841 0.698533 0.399205
O O2 0.799133 0.832969 0.255409
O O3 0.775865 0.564216 0.278368
O O4 0.903361 0.665869 0.225885
O O5 0.108338 0.836532 0.000000
O O6 0.990179 0.759013 0.090415
O O7 0.000000 0.000000 0.000000
O O8 0.248205 0.792705 0.000000
O O9 0.360325 0.580200 0.000000
O O10 0.693580 0.487823 0.590983
O O11 0.500000 0.500000 0.207650
O O12 0.589659 0.634376 0.096215
O O13 0.631804 0.565033 0.260276
O O14 0.534429 0.765882 0.243835
O O15 0.500000 0.500000 0.000000
O O16 0.500000 0.000000 0.658393
#
# Coordination Sequence:
#
# PCOD9441415 Si02
#       8
#     8   4   4   4   8   4   8   8
#     4  11  24  42  64  95 130 174 218 275 339 399
#     4  12  23  43  73  97 128 176 232 273 323 402
#     4  10  20  40  64  94 128 167 219 281 325 392
#     4  10  22  37  65  95 127 167 218 264 340 404
#     4  11  20  40  66  93 122 170 223 271 326 393
#     4  10  18  34  66  94 117 159 230 268 314 395
#     4  11  22  40  65  91 128 170 220 267 335 399
#     4  12  26  42  64  98 138 170 217 281 336 390
#
# _framework density 19.127022
#
# number of rings (size 3 to 8) (size 9 to 14) (size 15 to 20)
#    0.000    1.000    5.000    2.750    2.333    0.000 
#    0.000    5.000    0.000    0.000    0.000    0.000 
#    0.000    0.000    0.000    0.000    0.000    0.000 
#
# Total GULP energy -268025.578380 kJ/mol
# GULP energy per Si atom -5583.866216 kJ/mol
# Density = 1.908349 g / cm^3
# Si number density = 19.127022 Si / 1000 Ang^3
#
#
#
# Elastic Constant Matrix: (Units=GPa)
#
#
# Indices 1 2 3 4 5 6 
#
# 1 43.4735 24.4297 26.7217 0.0000 0.0000 0.0000
# 2 24.4297 107.8794 49.5651 0.0000 0.0000 0.0000
# 3 26.7217 49.5651 106.6850 0.0000 0.0000 0.0000
# 4 0.0000 0.0000 0.0000 -12.1553 0.0000 0.0000
# 5 0.0000 0.0000 0.0000 0.0000 2.9283 0.0000
# 6 0.0000 0.0000 0.0000 0.0000 0.0000 32.0793
#
#
#
# Elastic Compliance Matrix: (Units=1/GPa)
#
#
# Indices 1 2 3 4 5 6 
#
# 1 0.028507 -0.004037 -0.005265 0.000000 0.000000 0.000000
# 2 -0.004037 0.012357 -0.004730 0.000000 0.000000 0.000000
# 3 -0.005265 -0.004730 0.012890 0.000000 0.000000 0.000000
# 4 0.000000 0.000000 0.000000 -0.082268 0.000000 0.000000
# 5 0.000000 0.000000 0.000000 0.000000 0.341500 0.000000
# 6 0.000000 0.000000 0.000000 0.000000 0.000000 0.031173
#
#
# Mechanical properties :
#
#
# Convention : Reuss Voigt Hill
#
# Bulk Modulus (GPa) = 38.92448 51.05233 44.98841
# Shear Modulus (GPa) = 13.13080 15.05853 14.09467
#
# Velocity S-wave (km/s) = 2.62297 2.80891 2.71753
# Velocity P-wave (km/s) = 5.43764 6.10485 5.78088
#
# Compressibility (1/GPa) = 0.02569077
#
# Stress axis : x y z
#
# Youngs Moduli (GPa) = 35.07915 80.92691 77.58218
#
# Poissons Ratio (x) = 0.32667 0.40846
# Poissons Ratio (y) = 0.14160 0.36695
# Poissons Ratio (z) = 0.18469 0.38277
#
# Static dielectric constant tensor:
#      x y z
#    x 1.666850 0.000000 0.000000 
#    y 0.000000 1.643220 0.000000 
#    z 0.000000 0.000000 1.690270 
# 
# From -- ./inp_files/22794.got.cif
#   From: 2010.05.17/outbox.cif.g08.bks.cpg/sg58_12_cif.got.tgz:22794.got - 2010.06.03 14:20:14.
