data_PCOD9441952
_publ_section_title
;
Structure prediction by ZEFSAII (Michael W. Deem and Ramdas Pophale) SiO2 
 PCOD9441952
Probable space group: P N N M
;
_chemical_formula_sum "Si O2"
_cell_formula_units_Z 64
_cell_length_a 25.417491
_cell_length_b 12.263011
_cell_length_c 8.588553
_cell_angle_alpha 90.000000
_cell_angle_beta 90.000000
_cell_angle_gamma 90.000000
_cell_volume 2677.008784
_symmetry_space_group_name_H-M "P N N M"
_symmetry_group_IT_number 58
_symmetry_cell_setting 'orthorhombic'
loop_
_space_group_symop_operation_xyz
x,y,z
-x,-y,z
1/2+x,1/2-y,1/2-z
1/2-x,1/2+y,1/2-z
-x,-y,-z
x,y,-z
1/2-x,1/2+y,1/2+z
1/2+x,1/2-y,1/2+z
loop_
_atom_site_type_symbol
_atom_site_label
_atom_site_fract_x
_atom_site_fract_y
_atom_site_fract_z
Si Si1 0.260424 0.305058 0.321973
Si Si2 0.410807 0.884489 0.680675
Si Si3 0.957616 0.391640 0.814796
Si Si4 0.145033 0.720261 0.676294
Si Si5 0.990817 0.174521 0.313144
Si Si6 0.342540 0.685777 0.687211
Si Si7 0.683314 0.009113 0.827511
Si Si8 0.413756 0.510663 0.187263
O O1 0.267653 0.269258 0.500000
O O2 0.317525 0.310720 0.244414
O O3 0.212909 0.231187 0.251250
O O4 0.236663 0.426232 0.317392
O O5 0.423999 0.866524 0.500000
O O6 0.388265 0.770666 0.748100
O O7 0.355472 0.950964 0.694162
O O8 0.449437 0.982293 0.742532
O O9 0.903917 0.329991 0.765858
O O10 0.997426 0.295546 0.758166
O O11 0.960781 0.399829 0.000000
O O12 0.128567 0.742608 0.500000
O O13 0.186434 0.619410 0.675695
O O14 0.990661 0.186375 0.500000
O O15 0.037946 0.092831 0.272149
O O16 0.937083 0.108583 0.267388
O O17 0.341236 0.691211 0.500000
O O18 0.362620 0.566859 0.739490
O O19 0.659413 0.036793 0.000000
O O20 0.408448 0.509816 0.000000
#
# Coordination Sequence:
#
# PCOD9441952 Si02
#       8
#     8   8   8   8   8   8   8   8
#     4  10  19  33  51  73 101 135 173 216 261 308
#     4   8  16  30  49  73 102 133 164 201 251 306
#     4  10  19  33  54  79 105 136 174 216 262 316
#     4  10  19  33  51  73 101 135 173 216 261 308
#     4   9  19  37  58  78 104 139 177 219 268 318
#     4  10  19  33  54  79 105 136 174 216 262 316
#     4   8  16  30  48  67  91 126 167 206 248 296
#     4   9  19  37  58  78 104 139 177 219 268 318
#
# _framework density 23.90728
#
# number of rings (size 3 to 8) (size 9 to 14) (size 15 to 20)
#    0.000    2.750    0.000    2.250    0.000    3.000 
#    2.250    1.875    0.000    3.750    0.000    0.000 
#    0.000    0.000    0.000    0.000    0.000    0.000 
#
# Total GULP energy -356802.493002 kJ/mol
# GULP energy per Si atom -5575.038953 kJ/mol
# Density = 2.385287 g / cm^3
# Si number density = 23.907280 Si / 1000 Ang^3
#
#
#
# Elastic Constant Matrix: (Units=GPa)
#
#
# Indices 1 2 3 4 5 6 
#
# 1 40.8014 -0.0136 12.1773 0.0000 0.0000 0.0000
# 2 -0.0136 140.9144 10.2850 0.0000 0.0000 0.0000
# 3 12.1773 10.2850 36.1017 0.0000 0.0000 0.0000
# 4 0.0000 0.0000 0.0000 20.0890 0.0000 0.0000
# 5 0.0000 0.0000 0.0000 0.0000 7.0541 0.0000
# 6 0.0000 0.0000 0.0000 0.0000 0.0000 23.8490
#
#
#
# Elastic Compliance Matrix: (Units=1/GPa)
#
#
# Indices 1 2 3 4 5 6 
#
# 1 0.027318 0.000690 -0.009411 0.000000 0.000000 0.000000
# 2 0.000690 0.007265 -0.002302 0.000000 0.000000 0.000000
# 3 -0.009411 -0.002302 0.031530 0.000000 0.000000 0.000000
# 4 0.000000 0.000000 0.000000 0.049778 0.000000 0.000000
# 5 0.000000 0.000000 0.000000 0.000000 0.141761 0.000000
# 6 0.000000 0.000000 0.000000 0.000000 0.000000 0.041930
#
#
# Mechanical properties :
#
#
# Convention : Reuss Voigt Hill
#
# Bulk Modulus (GPa) = 22.69371 29.19056 25.94214
# Shear Modulus (GPa) = 14.86689 23.22302 19.04496
#
# Velocity S-wave (km/s) = 2.49641 3.12008 2.82550
# Velocity P-wave (km/s) = 4.22166 5.02158 4.63889
#
# Compressibility (1/GPa) = 0.04406507
#
# Stress axis : x y z
#
# Youngs Moduli (GPa) = 36.60603 137.65377 31.71609
#
# Poissons Ratio (x) = -0.09491 0.29848
# Poissons Ratio (y) = -0.02524 0.07302
# Poissons Ratio (z) = 0.34450 0.31691
#
# Static dielectric constant tensor:
#      x y z
#    x 2.068270 0.000000 0.000000 
#    y 0.000000 1.982670 0.000000 
#    z 0.000000 0.000000 1.854980 
# 
# From -- ./inp_files/11049.got.cif
#   From: 2010.05.17/outbox.cif.g08.bks.cpg/sg58_6_cif.got.tgz:11049.got - 2010.06.03 14:20:14.
