data_PCOD9441318
_publ_section_title
;
Structure prediction by ZEFSAII (Michael W. Deem and Ramdas Pophale) SiO2 
 PCOD9441318
Probable space group: P N N M
;
_chemical_formula_sum "Si O2"
_cell_formula_units_Z 64
_cell_length_a 18.482910
_cell_length_b 11.945110
_cell_length_c 17.516178
_cell_angle_alpha 90.000000
_cell_angle_beta 90.000000
_cell_angle_gamma 90.000000
_cell_volume 3867.228664
_symmetry_space_group_name_H-M "P N N M"
_symmetry_group_IT_number 58
_symmetry_cell_setting 'orthorhombic'
loop_
_space_group_symop_operation_xyz
x,y,z
-x,-y,z
1/2+x,1/2-y,1/2-z
1/2-x,1/2+y,1/2-z
-x,-y,-z
x,y,-z
1/2-x,1/2+y,1/2+z
1/2+x,1/2-y,1/2+z
loop_
_atom_site_type_symbol
_atom_site_label
_atom_site_fract_x
_atom_site_fract_y
_atom_site_fract_z
Si Si1 0.085342 0.522482 0.412544
Si Si2 0.666507 0.147899 0.820506
Si Si3 0.037671 0.881732 0.910175
Si Si4 0.414678 0.985847 0.685551
Si Si5 0.150369 0.668107 0.722405
Si Si6 0.336609 0.393561 0.706343
Si Si7 0.597490 0.224157 0.410649
Si Si8 0.178102 0.147061 0.775305
O O1 0.097983 0.556888 0.500000
O O2 0.130408 0.408966 0.393884
O O3 0.111139 0.614032 0.350577
O O4 0.000000 0.500000 0.402267
O O5 0.623299 0.085649 0.752443
O O6 0.751927 0.121718 0.814648
O O7 0.658394 0.277653 0.798272
O O8 0.111248 0.870155 0.864469
O O9 0.981359 0.780341 0.897436
O O10 0.052349 0.887901 0.000000
O O11 0.000000 0.000000 0.888287
O O12 0.402674 0.907309 0.611836
O O13 0.500000 0.000000 0.696790
O O14 0.379478 0.106973 0.700819
O O15 0.143495 0.800837 0.730825
O O16 0.235353 0.642918 0.717711
O O17 0.348944 0.520962 0.730793
O O18 0.615783 0.240338 0.500000
O O19 0.648292 0.291608 0.351530
#
# Coordination Sequence:
#
# PCOD9441318 Si02
#       8
#     8   8   8   8   8   8   8   8
#     4  10  20  36  57  79 102 130 171 223 268 302
#     4   9  19  33  52  78 101 130 170 214 256 306
#     4  10  20  32  46  73 110 140 174 211 244 300
#     4  10  18  33  54  75 102 134 172 217 257 299
#     4  10  20  34  54  80 103 130 174 219 253 312
#     4  11  19  33  53  76 105 141 169 209 259 303
#     4  10  21  35  51  74 106 143 177 210 252 303
#     4  10  19  33  53  77 104 138 169 208 257 306
#
# _framework density 16.549319000000001
#
# number of rings (size 3 to 8) (size 9 to 14) (size 15 to 20)
#    0.000    2.000    3.750    2.250    0.000    2.250 
#    0.000    0.625    0.000    1.500    0.000    1.750 
#    0.000    0.000    0.000    0.000    0.000    0.000 
#
# Total GULP energy -356357.469252 kJ/mol
# GULP energy per Si atom -5568.085457 kJ/mol
# Density = 1.651165 g / cm^3
# Si number density = 16.549319 Si / 1000 Ang^3
#
#
#
# Elastic Constant Matrix: (Units=GPa)
#
#
# Indices 1 2 3 4 5 6 
#
# 1 91.5038 41.8086 40.0730 0.0000 0.0000 0.0000
# 2 41.8086 104.5834 48.4875 0.0000 0.0000 0.0000
# 3 40.0730 48.4875 67.4181 0.0000 0.0000 0.0000
# 4 0.0000 0.0000 0.0000 17.6051 0.0000 0.0000
# 5 0.0000 0.0000 0.0000 0.0000 5.3727 0.0000
# 6 0.0000 0.0000 0.0000 0.0000 0.0000 -2.4469
#
#
#
# Elastic Compliance Matrix: (Units=1/GPa)
#
#
# Indices 1 2 3 4 5 6 
#
# 1 0.015322 -0.002855 -0.007054 0.000000 0.000000 0.000000
# 2 -0.002855 0.014877 -0.009003 0.000000 0.000000 0.000000
# 3 -0.007054 -0.009003 0.025501 0.000000 0.000000 0.000000
# 4 0.000000 0.000000 0.000000 0.056802 0.000000 0.000000
# 5 0.000000 0.000000 0.000000 0.000000 0.186125 0.000000
# 6 0.000000 0.000000 0.000000 0.000000 0.000000 -0.408675
#
#
# Mechanical properties :
#
#
# Convention : Reuss Voigt Hill
#
# Bulk Modulus (GPa) = 55.94011 58.24928 57.09470
# Shear Modulus (GPa) = -75.45340 12.98192 -31.23574
#
# Velocity S-wave (km/s) = -6.75959 2.80382 -4.34917
# Velocity P-wave (km/s) = 5.20070 6.76429 3.05846
#
# Compressibility (1/GPa) = 0.01787626
#
# Stress axis : x y z
#
# Youngs Moduli (GPa) = 65.26473 67.21859 39.21461
#
# Poissons Ratio (x) = 0.19189 0.27663
# Poissons Ratio (y) = 0.18631 0.35304
# Poissons Ratio (z) = 0.46040 0.60515
#
# Static dielectric constant tensor:
#      x y z
#    x 1.550030 0.000000 0.000000 
#    y 0.000000 1.614960 0.000000 
#    z 0.000000 0.000000 1.548000 
# 
# From -- ./inp_files/27379.got.cif
#   From: 2010.05.17/outbox.cif.g08.bks.cpg/sg58_14_cif.got.tgz:27379.got - 2010.06.03 14:20:14.
