data_PCOD9441742
_publ_section_title
;
Structure prediction by ZEFSAII (Michael W. Deem and Ramdas Pophale) SiO2 
 PCOD9441742
Probable space group: P N N M
;
_chemical_formula_sum "Si O2"
_cell_formula_units_Z 64
_cell_length_a 11.280302
_cell_length_b 12.948357
_cell_length_c 22.738305
_cell_angle_alpha 90.000000
_cell_angle_beta 90.000000
_cell_angle_gamma 90.000000
_cell_volume 3321.188147
_symmetry_space_group_name_H-M "P N N M"
_symmetry_group_IT_number 58
_symmetry_cell_setting 'orthorhombic'
loop_
_space_group_symop_operation_xyz
x,y,z
-x,-y,z
1/2+x,1/2-y,1/2-z
1/2-x,1/2+y,1/2-z
-x,-y,-z
x,y,-z
1/2-x,1/2+y,1/2+z
1/2+x,1/2-y,1/2+z
loop_
_atom_site_type_symbol
_atom_site_label
_atom_site_fract_x
_atom_site_fract_y
_atom_site_fract_z
Si Si1 0.945247 0.301561 0.159303
Si Si2 0.107283 0.419089 0.236063
Si Si3 0.283358 0.590095 0.786966
Si Si4 0.942493 0.894374 0.187149
Si Si5 0.093680 0.263531 0.653344
Si Si6 0.837748 0.948010 0.934962
Si Si7 0.062175 0.610857 0.568569
Si Si8 0.813059 0.194442 0.066974
O O1 0.833137 0.358294 0.186370
O O2 0.915181 0.267720 0.093453
O O3 0.060614 0.367032 0.175627
O O4 0.963360 0.195234 0.194140
O O5 0.233271 0.474215 0.223759
O O6 0.109484 0.335848 0.288819
O O7 0.000000 0.500000 0.251889
O O8 0.322832 0.625493 0.722462
O O9 0.388679 0.643323 0.826330
O O10 0.910126 0.904321 0.119128
O O11 0.000000 0.000000 0.208946
O O12 0.201216 0.287923 0.608976
O O13 0.981200 0.304261 0.615795
O O14 0.702321 0.910329 0.929582
O O15 0.839845 0.072384 0.930325
O O16 0.882537 0.919108 0.000000
O O17 0.030998 0.637008 0.500000
O O18 0.000000 0.500000 0.581646
O O19 0.786251 0.220267 0.000000
#
# Coordination Sequence:
#
# PCOD9441742 Si02
#       8
#     8   8   8   8   8   8   8   8
#     4  10  22  39  55  80 112 153 197 231 285 347
#     4  10  21  37  56  78 113 153 191 244 286 342
#     4  10  24  37  55  81 113 149 194 237 286 338
#     4  12  23  35  55  83 117 153 191 233 280 355
#     4  11  19  33  57  85 113 152 191 234 291 341
#     4  10  21  33  50  83 121 152 184 229 289 351
#     4  10  19  31  52  84 116 148 190 235 291 359
#     4  10  19  33  54  82 117 151 188 236 286 347
#
# _framework density 19.270211
#
# number of rings (size 3 to 8) (size 9 to 14) (size 15 to 20)
#    0.000    1.625    3.750    1.500    5.250    0.750 
#    0.000    0.000    0.000   10.125    0.000    0.000 
#    0.000   14.500    0.000    0.000    0.000    0.000 
#
# Total GULP energy -356509.508550 kJ/mol
# GULP energy per Si atom -5570.461071 kJ/mol
# Density = 1.922635 g / cm^3
# Si number density = 19.270211 Si / 1000 Ang^3
#
#
#
# Elastic Constant Matrix: (Units=GPa)
#
#
# Indices 1 2 3 4 5 6 
#
# 1 44.7503 7.9608 30.7965 0.0000 0.0000 0.0000
# 2 7.9608 35.4747 25.5890 0.0000 0.0000 0.0000
# 3 30.7965 25.5890 107.2698 0.0000 0.0000 0.0000
# 4 0.0000 0.0000 0.0000 21.1937 0.0000 0.0000
# 5 0.0000 0.0000 0.0000 0.0000 10.1738 0.0000
# 6 0.0000 0.0000 0.0000 0.0000 0.0000 28.4441
#
#
#
# Elastic Compliance Matrix: (Units=1/GPa)
#
#
# Indices 1 2 3 4 5 6 
#
# 1 0.027858 -0.000583 -0.007859 0.000000 0.000000 0.000000
# 2 -0.000583 0.034060 -0.007958 0.000000 0.000000 0.000000
# 3 -0.007859 -0.007958 0.013477 0.000000 0.000000 0.000000
# 4 0.000000 0.000000 0.000000 0.047184 0.000000 0.000000
# 5 0.000000 0.000000 0.000000 0.000000 0.098292 0.000000
# 6 0.000000 0.000000 0.000000 0.000000 0.000000 0.035157
#
#
# Mechanical properties :
#
#
# Convention : Reuss Voigt Hill
#
# Bulk Modulus (GPa) = 23.47614 35.13195 29.30405
# Shear Modulus (GPa) = 16.50029 20.17222 18.33626
#
# Velocity S-wave (km/s) = 2.92936 3.23895 3.08804
# Velocity P-wave (km/s) = 4.86319 5.67966 5.28721
#
# Compressibility (1/GPa) = 0.04259645
#
# Stress axis : x y z
#
# Youngs Moduli (GPa) = 35.89598 29.35994 74.20141
#
# Poissons Ratio (x) = 0.01711 0.58314
# Poissons Ratio (y) = 0.02092 0.59047
# Poissons Ratio (z) = 0.28210 0.23364
#
# Static dielectric constant tensor:
#      x y z
#    x 1.722400 0.000000 0.000000 
#    y 0.000000 1.726040 0.000000 
#    z 0.000000 0.000000 1.681750 
# 
# From -- ./inp_files/32083.got.cif
#   From: 2010.05.17/outbox.cif.g08.bks.cpg/sg58_17_cif.got.tgz:32083.got - 2010.06.03 14:20:14.
