data_PCOD9441319
_publ_section_title
;
Structure prediction by ZEFSAII (Michael W. Deem and Ramdas Pophale) SiO2 
 PCOD9441319
Probable space group: P N N M
;
_chemical_formula_sum "Si O2"
_cell_formula_units_Z 36
_cell_length_a 14.855993
_cell_length_b 7.902279
_cell_length_c 13.319235
_cell_angle_alpha 90.000000
_cell_angle_beta 90.000000
_cell_angle_gamma 90.000000
_cell_volume 1563.627596
_symmetry_space_group_name_H-M "P N N M"
_symmetry_group_IT_number 58
_symmetry_cell_setting 'orthorhombic'
loop_
_space_group_symop_operation_xyz
x,y,z
-x,-y,z
1/2+x,1/2-y,1/2-z
1/2-x,1/2+y,1/2-z
-x,-y,-z
x,y,-z
1/2-x,1/2+y,1/2+z
1/2+x,1/2-y,1/2+z
loop_
_atom_site_type_symbol
_atom_site_label
_atom_site_fract_x
_atom_site_fract_y
_atom_site_fract_z
Si Si1 0.500000 0.000000 0.151467
Si Si2 0.301799 0.911463 0.163901
Si Si3 0.534321 0.756175 0.673226
Si Si4 0.373296 0.562907 0.388604
Si Si5 0.796583 0.444966 0.886913
O O1 0.600108 0.053281 0.115771
O O2 0.477217 0.160177 0.220223
O O3 0.265034 0.724078 0.134786
O O4 0.232459 0.054250 0.124165
O O5 0.295158 0.939856 0.285637
O O6 0.586357 0.579341 0.683938
O O7 0.436403 0.723251 0.626979
O O8 0.601307 0.874523 0.612103
O O9 0.393419 0.497808 0.500000
O O10 0.775390 0.511370 0.000000
#
# Coordination Sequence:
#
# PCOD9441319 Si02
#       5
#     4   8   8   8   8
#     4  10  20  32  48  78 108 140 172 216 268 318
#     4  10  20  35  54  78 111 146 182 219 268 326
#     4   9  17  31  52  77 105 131 170 224 279 319
#     4  10  18  33  54  77 101 138 179 217 264 324
#     4  10  20  37  56  81 112 144 178 226 276 320
#
# _framework density 23.023385999999999
#
# number of rings (size 3 to 8) (size 9 to 14) (size 15 to 20)
#    0.000    2.222    0.000    6.000    0.000    0.000 
#    0.000   28.889    0.000    0.000    0.000   54.444 
#    0.000    0.000    0.000    0.000    0.000    0.000 
#
# Total GULP energy -200491.641210 kJ/mol
# GULP energy per Si atom -5569.212256 kJ/mol
# Density = 2.297098 g / cm^3
# Si number density = 23.023386 Si / 1000 Ang^3
#
#
#
# Elastic Constant Matrix: (Units=GPa)
#
#
# Indices 1 2 3 4 5 6 
#
# 1 174.5116 23.7787 20.0477 0.0000 0.0000 0.0000
# 2 23.7787 57.7904 18.5254 0.0000 0.0000 0.0000
# 3 20.0477 18.5254 112.9951 0.0000 0.0000 0.0000
# 4 0.0000 0.0000 0.0000 15.3555 0.0000 0.0000
# 5 0.0000 0.0000 0.0000 0.0000 3.3065 0.0000
# 6 0.0000 0.0000 0.0000 0.0000 0.0000 29.6407
#
#
#
# Elastic Compliance Matrix: (Units=1/GPa)
#
#
# Indices 1 2 3 4 5 6 
#
# 1 0.006124 -0.002292 -0.000711 0.000000 0.000000 0.000000
# 2 -0.002292 0.019122 -0.002728 0.000000 0.000000 0.000000
# 3 -0.000711 -0.002728 0.009423 0.000000 0.000000 0.000000
# 4 0.000000 0.000000 0.000000 0.065123 0.000000 0.000000
# 5 0.000000 0.000000 0.000000 0.000000 0.302431 0.000000
# 6 0.000000 0.000000 0.000000 0.000000 0.000000 0.033737
#
#
# Mechanical properties :
#
#
# Convention : Reuss Voigt Hill
#
# Bulk Modulus (GPa) = 43.09064 52.22231 47.65647
# Shear Modulus (GPa) = 10.98519 28.52358 19.75438
#
# Velocity S-wave (km/s) = 2.18670 3.52361 2.93237
# Velocity P-wave (km/s) = 5.01321 6.26785 5.67531
#
# Compressibility (1/GPa) = 0.02320690
#
# Stress axis : x y z
#
# Youngs Moduli (GPa) = 163.28538 52.29690 106.11933
#
# Poissons Ratio (x) = 0.11987 0.07543
# Poissons Ratio (y) = 0.37426 0.28952
# Poissons Ratio (z) = 0.11606 0.14268
#
# Static dielectric constant tensor:
#      x y z
#    x 2.054790 0.000000 0.000000 
#    y 0.000000 5.221170 0.000000 
#    z 0.000000 0.000000 1.873800 
# 
# From -- ./inp_files/21827.got.cif
#   From: 2010.05.17/outbox.cif.g08.bks.cpg/sg58_11_cif.got.tgz:21827.got - 2010.06.03 14:20:14.
