data_PCOD9441643
_publ_section_title
;
Structure prediction by ZEFSAII (Michael W. Deem and Ramdas Pophale) SiO2 
 PCOD9441643
Probable space group: P N N M
;
_chemical_formula_sum "Si O2"
_cell_formula_units_Z 34
_cell_length_a 6.911517
_cell_length_b 9.326930
_cell_length_c 22.108914
_cell_angle_alpha 90.000000
_cell_angle_beta 90.000000
_cell_angle_gamma 90.000000
_cell_volume 1425.212124
_symmetry_space_group_name_H-M "P N N M"
_symmetry_group_IT_number 58
_symmetry_cell_setting 'orthorhombic'
loop_
_space_group_symop_operation_xyz
x,y,z
-x,-y,z
1/2+x,1/2-y,1/2-z
1/2-x,1/2+y,1/2-z
-x,-y,-z
x,y,-z
1/2-x,1/2+y,1/2+z
1/2+x,1/2-y,1/2+z
loop_
_atom_site_type_symbol
_atom_site_label
_atom_site_fract_x
_atom_site_fract_y
_atom_site_fract_z
Si Si1 0.734752 0.495807 0.291775
Si Si2 0.694227 0.182924 0.322549
Si Si3 0.264107 0.999561 0.566509
Si Si4 0.825158 0.200902 0.893297
Si Si5 0.500000 0.500000 0.500000
O O1 0.500000 0.500000 0.286355
O O2 0.789705 0.330283 0.300046
O O3 0.811422 0.573471 0.232547
O O4 0.785181 0.586855 0.351591
O O5 0.793700 0.103810 0.379042
O O6 0.485158 0.229212 0.348477
O O7 0.202641 0.950997 0.500000
O O8 0.500000 0.000000 0.565443
O O9 0.211347 0.164359 0.579661
O O10 0.930557 0.114536 0.946727
#
# Coordination Sequence:
#
# PCOD9441643 Si02
#       5
#     8   8   8   8   2
#     4  10  20  34  49  73 105 138 176 211 258 317
#     4  10  19  31  48  71 101 140 173 209 264 319
#     4   9  17  27  46  74 102 128 166 214 265 312
#     4  10  19  31  52  78 107 135 165 225 275 327
#     4  12  16  32  54  80 114 126 174 228 296 320
#
# _framework density 23.856099
#
# number of rings (size 3 to 8) (size 9 to 14) (size 15 to 20)
#    0.000    2.118    4.706    1.412    1.647    1.882 
#    0.000    0.000    0.000    0.706    0.000    0.000 
#    0.000   18.824    0.000    0.000    0.000    0.000 
#
# Total GULP energy -189633.327775 kJ/mol
# GULP energy per Si atom -5577.450817 kJ/mol
# Density = 2.380180 g / cm^3
# Si number density = 23.856099 Si / 1000 Ang^3
#
#
#
# Elastic Constant Matrix: (Units=GPa)
#
#
# Indices 1 2 3 4 5 6 
#
# 1 72.3140 3.5507 2.3749 0.0000 0.0000 0.0000
# 2 3.5507 222.2797 128.5294 0.0000 0.0000 0.0000
# 3 2.3749 128.5294 235.0694 0.0000 0.0000 0.0000
# 4 0.0000 0.0000 0.0000 58.0980 0.0000 0.0000
# 5 0.0000 0.0000 0.0000 0.0000 4.1633 0.0000
# 6 0.0000 0.0000 0.0000 0.0000 0.0000 5.5431
#
#
#
# Elastic Compliance Matrix: (Units=1/GPa)
#
#
# Indices 1 2 3 4 5 6 
#
# 1 0.013840 -0.000205 -0.000028 0.000000 0.000000 0.000000
# 2 -0.000205 0.006582 -0.003597 0.000000 0.000000 0.000000
# 3 -0.000028 -0.003597 0.006221 0.000000 0.000000 0.000000
# 4 0.000000 0.000000 0.000000 0.017212 0.000000 0.000000
# 5 0.000000 0.000000 0.000000 0.000000 0.240196 0.000000
# 6 0.000000 0.000000 0.000000 0.000000 0.000000 0.180404
#
#
# Mechanical properties :
#
#
# Convention : Reuss Voigt Hill
#
# Bulk Modulus (GPa) = 52.67756 88.73034 70.70395
# Shear Modulus (GPa) = 10.45060 39.90808 25.17934
#
# Velocity S-wave (km/s) = 2.09528 4.09451 3.25232
# Velocity P-wave (km/s) = 5.28989 7.72192 6.61857
#
# Compressibility (1/GPa) = 0.01898341
#
# Stress axis : x y z
#
# Youngs Moduli (GPa) = 72.25662 151.93325 160.74809
#
# Poissons Ratio (x) = 0.03115 0.00445
# Poissons Ratio (y) = 0.01482 0.57816
# Poissons Ratio (z) = 0.00200 0.54646
#
# Static dielectric constant tensor:
#      x y z
#    x 2.044540 0.000000 0.000000 
#    y 0.000000 1.921700 0.000000 
#    z 0.000000 0.000000 1.863610 
# 
# From -- ./inp_files/28524.got.cif
#   From: 2010.05.17/outbox.cif.g08.bks.cpg/sg58_15_cif.got.tgz:28524.got - 2010.06.03 14:20:14.
