data_PCOD9441144
_publ_section_title
;
Structure prediction by ZEFSAII (Michael W. Deem and Ramdas Pophale) SiO2 
 PCOD9441144
Probable space group: P N N M
;
_chemical_formula_sum "Si O2"
_cell_formula_units_Z 48
_cell_length_a 16.870605
_cell_length_b 18.884175
_cell_length_c 7.612063
_cell_angle_alpha 90.000000
_cell_angle_beta 90.000000
_cell_angle_gamma 90.000000
_cell_volume 2425.107795
_symmetry_space_group_name_H-M "P N N M"
_symmetry_group_IT_number 58
_symmetry_cell_setting 'orthorhombic'
loop_
_space_group_symop_operation_xyz
x,y,z
-x,-y,z
1/2+x,1/2-y,1/2-z
1/2-x,1/2+y,1/2-z
-x,-y,-z
x,y,-z
1/2-x,1/2+y,1/2+z
1/2+x,1/2-y,1/2+z
loop_
_atom_site_type_symbol
_atom_site_label
_atom_site_fract_x
_atom_site_fract_y
_atom_site_fract_z
Si Si1 0.499591 0.919896 0.290520
Si Si2 0.768019 0.048191 0.297021
Si Si3 0.652500 0.166870 0.284181
Si Si4 0.675663 0.910843 0.790516
Si Si5 0.422094 0.536577 0.704004
Si Si6 0.330061 0.672011 0.285102
O O1 0.488312 0.924958 0.500000
O O2 0.427488 0.872405 0.224293
O O3 0.586998 0.889993 0.257535
O O4 0.500000 0.000000 0.218254
O O5 0.788715 0.059416 0.500000
O O6 0.727617 0.119497 0.227079
O O7 0.700791 0.986986 0.286671
O O8 0.846429 0.015875 0.210258
O O9 0.653528 0.166214 0.500000
O O10 0.654806 0.248178 0.227629
O O11 0.742911 0.855569 0.733677
O O12 0.681125 0.918240 0.000000
O O13 0.500000 0.500000 0.783049
O O14 0.440829 0.551050 0.500000
O O15 0.391358 0.611612 0.778122
O O16 0.332412 0.671572 0.500000
#
# Coordination Sequence:
#
# PCOD9441144 Si02
#       6
#     8   8   8   8   8   8
#     4  10  18  31  51  76 101 128 167 204 243 297
#     4  10  18  31  53  75  96 127 169 208 245 292
#     4   9  17  31  50  71  99 134 167 203 248 297
#     4  10  19  32  51  74 100 132 166 199 246 301
#     4   9  18  34  54  75 100 131 170 208 248 301
#     4   8  16  32  51  69  95 135 169 198 245 298
#
# _framework density 19.792936000000001
#
# number of rings (size 3 to 8) (size 9 to 14) (size 15 to 20)
#    0.000    2.667    1.667    2.000    0.000    0.667 
#    3.000    0.000    0.000   14.000    0.000    0.000 
#    0.000    0.000    0.000    0.000    0.000    0.000 
#
# Total GULP energy -267708.746277 kJ/mol
# GULP energy per Si atom -5577.265547 kJ/mol
# Density = 1.974789 g / cm^3
# Si number density = 19.792936 Si / 1000 Ang^3
#
#
#
# Elastic Constant Matrix: (Units=GPa)
#
#
# Indices 1 2 3 4 5 6 
#
# 1 108.0417 86.4142 -9.4411 0.0000 0.0000 0.0000
# 2 86.4142 180.4636 5.1790 0.0000 0.0000 0.0000
# 3 -9.4411 5.1790 37.1059 0.0000 0.0000 0.0000
# 4 0.0000 0.0000 0.0000 8.3697 0.0000 0.0000
# 5 0.0000 0.0000 0.0000 0.0000 20.9641 0.0000
# 6 0.0000 0.0000 0.0000 0.0000 0.0000 23.6962
#
#
#
# Elastic Compliance Matrix: (Units=1/GPa)
#
#
# Indices 1 2 3 4 5 6 
#
# 1 0.015919 -0.007770 0.005135 0.000000 0.000000 0.000000
# 2 -0.007770 0.009356 -0.003283 0.000000 0.000000 0.000000
# 3 0.005135 -0.003283 0.028715 0.000000 0.000000 0.000000
# 4 0.000000 0.000000 0.000000 0.119478 0.000000 0.000000
# 5 0.000000 0.000000 0.000000 0.000000 0.047700 0.000000
# 6 0.000000 0.000000 0.000000 0.000000 0.000000 0.042201
#
#
# Mechanical properties :
#
#
# Convention : Reuss Voigt Hill
#
# Bulk Modulus (GPa) = 23.72269 54.43503 39.07886
# Shear Modulus (GPa) = 17.28565 26.83662 22.06114
#
# Velocity S-wave (km/s) = 2.95841 3.68621 3.34218
# Velocity P-wave (km/s) = 4.86632 6.75866 5.88899
#
# Compressibility (1/GPa) = 0.04215374
#
# Stress axis : x y z
#
# Youngs Moduli (GPa) = 62.81738 106.88090 34.82543
#
# Poissons Ratio (x) = 0.83048 -0.17883
# Poissons Ratio (y) = 0.48810 0.11433
# Poissons Ratio (z) = -0.32256 0.35088
#
# Static dielectric constant tensor:
#      x y z
#    x 1.688160 0.000000 0.000000 
#    y 0.000000 1.683500 0.000000 
#    z 0.000000 0.000000 1.741420 
# 
# From -- ./inp_files/7838.got.cif
#   From: 2010.05.17/outbox.cif.g08.bks.cpg/sg58_4_cif.got.tgz:7838.got - 2010.06.03 14:20:14.
