data_PCOD9441816
_publ_section_title
;
Structure prediction by ZEFSAII (Michael W. Deem and Ramdas Pophale) SiO2 
 PCOD9441816
Probable space group: P N N M
;
_chemical_formula_sum "Si O2"
_cell_formula_units_Z 64
_cell_length_a 20.188309
_cell_length_b 20.099336
_cell_length_c 7.406254
_cell_angle_alpha 90.000000
_cell_angle_beta 90.000000
_cell_angle_gamma 90.000000
_cell_volume 3005.247579
_symmetry_space_group_name_H-M "P N N M"
_symmetry_group_IT_number 58
_symmetry_cell_setting 'orthorhombic'
loop_
_space_group_symop_operation_xyz
x,y,z
-x,-y,z
1/2+x,1/2-y,1/2-z
1/2-x,1/2+y,1/2-z
-x,-y,-z
x,y,-z
1/2-x,1/2+y,1/2+z
1/2+x,1/2-y,1/2+z
loop_
_atom_site_type_symbol
_atom_site_label
_atom_site_fract_x
_atom_site_fract_y
_atom_site_fract_z
Si Si1 0.705707 0.873392 0.780450
Si Si2 0.712396 0.502074 0.719009
Si Si3 0.239918 0.772685 0.720578
Si Si4 0.593469 0.686177 0.782519
Si Si5 0.820895 0.610450 0.210791
Si Si6 0.058689 0.666966 0.281212
Si Si7 0.454837 0.942675 0.707214
Si Si8 0.565779 0.535137 0.711774
O O1 0.739204 0.803929 0.725023
O O2 0.628581 0.867188 0.725343
O O3 0.747727 0.936586 0.719746
O O4 0.704844 0.875065 0.000000
O O5 0.711268 0.501477 0.500000
O O6 0.756550 0.564472 0.776628
O O7 0.636942 0.510281 0.784624
O O8 0.239961 0.773651 0.500000
O O9 0.169921 0.805236 0.776499
O O10 0.299902 0.818109 0.785703
O O11 0.559151 0.755477 0.725429
O O12 0.564460 0.615389 0.725560
O O13 0.593291 0.686095 0.000000
O O14 0.883769 0.572785 0.291653
O O15 0.837127 0.621068 0.000000
O O16 0.056955 0.665559 0.500000
O O17 0.997894 0.624244 0.210993
O O18 0.442444 0.964469 0.500000
O O19 0.500000 0.000000 0.792338
O O20 0.500000 0.500000 0.787951
O O21 0.567362 0.517977 0.500000
#
# Coordination Sequence:
#
# PCOD9441816 Si02
#       8
#     8   8   8   8   8   8   8   8
#     4   8  15  29  50  74  96 123 166 213 248 287
#     4  10  19  32  52  76 100 129 167 211 256 299
#     4   8  14  28  50  72  92 119 165 211 242 287
#     4   9  17  33  56  76  95 129 174 215 252 299
#     4  10  19  32  52  74  98 134 172 205 247 302
#     4   9  18  33  54  77 100 131 175 218 254 296
#     4  10  21  34  47  73 111 142 169 205 254 311
#     4  10  21  35  49  74 108 136 165 208 263 317
#
# _framework density 21.296081999999998
#
# number of rings (size 3 to 8) (size 9 to 14) (size 15 to 20)
#    0.000    2.750    1.250    2.250    0.000    1.500 
#    2.250    0.000    0.000    1.500    0.000    0.000 
#    0.000    0.000    0.000    0.000    0.000    0.000 
#
# Total GULP energy -357134.626243 kJ/mol
# GULP energy per Si atom -5580.228535 kJ/mol
# Density = 2.124761 g / cm^3
# Si number density = 21.296082 Si / 1000 Ang^3
#
#
#
# Elastic Constant Matrix: (Units=GPa)
#
#
# Indices 1 2 3 4 5 6 
#
# 1 97.1571 26.7289 -6.4545 0.0000 0.0000 0.0000
# 2 26.7289 78.7708 -18.5380 0.0000 0.0000 0.0000
# 3 -6.4545 -18.5380 69.5934 0.0000 0.0000 0.0000
# 4 0.0000 0.0000 0.0000 14.8823 0.0000 0.0000
# 5 0.0000 0.0000 0.0000 0.0000 -26.8439 0.0000
# 6 0.0000 0.0000 0.0000 0.0000 0.0000 22.9512
#
#
#
# Elastic Compliance Matrix: (Units=1/GPa)
#
#
# Indices 1 2 3 4 5 6 
#
# 1 0.011352 -0.003845 0.000029 0.000000 0.000000 0.000000
# 2 -0.003845 0.014847 0.003598 0.000000 0.000000 0.000000
# 3 0.000029 0.003598 0.015330 0.000000 0.000000 0.000000
# 4 0.000000 0.000000 0.000000 0.067194 0.000000 0.000000
# 5 0.000000 0.000000 0.000000 0.000000 -0.037252 0.000000
# 6 0.000000 0.000000 0.000000 0.000000 0.000000 0.043571
#
#
# Mechanical properties :
#
#
# Convention : Reuss Voigt Hill
#
# Bulk Modulus (GPa) = 24.33566 27.66602 26.00084
# Shear Modulus (GPa) = 38.70667 18.45022 28.57844
#
# Velocity S-wave (km/s) = 4.26790 2.94660 3.66725
# Velocity P-wave (km/s) = 5.97819 4.95943 5.49248
#
# Compressibility (1/GPa) = 0.04109196
#
# Stress axis : x y z
#
# Youngs Moduli (GPa) = 88.08683 67.35495 65.23032
#
# Poissons Ratio (x) = 0.25901 -0.00186
# Poissons Ratio (y) = 0.33873 -0.23471
# Poissons Ratio (z) = -0.00252 -0.24235
#
# Static dielectric constant tensor:
#      x y z
#    x 1.761750 0.000000 0.000000 
#    y 0.000000 1.653470 0.000000 
#    z 0.000000 0.000000 1.802790 
# 
# From -- ./inp_files/8322.got.cif
#   From: 2010.05.17/outbox.cif.g08.bks.cpg/sg58_5_cif.got.tgz:8322.got - 2010.06.03 14:20:14.
