data_PCOD9441779
_publ_section_title
;
Structure prediction by ZEFSAII (Michael W. Deem and Ramdas Pophale) SiO2 
 PCOD9441779
Probable space group: P N N M
;
_chemical_formula_sum "Si O2"
_cell_formula_units_Z 64
_cell_length_a 17.061080
_cell_length_b 10.828998
_cell_length_c 18.504285
_cell_angle_alpha 90.000000
_cell_angle_beta 90.000000
_cell_angle_gamma 90.000000
_cell_volume 3418.748095
_symmetry_space_group_name_H-M "P N N M"
_symmetry_group_IT_number 58
_symmetry_cell_setting 'orthorhombic'
loop_
_space_group_symop_operation_xyz
x,y,z
-x,-y,z
1/2+x,1/2-y,1/2-z
1/2-x,1/2+y,1/2-z
-x,-y,-z
x,y,-z
1/2-x,1/2+y,1/2+z
1/2+x,1/2-y,1/2+z
loop_
_atom_site_type_symbol
_atom_site_label
_atom_site_fract_x
_atom_site_fract_y
_atom_site_fract_z
Si Si1 0.959017 0.818576 0.418112
Si Si2 0.696763 0.560620 0.416287
Si Si3 0.654292 0.197624 0.728231
Si Si4 0.621728 0.068841 0.131612
Si Si5 0.612747 0.792125 0.136616
Si Si6 0.831315 0.180985 0.226395
Si Si7 0.585140 0.447881 0.779577
Si Si8 0.291814 0.729231 0.583804
O O1 0.951021 0.856245 0.500000
O O2 0.921119 0.683791 0.404704
O O3 0.918879 0.912938 0.363572
O O4 0.049098 0.800047 0.395307
O O5 0.682389 0.591198 0.500000
O O6 0.789224 0.570126 0.397833
O O7 0.655731 0.650817 0.358001
O O8 0.679832 0.413872 0.405955
O O9 0.622413 0.092968 0.781783
O O10 0.741888 0.221436 0.760041
O O11 0.603020 0.319173 0.741001
O O12 0.665868 0.184307 0.642692
O O13 0.589984 0.932336 0.117997
O O14 0.617526 0.771286 0.223389
O O15 0.699284 0.770148 0.104151
O O16 0.848359 0.047240 0.262270
O O17 0.500000 0.500000 0.757848
O O18 0.302258 0.761364 0.500000
#
# Coordination Sequence:
#
# PCOD9441779 Si02
#       8
#     8   8   8   8   8   8   8   8
#     4  11  22  34  51  78 115 151 179 222 277 335
#     4   9  16  29  52  77 100 131 175 239 291 318
#     4   9  19  33  55  76 104 147 191 227 282 335
#     4   9  19  32  51  75 107 142 189 228 269 333
#     4  10  19  32  49  77 104 150 187 219 273 335
#     4  10  19  34  54  76 108 145 189 232 271 343
#     4  11  21  38  54  81 113 149 186 233 285 338
#     4   9  16  28  49  75 103 133 181 233 278 328
#
# _framework density 18.720303999999999
#
# number of rings (size 3 to 8) (size 9 to 14) (size 15 to 20)
#    0.000    2.250    2.500    1.125    1.750    2.250 
#    0.000    0.625    0.000    2.250    0.000    0.000 
#    0.000    3.250    0.000    0.000    0.000    0.000 
#
# Total GULP energy -356669.935659 kJ/mol
# GULP energy per Si atom -5572.967745 kJ/mol
# Density = 1.867770 g / cm^3
# Si number density = 18.720304 Si / 1000 Ang^3
#
#
#
# Elastic Constant Matrix: (Units=GPa)
#
#
# Indices 1 2 3 4 5 6 
#
# 1 20.3342 2.5011 15.5894 0.0000 0.0000 0.0000
# 2 2.5011 37.7143 8.7998 0.0000 0.0000 0.0000
# 3 15.5894 8.7998 153.9196 0.0000 0.0000 0.0000
# 4 0.0000 0.0000 0.0000 18.3715 0.0000 0.0000
# 5 0.0000 0.0000 0.0000 0.0000 18.3807 0.0000
# 6 0.0000 0.0000 0.0000 0.0000 0.0000 26.5825
#
#
#
# Elastic Compliance Matrix: (Units=1/GPa)
#
#
# Indices 1 2 3 4 5 6 
#
# 1 0.053517 -0.002315 -0.005288 0.000000 0.000000 0.000000
# 2 -0.002315 0.026974 -0.001308 0.000000 0.000000 0.000000
# 3 -0.005288 -0.001308 0.007107 0.000000 0.000000 0.000000
# 4 0.000000 0.000000 0.000000 0.054432 0.000000 0.000000
# 5 0.000000 0.000000 0.000000 0.000000 0.054405 0.000000
# 6 0.000000 0.000000 0.000000 0.000000 0.000000 0.037619
#
#
# Mechanical properties :
#
#
# Convention : Reuss Voigt Hill
#
# Bulk Modulus (GPa) = 14.33150 29.52761 21.92956
# Shear Modulus (GPa) = 18.17291 25.00543 21.58917
#
# Velocity S-wave (km/s) = 3.11908 3.65874 3.39964
# Velocity P-wave (km/s) = 4.54354 5.80136 5.21055
#
# Compressibility (1/GPa) = 0.06977635
#
# Stress axis : x y z
#
# Youngs Moduli (GPa) = 18.68562 37.07298 140.70163
#
# Poissons Ratio (x) = 0.08583 0.74403
# Poissons Ratio (y) = 0.04326 0.18399
# Poissons Ratio (z) = 0.09881 0.04848
#
# Static dielectric constant tensor:
#      x y z
#    x 1.670190 0.000000 0.000000 
#    y 0.000000 1.653360 0.000000 
#    z 0.000000 0.000000 1.675800 
# 
# From -- ./inp_files/27400.got.cif
#   From: 2010.05.17/outbox.cif.g08.bks.cpg/sg58_14_cif.got.tgz:27400.got - 2010.06.03 14:20:14.
