data_PCOD9441343
_publ_section_title
;
Structure prediction by ZEFSAII (Michael W. Deem and Ramdas Pophale) SiO2 
 PCOD9441343
Probable space group: P N N M
;
_chemical_formula_sum "Si O2"
_cell_formula_units_Z 64
_cell_length_a 19.165822
_cell_length_b 20.615654
_cell_length_c 7.423417
_cell_angle_alpha 90.000000
_cell_angle_beta 90.000000
_cell_angle_gamma 90.000000
_cell_volume 2933.110497
_symmetry_space_group_name_H-M "P N N M"
_symmetry_group_IT_number 58
_symmetry_cell_setting 'orthorhombic'
loop_
_space_group_symop_operation_xyz
x,y,z
-x,-y,z
1/2+x,1/2-y,1/2-z
1/2-x,1/2+y,1/2-z
-x,-y,-z
x,y,-z
1/2-x,1/2+y,1/2+z
1/2+x,1/2-y,1/2+z
loop_
_atom_site_type_symbol
_atom_site_label
_atom_site_fract_x
_atom_site_fract_y
_atom_site_fract_z
Si Si1 0.460277 0.564687 0.217584
Si Si2 0.325671 0.745776 0.281046
Si Si3 0.058516 0.817293 0.720900
Si Si4 0.786327 0.147016 0.716953
Si Si5 0.556514 0.053733 0.779455
Si Si6 0.803005 0.899612 0.211603
Si Si7 0.709624 0.014195 0.212903
Si Si8 0.023506 0.303276 0.709103
O O1 0.500000 0.500000 0.279150
O O2 0.502964 0.628106 0.277018
O O3 0.379984 0.569582 0.272725
O O4 0.460997 0.564032 0.000000
O O5 0.327253 0.745402 0.500000
O O6 0.269687 0.799462 0.221976
O O7 0.306808 0.673590 0.216155
O O8 0.402158 0.767059 0.218936
O O9 0.057899 0.816738 0.500000
O O10 0.135881 0.836568 0.779189
O O11 0.033079 0.746823 0.784303
O O12 0.787388 0.149652 0.500000
O O13 0.760478 0.075639 0.766884
O O14 0.633694 0.033998 0.715634
O O15 0.534369 0.125067 0.714158
O O16 0.500000 0.000000 0.729968
O O17 0.559147 0.056553 0.000000
O O18 0.746567 0.949867 0.288188
O O19 0.787356 0.892504 0.000000
O O20 0.700079 0.003217 0.000000
O O21 0.004587 0.312734 0.500000
#
# Coordination Sequence:
#
# PCOD9441343 Si02
#       8
#     8   8   8   8   8   8   8   8
#     4  10  19  32  51  74 103 137 175 218 257 303
#     4  10  20  34  53  77 106 142 177 213 265 321
#     4   9  18  31  50  78 103 131 175 220 259 305
#     4  10  20  35  55  78 106 140 179 220 267 318
#     4   9  18  32  54  82 106 133 174 224 271 311
#     4  10  21  34  50  76 109 142 173 211 263 321
#     4  10  20  35  54  78 110 142 178 219 265 321
#     4  10  18  33  57  78 102 137 178 221 265 314
#
# _framework density 21.819839999999999
#
# number of rings (size 3 to 8) (size 9 to 14) (size 15 to 20)
#    0.000    2.250    2.500    0.750    0.000    2.750 
#    0.000    6.250    0.000    1.500    0.000    1.750 
#    0.000    0.000    0.000    0.000    0.000    0.000 
#
# Total GULP energy -357616.611504 kJ/mol
# GULP energy per Si atom -5587.759555 kJ/mol
# Density = 2.177018 g / cm^3
# Si number density = 21.819840 Si / 1000 Ang^3
#
#
#
# Elastic Constant Matrix: (Units=GPa)
#
#
# Indices 1 2 3 4 5 6 
#
# 1 95.2969 42.0147 -10.7748 0.0000 0.0000 0.0000
# 2 42.0147 165.1133 -4.8985 0.0000 0.0000 0.0000
# 3 -10.7748 -4.8985 69.0926 0.0000 0.0000 0.0000
# 4 0.0000 0.0000 0.0000 8.7746 0.0000 0.0000
# 5 0.0000 0.0000 0.0000 0.0000 15.5086 0.0000
# 6 0.0000 0.0000 0.0000 0.0000 0.0000 45.7617
#
#
#
# Elastic Compliance Matrix: (Units=1/GPa)
#
#
# Indices 1 2 3 4 5 6 
#
# 1 0.012006 -0.003006 0.001659 0.000000 0.000000 0.000000
# 2 -0.003006 0.006822 0.000015 0.000000 0.000000 0.000000
# 3 0.001659 0.000015 0.014733 0.000000 0.000000 0.000000
# 4 0.000000 0.000000 0.000000 0.113966 0.000000 0.000000
# 5 0.000000 0.000000 0.000000 0.000000 0.064480 0.000000
# 6 0.000000 0.000000 0.000000 0.000000 0.000000 0.021852
#
#
# Mechanical properties :
#
#
# Convention : Reuss Voigt Hill
#
# Bulk Modulus (GPa) = 32.36483 42.46507 37.41495
# Shear Modulus (GPa) = 20.25749 34.21976 27.23862
#
# Velocity S-wave (km/s) = 3.05027 3.96446 3.53702
# Velocity P-wave (km/s) = 5.22211 6.36080 5.81938
#
# Compressibility (1/GPa) = 0.03089774
#
# Stress axis : x y z
#
# Youngs Moduli (GPa) = 83.28906 146.58944 67.87418
#
# Poissons Ratio (x) = 0.44064 -0.11262
# Poissons Ratio (y) = 0.25036 -0.00101
# Poissons Ratio (z) = -0.13820 -0.00218
#
# Static dielectric constant tensor:
#      x y z
#    x 1.742860 0.000000 0.000000 
#    y 0.000000 1.774340 0.000000 
#    z 0.000000 0.000000 1.862140 
# 
# From -- ./inp_files/9250.got.cif
#   From: 2010.05.17/outbox.cif.g08.bks.cpg/sg58_5_cif.got.tgz:9250.got - 2010.06.03 14:20:14.
