data_PCOD9441770
_publ_section_title
;
Structure prediction by ZEFSAII (Michael W. Deem and Ramdas Pophale) SiO2 
 PCOD9441770
Probable space group: P N N M
;
_chemical_formula_sum "Si O2"
_cell_formula_units_Z 64
_cell_length_a 19.375268
_cell_length_b 22.351019
_cell_length_c 8.604809
_cell_angle_alpha 90.000000
_cell_angle_beta 90.000000
_cell_angle_gamma 90.000000
_cell_volume 3726.372627
_symmetry_space_group_name_H-M "P N N M"
_symmetry_group_IT_number 58
_symmetry_cell_setting 'orthorhombic'
loop_
_space_group_symop_operation_xyz
x,y,z
-x,-y,z
1/2+x,1/2-y,1/2-z
1/2-x,1/2+y,1/2-z
-x,-y,-z
x,y,-z
1/2-x,1/2+y,1/2+z
1/2+x,1/2-y,1/2+z
loop_
_atom_site_type_symbol
_atom_site_label
_atom_site_fract_x
_atom_site_fract_y
_atom_site_fract_z
Si Si1 0.873456 0.730661 0.679001
Si Si2 0.570523 0.351660 0.811257
Si Si3 0.671880 0.111586 0.684846
Si Si4 0.076723 0.806814 0.815162
Si Si5 0.032599 0.685145 0.321326
Si Si6 0.523082 0.066195 0.311927
Si Si7 0.578028 0.485680 0.810814
Si Si8 0.324459 0.406360 0.811183
O O1 0.849826 0.728825 0.500000
O O2 0.877552 0.798734 0.736190
O O3 0.833156 0.681951 0.777220
O O4 0.953580 0.709631 0.681582
O O5 0.494432 0.336784 0.747220
O O6 0.593762 0.417715 0.764415
O O7 0.565398 0.349177 0.000000
O O8 0.671135 0.103313 0.500000
O O9 0.601228 0.081087 0.744327
O O10 0.745427 0.088547 0.743122
O O11 0.138935 0.846101 0.747444
O O12 0.075586 0.737488 0.761722
O O13 0.077065 0.809368 0.000000
O O14 0.054150 0.680315 0.500000
O O15 0.026492 0.619738 0.245398
O O16 0.523176 0.067941 0.500000
O O17 0.500000 0.000000 0.262840
O O18 0.500000 0.500000 0.760970
O O19 0.630195 0.536928 0.758488
O O20 0.578400 0.487047 0.000000
O O21 0.325238 0.405132 0.000000
#
# Coordination Sequence:
#
# PCOD9441770 Si02
#       8
#     8   8   8   8   8   8   8   8
#     4   8  15  27  46  68  92 118 151 198 243 282
#     4   9  16  29  48  70  94 124 162 201 239 282
#     4   9  18  31  49  71  94 128 167 202 245 296
#     4  11  20  29  45  71  99 126 157 201 255 296
#     4   9  17  30  49  73  97 123 160 203 241 289
#     4   9  17  31  52  77 106 133 161 205 256 303
#     4   9  15  26  48  71  92 124 166 204 234 277
#     4  10  19  32  49  68  93 130 172 207 241 295
#
# _framework density 17.174880000000002
#
# number of rings (size 3 to 8) (size 9 to 14) (size 15 to 20)
#    0.000    2.750    1.250    2.250    0.000    3.750 
#    0.000    1.250    2.750    0.000    0.000    0.000 
#    0.000    0.000    0.000    0.000    0.000    0.000 
#
# Total GULP energy -356442.004731 kJ/mol
# GULP energy per Si atom -5569.406324 kJ/mol
# Density = 1.713579 g / cm^3
# Si number density = 17.174880 Si / 1000 Ang^3
#
#
#
# Elastic Constant Matrix: (Units=GPa)
#
#
# Indices 1 2 3 4 5 6 
#
# 1 74.8850 56.9105 13.3703 0.0000 0.0000 0.0000
# 2 56.9105 162.7984 20.6788 0.0000 0.0000 0.0000
# 3 13.3703 20.6788 22.3812 0.0000 0.0000 0.0000
# 4 0.0000 0.0000 0.0000 20.5718 0.0000 0.0000
# 5 0.0000 0.0000 0.0000 0.0000 9.8052 0.0000
# 6 0.0000 0.0000 0.0000 0.0000 0.0000 19.7998
#
#
#
# Elastic Compliance Matrix: (Units=1/GPa)
#
#
# Indices 1 2 3 4 5 6 
#
# 1 0.018839 -0.005842 -0.005857 0.000000 0.000000 0.000000
# 2 -0.005842 0.008771 -0.004614 0.000000 0.000000 0.000000
# 3 -0.005857 -0.004614 0.052442 0.000000 0.000000 0.000000
# 4 0.000000 0.000000 0.000000 0.048610 0.000000 0.000000
# 5 0.000000 0.000000 0.000000 0.000000 0.101986 0.000000
# 6 0.000000 0.000000 0.000000 0.000000 0.000000 0.050506
#
#
# Mechanical properties :
#
#
# Convention : Reuss Voigt Hill
#
# Bulk Modulus (GPa) = 21.08501 49.10932 35.09717
# Shear Modulus (GPa) = 15.17045 21.30904 18.23975
#
# Velocity S-wave (km/s) = 2.97525 3.52619 3.26237
# Velocity P-wave (km/s) = 4.90980 6.72566 5.88815
#
# Compressibility (1/GPa) = 0.04742706
#
# Stress axis : x y z
#
# Youngs Moduli (GPa) = 53.08116 114.01528 19.06862
#
# Poissons Ratio (x) = 0.66605 0.11168
# Poissons Ratio (y) = 0.31009 0.08798
# Poissons Ratio (z) = 0.31089 0.52605
#
# Static dielectric constant tensor:
#      x y z
#    x 1.574930 0.000000 0.000000 
#    y 0.000000 1.603550 0.000000 
#    z 0.000000 0.000000 1.593340 
# 
# From -- ./inp_files/9418.got.cif
#   From: 2010.05.17/outbox.cif.g08.bks.cpg/sg58_5_cif.got.tgz:9418.got - 2010.06.03 14:20:14.
