data_PCOD9441743
_publ_section_title
;
Structure prediction by ZEFSAII (Michael W. Deem and Ramdas Pophale) SiO2 
 PCOD9441743
Probable space group: P N N M
;
_chemical_formula_sum "Si O2"
_cell_formula_units_Z 48
_cell_length_a 17.989034
_cell_length_b 8.450354
_cell_length_c 14.722108
_cell_angle_alpha 90.000000
_cell_angle_beta 90.000000
_cell_angle_gamma 90.000000
_cell_volume 2237.962189
_symmetry_space_group_name_H-M "P N N M"
_symmetry_group_IT_number 58
_symmetry_cell_setting 'orthorhombic'
loop_
_space_group_symop_operation_xyz
x,y,z
-x,-y,z
1/2+x,1/2-y,1/2-z
1/2-x,1/2+y,1/2-z
-x,-y,-z
x,y,-z
1/2-x,1/2+y,1/2+z
1/2+x,1/2-y,1/2+z
loop_
_atom_site_type_symbol
_atom_site_label
_atom_site_fract_x
_atom_site_fract_y
_atom_site_fract_z
Si Si1 0.281093 0.175452 0.891516
Si Si2 0.927927 0.611136 0.788093
Si Si3 0.216326 0.507629 0.110372
Si Si4 0.586669 0.039158 0.099160
Si Si5 0.471683 0.325318 0.599252
Si Si6 0.802270 0.143756 0.889031
O O1 0.263903 0.353135 0.858921
O O2 0.365853 0.118642 0.879992
O O3 0.233348 0.023018 0.856962
O O4 0.266886 0.181431 0.000000
O O5 0.863828 0.529171 0.845987
O O6 0.901488 0.648129 0.686246
O O7 0.000000 0.500000 0.778926
O O8 0.963150 0.753469 0.841550
O O9 0.236707 0.688831 0.136332
O O10 0.212506 0.506140 0.000000
O O11 0.500000 0.000000 0.091947
O O12 0.612354 0.099143 0.000000
O O13 0.500000 0.500000 0.586018
O O14 0.467346 0.242801 0.500000
O O15 0.388460 0.334255 0.638217
O O16 0.802263 0.134782 0.000000
#
# Coordination Sequence:
#
# PCOD9441743 Si02
#       6
#     8   8   8   8   8   8
#     4   9  18  36  60  81 109 149 191 237 293 352
#     4  11  20  33  55  84 117 154 195 239 283 342
#     4  10  19  32  54  87 121 151 182 225 290 362
#     4   9  20  40  63  79 101 148 204 253 299 341
#     4  10  19  31  52  84 126 167 193 222 283 369
#     4   9  17  30  51  83 119 150 182 226 280 349
#
# _framework density 21.448084000000001
#
# number of rings (size 3 to 8) (size 9 to 14) (size 15 to 20)
#    0.000    2.333    1.667    1.500    0.000    3.333 
#    3.000    0.000    7.333    0.500    0.000    0.000 
#    0.000    0.000    0.000    0.000    0.000    0.000 
#
# Total GULP energy -267390.748579 kJ/mol
# GULP energy per Si atom -5570.640595 kJ/mol
# Density = 2.139927 g / cm^3
# Si number density = 21.448084 Si / 1000 Ang^3
#
#
#
# Elastic Constant Matrix: (Units=GPa)
#
#
# Indices 1 2 3 4 5 6 
#
# 1 81.1565 25.9043 -3.2934 0.0000 0.0000 0.0000
# 2 25.9043 104.2008 19.3254 0.0000 0.0000 0.0000
# 3 -3.2934 19.3254 59.3257 0.0000 0.0000 0.0000
# 4 0.0000 0.0000 0.0000 -25.4919 0.0000 0.0000
# 5 0.0000 0.0000 0.0000 0.0000 -9.5694 0.0000
# 6 0.0000 0.0000 0.0000 0.0000 0.0000 31.1384
#
#
#
# Elastic Compliance Matrix: (Units=1/GPa)
#
#
# Indices 1 2 3 4 5 6 
#
# 1 0.013598 -0.003747 0.001975 0.000000 0.000000 0.000000
# 2 -0.003747 0.011246 -0.003872 0.000000 0.000000 0.000000
# 3 0.001975 -0.003872 0.018227 0.000000 0.000000 0.000000
# 4 0.000000 0.000000 0.000000 -0.039228 0.000000 0.000000
# 5 0.000000 0.000000 0.000000 0.000000 -0.104499 0.000000
# 6 0.000000 0.000000 0.000000 0.000000 0.000000 0.032115
#
#
# Mechanical properties :
#
#
# Convention : Reuss Voigt Hill
#
# Bulk Modulus (GPa) = 31.46099 36.50618 33.98359
# Shear Modulus (GPa) = -107.15679 12.73187 -47.21246
#
# Velocity S-wave (km/s) = -7.07598 2.43906 -4.69683
# Velocity P-wave (km/s) = 7.21519 4.99897 3.67895
#
# Compressibility (1/GPa) = 0.03178539
#
# Stress axis : x y z
#
# Youngs Moduli (GPa) = 73.54027 88.91781 54.86392
#
# Poissons Ratio (x) = 0.33316 -0.10838
# Poissons Ratio (y) = 0.27554 0.21241
# Poissons Ratio (z) = -0.14527 0.34425
#
# Static dielectric constant tensor:
#      x y z
#    x 1.768590 0.000000 0.000000 
#    y 0.000000 1.779720 0.000000 
#    z 0.000000 0.000000 1.902460 
# 
# From -- ./inp_files/22752.got.cif
#   From: 2010.05.17/outbox.cif.g08.bks.cpg/sg58_12_cif.got.tgz:22752.got - 2010.06.03 14:20:14.
