data_PCOD9441192
_publ_section_title
;
Structure prediction by ZEFSAII (Michael W. Deem and Ramdas Pophale) SiO2 
 PCOD9441192
Probable space group: P N N M
;
_chemical_formula_sum "Si O2"
_cell_formula_units_Z 48
_cell_length_a 20.861712
_cell_length_b 14.949683
_cell_length_c 7.697969
_cell_angle_alpha 90.000000
_cell_angle_beta 90.000000
_cell_angle_gamma 90.000000
_cell_volume 2400.811635
_symmetry_space_group_name_H-M "P N N M"
_symmetry_group_IT_number 58
_symmetry_cell_setting 'orthorhombic'
loop_
_space_group_symop_operation_xyz
x,y,z
-x,-y,z
1/2+x,1/2-y,1/2-z
1/2-x,1/2+y,1/2-z
-x,-y,-z
x,y,-z
1/2-x,1/2+y,1/2+z
1/2+x,1/2-y,1/2+z
loop_
_atom_site_type_symbol
_atom_site_label
_atom_site_fract_x
_atom_site_fract_y
_atom_site_fract_z
Si Si1 0.187843 0.167515 0.795799
Si Si2 0.929928 0.317446 0.712880
Si Si3 0.116683 0.492144 0.701097
Si Si4 0.261124 0.483762 0.201503
Si Si5 0.805779 0.209018 0.287670
Si Si6 0.574224 0.202098 0.210350
O O1 0.246203 0.229670 0.729844
O O2 0.122349 0.220765 0.768291
O O3 0.193542 0.069568 0.715437
O O4 0.198133 0.155233 0.000000
O O5 0.928315 0.319319 0.500000
O O6 0.915721 0.418661 0.774980
O O7 0.872325 0.253048 0.769497
O O8 0.000605 0.286702 0.764378
O O9 0.096023 0.488883 0.500000
O O10 0.193290 0.503276 0.708408
O O11 0.098384 0.395280 0.774995
O O12 0.292978 0.392581 0.268589
O O13 0.244801 0.468851 0.000000
O O14 0.806362 0.209327 0.500000
O O15 0.576569 0.201564 0.000000
#
# Coordination Sequence:
#
# PCOD9441192 Si02
#       6
#     8   8   8   8   8   8
#     4  11  21  37  57  78 109 147 181 221 274 326
#     4   9  17  33  55  80 110 145 183 221 268 325
#     4  10  18  31  54  84 114 142 173 220 278 330
#     4  11  21  34  54  83 109 137 183 231 268 317
#     4   9  18  33  55  78 104 141 182 221 264 317
#     4  10  20  33  55  85 112 141 182 227 269 323
#
# _framework density 19.993238000000002
#
# number of rings (size 3 to 8) (size 9 to 14) (size 15 to 20)
#    0.000    2.000    3.333    1.500    0.000    2.000 
#    0.000    1.667    0.000    7.000    0.000    0.000 
#    0.000    0.000    0.000    0.000    0.000    0.000 
#
# Total GULP energy -268062.103117 kJ/mol
# GULP energy per Si atom -5584.627148 kJ/mol
# Density = 1.994773 g / cm^3
# Si number density = 19.993238 Si / 1000 Ang^3
#
#
#
# Elastic Constant Matrix: (Units=GPa)
#
#
# Indices 1 2 3 4 5 6 
#
# 1 72.7932 18.4431 2.8953 0.0000 0.0000 0.0000
# 2 18.4431 103.8553 5.7574 0.0000 0.0000 0.0000
# 3 2.8953 5.7574 33.8662 0.0000 0.0000 0.0000
# 4 0.0000 0.0000 0.0000 8.7932 0.0000 0.0000
# 5 0.0000 0.0000 0.0000 0.0000 12.2174 0.0000
# 6 0.0000 0.0000 0.0000 0.0000 0.0000 28.4754
#
#
#
# Elastic Compliance Matrix: (Units=1/GPa)
#
#
# Indices 1 2 3 4 5 6 
#
# 1 0.014406 -0.002514 -0.000804 0.000000 0.000000 0.000000
# 2 -0.002514 0.010159 -0.001512 0.000000 0.000000 0.000000
# 3 -0.000804 -0.001512 0.029854 0.000000 0.000000 0.000000
# 4 0.000000 0.000000 0.000000 0.113724 0.000000 0.000000
# 5 0.000000 0.000000 0.000000 0.000000 0.081851 0.000000
# 6 0.000000 0.000000 0.000000 0.000000 0.000000 0.035118
#
#
# Mechanical properties :
#
#
# Convention : Reuss Voigt Hill
#
# Bulk Modulus (GPa) = 22.34197 29.41180 25.87688
# Shear Modulus (GPa) = 16.14507 22.12512 19.13509
#
# Velocity S-wave (km/s) = 2.84478 3.33021 3.09702
# Velocity P-wave (km/s) = 4.68929 5.43414 5.07540
#
# Compressibility (1/GPa) = 0.04475882
#
# Stress axis : x y z
#
# Youngs Moduli (GPa) = 69.41339 98.43472 33.49656
#
# Poissons Ratio (x) = 0.24744 0.02694
# Poissons Ratio (y) = 0.17449 0.05065
# Poissons Ratio (z) = 0.05583 0.14885
#
# Static dielectric constant tensor:
#      x y z
#    x 1.670100 0.000000 0.000000 
#    y 0.000000 1.693410 0.000000 
#    z 0.000000 0.000000 1.753710 
# 
# From -- ./inp_files/5788.got.cif
#   From: 2010.05.17/outbox.cif.g08.bks.cpg/sg58_3_cif.got.tgz:5788.got - 2010.06.03 14:20:14.
