data_PCOD9441608
_publ_section_title
;
Structure prediction by ZEFSAII (Michael W. Deem and Ramdas Pophale) SiO2 
 PCOD9441608
Probable space group: P N N M
;
_chemical_formula_sum "Si O2"
_cell_formula_units_Z 64
_cell_length_a 20.123996
_cell_length_b 20.999397
_cell_length_c 7.811930
_cell_angle_alpha 90.000000
_cell_angle_beta 90.000000
_cell_angle_gamma 90.000000
_cell_volume 3301.257414
_symmetry_space_group_name_H-M "P N N M"
_symmetry_group_IT_number 58
_symmetry_cell_setting 'orthorhombic'
loop_
_space_group_symop_operation_xyz
x,y,z
-x,-y,z
1/2+x,1/2-y,1/2-z
1/2-x,1/2+y,1/2-z
-x,-y,-z
x,y,-z
1/2-x,1/2+y,1/2+z
1/2+x,1/2-y,1/2+z
loop_
_atom_site_type_symbol
_atom_site_label
_atom_site_fract_x
_atom_site_fract_y
_atom_site_fract_z
Si Si1 0.962064 0.182786 0.797236
Si Si2 0.175394 0.512124 0.204888
Si Si3 0.039030 0.564346 0.792289
Si Si4 0.322328 0.356650 0.700119
Si Si5 0.825881 0.635659 0.707782
Si Si6 0.822388 0.998442 0.296598
Si Si7 0.961710 0.691521 0.299546
Si Si8 0.957366 0.938880 0.793133
O O1 0.886957 0.178434 0.725426
O O2 0.998340 0.249646 0.776943
O O3 0.007822 0.125369 0.729051
O O4 0.954923 0.170359 0.000000
O O5 0.114796 0.554945 0.268894
O O6 0.161431 0.437849 0.243006
O O7 0.250211 0.524697 0.267142
O O8 0.175757 0.519626 0.000000
O O9 0.000000 0.500000 0.744154
O O10 0.002811 0.626588 0.724548
O O11 0.038105 0.568144 0.000000
O O12 0.317144 0.339385 0.500000
O O13 0.248045 0.346677 0.772554
O O14 0.336279 0.432511 0.714082
O O15 0.825162 0.637748 0.500000
O O16 0.887401 0.678150 0.769906
O O17 0.817663 0.009538 0.500000
O O18 0.881927 0.950412 0.261901
O O19 0.955058 0.705007 0.500000
O O20 0.957843 0.938520 0.000000
O O21 0.000000 0.000000 0.735502
#
# Coordination Sequence:
#
# PCOD9441608 Si02
#       8
#     8   8   8   8   8   8   8   8
#     4  10  21  37  57  77 102 142 184 219 257 313
#     4   9  18  32  51  79 109 137 175 219 261 311
#     4  10  19  34  57  79 103 140 181 217 255 310
#     4   9  17  34  56  76 100 136 181 218 256 316
#     4   9  18  32  53  78 104 136 172 215 267 318
#     4  10  19  30  50  82 113 137 167 218 276 314
#     4  11  23  36  52  80 114 141 172 220 274 320
#     4  10  19  35  56  78 104 138 181 219 256 313
#
# _framework density 19.386551999999998
#
# number of rings (size 3 to 8) (size 9 to 14) (size 15 to 20)
#    0.000    2.250    2.500    0.750    0.000    3.000 
#    0.000    1.250    0.000    6.000    0.000    0.000 
#    0.000    0.000    0.000    0.000    0.000    0.000 
#
# Total GULP energy -356986.285017 kJ/mol
# GULP energy per Si atom -5577.910703 kJ/mol
# Density = 1.934243 g / cm^3
# Si number density = 19.386552 Si / 1000 Ang^3
#
#
#
# Elastic Constant Matrix: (Units=GPa)
#
#
# Indices 1 2 3 4 5 6 
#
# 1 178.9210 59.2534 -0.8114 0.0000 0.0000 0.0000
# 2 59.2534 73.7809 -9.2341 0.0000 0.0000 0.0000
# 3 -0.8114 -9.2341 15.7192 0.0000 0.0000 0.0000
# 4 0.0000 0.0000 0.0000 10.4297 0.0000 0.0000
# 5 0.0000 0.0000 0.0000 0.0000 13.7655 0.0000
# 6 0.0000 0.0000 0.0000 0.0000 0.0000 26.7757
#
#
#
# Elastic Compliance Matrix: (Units=1/GPa)
#
#
# Indices 1 2 3 4 5 6 
#
# 1 0.007792 -0.006700 -0.003534 0.000000 0.000000 0.000000
# 2 -0.006700 0.020390 0.011632 0.000000 0.000000 0.000000
# 3 -0.003534 0.011632 0.070267 0.000000 0.000000 0.000000
# 4 0.000000 0.000000 0.000000 0.095880 0.000000 0.000000
# 5 0.000000 0.000000 0.000000 0.000000 0.072645 0.000000
# 6 0.000000 0.000000 0.000000 0.000000 0.000000 0.037347
#
#
# Mechanical properties :
#
#
# Convention : Reuss Voigt Hill
#
# Bulk Modulus (GPa) = 9.87689 40.75968 25.31828
# Shear Modulus (GPa) = 14.91322 24.80840 19.86081
#
# Velocity S-wave (km/s) = 2.77656 3.58113 3.20420
# Velocity P-wave (km/s) = 3.92234 6.17816 5.17467
#
# Compressibility (1/GPa) = 0.10124646
#
# Stress axis : x y z
#
# Youngs Moduli (GPa) = 128.33951 49.04338 14.23140
#
# Poissons Ratio (x) = 0.32858 0.05029
# Poissons Ratio (y) = 0.85986 -0.16554
# Poissons Ratio (z) = 0.45349 -0.57048
#
# Static dielectric constant tensor:
#      x y z
#    x 1.735870 0.000000 0.000000 
#    y 0.000000 1.620500 0.000000 
#    z 0.000000 0.000000 1.732570 
# 
# From -- ./inp_files/9272.got.cif
#   From: 2010.05.17/outbox.cif.g08.bks.cpg/sg58_5_cif.got.tgz:9272.got - 2010.06.03 14:20:14.
