data_PCOD9441908
_publ_section_title
;
Structure prediction by ZEFSAII (Michael W. Deem and Ramdas Pophale) SiO2 
 PCOD9441908
Probable space group: P N N M
;
_chemical_formula_sum "Si O2"
_cell_formula_units_Z 56
_cell_length_a 15.160234
_cell_length_b 22.075298
_cell_length_c 7.633946
_cell_angle_alpha 90.000000
_cell_angle_beta 90.000000
_cell_angle_gamma 90.000000
_cell_volume 2554.827388
_symmetry_space_group_name_H-M "P N N M"
_symmetry_group_IT_number 58
_symmetry_cell_setting 'orthorhombic'
loop_
_space_group_symop_operation_xyz
x,y,z
-x,-y,z
1/2+x,1/2-y,1/2-z
1/2-x,1/2+y,1/2-z
-x,-y,-z
x,y,-z
1/2-x,1/2+y,1/2+z
1/2+x,1/2-y,1/2+z
loop_
_atom_site_type_symbol
_atom_site_label
_atom_site_fract_x
_atom_site_fract_y
_atom_site_fract_z
Si Si1 0.396591 0.066778 0.713484
Si Si2 0.800360 0.687152 0.789688
Si Si3 0.106105 0.838061 0.207340
Si Si4 0.907069 0.573151 0.786214
Si Si5 0.706960 0.408162 0.212437
Si Si6 0.581247 0.296665 0.292699
Si Si7 0.904238 0.020889 0.709684
O O1 0.396992 0.067837 0.500000
O O2 0.492872 0.089970 0.767603
O O3 0.307835 0.099894 0.772091
O O4 0.390251 0.996091 0.766662
O O5 0.697305 0.694355 0.752799
O O6 0.837016 0.622459 0.725070
O O7 0.862571 0.740602 0.719994
O O8 0.808483 0.686316 0.000000
O O9 0.112326 0.908853 0.256236
O O10 0.016132 0.809269 0.282225
O O11 0.097441 0.836411 0.000000
O O12 0.904934 0.572502 0.000000
O O13 0.640018 0.356692 0.271978
O O14 0.669478 0.473473 0.271029
O O15 0.707310 0.407177 0.000000
O O16 0.570688 0.284848 0.500000
O O17 0.906678 0.014259 0.500000
O O18 0.000000 0.000000 0.778418
#
# Coordination Sequence:
#
# PCOD9441908 Si02
#       7
#     8   8   8   8   8   8   8
#     4   8  14  25  48  81 106 127 164 219 273 316
#     4  10  21  38  58  76 103 146 188 225 270 330
#     4  11  23  38  57  83 114 146 184 231 284 336
#     4   8  14  28  50  76 104 131 168 219 270 318
#     4  10  19  32  54  83 111 142 184 230 272 324
#     4  10  23  39  53  75 109 146 182 222 275 330
#     4  10  19  33  56  85 114 146 185 228 279 334
#
# _framework density 21.919288999999999
#
# number of rings (size 3 to 8) (size 9 to 14) (size 15 to 20)
#    0.000    2.429    1.429    2.143    0.000    5.429 
#    0.000    2.857    0.000    0.857    0.000    3.000 
#    0.000    0.000    0.000    0.000    0.000    0.000 
#
# Total GULP energy -312652.644231 kJ/mol
# GULP energy per Si atom -5583.082933 kJ/mol
# Density = 2.186940 g / cm^3
# Si number density = 21.919289 Si / 1000 Ang^3
#
#
#
# Elastic Constant Matrix: (Units=GPa)
#
#
# Indices 1 2 3 4 5 6 
#
# 1 211.1138 76.4292 23.6084 0.0000 0.0000 0.0000
# 2 76.4292 87.4485 15.6669 0.0000 0.0000 0.0000
# 3 23.6084 15.6669 54.5643 0.0000 0.0000 0.0000
# 4 0.0000 0.0000 0.0000 -60.3961 0.0000 0.0000
# 5 0.0000 0.0000 0.0000 0.0000 5.0312 0.0000
# 6 0.0000 0.0000 0.0000 0.0000 0.0000 27.2826
#
#
#
# Elastic Compliance Matrix: (Units=1/GPa)
#
#
# Indices 1 2 3 4 5 6 
#
# 1 0.007022 -0.005896 -0.001345 0.000000 0.000000 0.000000
# 2 -0.005896 0.017006 -0.002332 0.000000 0.000000 0.000000
# 3 -0.001345 -0.002332 0.019579 0.000000 0.000000 0.000000
# 4 0.000000 0.000000 0.000000 -0.016557 0.000000 0.000000
# 5 0.000000 0.000000 0.000000 0.000000 0.198761 0.000000
# 6 0.000000 0.000000 0.000000 0.000000 0.000000 0.036653
#
#
# Mechanical properties :
#
#
# Convention : Reuss Voigt Hill
#
# Bulk Modulus (GPa) = 40.88260 64.94839 52.91550
# Shear Modulus (GPa) = 17.25551 10.21169 13.73360
#
# Velocity S-wave (km/s) = 2.80881 2.16076 2.50582
# Velocity P-wave (km/s) = 5.40473 5.99335 5.70663
#
# Compressibility (1/GPa) = 0.02446028
#
# Stress axis : x y z
#
# Youngs Moduli (GPa) = 142.41582 58.80268 51.07615
#
# Poissons Ratio (x) = 0.34669 0.06871
# Poissons Ratio (y) = 0.83967 0.11911
# Poissons Ratio (z) = 0.19158 0.13712
#
# Static dielectric constant tensor:
#      x y z
#    x 1.791600 0.000000 0.000000 
#    y 0.000000 1.784260 0.000000 
#    z 0.000000 0.000000 1.833620 
# 
# From -- ./inp_files/6421.got.cif
#   From: 2010.05.17/outbox.cif.g08.bks.cpg/sg58_4_cif.got.tgz:6421.got - 2010.06.03 14:20:14.
