data_PCOD9441364
_publ_section_title
;
Structure prediction by ZEFSAII (Michael W. Deem and Ramdas Pophale) SiO2 
 PCOD9441364
Probable space group: P N N M
;
_chemical_formula_sum "Si O2"
_cell_formula_units_Z 52
_cell_length_a 19.706881
_cell_length_b 8.343680
_cell_length_c 13.016116
_cell_angle_alpha 90.000000
_cell_angle_beta 90.000000
_cell_angle_gamma 90.000000
_cell_volume 2140.212735
_symmetry_space_group_name_H-M "P N N M"
_symmetry_group_IT_number 58
_symmetry_cell_setting 'orthorhombic'
loop_
_space_group_symop_operation_xyz
x,y,z
-x,-y,z
1/2+x,1/2-y,1/2-z
1/2-x,1/2+y,1/2-z
-x,-y,-z
x,y,-z
1/2-x,1/2+y,1/2+z
1/2+x,1/2-y,1/2+z
loop_
_atom_site_type_symbol
_atom_site_label
_atom_site_fract_x
_atom_site_fract_y
_atom_site_fract_z
Si Si1 0.118221 0.774419 0.275100
Si Si2 0.615405 0.391975 0.000000
Si Si3 0.372869 0.232895 0.000000
Si Si4 0.969242 0.676769 0.891123
Si Si5 0.408413 0.638420 0.778408
Si Si6 0.766972 0.659637 0.732217
Si Si7 0.154057 0.533373 0.886048
Si Si8 0.282155 0.909931 0.000000
O O1 0.091679 0.718780 0.387051
O O2 0.200267 0.772044 0.285691
O O3 0.108948 0.660207 0.177356
O O4 0.101134 0.955474 0.246877
O O5 0.646344 0.574175 0.000000
O O6 0.572649 0.369605 0.897559
O O7 0.668620 0.245999 0.000000
O O8 0.320505 0.082623 0.000000
O O9 0.966703 0.779661 0.788941
O O10 0.889706 0.627278 0.898839
O O11 0.000000 0.500000 0.886845
O O12 0.990816 0.752311 0.000000
O O13 0.335096 0.730242 0.774464
O O14 0.786314 0.516454 0.810198
O O15 0.749026 0.606395 0.614513
O O16 0.173143 0.590457 0.000000
#
# Coordination Sequence:
#
# PCOD9441364 Si02
#       8
#     8   4   4   8   8   8   8   4
#     4  11  21  34  50  79 114 146 186 227 274 326
#     4   8  18  34  53  77 112 135 182 231 265 327
#     4  10  20  34  52  74 107 160 187 216 276 332
#     4   9  19  39  61  79 103 138 180 227 285 345
#     4   9  19  34  54  76 107 143 180 226 274 324
#     4  10  20  34  50  75 110 149 189 221 263 324
#     4  10  21  35  53  80 108 140 182 234 272 319
#     4  10  18  34  52  73 104 157 192 216 270 328
#
# _framework density 24.296651000000001
#
# number of rings (size 3 to 8) (size 9 to 14) (size 15 to 20)
#    0.000    2.308    1.538    0.923    2.154    0.615 
#    2.769    1.154    0.000    2.769    0.000    3.231 
#    0.000    0.000    0.000    0.000    0.000    0.000 
#
# Total GULP energy -289682.301106 kJ/mol
# GULP energy per Si atom -5570.813483 kJ/mol
# Density = 2.424135 g / cm^3
# Si number density = 24.296651 Si / 1000 Ang^3
#
#
#
# Elastic Constant Matrix: (Units=GPa)
#
#
# Indices 1 2 3 4 5 6 
#
# 1 38.8607 -0.5189 13.3325 0.0000 0.0000 0.0000
# 2 -0.5189 72.5405 58.8065 0.0000 0.0000 0.0000
# 3 13.3325 58.8065 216.8919 0.0000 0.0000 0.0000
# 4 0.0000 0.0000 0.0000 27.2306 0.0000 0.0000
# 5 0.0000 0.0000 0.0000 0.0000 13.2264 0.0000
# 6 0.0000 0.0000 0.0000 0.0000 0.0000 33.3446
#
#
#
# Elastic Compliance Matrix: (Units=1/GPa)
#
#
# Indices 1 2 3 4 5 6 
#
# 1 0.026498 0.001935 -0.002154 0.000000 0.000000 0.000000
# 2 0.001935 0.017810 -0.004948 0.000000 0.000000 0.000000
# 3 -0.002154 -0.004948 0.006085 0.000000 0.000000 0.000000
# 4 0.000000 0.000000 0.000000 0.036723 0.000000 0.000000
# 5 0.000000 0.000000 0.000000 0.000000 0.075606 0.000000
# 6 0.000000 0.000000 0.000000 0.000000 0.000000 0.029990
#
#
# Mechanical properties :
#
#
# Convention : Reuss Voigt Hill
#
# Bulk Modulus (GPa) = 24.96239 52.39258 38.67749
# Shear Modulus (GPa) = 23.10561 31.87186 27.48874
#
# Velocity S-wave (km/s) = 3.08714 3.62578 3.36725
# Velocity P-wave (km/s) = 4.79620 6.25611 5.57416
#
# Compressibility (1/GPa) = 0.04006026
#
# Stress axis : x y z
#
# Youngs Moduli (GPa) = 37.73923 56.14691 164.35129
#
# Poissons Ratio (x) = -0.10866 0.35394
# Poissons Ratio (y) = -0.07304 0.81320
# Poissons Ratio (z) = 0.08127 0.27781
#
# Static dielectric constant tensor:
#      x y z
#    x 2.034210 0.000000 0.000000 
#    y 0.000000 1.946420 0.000000 
#    z 0.000000 0.000000 2.034650 
# 
# From -- ./inp_files/13253.got.cif
#   From: 2010.05.17/outbox.cif.g08.bks.cpg/sg58_7_cif.got.tgz:13253.got - 2010.06.03 14:20:14.
