data_PCOD9441883
_publ_section_title
;
Structure prediction by ZEFSAII (Michael W. Deem and Ramdas Pophale) SiO2 
 PCOD9441883
Probable space group: P N N M
;
_chemical_formula_sum "Si O2"
_cell_formula_units_Z 64
_cell_length_a 24.532991
_cell_length_b 14.809920
_cell_length_c 9.036150
_cell_angle_alpha 90.000000
_cell_angle_beta 90.000000
_cell_angle_gamma 90.000000
_cell_volume 3283.119145
_symmetry_space_group_name_H-M "P N N M"
_symmetry_group_IT_number 58
_symmetry_cell_setting 'orthorhombic'
loop_
_space_group_symop_operation_xyz
x,y,z
-x,-y,z
1/2+x,1/2-y,1/2-z
1/2-x,1/2+y,1/2-z
-x,-y,-z
x,y,-z
1/2-x,1/2+y,1/2+z
1/2+x,1/2-y,1/2+z
loop_
_atom_site_type_symbol
_atom_site_label
_atom_site_fract_x
_atom_site_fract_y
_atom_site_fract_z
Si Si1 0.664225 0.489534 0.324761
Si Si2 0.249664 0.656136 0.678088
Si Si3 0.948005 0.561403 0.821904
Si Si4 0.944371 0.948133 0.676671
Si Si5 0.590436 0.746056 0.171083
Si Si6 0.799261 0.180032 0.175141
Si Si7 0.860895 0.442611 0.329747
Si Si8 0.475458 0.733534 0.677451
O O1 0.651018 0.489032 0.500000
O O2 0.695766 0.397915 0.287189
O O3 0.609047 0.499526 0.233582
O O4 0.705357 0.573151 0.300862
O O5 0.244988 0.666227 0.500000
O O6 0.244461 0.753428 0.752713
O O7 0.197430 0.595052 0.724983
O O8 0.892617 0.518346 0.760227
O O9 0.955687 0.666027 0.778729
O O10 0.000000 0.500000 0.773301
O O11 0.947043 0.557740 0.000000
O O12 0.943944 0.940312 0.500000
O O13 0.943400 0.849463 0.750863
O O14 0.000000 0.000000 0.720027
O O15 0.643696 0.705752 0.247864
O O16 0.600710 0.853732 0.171474
O O17 0.536872 0.724095 0.262541
O O18 0.585487 0.716268 0.000000
O O19 0.802064 0.196842 0.000000
O O20 0.853712 0.471801 0.500000
O O21 0.473913 0.727124 0.500000
#
# Coordination Sequence:
#
# PCOD9441883 Si02
#       8
#     8   8   8   8   8   8   8   8
#     4  10  22  42  65  88 121 158 196 243 300 361
#     4   9  20  40  61  85 118 153 192 243 296 347
#     4  10  20  34  52  80 119 156 194 242 291 347
#     4  11  25  43  63  89 120 153 196 251 305 362
#     4  10  19  32  53  82 116 152 195 243 289 341
#     4  10  20  35  60  90 115 149 196 243 292 349
#     4   9  18  32  53  79 110 153 197 237 286 342
#     4  11  22  36  56  83 118 158 196 238 296 355
#
# _framework density 19.493658
#
# number of rings (size 3 to 8) (size 9 to 14) (size 15 to 20)
#    0.000    2.000    1.250    3.000    0.000    7.750 
#    2.250    0.000    0.000    0.000    0.000    0.000 
#    0.000    0.000    0.000    0.000    0.000    0.000 
#
# Total GULP energy -357306.839318 kJ/mol
# GULP energy per Si atom -5582.919364 kJ/mol
# Density = 1.944929 g / cm^3
# Si number density = 19.493658 Si / 1000 Ang^3
#
#
#
# Elastic Constant Matrix: (Units=GPa)
#
#
# Indices 1 2 3 4 5 6 
#
# 1 53.3026 21.8864 24.3239 0.0000 0.0000 0.0000
# 2 21.8864 105.6570 43.8875 0.0000 0.0000 0.0000
# 3 24.3239 43.8875 45.2546 0.0000 0.0000 0.0000
# 4 0.0000 0.0000 0.0000 22.8779 0.0000 0.0000
# 5 0.0000 0.0000 0.0000 0.0000 15.3269 0.0000
# 6 0.0000 0.0000 0.0000 0.0000 0.0000 24.7177
#
#
#
# Elastic Compliance Matrix: (Units=1/GPa)
#
#
# Indices 1 2 3 4 5 6 
#
# 1 0.024886 0.000672 -0.014027 0.000000 0.000000 0.000000
# 2 0.000672 0.015867 -0.015749 0.000000 0.000000 0.000000
# 3 -0.014027 -0.015749 0.044910 0.000000 0.000000 0.000000
# 4 0.000000 0.000000 0.000000 0.043710 0.000000 0.000000
# 5 0.000000 0.000000 0.000000 0.000000 0.065245 0.000000
# 6 0.000000 0.000000 0.000000 0.000000 0.000000 0.040457
#
#
# Mechanical properties :
#
#
# Convention : Reuss Voigt Hill
#
# Bulk Modulus (GPa) = 36.42456 42.71218 39.56837
# Shear Modulus (GPa) = 16.53244 20.19226 18.36235
#
# Velocity S-wave (km/s) = 2.91536 3.22193 3.07248
# Velocity P-wave (km/s) = 5.48255 5.98327 5.73837
#
# Compressibility (1/GPa) = 0.02745400
#
# Stress axis : x y z
#
# Youngs Moduli (GPa) = 40.18277 63.02328 22.26685
#
# Poissons Ratio (x) = -0.04233 0.31235
# Poissons Ratio (y) = -0.02699 0.35068
# Poissons Ratio (z) = 0.56366 0.99254
#
# Static dielectric constant tensor:
#      x y z
#    x 1.681710 0.000000 0.000000 
#    y 0.000000 1.723740 0.000000 
#    z 0.000000 0.000000 1.654590 
# 
# From -- ./inp_files/9948.got.cif
#   From: 2010.05.17/outbox.cif.g08.bks.cpg/sg58_5_cif.got.tgz:9948.got - 2010.06.03 14:20:14.
