data_PCOD9441403
_publ_section_title
;
Structure prediction by ZEFSAII (Michael W. Deem and Ramdas Pophale) SiO2 
 PCOD9441403
Probable space group: P N N M
;
_chemical_formula_sum "Si O2"
_cell_formula_units_Z 48
_cell_length_a 20.608112
_cell_length_b 7.260837
_cell_length_c 13.468180
_cell_angle_alpha 90.000000
_cell_angle_beta 90.000000
_cell_angle_gamma 90.000000
_cell_volume 2015.272624
_symmetry_space_group_name_H-M "P N N M"
_symmetry_group_IT_number 58
_symmetry_cell_setting 'orthorhombic'
loop_
_space_group_symop_operation_xyz
x,y,z
-x,-y,z
1/2+x,1/2-y,1/2-z
1/2-x,1/2+y,1/2-z
-x,-y,-z
x,y,-z
1/2-x,1/2+y,1/2+z
1/2+x,1/2-y,1/2+z
loop_
_atom_site_type_symbol
_atom_site_label
_atom_site_fract_x
_atom_site_fract_y
_atom_site_fract_z
Si Si1 0.709231 0.428814 0.385770
Si Si2 0.429813 0.433372 0.327195
Si Si3 0.893331 0.134310 0.386208
Si Si4 0.252042 0.503723 0.889794
Si Si5 0.076776 0.518616 0.112164
Si Si6 0.832450 0.475028 0.281041
O O1 0.703957 0.473458 0.500000
O O2 0.637309 0.456829 0.342835
O O3 0.730386 0.212416 0.378267
O O4 0.770632 0.545512 0.343426
O O5 0.500000 0.500000 0.366266
O O6 0.436826 0.412212 0.208014
O O7 0.414249 0.237196 0.376580
O O8 0.917251 0.127861 0.500000
O O9 0.829384 0.004299 0.379852
O O10 0.868194 0.338642 0.356769
O O11 0.211210 0.610128 0.808290
O O12 0.235858 0.564516 0.000000
O O13 0.112094 0.435568 0.210425
O O14 0.000000 0.500000 0.121101
O O15 0.095622 0.453494 0.000000
#
# Coordination Sequence:
#
# PCOD9441403 Si02
#       6
#     8   8   8   8   8   8
#     4  10  21  36  57  88 120 153 197 250 302 351
#     4  11  23  39  61  87 117 161 204 251 302 358
#     4   9  19  37  58  82 113 152 194 244 305 354
#     4   9  17  31  56  85 113 148 189 237 296 355
#     4  10  23  40  58  88 125 161 200 246 300 360
#     4  10  18  34  60  83 113 153 198 241 292 356
#
# _framework density 23.818117999999998
#
# number of rings (size 3 to 8) (size 9 to 14) (size 15 to 20)
#    0.000    2.167    1.667    2.500    2.333    1.667 
#    0.000    0.000    0.000   14.500    0.000    0.000 
#    0.000    0.000    0.000    0.000    0.000    0.000 
#
# Total GULP energy -267321.660518 kJ/mol
# GULP energy per Si atom -5569.201261 kJ/mol
# Density = 2.376391 g / cm^3
# Si number density = 23.818118 Si / 1000 Ang^3
#
#
#
# Elastic Constant Matrix: (Units=GPa)
#
#
# Indices 1 2 3 4 5 6 
#
# 1 69.0797 17.6147 25.6175 0.0000 0.0000 0.0000
# 2 17.6147 46.6655 -0.1173 0.0000 0.0000 0.0000
# 3 25.6175 -0.1173 171.7486 0.0000 0.0000 0.0000
# 4 0.0000 0.0000 0.0000 3.2828 0.0000 0.0000
# 5 0.0000 0.0000 0.0000 0.0000 5.5836 0.0000
# 6 0.0000 0.0000 0.0000 0.0000 0.0000 23.2989
#
#
#
# Elastic Compliance Matrix: (Units=1/GPa)
#
#
# Indices 1 2 3 4 5 6 
#
# 1 0.017066 -0.006448 -0.002550 0.000000 0.000000 0.000000
# 2 -0.006448 0.023866 0.000978 0.000000 0.000000 0.000000
# 3 -0.002550 0.000978 0.006203 0.000000 0.000000 0.000000
# 4 0.000000 0.000000 0.000000 0.304622 0.000000 0.000000
# 5 0.000000 0.000000 0.000000 0.000000 0.179095 0.000000
# 6 0.000000 0.000000 0.000000 0.000000 0.000000 0.042920
#
#
# Mechanical properties :
#
#
# Convention : Reuss Voigt Hill
#
# Bulk Modulus (GPa) = 32.15964 41.52483 36.84223
# Shear Modulus (GPa) = 8.33088 22.72499 15.52794
#
# Velocity S-wave (km/s) = 1.87224 3.09221 2.55608
# Velocity P-wave (km/s) = 4.26676 5.49736 4.92068
#
# Compressibility (1/GPa) = 0.03109488
#
# Stress axis : x y z
#
# Youngs Moduli (GPa) = 58.59651 41.90138 161.20016
#
# Poissons Ratio (x) = 0.27019 0.41104
# Poissons Ratio (y) = 0.37784 -0.15767
# Poissons Ratio (z) = 0.14942 -0.04098
#
# Static dielectric constant tensor:
#      x y z
#    x 1.987500 0.000000 0.000000 
#    y 0.000000 2.005970 0.000000 
#    z 0.000000 0.000000 1.949420 
# 
# From -- ./inp_files/22749.got.cif
#   From: 2010.05.17/outbox.cif.g08.bks.cpg/sg58_12_cif.got.tgz:22749.got - 2010.06.03 14:20:14.
