data_PCOD9441251
_publ_section_title
;
Structure prediction by ZEFSAII (Michael W. Deem and Ramdas Pophale) SiO2 
 PCOD9441251
Probable space group: P N N M
;
_chemical_formula_sum "Si O2"
_cell_formula_units_Z 64
_cell_length_a 15.009438
_cell_length_b 25.345542
_cell_length_c 7.492903
_cell_angle_alpha 90.000000
_cell_angle_beta 90.000000
_cell_angle_gamma 90.000000
_cell_volume 2850.467702
_symmetry_space_group_name_H-M "P N N M"
_symmetry_group_IT_number 58
_symmetry_cell_setting 'orthorhombic'
loop_
_space_group_symop_operation_xyz
x,y,z
-x,-y,z
1/2+x,1/2-y,1/2-z
1/2-x,1/2+y,1/2-z
-x,-y,-z
x,y,-z
1/2-x,1/2+y,1/2+z
1/2+x,1/2-y,1/2+z
loop_
_atom_site_type_symbol
_atom_site_label
_atom_site_fract_x
_atom_site_fract_y
_atom_site_fract_z
Si Si1 0.007740 0.661371 0.209530
Si Si2 0.367128 0.745643 0.783664
Si Si3 0.439872 0.953261 0.792996
Si Si4 0.747493 0.568790 0.291048
Si Si5 0.610271 0.649861 0.716656
Si Si6 0.098960 0.017435 0.283074
Si Si7 0.582192 0.369290 0.203439
Si Si8 0.338908 0.236041 0.282805
O O1 0.099782 0.687602 0.278940
O O2 0.928460 0.704894 0.228736
O O3 0.983650 0.604689 0.288902
O O4 0.019436 0.652118 0.000000
O O5 0.403303 0.688725 0.717986
O O6 0.263426 0.743939 0.727821
O O7 0.369444 0.747186 0.000000
O O8 0.341707 0.946958 0.710516
O O9 0.500000 0.000000 0.714131
O O10 0.425652 0.968595 0.000000
O O11 0.763467 0.580192 0.500000
O O12 0.699615 0.621155 0.220233
O O13 0.674227 0.523200 0.275026
O O14 0.605580 0.646516 0.500000
O O15 0.523838 0.622026 0.794091
O O16 0.610682 0.710568 0.769312
O O17 0.097629 0.018548 0.500000
O O18 0.120425 0.076837 0.218231
O O19 0.000000 0.000000 0.223580
O O20 0.615415 0.365741 0.000000
O O21 0.337544 0.233747 0.500000
#
# Coordination Sequence:
#
# PCOD9441251 Si02
#       8
#     8   8   8   8   8   8   8   8
#     4  11  22  38  62  91 119 148 191 245 293 341
#     4  10  20  37  59  82 115 157 195 232 282 349
#     4  10  23  44  65  84 113 153 197 242 288 342
#     4  10  21  36  59  86 109 150 201 238 282 342
#     4  10  18  32  54  77 108 145 185 232 280 334
#     4  10  20  34  52  79 118 153 183 231 289 340
#     4  10  20  33  52  79 110 148 188 227 280 338
#     4   9  19  35  56  82 114 152 190 232 288 344
#
# _framework density 22.452453999999999
#
# number of rings (size 3 to 8) (size 9 to 14) (size 15 to 20)
#    0.000    2.000    2.500    1.125    0.000    4.500 
#    0.000    4.375    0.000    0.000    0.000    0.000 
#    0.000    0.000    0.000    0.000    0.000    0.000 
#
# Total GULP energy -357280.338324 kJ/mol
# GULP energy per Si atom -5582.505286 kJ/mol
# Density = 2.240135 g / cm^3
# Si number density = 22.452454 Si / 1000 Ang^3
#
#
#
# Elastic Constant Matrix: (Units=GPa)
#
#
# Indices 1 2 3 4 5 6 
#
# 1 86.1394 32.4349 -15.4556 0.0000 0.0000 0.0000
# 2 32.4349 117.7634 -20.7944 0.0000 0.0000 0.0000
# 3 -15.4556 -20.7944 60.3041 0.0000 0.0000 0.0000
# 4 0.0000 0.0000 0.0000 15.2396 0.0000 0.0000
# 5 0.0000 0.0000 0.0000 0.0000 9.4072 0.0000
# 6 0.0000 0.0000 0.0000 0.0000 0.0000 29.2429
#
#
#
# Elastic Compliance Matrix: (Units=1/GPa)
#
#
# Indices 1 2 3 4 5 6 
#
# 1 0.013239 -0.003245 0.002274 0.000000 0.000000 0.000000
# 2 -0.003245 0.009837 0.002561 0.000000 0.000000 0.000000
# 3 0.002274 0.002561 0.018048 0.000000 0.000000 0.000000
# 4 0.000000 0.000000 0.000000 0.065619 0.000000 0.000000
# 5 0.000000 0.000000 0.000000 0.000000 0.106302 0.000000
# 6 0.000000 0.000000 0.000000 0.000000 0.000000 0.034196
#
#
# Mechanical properties :
#
#
# Convention : Reuss Voigt Hill
#
# Bulk Modulus (GPa) = 22.57091 28.50853 25.53972
# Shear Modulus (GPa) = 19.31774 28.64607 23.98190
#
# Velocity S-wave (km/s) = 2.93641 3.57579 3.27176
# Velocity P-wave (km/s) = 4.64449 5.45648 5.06678
#
# Compressibility (1/GPa) = 0.04430482
#
# Stress axis : x y z
#
# Youngs Moduli (GPa) = 75.53491 101.65252 55.40644
#
# Poissons Ratio (x) = 0.32984 -0.12600
# Poissons Ratio (y) = 0.24509 -0.14187
# Poissons Ratio (z) = -0.17178 -0.26029
#
# Static dielectric constant tensor:
#      x y z
#    x 1.852800 0.000000 0.000000 
#    y 0.000000 1.827140 0.000000 
#    z 0.000000 0.000000 1.853060 
# 
# From -- ./inp_files/6786.got.cif
#   From: 2010.05.17/outbox.cif.g08.bks.cpg/sg58_4_cif.got.tgz:6786.got - 2010.06.03 14:20:14.
