data_PCOD9441181
_publ_section_title
;
Structure prediction by ZEFSAII (Michael W. Deem and Ramdas Pophale) SiO2 
 PCOD9441181
Probable space group: P N N M
;
_chemical_formula_sum "Si O2"
_cell_formula_units_Z 56
_cell_length_a 21.028885
_cell_length_b 11.701709
_cell_length_c 12.551583
_cell_angle_alpha 90.000000
_cell_angle_beta 90.000000
_cell_angle_gamma 90.000000
_cell_volume 3088.616890
_symmetry_space_group_name_H-M "P N N M"
_symmetry_group_IT_number 58
_symmetry_cell_setting 'orthorhombic'
loop_
_space_group_symop_operation_xyz
x,y,z
-x,-y,z
1/2+x,1/2-y,1/2-z
1/2-x,1/2+y,1/2-z
-x,-y,-z
x,y,-z
1/2-x,1/2+y,1/2+z
1/2+x,1/2-y,1/2+z
loop_
_atom_site_type_symbol
_atom_site_label
_atom_site_fract_x
_atom_site_fract_y
_atom_site_fract_z
Si Si1 0.675894 0.947397 0.195761
Si Si2 0.920769 0.244133 0.716458
Si Si3 0.901023 0.539482 0.500000
Si Si4 0.810427 0.866510 0.127985
Si Si5 0.074458 0.966807 0.126448
Si Si6 0.342818 0.877159 0.376880
Si Si7 0.980984 0.301631 0.500000
Si Si8 0.991460 0.635495 0.115088
O O1 0.640876 0.824058 0.197202
O O2 0.749906 0.933198 0.171534
O O3 0.641833 0.024619 0.105206
O O4 0.666504 0.011678 0.306718
O O5 0.909566 0.131880 0.787762
O O6 0.957448 0.233088 0.603997
O O7 0.968612 0.316778 0.789307
O O8 0.943414 0.423337 0.500000
O O9 0.946257 0.651398 0.500000
O O10 0.807938 0.735379 0.165938
O O11 0.877215 0.929052 0.149798
O O12 0.804820 0.861382 0.000000
O O13 0.083818 0.936322 0.000000
O O14 0.000000 0.000000 0.138041
O O15 0.325724 0.898490 0.500000
O O16 0.417014 0.842986 0.374770
O O17 0.000000 0.500000 0.113519
O O18 0.013075 0.682275 0.000000
#
# Coordination Sequence:
#
# PCOD9441181 Si02
#       8
#     8   8   4   8   8   8   4   8
#     4  11  21  35  57  85 116 154 195 235 292 342
#     4  11  21  34  57  88 119 157 192 240 289 349
#     4   9  18  34  54  80 117 152 195 242 271 339
#     4  10  22  40  59  83 114 154 198 234 284 355
#     4  10  22  41  65  88 113 151 197 246 299 356
#     4  10  21  36  59  86 116 147 186 243 294 341
#     4   9  20  32  53  86 116 154 199 231 283 334
#     4  10  18  31  53  87 118 142 182 242 301 335
#
# _framework density 18.131093
#
# number of rings (size 3 to 8) (size 9 to 14) (size 15 to 20)
#    0.000    1.857    2.143    2.143    4.000    2.857 
#    0.000    0.357    1.571    0.000    0.000    0.000 
#    0.000    0.000    0.000    0.000    0.000    0.000 
#
# Total GULP energy -312257.936186 kJ/mol
# GULP energy per Si atom -5576.034575 kJ/mol
# Density = 1.808983 g / cm^3
# Si number density = 18.131093 Si / 1000 Ang^3
#
#
#
# Elastic Constant Matrix: (Units=GPa)
#
#
# Indices 1 2 3 4 5 6 
#
# 1 79.5839 15.2696 22.4110 0.0000 0.0000 0.0000
# 2 15.2696 58.6956 26.2031 0.0000 0.0000 0.0000
# 3 22.4110 26.2031 86.7797 0.0000 0.0000 0.0000
# 4 0.0000 0.0000 0.0000 24.8853 0.0000 0.0000
# 5 0.0000 0.0000 0.0000 0.0000 30.3631 0.0000
# 6 0.0000 0.0000 0.0000 0.0000 0.0000 22.0253
#
#
#
# Elastic Compliance Matrix: (Units=1/GPa)
#
#
# Indices 1 2 3 4 5 6 
#
# 1 0.013817 -0.002313 -0.002870 0.000000 0.000000 0.000000
# 2 -0.002313 0.020079 -0.005465 0.000000 0.000000 0.000000
# 3 -0.002870 -0.005465 0.013915 0.000000 0.000000 0.000000
# 4 0.000000 0.000000 0.000000 0.040184 0.000000 0.000000
# 5 0.000000 0.000000 0.000000 0.000000 0.032935 0.000000
# 6 0.000000 0.000000 0.000000 0.000000 0.000000 0.045402
#
#
# Mechanical properties :
#
#
# Convention : Reuss Voigt Hill
#
# Bulk Modulus (GPa) = 37.71621 39.20297 38.45959
# Shear Modulus (GPa) = 25.44950 26.19977 25.82464
#
# Velocity S-wave (km/s) = 3.75058 3.80546 3.77812
# Velocity P-wave (km/s) = 6.29309 6.40138 6.34746
#
# Compressibility (1/GPa) = 0.02651380
#
# Stress axis : x y z
#
# Youngs Moduli (GPa) = 72.37268 49.80389 71.86583
#
# Poissons Ratio (x) = 0.11522 0.20624
# Poissons Ratio (y) = 0.16743 0.39277
# Poissons Ratio (z) = 0.20770 0.27219
#
# Static dielectric constant tensor:
#      x y z
#    x 1.626600 0.000000 0.000000 
#    y 0.000000 1.648670 0.000000 
#    z 0.000000 0.000000 1.625380 
# 
# From -- ./inp_files/17521.got.cif
#   From: 2010.05.17/outbox.cif.g08.bks.cpg/sg58_9_cif.got.tgz:17521.got - 2010.06.03 14:20:14.
