data_PCOD9441856
_publ_section_title
;
Structure prediction by ZEFSAII (Michael W. Deem and Ramdas Pophale) SiO2 
 PCOD9441856
Probable space group: P N N M
;
_chemical_formula_sum "Si O2"
_cell_formula_units_Z 64
_cell_length_a 14.705220
_cell_length_b 25.475222
_cell_length_c 7.281103
_cell_angle_alpha 90.000000
_cell_angle_beta 90.000000
_cell_angle_gamma 90.000000
_cell_volume 2727.637661
_symmetry_space_group_name_H-M "P N N M"
_symmetry_group_IT_number 58
_symmetry_cell_setting 'orthorhombic'
loop_
_space_group_symop_operation_xyz
x,y,z
-x,-y,z
1/2+x,1/2-y,1/2-z
1/2-x,1/2+y,1/2-z
-x,-y,-z
x,y,-z
1/2-x,1/2+y,1/2+z
1/2+x,1/2-y,1/2+z
loop_
_atom_site_type_symbol
_atom_site_label
_atom_site_fract_x
_atom_site_fract_y
_atom_site_fract_z
Si Si1 0.920127 0.862320 0.723868
Si Si2 0.885294 0.298392 0.277441
Si Si3 0.078240 0.258718 0.722309
Si Si4 0.225661 0.596607 0.789189
Si Si5 0.274777 0.301587 0.792296
Si Si6 0.442517 0.450540 0.776905
Si Si7 0.750215 0.581877 0.776289
Si Si8 0.604422 0.000746 0.724450
O O1 0.917530 0.861856 0.500000
O O2 0.930075 0.801982 0.779892
O O3 0.824721 0.887901 0.787551
O O4 0.005184 0.897824 0.779102
O O5 0.880116 0.299340 0.500000
O O6 0.834509 0.350513 0.213503
O O7 0.833937 0.245683 0.212207
O O8 0.990228 0.292275 0.223968
O O9 0.083283 0.259518 0.500000
O O10 0.171822 0.281307 0.795715
O O11 0.164855 0.549106 0.713399
O O12 0.244456 0.581161 0.000000
O O13 0.269013 0.359353 0.709601
O O14 0.311204 0.308740 0.000000
O O15 0.500000 0.500000 0.713867
O O16 0.337757 0.451828 0.722887
O O17 0.443151 0.451184 0.000000
O O18 0.842160 0.553298 0.719180
O O19 0.753819 0.584282 0.000000
O O20 0.602602 0.999179 0.500000
O O21 0.500000 0.000000 0.784945
#
# Coordination Sequence:
#
# PCOD9441856 Si02
#       8
#     8   8   8   8   8   8   8   8
#     4   9  16  28  46  70  97 127 162 203 251 301
#     4  10  21  35  51  75 107 140 172 212 261 307
#     4  10  20  34  51  72 103 139 171 209 257 306
#     4  10  19  32  53  76 100 133 173 212 254 307
#     4  10  20  34  53  77 105 136 172 212 257 306
#     4   9  15  24  43  70 100 129 159 200 254 310
#     4   9  17  29  45  70 103 134 165 209 260 305
#     4   9  18  30  45  70 103 134 167 213 262 300
#
# _framework density 23.463526000000002
#
# number of rings (size 3 to 8) (size 9 to 14) (size 15 to 20)
#    0.000    2.500    1.250    1.500    1.750    6.500 
#    0.000    0.000    0.000    1.125    0.000    0.000 
#    0.000    3.500    0.000    0.000    0.000    0.000 
#
# Total GULP energy -357765.518449 kJ/mol
# GULP energy per Si atom -5590.086226 kJ/mol
# Density = 2.341012 g / cm^3
# Si number density = 23.463526 Si / 1000 Ang^3
#
#
#
# Elastic Constant Matrix: (Units=GPa)
#
#
# Indices 1 2 3 4 5 6 
#
# 1 71.5640 -17.0405 -7.5685 0.0000 0.0000 0.0000
# 2 -17.0405 70.5618 -8.0960 0.0000 0.0000 0.0000
# 3 -7.5685 -8.0960 99.6469 0.0000 0.0000 0.0000
# 4 0.0000 0.0000 0.0000 -1.3346 0.0000 0.0000
# 5 0.0000 0.0000 0.0000 0.0000 -6.3980 0.0000
# 6 0.0000 0.0000 0.0000 0.0000 0.0000 42.3198
#
#
#
# Elastic Compliance Matrix: (Units=1/GPa)
#
#
# Indices 1 2 3 4 5 6 
#
# 1 0.015031 0.003796 0.001450 0.000000 0.000000 0.000000
# 2 0.003796 0.015264 0.001529 0.000000 0.000000 0.000000
# 3 0.001450 0.001529 0.010270 0.000000 0.000000 0.000000
# 4 0.000000 0.000000 0.000000 -0.749265 0.000000 0.000000
# 5 0.000000 0.000000 0.000000 0.000000 -0.156298 0.000000
# 6 0.000000 0.000000 0.000000 0.000000 0.000000 0.023630
#
#
# Mechanical properties :
#
#
# Convention : Reuss Voigt Hill
#
# Bulk Modulus (GPa) = 18.47935 19.59584 19.03760
# Shear Modulus (GPa) = -5.97457 25.21594 9.62069
#
# Velocity S-wave (km/s) = -1.59745 3.28180 2.02711
# Velocity P-wave (km/s) = 2.11906 4.76760 3.68920
#
# Compressibility (1/GPa) = 0.05411446
#
# Stress axis : x y z
#
# Youngs Moduli (GPa) = 66.52997 65.51302 97.37322
#
# Poissons Ratio (x) = -0.24871 -0.14120
# Poissons Ratio (y) = -0.25257 -0.14884
# Poissons Ratio (z) = -0.09647 -0.10014
#
# Static dielectric constant tensor:
#      x y z
#    x 1.816750 0.000000 0.000000 
#    y 0.000000 2.061400 0.000000 
#    z 0.000000 0.000000 2.196680 
# 
# From -- ./inp_files/14844.got.cif
#   From: 2010.05.17/outbox.cif.g08.bks.cpg/sg58_8_cif.got.tgz:14844.got - 2010.06.03 14:20:14.
