data_PCOD9441931
_publ_section_title
;
Structure prediction by ZEFSAII (Michael W. Deem and Ramdas Pophale) SiO2 
 PCOD9441931
Probable space group: P N N M
;
_chemical_formula_sum "Si O2"
_cell_formula_units_Z 56
_cell_length_a 15.167410
_cell_length_b 22.536135
_cell_length_c 8.124209
_cell_angle_alpha 90.000000
_cell_angle_beta 90.000000
_cell_angle_gamma 90.000000
_cell_volume 2776.974869
_symmetry_space_group_name_H-M "P N N M"
_symmetry_group_IT_number 58
_symmetry_cell_setting 'orthorhombic'
loop_
_space_group_symop_operation_xyz
x,y,z
-x,-y,z
1/2+x,1/2-y,1/2-z
1/2-x,1/2+y,1/2-z
-x,-y,-z
x,y,-z
1/2-x,1/2+y,1/2+z
1/2+x,1/2-y,1/2+z
loop_
_atom_site_type_symbol
_atom_site_label
_atom_site_fract_x
_atom_site_fract_y
_atom_site_fract_z
Si Si1 0.666592 0.278853 0.802373
Si Si2 0.644108 0.458416 0.191718
Si Si3 0.507380 0.361264 0.198143
Si Si4 0.484528 0.068552 0.201676
Si Si5 0.798774 0.379129 0.308353
Si Si6 0.837319 0.087756 0.806308
Si Si7 0.345065 0.856123 0.798757
O O1 0.576680 0.311416 0.746726
O O2 0.749958 0.320626 0.760830
O O3 0.665914 0.211567 0.741049
O O4 0.662743 0.276896 0.000000
O O5 0.557441 0.422424 0.243397
O O6 0.727929 0.431959 0.286041
O O7 0.635538 0.527853 0.215361
O O8 0.658206 0.443713 0.000000
O O9 0.411116 0.362587 0.274793
O O10 0.498366 0.358265 0.000000
O O11 0.392265 0.097558 0.259619
O O12 0.566338 0.110029 0.252075
O O13 0.500000 0.000000 0.253197
O O14 0.482080 0.067489 0.000000
O O15 0.812638 0.367281 0.500000
O O16 0.741601 0.108061 0.748294
O O17 0.833011 0.074950 0.000000
O O18 0.345754 0.855012 0.000000
#
# Coordination Sequence:
#
# PCOD9441931 Si02
#       7
#     8   8   8   8   8   8   8
#     4   9  19  37  56  73 102 144 180 210 256 322
#     4  10  20  35  54  76 107 143 172 203 253 321
#     4   9  19  34  52  73 100 138 176 208 252 314
#     4   9  17  31  53  80 107 136 175 221 265 314
#     4  10  19  32  56  84 105 131 172 223 267 303
#     4  11  21  32  52  80 106 134 171 219 265 301
#     4   9  19  35  53  75 105 142 180 215 260 318
#
# _framework density 20.165828999999999
#
# number of rings (size 3 to 8) (size 9 to 14) (size 15 to 20)
#    0.000    2.429    0.000    3.429    0.000    8.000 
#    0.000    2.857    0.000   11.143    0.000    0.000 
#    0.000    0.000    0.000    0.000    0.000    0.000 
#
# Total GULP energy -312462.970023 kJ/mol
# GULP energy per Si atom -5579.695893 kJ/mol
# Density = 2.011993 g / cm^3
# Si number density = 20.165829 Si / 1000 Ang^3
#
#
#
# Elastic Constant Matrix: (Units=GPa)
#
#
# Indices 1 2 3 4 5 6 
#
# 1 136.4638 25.9991 1.7608 0.0000 0.0000 0.0000
# 2 25.9991 84.5447 1.9204 0.0000 0.0000 0.0000
# 3 1.7608 1.9204 6.9499 0.0000 0.0000 0.0000
# 4 0.0000 0.0000 0.0000 12.8266 0.0000 0.0000
# 5 0.0000 0.0000 0.0000 0.0000 42.0887 0.0000
# 6 0.0000 0.0000 0.0000 0.0000 0.0000 10.6615
#
#
#
# Elastic Compliance Matrix: (Units=1/GPa)
#
#
# Indices 1 2 3 4 5 6 
#
# 1 0.007796 -0.002367 -0.001321 0.000000 0.000000 0.000000
# 2 -0.002367 0.012622 -0.002888 0.000000 0.000000 0.000000
# 3 -0.001321 -0.002888 0.145021 0.000000 0.000000 0.000000
# 4 0.000000 0.000000 0.000000 0.077963 0.000000 0.000000
# 5 0.000000 0.000000 0.000000 0.000000 0.023759 0.000000
# 6 0.000000 0.000000 0.000000 0.000000 0.000000 0.093796
#
#
# Mechanical properties :
#
#
# Convention : Reuss Voigt Hill
#
# Bulk Modulus (GPa) = 6.56661 31.92432 19.24546
# Shear Modulus (GPa) = 11.76828 26.33389 19.05109
#
# Velocity S-wave (km/s) = 2.41835 3.61760 3.07697
# Velocity P-wave (km/s) = 3.32585 5.77188 4.71041
#
# Compressibility (1/GPa) = 0.15228566
#
# Stress axis : x y z
#
# Youngs Moduli (GPa) = 128.27030 79.22876 6.89557
#
# Poissons Ratio (x) = 0.18757 0.00911
# Poissons Ratio (y) = 0.30367 0.01991
# Poissons Ratio (z) = 0.16945 0.22880
#
# Static dielectric constant tensor:
#      x y z
#    x 1.706360 0.000000 0.000000 
#    y 0.000000 1.702080 0.000000 
#    z 0.000000 0.000000 1.724970 
# 
# From -- ./inp_files/6445.got.cif
#   From: 2010.05.17/outbox.cif.g08.bks.cpg/sg58_4_cif.got.tgz:6445.got - 2010.06.03 14:20:14.
