data_PCOD9441417
_publ_section_title
;
Structure prediction by ZEFSAII (Michael W. Deem and Ramdas Pophale) SiO2 
 PCOD9441417
Probable space group: P N N M
;
_chemical_formula_sum "Si O2"
_cell_formula_units_Z 48
_cell_length_a 11.388843
_cell_length_b 14.200856
_cell_length_c 13.441130
_cell_angle_alpha 90.000000
_cell_angle_beta 90.000000
_cell_angle_gamma 90.000000
_cell_volume 2173.851690
_symmetry_space_group_name_H-M "P N N M"
_symmetry_group_IT_number 58
_symmetry_cell_setting 'orthorhombic'
loop_
_space_group_symop_operation_xyz
x,y,z
-x,-y,z
1/2+x,1/2-y,1/2-z
1/2-x,1/2+y,1/2-z
-x,-y,-z
x,y,-z
1/2-x,1/2+y,1/2+z
1/2+x,1/2-y,1/2+z
loop_
_atom_site_type_symbol
_atom_site_label
_atom_site_fract_x
_atom_site_fract_y
_atom_site_fract_z
Si Si1 0.202962 0.862757 0.500000
Si Si2 0.628157 0.545195 0.207049
Si Si3 0.712997 0.170914 0.816053
Si Si4 0.015158 0.387601 0.000000
Si Si5 0.512024 0.887591 0.712612
Si Si6 0.630412 0.044447 0.000000
Si Si7 0.254229 0.642076 0.278375
Si Si8 0.255741 0.656995 0.500000
O O1 0.345500 0.867470 0.500000
O O2 0.174918 0.751034 0.500000
O O3 0.153943 0.914258 0.402236
O O4 0.500000 0.500000 0.214714
O O5 0.661460 0.628915 0.283170
O O6 0.714282 0.460524 0.238250
O O7 0.617617 0.148105 0.731790
O O8 0.662553 0.112062 0.907904
O O9 0.714772 0.283091 0.807423
O O10 0.000000 0.500000 0.000000
O O11 0.956278 0.354609 0.898435
O O12 0.612388 0.855577 0.788519
O O13 0.500000 0.000000 0.717164
O O14 0.500000 0.000000 0.000000
O O15 0.707094 0.949436 0.000000
O O16 0.310129 0.661691 0.387397
#
# Coordination Sequence:
#
# PCOD9441417 Si02
#       8
#     4   8   8   4   8   4   8   4
#     4  12  23  47  70 101 138 185 237 283 354 443
#     4  12  26  45  69 104 146 184 232 298 354 427
#     4  12  25  45  68 104 144 180 245 299 354 432
#     4  10  18  34  68  96 129 169 222 287 356 398
#     4  11  20  41  68  97 136 182 232 301 348 416
#     4  12  26  46  77 108 141 192 244 305 363 431
#     4  12  26  43  73 103 142 188 240 295 365 424
#     4  12  22  43  73  99 135 195 234 275 365 440
#
# _framework density 22.080624
#
# number of rings (size 3 to 8) (size 9 to 14) (size 15 to 20)
#    0.000    0.333    6.667    2.750    2.333    2.667 
#    0.000    1.667    0.000    0.000    0.000    0.000 
#    0.000    0.000    0.000    0.000    0.000    0.000 
#
# Total GULP energy -267760.393009 kJ/mol
# GULP energy per Si atom -5578.341521 kJ/mol
# Density = 2.203037 g / cm^3
# Si number density = 22.080624 Si / 1000 Ang^3
#
#
#
# Elastic Constant Matrix: (Units=GPa)
#
#
# Indices 1 2 3 4 5 6 
#
# 1 39.0497 -14.8726 -3.2012 0.0000 0.0000 0.0000
# 2 -14.8726 98.8292 32.9586 0.0000 0.0000 0.0000
# 3 -3.2012 32.9586 134.6787 0.0000 0.0000 0.0000
# 4 0.0000 0.0000 0.0000 36.6896 0.0000 0.0000
# 5 0.0000 0.0000 0.0000 0.0000 16.8603 0.0000
# 6 0.0000 0.0000 0.0000 0.0000 0.0000 23.1506
#
#
#
# Elastic Compliance Matrix: (Units=1/GPa)
#
#
# Indices 1 2 3 4 5 6 
#
# 1 0.027184 0.004220 -0.000387 0.000000 0.000000 0.000000
# 2 0.004220 0.011673 -0.002756 0.000000 0.000000 0.000000
# 3 -0.000387 -0.002756 0.008090 0.000000 0.000000 0.000000
# 4 0.000000 0.000000 0.000000 0.027256 0.000000 0.000000
# 5 0.000000 0.000000 0.000000 0.000000 0.059311 0.000000
# 6 0.000000 0.000000 0.000000 0.000000 0.000000 0.043195
#
#
# Mechanical properties :
#
#
# Convention : Reuss Voigt Hill
#
# Bulk Modulus (GPa) = 20.36621 33.59188 26.97905
# Shear Modulus (GPa) = 26.18871 32.51829 29.35350
#
# Velocity S-wave (km/s) = 3.44764 3.84175 3.65002
# Velocity P-wave (km/s) = 5.00918 5.90974 5.47800
#
# Compressibility (1/GPa) = 0.04910093
#
# Stress axis : x y z
#
# Youngs Moduli (GPa) = 36.78654 85.67020 123.60329
#
# Poissons Ratio (x) = -0.36151 0.04777
# Poissons Ratio (y) = -0.15523 0.34068
# Poissons Ratio (z) = 0.01422 0.23613
#
# Static dielectric constant tensor:
#      x y z
#    x 1.811480 0.000000 0.000000 
#    y 0.000000 1.829330 0.000000 
#    z 0.000000 0.000000 1.901700 
# 
# From -- ./inp_files/21218.got.cif
#   From: 2010.05.17/outbox.cif.g08.bks.cpg/sg58_11_cif.got.tgz:21218.got - 2010.06.03 14:20:14.
