data_PCOD9441486
_publ_section_title
;
Structure prediction by ZEFSAII (Michael W. Deem and Ramdas Pophale) SiO2 
 PCOD9441486
Probable space group: P N N M
;
_chemical_formula_sum "Si O2"
_cell_formula_units_Z 26
_cell_length_a 9.533521
_cell_length_b 7.038748
_cell_length_c 15.043110
_cell_angle_alpha 90.000000
_cell_angle_beta 90.000000
_cell_angle_gamma 90.000000
_cell_volume 1009.453634
_symmetry_space_group_name_H-M "P N N M"
_symmetry_group_IT_number 58
_symmetry_cell_setting 'orthorhombic'
loop_
_space_group_symop_operation_xyz
x,y,z
-x,-y,z
1/2+x,1/2-y,1/2-z
1/2-x,1/2+y,1/2-z
-x,-y,-z
x,y,-z
1/2-x,1/2+y,1/2+z
1/2+x,1/2-y,1/2+z
loop_
_atom_site_type_symbol
_atom_site_label
_atom_site_fract_x
_atom_site_fract_y
_atom_site_fract_z
Si Si1 0.077751 0.210473 0.500000
Si Si2 0.166566 0.519848 0.000000
Si Si3 0.827322 0.759921 0.149448
Si Si4 0.000000 0.000000 0.000000
Si Si5 0.523332 0.730868 0.808845
O O1 0.031737 0.291828 0.594169
O O2 0.249555 0.214701 0.500000
O O3 0.000000 0.000000 0.500000
O O4 0.216562 0.417280 0.911898
O O5 0.000000 0.500000 0.000000
O O6 0.681764 0.807124 0.196891
O O7 0.936902 0.703623 0.224114
O O8 0.900303 0.901352 0.079213
O O9 0.500000 0.500000 0.804052
#
# Coordination Sequence:
#
# PCOD9441486 Si02
#       5
#     4   4   8   2   8
#     4  10  18  41  63  84 131 168 238 271 324 407
#     4  11  23  38  65  99 128 184 232 279 336 413
#     4  11  23  41  69  97 143 177 229 292 347 410
#     4  10  22  44  68 100 140 186 216 294 360 414
#     4  11  22  41  67 100 134 183 231 284 341 417
#
# _framework density 25.756506000000002
#
# number of rings (size 3 to 8) (size 9 to 14) (size 15 to 20)
#    0.000    1.231    7.692    0.923    4.308    0.000 
#    0.000    0.000    0.000    1.846    0.000    0.000 
#    0.000    0.000    0.000    0.000    0.000    0.000 
#
# Total GULP energy -144907.478839 kJ/mol
# GULP energy per Si atom -5573.364571 kJ/mol
# Density = 2.569788 g / cm^3
# Si number density = 25.756506 Si / 1000 Ang^3
#
#
#
# Elastic Constant Matrix: (Units=GPa)
#
#
# Indices 1 2 3 4 5 6 
#
# 1 230.2566 19.5621 97.4475 0.0000 0.0000 0.0000
# 2 19.5621 96.1922 27.2750 0.0000 0.0000 0.0000
# 3 97.4475 27.2750 228.1387 0.0000 0.0000 0.0000
# 4 0.0000 0.0000 0.0000 -17.0713 0.0000 0.0000
# 5 0.0000 0.0000 0.0000 0.0000 31.2845 0.0000
# 6 0.0000 0.0000 0.0000 0.0000 0.0000 26.6322
#
#
#
# Elastic Compliance Matrix: (Units=1/GPa)
#
#
# Indices 1 2 3 4 5 6 
#
# 1 0.005320 -0.000453 -0.002218 0.000000 0.000000 0.000000
# 2 -0.000453 0.010799 -0.001098 0.000000 0.000000 0.000000
# 3 -0.002218 -0.001098 0.005462 0.000000 0.000000 0.000000
# 4 0.000000 0.000000 0.000000 -0.058578 0.000000 0.000000
# 5 0.000000 0.000000 0.000000 0.000000 0.031965 0.000000
# 6 0.000000 0.000000 0.000000 0.000000 0.000000 0.037548
#
#
# Mechanical properties :
#
#
# Convention : Reuss Voigt Hill
#
# Bulk Modulus (GPa) = 71.20629 93.68407 82.44518
# Shear Modulus (GPa) = 111.76704 35.52263 73.64483
#
# Velocity S-wave (km/s) = 6.59454 3.71775 5.35302
# Velocity P-wave (km/s) = 9.25688 7.40816 8.38363
#
# Compressibility (1/GPa) = 0.01404370
#
# Stress axis : x y z
#
# Youngs Moduli (GPa) = 187.95918 92.59951 183.08038
#
# Poissons Ratio (x) = 0.04194 0.40614
# Poissons Ratio (y) = 0.08514 0.20095
# Poissons Ratio (z) = 0.41696 0.10164
#
# Static dielectric constant tensor:
#      x y z
#    x 2.306760 0.000000 0.000000 
#    y 0.000000 2.164270 0.000000 
#    z 0.000000 0.000000 1.877110 
# 
# From -- ./inp_files/20571.got.cif
#   From: 2010.05.17/outbox.cif.g08.bks.cpg/sg58_11_cif.got.tgz:20571.got - 2010.06.03 14:20:14.
