data_PCOD9441370
_publ_section_title
;
Structure prediction by ZEFSAII (Michael W. Deem and Ramdas Pophale) SiO2 
 PCOD9441370
Probable space group: P N N M
;
_chemical_formula_sum "Si O2"
_cell_formula_units_Z 64
_cell_length_a 19.049195
_cell_length_b 15.333052
_cell_length_c 13.304254
_cell_angle_alpha 90.000000
_cell_angle_beta 90.000000
_cell_angle_gamma 90.000000
_cell_volume 3885.937075
_symmetry_space_group_name_H-M "P N N M"
_symmetry_group_IT_number 58
_symmetry_cell_setting 'orthorhombic'
loop_
_space_group_symop_operation_xyz
x,y,z
-x,-y,z
1/2+x,1/2-y,1/2-z
1/2-x,1/2+y,1/2-z
-x,-y,-z
x,y,-z
1/2-x,1/2+y,1/2+z
1/2+x,1/2-y,1/2+z
loop_
_atom_site_type_symbol
_atom_site_label
_atom_site_fract_x
_atom_site_fract_y
_atom_site_fract_z
Si Si1 0.211721 0.679157 0.386010
Si Si2 0.229734 0.835309 0.883655
Si Si3 0.303871 0.526215 0.308755
Si Si4 0.369565 0.178829 0.315463
Si Si5 0.449807 0.577698 0.617842
Si Si6 0.022533 0.275363 0.118830
Si Si7 0.283312 0.011572 0.616695
Si Si8 0.676406 0.179683 0.308570
O O1 0.187417 0.688402 0.500000
O O2 0.247331 0.585015 0.367799
O O3 0.151826 0.687750 0.301692
O O4 0.272805 0.750474 0.363918
O O5 0.172869 0.758391 0.867788
O O6 0.294085 0.820783 0.805748
O O7 0.196599 0.928467 0.852197
O O8 0.250937 0.837245 0.000000
O O9 0.378000 0.571727 0.322575
O O10 0.281019 0.525517 0.192918
O O11 0.451910 0.183335 0.337383
O O12 0.338093 0.088248 0.357026
O O13 0.500000 0.500000 0.649738
O O14 0.431980 0.564682 0.500000
O O15 0.485585 0.671020 0.626762
O O16 0.095063 0.297992 0.174850
O O17 0.030003 0.297072 0.000000
O O18 0.264886 0.015755 0.500000
O O19 0.312060 0.916057 0.644686
#
# Coordination Sequence:
#
# PCOD9441370 Si02
#       8
#     8   8   8   8   8   8   8   8
#     4  10  18  34  55  75 100 132 173 218 256 300
#     4  10  19  34  53  76 105 133 167 214 261 305
#     4  10  19  31  54  80 100 128 170 212 255 314
#     4  10  22  34  50  76 104 136 173 209 257 312
#     4  10  19  30  49  77 106 133 161 205 266 314
#     4  11  20  33  51  73 106 137 167 213 260 305
#     4  10  20  35  52  73 101 136 175 212 251 294
#     4  10  21  33  52  78 101 134 177 212 252 308
#
# _framework density 16.469643999999999
#
# number of rings (size 3 to 8) (size 9 to 14) (size 15 to 20)
#    0.000    1.875    1.250    4.125    0.000    1.500 
#    0.000    1.875    0.000    1.125    0.000    5.250 
#    0.000    0.000    0.000    0.000    0.000    0.000 
#
# Total GULP energy -357055.082568 kJ/mol
# GULP energy per Si atom -5578.985665 kJ/mol
# Density = 1.643216 g / cm^3
# Si number density = 16.469644 Si / 1000 Ang^3
#
#
#
# Elastic Constant Matrix: (Units=GPa)
#
#
# Indices 1 2 3 4 5 6 
#
# 1 47.2331 -7.6796 17.1100 0.0000 0.0000 0.0000
# 2 -7.6796 56.8837 6.6013 0.0000 0.0000 0.0000
# 3 17.1100 6.6013 116.4940 0.0000 0.0000 0.0000
# 4 0.0000 0.0000 0.0000 14.5101 0.0000 0.0000
# 5 0.0000 0.0000 0.0000 0.0000 10.1504 0.0000
# 6 0.0000 0.0000 0.0000 0.0000 0.0000 19.3849
#
#
#
# Elastic Compliance Matrix: (Units=1/GPa)
#
#
# Indices 1 2 3 4 5 6 
#
# 1 0.023043 0.003527 -0.003584 0.000000 0.000000 0.000000
# 2 0.003527 0.018236 -0.001551 0.000000 0.000000 0.000000
# 3 -0.003584 -0.001551 0.009198 0.000000 0.000000 0.000000
# 4 0.000000 0.000000 0.000000 0.068917 0.000000 0.000000
# 5 0.000000 0.000000 0.000000 0.000000 0.098518 0.000000
# 6 0.000000 0.000000 0.000000 0.000000 0.000000 0.051587
#
#
# Mechanical properties :
#
#
# Convention : Reuss Voigt Hill
#
# Bulk Modulus (GPa) = 21.15943 28.07491 24.61717
# Shear Modulus (GPa) = 17.33275 22.44769 19.89022
#
# Velocity S-wave (km/s) = 3.24760 3.69585 3.47895
# Velocity P-wave (km/s) = 5.19018 5.94104 5.57826
#
# Compressibility (1/GPa) = 0.04726026
#
# Stress axis : x y z
#
# Youngs Moduli (GPa) = 43.39630 54.83686 108.71341
#
# Poissons Ratio (x) = -0.19341 0.38967
# Poissons Ratio (y) = -0.15306 0.16866
# Poissons Ratio (z) = 0.15555 0.08507
#
# Static dielectric constant tensor:
#      x y z
#    x 1.524390 0.000000 0.000000 
#    y 0.000000 1.572010 0.000000 
#    z 0.000000 0.000000 1.549670 
# 
# From -- ./inp_files/15913.got.cif
#   From: 2010.05.17/outbox.cif.g08.bks.cpg/sg58_8_cif.got.tgz:15913.got - 2010.06.03 14:20:14.
