data_PCOD9441107
_publ_section_title
;
Structure prediction by ZEFSAII (Michael W. Deem and Ramdas Pophale) SiO2 
 PCOD9441107
Probable space group: P N N M
;
_chemical_formula_sum "Si O2"
_cell_formula_units_Z 56
_cell_length_a 14.713524
_cell_length_b 19.107806
_cell_length_c 9.141841
_cell_angle_alpha 90.000000
_cell_angle_beta 90.000000
_cell_angle_gamma 90.000000
_cell_volume 2570.166087
_symmetry_space_group_name_H-M "P N N M"
_symmetry_group_IT_number 58
_symmetry_cell_setting 'orthorhombic'
loop_
_space_group_symop_operation_xyz
x,y,z
-x,-y,z
1/2+x,1/2-y,1/2-z
1/2-x,1/2+y,1/2-z
-x,-y,-z
x,y,-z
1/2-x,1/2+y,1/2+z
1/2+x,1/2-y,1/2+z
loop_
_atom_site_type_symbol
_atom_site_label
_atom_site_fract_x
_atom_site_fract_y
_atom_site_fract_z
Si Si1 0.282838 0.214960 0.331428
Si Si2 0.545859 0.132597 0.171044
Si Si3 0.389139 0.645018 0.177023
Si Si4 0.442341 0.280561 0.170677
Si Si5 0.104672 0.988081 0.674152
Si Si6 0.616459 0.936392 0.669117
Si Si7 0.724114 0.061194 0.826068
O O1 0.273096 0.236427 0.500000
O O2 0.184179 0.199733 0.265115
O O3 0.349259 0.267460 0.251919
O O4 0.331437 0.138532 0.327747
O O5 0.504198 0.210207 0.184639
O O6 0.483123 0.082183 0.268660
O O7 0.652510 0.123838 0.205269
O O8 0.534916 0.112559 0.000000
O O9 0.491222 0.659139 0.228427
O O10 0.357172 0.566433 0.199986
O O11 0.392094 0.653971 0.000000
O O12 0.423595 0.291743 0.000000
O O13 0.102508 0.973168 0.500000
O O14 0.177182 0.937841 0.750502
O O15 0.000000 0.000000 0.720931
O O16 0.613947 0.959446 0.500000
O O17 0.668779 0.993560 0.765541
O O18 0.736609 0.056159 0.000000
#
# Coordination Sequence:
#
# PCOD9441107 Si02
#       7
#     8   8   8   8   8   8   8
#     4   9  17  32  53  76 104 135 173 217 260 311
#     4   9  19  33  48  75 111 143 171 209 262 320
#     4   9  17  35  59  78 101 138 176 216 263 315
#     4   9  18  34  55  76 104 140 178 214 260 316
#     4  10  21  39  60  79 102 137 183 225 268 319
#     4  10  18  30  52  79 105 137 176 214 257 312
#     4  11  21  33  51  76 109 141 172 214 265 315
#
# _framework density 21.788474999999998
#
# number of rings (size 3 to 8) (size 9 to 14) (size 15 to 20)
#    0.000    2.429    1.429    1.286    0.000    3.714 
#    2.571    1.429    0.000    0.000    0.000    0.000 
#    0.000    0.000    0.000    0.000    0.000    0.000 
#
# Total GULP energy -312621.400644 kJ/mol
# GULP energy per Si atom -5582.525011 kJ/mol
# Density = 2.173888 g / cm^3
# Si number density = 21.788475 Si / 1000 Ang^3
#
#
#
# Elastic Constant Matrix: (Units=GPa)
#
#
# Indices 1 2 3 4 5 6 
#
# 1 143.7772 6.7550 30.2369 0.0000 0.0000 0.0000
# 2 6.7550 49.4214 7.7920 0.0000 0.0000 0.0000
# 3 30.2369 7.7920 35.9759 0.0000 0.0000 0.0000
# 4 0.0000 0.0000 0.0000 -2.8687 0.0000 0.0000
# 5 0.0000 0.0000 0.0000 0.0000 35.0437 0.0000
# 6 0.0000 0.0000 0.0000 0.0000 0.0000 36.2957
#
#
#
# Elastic Compliance Matrix: (Units=1/GPa)
#
#
# Indices 1 2 3 4 5 6 
#
# 1 0.008449 -0.000036 -0.007093 0.000000 0.000000 0.000000
# 2 -0.000036 0.020950 -0.004507 0.000000 0.000000 0.000000
# 3 -0.007093 -0.004507 0.034734 0.000000 0.000000 0.000000
# 4 0.000000 0.000000 0.000000 -0.348591 0.000000 0.000000
# 5 0.000000 0.000000 0.000000 0.000000 0.028536 0.000000
# 6 0.000000 0.000000 0.000000 0.000000 0.000000 0.027551
#
#
# Mechanical properties :
#
#
# Convention : Reuss Voigt Hill
#
# Bulk Modulus (GPa) = 24.47393 35.41581 29.94487
# Shear Modulus (GPa) = -26.11256 25.98685 -0.06285
#
# Velocity S-wave (km/s) = -3.46563 3.45728 -0.17003
# Velocity P-wave (km/s) = 2.18111 5.67686 3.70604
#
# Compressibility (1/GPa) = 0.04085980
#
# Stress axis : x y z
#
# Youngs Moduli (GPa) = 118.36285 47.73343 28.79026
#
# Poissons Ratio (x) = 0.00174 0.20421
# Poissons Ratio (y) = 0.00432 0.12975
# Poissons Ratio (z) = 0.83954 0.21512
#
# Static dielectric constant tensor:
#      x y z
#    x 1.833210 0.000000 0.000000 
#    y 0.000000 1.864450 0.000000 
#    z 0.000000 0.000000 1.730940 
# 
# From -- ./inp_files/6314.got.cif
#   From: 2010.05.17/outbox.cif.g08.bks.cpg/sg58_4_cif.got.tgz:6314.got - 2010.06.03 14:20:14.
