data_PCOD9441587
_publ_section_title
;
Structure prediction by ZEFSAII (Michael W. Deem and Ramdas Pophale) SiO2 
 PCOD9441587
Probable space group: P N N M
;
_chemical_formula_sum "Si O2"
_cell_formula_units_Z 64
_cell_length_a 21.794922
_cell_length_b 17.017273
_cell_length_c 9.676098
_cell_angle_alpha 90.000000
_cell_angle_beta 90.000000
_cell_angle_gamma 90.000000
_cell_volume 3588.769319
_symmetry_space_group_name_H-M "P N N M"
_symmetry_group_IT_number 58
_symmetry_cell_setting 'orthorhombic'
loop_
_space_group_symop_operation_xyz
x,y,z
-x,-y,z
1/2+x,1/2-y,1/2-z
1/2-x,1/2+y,1/2-z
-x,-y,-z
x,y,-z
1/2-x,1/2+y,1/2+z
1/2+x,1/2-y,1/2+z
loop_
_atom_site_type_symbol
_atom_site_label
_atom_site_fract_x
_atom_site_fract_y
_atom_site_fract_z
Si Si1 0.457000 0.684337 0.744161
Si Si2 0.868798 0.421894 0.160679
Si Si3 0.004389 0.651469 0.153163
Si Si4 0.840576 0.726815 0.656799
Si Si5 0.552915 0.566481 0.151681
Si Si6 0.230077 0.127567 0.333529
Si Si7 0.128420 0.040839 0.840402
Si Si8 0.595503 0.072912 0.832846
O O1 0.481697 0.758773 0.659905
O O2 0.403895 0.722780 0.839054
O O3 0.515285 0.645406 0.818065
O O4 0.421426 0.612695 0.668709
O O5 0.923002 0.358037 0.172937
O O6 0.801272 0.388923 0.188601
O O7 0.884766 0.492038 0.264193
O O8 0.869597 0.449360 0.000000
O O9 0.968959 0.601588 0.268922
O O10 0.989236 0.619649 0.000000
O O11 0.821997 0.711993 0.500000
O O12 0.790280 0.785502 0.717414
O O13 0.857403 0.641999 0.715507
O O14 0.500000 0.500000 0.146025
O O15 0.598212 0.535624 0.269699
O O16 0.582599 0.569140 0.000000
O O17 0.217694 0.122722 0.500000
O O18 0.186224 0.068221 0.250889
O O19 0.143920 0.028185 0.000000
O O20 0.593277 0.070350 0.000000
#
# Coordination Sequence:
#
# PCOD9441587 Si02
#       8
#     8   8   8   8   8   8   8   8
#     4   9  17  29  49  75 104 132 166 210 256 299
#     4  10  21  36  54  75 101 134 168 205 252 305
#     4  10  20  34  52  75 103 134 169 210 259 311
#     4   8  15  30  52  75  97 127 168 207 243 291
#     4   9  17  29  47  71 101 137 172 205 246 299
#     4   9  18  35  55  71  93 129 171 208 246 300
#     4  10  19  30  48  74 102 132 168 211 256 301
#     4  10  20  34  54  79 104 131 167 211 255 299
#
# _framework density 17.833413
#
# number of rings (size 3 to 8) (size 9 to 14) (size 15 to 20)
#    0.000    2.625    0.000    1.875    0.000    8.750 
#    0.000    1.875    0.000    1.500    0.000    0.000 
#    0.000    0.000    0.000    0.000    0.000    0.000 
#
# Total GULP energy -356285.096399 kJ/mol
# GULP energy per Si atom -5566.954631 kJ/mol
# Density = 1.779282 g / cm^3
# Si number density = 17.833413 Si / 1000 Ang^3
#
#
#
# Elastic Constant Matrix: (Units=GPa)
#
#
# Indices 1 2 3 4 5 6 
#
# 1 104.5728 38.7138 45.7527 0.0000 0.0000 0.0000
# 2 38.7138 59.1149 25.0749 0.0000 0.0000 0.0000
# 3 45.7527 25.0749 85.2076 0.0000 0.0000 0.0000
# 4 0.0000 0.0000 0.0000 17.4221 0.0000 0.0000
# 5 0.0000 0.0000 0.0000 0.0000 19.6736 0.0000
# 6 0.0000 0.0000 0.0000 0.0000 0.0000 16.0723
#
#
#
# Elastic Compliance Matrix: (Units=1/GPa)
#
#
# Indices 1 2 3 4 5 6 
#
# 1 0.014775 -0.007211 -0.005811 0.000000 0.000000 0.000000
# 2 -0.007211 0.022848 -0.002852 0.000000 0.000000 0.000000
# 3 -0.005811 -0.002852 0.015696 0.000000 0.000000 0.000000
# 4 0.000000 0.000000 0.000000 0.057398 0.000000 0.000000
# 5 0.000000 0.000000 0.000000 0.000000 0.050830 0.000000
# 6 0.000000 0.000000 0.000000 0.000000 0.000000 0.062219
#
#
# Mechanical properties :
#
#
# Convention : Reuss Voigt Hill
#
# Bulk Modulus (GPa) = 46.35955 51.99757 49.17856
# Shear Modulus (GPa) = 19.03280 19.92384 19.47832
#
# Velocity S-wave (km/s) = 3.27043 3.34611 3.30849
# Velocity P-wave (km/s) = 6.34927 6.64449 6.49856
#
# Compressibility (1/GPa) = 0.02157053
#
# Stress axis : x y z
#
# Youngs Moduli (GPa) = 67.68246 43.76705 63.71138
#
# Poissons Ratio (x) = 0.31560 0.37025
# Poissons Ratio (y) = 0.48805 0.18170
# Poissons Ratio (z) = 0.39333 0.12482
#
# Static dielectric constant tensor:
#      x y z
#    x 1.602200 0.000000 0.000000 
#    y 0.000000 1.623020 0.000000 
#    z 0.000000 0.000000 1.624000 
# 
# From -- ./inp_files/9258.got.cif
#   From: 2010.05.17/outbox.cif.g08.bks.cpg/sg58_5_cif.got.tgz:9258.got - 2010.06.03 14:20:14.
