data_PCOD9441802
_publ_section_title
;
Structure prediction by ZEFSAII (Michael W. Deem and Ramdas Pophale) SiO2 
 PCOD9441802
Probable space group: P N N M
;
_chemical_formula_sum "Si O2"
_cell_formula_units_Z 64
_cell_length_a 14.359687
_cell_length_b 28.567464
_cell_length_c 9.109605
_cell_angle_alpha 90.000000
_cell_angle_beta 90.000000
_cell_angle_gamma 90.000000
_cell_volume 3736.940719
_symmetry_space_group_name_H-M "P N N M"
_symmetry_group_IT_number 58
_symmetry_cell_setting 'orthorhombic'
loop_
_space_group_symop_operation_xyz
x,y,z
-x,-y,z
1/2+x,1/2-y,1/2-z
1/2-x,1/2+y,1/2-z
-x,-y,-z
x,y,-z
1/2-x,1/2+y,1/2+z
1/2+x,1/2-y,1/2+z
loop_
_atom_site_type_symbol
_atom_site_label
_atom_site_fract_x
_atom_site_fract_y
_atom_site_fract_z
Si Si1 0.341361 0.634025 0.339224
Si Si2 0.525969 0.780426 0.173291
Si Si3 0.175251 0.288522 0.823543
Si Si4 0.865604 0.051473 0.340211
Si Si5 0.281674 0.370216 0.666095
Si Si6 0.466587 0.309897 0.338457
Si Si7 0.937585 0.960056 0.762887
Si Si8 0.784536 0.299654 0.825271
O O1 0.298136 0.642226 0.500000
O O2 0.434939 0.664819 0.331204
O O3 0.376782 0.580710 0.330158
O O4 0.274014 0.654080 0.215772
O O5 0.428401 0.789086 0.255549
O O6 0.544287 0.725574 0.205644
O O7 0.613719 0.804239 0.252770
O O8 0.520909 0.790176 0.000000
O O9 0.222596 0.337015 0.772277
O O10 0.231929 0.245010 0.749946
O O11 0.174627 0.283223 0.000000
O O12 0.833575 0.066125 0.500000
O O13 0.802456 0.077651 0.222623
O O14 0.976179 0.063705 0.323513
O O15 0.870899 0.995271 0.325581
O O16 0.244105 0.369242 0.500000
O O17 0.383761 0.346743 0.663130
O O18 0.461517 0.285569 0.500000
O O19 0.000000 0.000000 0.848037
O O20 0.788554 0.292309 0.000000
#
# Coordination Sequence:
#
# PCOD9441802 Si02
#       8
#     8   8   8   8   8   8   8   8
#     4  11  21  35  55  82 114 152 194 233 280 341
#     4  12  24  39  57  78 107 146 189 236 284 330
#     4  12  24  39  58  80 109 148 192 237 285 336
#     4   9  18  32  50  75 109 146 184 226 274 330
#     4  11  21  34  53  80 111 146 189 232 278 334
#     4  10  19  32  51  75 110 148 186 230 275 325
#     4   8  18  33  52  81 114 151 187 232 282 335
#     4  12  25  39  55  80 113 149 192 235 281 338
#
# _framework density 17.126308999999999
#
# number of rings (size 3 to 8) (size 9 to 14) (size 15 to 20)
#    0.750    0.500    3.750    4.500    0.000    2.250 
#    0.000    0.000    0.000    0.000    0.000    0.875 
#    0.000    6.000    0.000    0.000    0.000    0.000 
#
# Total GULP energy -356316.853814 kJ/mol
# GULP energy per Si atom -5567.450841 kJ/mol
# Density = 1.708733 g / cm^3
# Si number density = 17.126309 Si / 1000 Ang^3
#
#
#
# Elastic Constant Matrix: (Units=GPa)
#
#
# Indices 1 2 3 4 5 6 
#
# 1 69.7085 14.3054 37.5342 0.0000 0.0000 0.0000
# 2 14.3054 60.5950 25.5520 0.0000 0.0000 0.0000
# 3 37.5342 25.5520 139.8063 0.0000 0.0000 0.0000
# 4 0.0000 0.0000 0.0000 29.8479 0.0000 0.0000
# 5 0.0000 0.0000 0.0000 0.0000 20.0257 0.0000
# 6 0.0000 0.0000 0.0000 0.0000 0.0000 20.9619
#
#
#
# Elastic Compliance Matrix: (Units=1/GPa)
#
#
# Indices 1 2 3 4 5 6 
#
# 1 0.017053 -0.002270 -0.004163 0.000000 0.000000 0.000000
# 2 -0.002270 0.018183 -0.002714 0.000000 0.000000 0.000000
# 3 -0.004163 -0.002714 0.008766 0.000000 0.000000 0.000000
# 4 0.000000 0.000000 0.000000 0.033503 0.000000 0.000000
# 5 0.000000 0.000000 0.000000 0.000000 0.049936 0.000000
# 6 0.000000 0.000000 0.000000 0.000000 0.000000 0.047706
#
#
# Mechanical properties :
#
#
# Convention : Reuss Voigt Hill
#
# Bulk Modulus (GPa) = 38.89837 47.21032 43.05434
# Shear Modulus (GPa) = 24.75104 27.01500 25.88302
#
# Velocity S-wave (km/s) = 3.80571 3.97595 3.89176
# Velocity P-wave (km/s) = 6.48638 6.97878 6.73708
#
# Compressibility (1/GPa) = 0.02570802
#
# Stress axis : x y z
#
# Youngs Moduli (GPa) = 58.64032 54.99536 114.07066
#
# Poissons Ratio (x) = 0.12486 0.47492
# Poissons Ratio (y) = 0.13313 0.30956
# Poissons Ratio (z) = 0.24414 0.14925
#
# Static dielectric constant tensor:
#      x y z
#    x 1.585530 0.000000 0.000000 
#    y 0.000000 1.601550 0.000000 
#    z 0.000000 0.000000 1.625750 
# 
# From -- ./inp_files/7169.got.cif
#   From: 2010.05.17/outbox.cif.g08.bks.cpg/sg58_4_cif.got.tgz:7169.got - 2010.06.03 14:20:14.
