data_PCOD9441330
_publ_section_title
;
Structure prediction by ZEFSAII (Michael W. Deem and Ramdas Pophale) SiO2 
 PCOD9441330
Probable space group: P N N M
;
_chemical_formula_sum "Si O2"
_cell_formula_units_Z 64
_cell_length_a 13.370051
_cell_length_b 27.280102
_cell_length_c 7.634482
_cell_angle_alpha 90.000000
_cell_angle_beta 90.000000
_cell_angle_gamma 90.000000
_cell_volume 2784.573137
_symmetry_space_group_name_H-M "P N N M"
_symmetry_group_IT_number 58
_symmetry_cell_setting 'orthorhombic'
loop_
_space_group_symop_operation_xyz
x,y,z
-x,-y,z
1/2+x,1/2-y,1/2-z
1/2-x,1/2+y,1/2-z
-x,-y,-z
x,y,-z
1/2-x,1/2+y,1/2+z
1/2+x,1/2-y,1/2+z
loop_
_atom_site_type_symbol
_atom_site_label
_atom_site_fract_x
_atom_site_fract_y
_atom_site_fract_z
Si Si1 0.852252 0.872803 0.289385
Si Si2 0.926590 0.109199 0.301582
Si Si3 0.278730 0.942268 0.207885
Si Si4 0.445937 0.213852 0.789947
Si Si5 0.519269 0.107266 0.214417
Si Si6 0.649426 0.263241 0.212511
Si Si7 0.323728 0.050832 0.789105
Si Si8 0.184637 0.797050 0.198286
O O1 0.862576 0.868041 0.500000
O O2 0.828925 0.817933 0.221870
O O3 0.762107 0.909730 0.253635
O O4 0.961648 0.890564 0.221604
O O5 0.939172 0.092459 0.500000
O O6 0.833101 0.078009 0.231788
O O7 0.885125 0.164947 0.296284
O O8 0.369537 0.907799 0.274024
O O9 0.293787 0.997196 0.278436
O O10 0.294169 0.944997 0.000000
O O11 0.477886 0.160249 0.730187
O O12 0.535079 0.251343 0.752377
O O13 0.354751 0.241119 0.699749
O O14 0.428039 0.212356 0.000000
O O15 0.433785 0.068477 0.268066
O O16 0.521739 0.109194 0.000000
O O17 0.707972 0.214913 0.277963
O O18 0.660818 0.261844 0.000000
O O19 0.328416 0.048630 0.000000
O O20 0.192087 0.816243 0.000000
#
# Coordination Sequence:
#
# PCOD9441330 Si02
#       8
#     8   8   8   8   8   8   8   8
#     4  10  21  39  59  79 114 160 197 235 289 351
#     4  11  23  40  60  82 115 157 200 241 286 349
#     4  10  21  39  62  86 116 153 194 245 300 350
#     4  10  18  33  55  79 111 149 187 222 270 338
#     4   9  18  35  61  89 119 155 191 235 296 361
#     4   9  18  34  54  77 110 152 188 220 275 342
#     4  10  21  37  60  90 117 147 195 249 298 347
#     4  11  21  34  56  84 113 147 188 235 284 337
#
# _framework density 22.983775000000001
#
# number of rings (size 3 to 8) (size 9 to 14) (size 15 to 20)
#    0.000    2.000    1.250    2.625    0.000    5.500 
#    0.000    6.875    0.000    1.500    0.000    0.000 
#    0.000    0.000    0.000    0.000    0.000    0.000 
#
# Total GULP energy -357200.247869 kJ/mol
# GULP energy per Si atom -5581.253873 kJ/mol
# Density = 2.293146 g / cm^3
# Si number density = 22.983775 Si / 1000 Ang^3
#
#
#
# Elastic Constant Matrix: (Units=GPa)
#
#
# Indices 1 2 3 4 5 6 
#
# 1 58.1616 -1.8016 -7.4909 0.0000 0.0000 0.0000
# 2 -1.8016 81.0377 -2.3752 0.0000 0.0000 0.0000
# 3 -7.4909 -2.3752 39.7975 0.0000 0.0000 0.0000
# 4 0.0000 0.0000 0.0000 15.5956 0.0000 0.0000
# 5 0.0000 0.0000 0.0000 0.0000 -872.8608 0.0000
# 6 0.0000 0.0000 0.0000 0.0000 0.0000 33.4312
#
#
#
# Elastic Compliance Matrix: (Units=1/GPa)
#
#
# Indices 1 2 3 4 5 6 
#
# 1 0.017640 0.000490 0.003350 0.000000 0.000000 0.000000
# 2 0.000490 0.012375 0.000831 0.000000 0.000000 0.000000
# 3 0.003350 0.000831 0.025807 0.000000 0.000000 0.000000
# 4 0.000000 0.000000 0.000000 0.064120 0.000000 0.000000
# 5 0.000000 0.000000 0.000000 0.000000 -0.001146 0.000000
# 6 0.000000 0.000000 0.000000 0.000000 0.000000 0.029912
#
#
# Mechanical properties :
#
#
# Convention : Reuss Voigt Hill
#
# Bulk Modulus (GPa) = 15.34589 17.29572 16.32080
# Shear Modulus (GPa) = 31.03868 -152.05582 -60.50857
#
# Velocity S-wave (km/s) = 3.67885 -8.14257 -5.13652
# Velocity P-wave (km/s) = 4.97359 8.99225 5.29736
#
# Compressibility (1/GPa) = 0.06516404
#
# Stress axis : x y z
#
# Youngs Moduli (GPa) = 56.68914 80.80683 38.74880
#
# Poissons Ratio (x) = -0.03962 -0.12979
# Poissons Ratio (y) = -0.02780 -0.03219
# Poissons Ratio (z) = -0.18988 -0.06714
#
# Static dielectric constant tensor:
#      x y z
#    x 1.879120 0.000000 0.000000 
#    y 0.000000 1.849170 0.000000 
#    z 0.000000 0.000000 1.858270 
# 
# From -- ./inp_files/4679.got.cif
#   From: 2010.05.17/outbox.cif.g08.bks.cpg/sg58_3_cif.got.tgz:4679.got - 2010.06.03 14:20:14.
