data_PCOD9441598
_publ_section_title
;
Structure prediction by ZEFSAII (Michael W. Deem and Ramdas Pophale) SiO2 
 PCOD9441598
Probable space group: P N N M
;
_chemical_formula_sum "Si O2"
_cell_formula_units_Z 64
_cell_length_a 8.938403
_cell_length_b 29.422470
_cell_length_c 13.917715
_cell_angle_alpha 90.000000
_cell_angle_beta 90.000000
_cell_angle_gamma 90.000000
_cell_volume 3660.218394
_symmetry_space_group_name_H-M "P N N M"
_symmetry_group_IT_number 58
_symmetry_cell_setting 'orthorhombic'
loop_
_space_group_symop_operation_xyz
x,y,z
-x,-y,z
1/2+x,1/2-y,1/2-z
1/2-x,1/2+y,1/2-z
-x,-y,-z
x,y,-z
1/2-x,1/2+y,1/2+z
1/2+x,1/2-y,1/2+z
loop_
_atom_site_type_symbol
_atom_site_label
_atom_site_fract_x
_atom_site_fract_y
_atom_site_fract_z
Si Si1 0.730899 0.072334 0.890291
Si Si2 0.962955 0.311612 0.114256
Si Si3 0.844709 0.214090 0.116336
Si Si4 0.969317 0.125430 0.216172
Si Si5 0.548467 0.048349 0.714698
Si Si6 0.237414 0.374538 0.885855
Si Si7 0.815390 0.374134 0.248592
Si Si8 0.953417 0.667996 0.390396
O O1 0.891471 0.086078 0.847503
O O2 0.644328 0.041905 0.812754
O O3 0.641014 0.120662 0.889160
O O4 0.734958 0.056073 0.000000
O O5 0.914889 0.261782 0.148509
O O6 0.839749 0.347483 0.149297
O O7 0.123529 0.333372 0.142632
O O8 0.966032 0.309644 0.000000
O O9 0.934246 0.172813 0.163326
O O10 0.668443 0.205946 0.139316
O O11 0.854017 0.210643 0.000000
O O12 0.882208 0.126860 0.318112
O O13 0.144558 0.119202 0.226694
O O14 0.647425 0.079798 0.644221
O O15 0.405006 0.078807 0.741612
O O16 0.500000 0.000000 0.674664
O O17 0.265514 0.372945 0.000000
O O18 0.905644 0.341763 0.323338
O O19 0.000061 0.676845 0.500000
#
# Coordination Sequence:
#
# PCOD9441598 Si02
#       8
#     8   8   8   8   8   8   8   8
#     4   8  15  30  49  69  97 130 159 193 243 296
#     4   9  18  33  51  70  95 129 169 208 243 286
#     4   9  17  31  51  73  98 131 168 202 239 286
#     4  10  19  30  49  73 101 133 162 199 243 295
#     4   9  18  34  55  75  94 124 169 213 254 304
#     4   9  19  36  54  72  99 135 169 204 252 301
#     4  10  20  31  48  74 100 128 163 206 253 296
#     4   8  15  29  48  68  93 126 161 195 232 278
#
# _framework density 17.485296000000002
#
# number of rings (size 3 to 8) (size 9 to 14) (size 15 to 20)
#    0.000    3.000    0.000    3.375    0.000    4.000 
#    0.000    2.500    0.000    6.750    0.000    0.000 
#    0.000    0.000    0.000    0.000    0.000    0.000 
#
# Total GULP energy -356445.810912 kJ/mol
# GULP energy per Si atom -5569.465795 kJ/mol
# Density = 1.744550 g / cm^3
# Si number density = 17.485296 Si / 1000 Ang^3
#
#
#
# Elastic Constant Matrix: (Units=GPa)
#
#
# Indices 1 2 3 4 5 6 
#
# 1 111.7349 21.4825 24.3164 0.0000 0.0000 0.0000
# 2 21.4825 63.1741 10.2516 0.0000 0.0000 0.0000
# 3 24.3164 10.2516 60.6862 0.0000 0.0000 0.0000
# 4 0.0000 0.0000 0.0000 14.4851 0.0000 0.0000
# 5 0.0000 0.0000 0.0000 0.0000 11.0157 0.0000
# 6 0.0000 0.0000 0.0000 0.0000 0.0000 8.0657
#
#
#
# Elastic Compliance Matrix: (Units=1/GPa)
#
#
# Indices 1 2 3 4 5 6 
#
# 1 0.010301 -0.002913 -0.003635 0.000000 0.000000 0.000000
# 2 -0.002913 0.017099 -0.001721 0.000000 0.000000 0.000000
# 3 -0.003635 -0.001721 0.018226 0.000000 0.000000 0.000000
# 4 0.000000 0.000000 0.000000 0.069036 0.000000 0.000000
# 5 0.000000 0.000000 0.000000 0.000000 0.090780 0.000000
# 6 0.000000 0.000000 0.000000 0.000000 0.000000 0.123982
#
#
# Mechanical properties :
#
#
# Convention : Reuss Voigt Hill
#
# Bulk Modulus (GPa) = 34.38032 38.63290 36.50661
# Shear Modulus (GPa) = 14.05843 18.68294 16.37068
#
# Velocity S-wave (km/s) = 2.83859 3.27233 3.06315
# Velocity P-wave (km/s) = 5.51802 6.03490 5.78224
#
# Compressibility (1/GPa) = 0.02908641
#
# Stress axis : x y z
#
# Youngs Moduli (GPa) = 97.07831 58.48242 54.86763
#
# Poissons Ratio (x) = 0.17035 0.19947
# Poissons Ratio (y) = 0.28278 0.09445
# Poissons Ratio (z) = 0.35292 0.10067
#
# Static dielectric constant tensor:
#      x y z
#    x 1.589270 0.000000 0.000000 
#    y 0.000000 1.590590 0.000000 
#    z 0.000000 0.000000 1.631620 
# 
# From -- ./inp_files/20421.got.cif
#   From: 2010.05.17/outbox.cif.g08.bks.cpg/sg58_11_cif.got.tgz:20421.got - 2010.06.03 14:20:14.
