data_PCOD9441885
_publ_section_title
;
Structure prediction by ZEFSAII (Michael W. Deem and Ramdas Pophale) SiO2 
 PCOD9441885
Probable space group: P N N M
;
_chemical_formula_sum "Si O2"
_cell_formula_units_Z 52
_cell_length_a 19.958479
_cell_length_b 15.138817
_cell_length_c 8.506437
_cell_angle_alpha 90.000000
_cell_angle_beta 90.000000
_cell_angle_gamma 90.000000
_cell_volume 2570.200895
_symmetry_space_group_name_H-M "P N N M"
_symmetry_group_IT_number 58
_symmetry_cell_setting 'orthorhombic'
loop_
_space_group_symop_operation_xyz
x,y,z
-x,-y,z
1/2+x,1/2-y,1/2-z
1/2-x,1/2+y,1/2-z
-x,-y,-z
x,y,-z
1/2-x,1/2+y,1/2+z
1/2+x,1/2-y,1/2+z
loop_
_atom_site_type_symbol
_atom_site_label
_atom_site_fract_x
_atom_site_fract_y
_atom_site_fract_z
Si Si1 0.938006 0.169442 0.688152
Si Si2 0.286248 0.275800 0.811473
Si Si3 0.127997 0.109934 0.673484
Si Si4 0.000000 0.000000 0.260889
Si Si5 0.665604 0.103722 0.187317
Si Si6 0.443578 0.773055 0.317483
Si Si7 0.735507 0.927520 0.810702
O O1 0.943861 0.146315 0.500000
O O2 0.861158 0.190394 0.720899
O O3 0.964329 0.089483 0.799268
O O4 0.989501 0.249400 0.720453
O O5 0.228478 0.333515 0.731645
O O6 0.282717 0.172641 0.765554
O O7 0.275522 0.280898 0.000000
O O8 0.142345 0.146280 0.500000
O O9 0.064414 0.046103 0.662827
O O10 0.106800 0.190394 0.785087
O O11 0.191288 0.057716 0.738113
O O12 0.598478 0.142503 0.263221
O O13 0.685291 0.004700 0.239355
O O14 0.657458 0.104405 0.000000
O O15 0.459835 0.778076 0.500000
O O16 0.740038 0.930878 0.000000
#
# Coordination Sequence:
#
# PCOD9441885 Si02
#       7
#     8   8   8   4   8   8   8
#     4  10  20  36  58  83 115 155 195 241 299 363
#     4  10  21  39  61  86 120 158 195 244 303 363
#     4  11  20  34  57  84 116 154 192 237 293 360
#     4  10  19  32  53  86 119 146 191 240 291 364
#     4  11  22  37  59  86 116 154 199 245 295 356
#     4  11  22  37  56  80 114 153 192 241 298 349
#     4  10  22  38  57  85 119 153 196 247 296 355
#
# _framework density 20.231881000000001
#
# number of rings (size 3 to 8) (size 9 to 14) (size 15 to 20)
#    0.000    1.538    1.538    5.538    0.000    3.077 
#    0.000   11.923    0.000    4.615    0.000    0.000 
#    0.000    0.000    0.000    0.000    0.000    0.000 
#
# Total GULP energy -290007.460541 kJ/mol
# GULP energy per Si atom -5577.066549 kJ/mol
# Density = 2.018583 g / cm^3
# Si number density = 20.231881 Si / 1000 Ang^3
#
#
#
# Elastic Constant Matrix: (Units=GPa)
#
#
# Indices 1 2 3 4 5 6 
#
# 1 64.9419 5.9664 7.3881 0.0000 0.0000 0.0000
# 2 5.9664 69.9423 13.7211 0.0000 0.0000 0.0000
# 3 7.3881 13.7211 36.6388 0.0000 0.0000 0.0000
# 4 0.0000 0.0000 0.0000 -69.6585 0.0000 0.0000
# 5 0.0000 0.0000 0.0000 0.0000 12.9407 0.0000
# 6 0.0000 0.0000 0.0000 0.0000 0.0000 30.4189
#
#
#
# Elastic Compliance Matrix: (Units=1/GPa)
#
#
# Indices 1 2 3 4 5 6 
#
# 1 0.015799 -0.000780 -0.002894 0.000000 0.000000 0.000000
# 2 -0.000780 0.015470 -0.005636 0.000000 0.000000 0.000000
# 3 -0.002894 -0.005636 0.029988 0.000000 0.000000 0.000000
# 4 0.000000 0.000000 0.000000 -0.014356 0.000000 0.000000
# 5 0.000000 0.000000 0.000000 0.000000 0.077275 0.000000
# 6 0.000000 0.000000 0.000000 0.000000 0.000000 0.032874
#
#
# Mechanical properties :
#
#
# Convention : Reuss Voigt Hill
#
# Bulk Modulus (GPa) = 23.45388 25.07493 24.26440
# Shear Modulus (GPa) = 26.33207 4.37005 15.35106
#
# Velocity S-wave (km/s) = 3.61156 1.47128 2.75754
# Velocity P-wave (km/s) = 5.38599 3.91240 4.70722
#
# Compressibility (1/GPa) = 0.04263688
#
# Stress axis : x y z
#
# Youngs Moduli (GPa) = 63.29414 64.64239 33.34707
#
# Poissons Ratio (x) = 0.05043 0.09650
# Poissons Ratio (y) = 0.04937 0.18795
# Poissons Ratio (z) = 0.18316 0.36433
#
# Static dielectric constant tensor:
#      x y z
#    x 1.699280 0.000000 0.000000 
#    y 0.000000 1.753160 0.000000 
#    z 0.000000 0.000000 1.695260 
# 
# From -- ./inp_files/6145.got.cif
#   From: 2010.05.17/outbox.cif.g08.bks.cpg/sg58_4_cif.got.tgz:6145.got - 2010.06.03 14:20:14.
