data_PCOD9441965
_publ_section_title
;
Structure prediction by ZEFSAII (Michael W. Deem and Ramdas Pophale) SiO2 
 PCOD9441965
Probable space group: P N N M
;
_chemical_formula_sum "Si O2"
_cell_formula_units_Z 56
_cell_length_a 15.085672
_cell_length_b 21.231356
_cell_length_c 9.431908
_cell_angle_alpha 90.000000
_cell_angle_beta 90.000000
_cell_angle_gamma 90.000000
_cell_volume 3020.938954
_symmetry_space_group_name_H-M "P N N M"
_symmetry_group_IT_number 58
_symmetry_cell_setting 'orthorhombic'
loop_
_space_group_symop_operation_xyz
x,y,z
-x,-y,z
1/2+x,1/2-y,1/2-z
1/2-x,1/2+y,1/2-z
-x,-y,-z
x,y,-z
1/2-x,1/2+y,1/2+z
1/2+x,1/2-y,1/2+z
loop_
_atom_site_type_symbol
_atom_site_label
_atom_site_fract_x
_atom_site_fract_y
_atom_site_fract_z
Si Si1 0.476193 0.228353 0.835521
Si Si2 0.762256 0.101620 0.170299
Si Si3 0.564686 0.627658 0.160131
Si Si4 0.319706 0.763566 0.828285
Si Si5 0.063212 0.060906 0.156537
Si Si6 0.674761 0.841487 0.670835
Si Si7 0.271977 0.035352 0.835297
O O1 0.432106 0.297204 0.836788
O O2 0.577434 0.238092 0.785289
O O3 0.416146 0.185300 0.736262
O O4 0.477880 0.205424 0.000000
O O5 0.858003 0.100878 0.242429
O O6 0.717726 0.167661 0.212231
O O7 0.710272 0.037327 0.206358
O O8 0.773042 0.101158 0.000000
O O9 0.470331 0.606569 0.221439
O O10 0.575276 0.605020 0.000000
O O11 0.254791 0.706542 0.782876
O O12 0.319465 0.760718 0.000000
O O13 0.165179 0.042551 0.168878
O O14 0.049616 0.089779 0.000000
O O15 0.000000 0.000000 0.164360
O O16 0.672379 0.842380 0.500000
O O17 0.690544 0.910481 0.735404
O O18 0.299400 0.044888 0.000000
#
# Coordination Sequence:
#
# PCOD9441965 Si02
#       7
#     8   8   8   8   8   8   8
#     4  10  21  38  58  84 115 147 190 242 291 342
#     4  10  19  37  60  80 109 150 197 236 277 341
#     4  11  21  32  52  82 117 148 180 236 295 343
#     4   9  19  37  62  85 110 149 197 241 281 334
#     4  10  19  33  52  77 111 150 190 230 276 344
#     4  11  22  38  61  87 117 152 189 237 291 346
#     4  10  21  36  56  81 113 151 189 238 289 339
#
# _framework density 18.537284
#
# number of rings (size 3 to 8) (size 9 to 14) (size 15 to 20)
#    0.000    1.857    2.857    1.714    0.000    3.143 
#    0.000    2.857    0.000    4.286    0.000    0.000 
#    0.000    0.000    0.000    0.000    0.000    0.000 
#
# Total GULP energy -312359.851881 kJ/mol
# GULP energy per Si atom -5577.854498 kJ/mol
# Density = 1.849509 g / cm^3
# Si number density = 18.537284 Si / 1000 Ang^3
#
#
#
# Elastic Constant Matrix: (Units=GPa)
#
#
# Indices 1 2 3 4 5 6 
#
# 1 52.9750 12.5284 14.1708 0.0000 0.0000 0.0000
# 2 12.5284 91.3670 35.4426 0.0000 0.0000 0.0000
# 3 14.1708 35.4426 43.9392 0.0000 0.0000 0.0000
# 4 0.0000 0.0000 0.0000 25.5417 0.0000 0.0000
# 5 0.0000 0.0000 0.0000 0.0000 24.2680 0.0000
# 6 0.0000 0.0000 0.0000 0.0000 0.0000 29.1685
#
#
#
# Elastic Compliance Matrix: (Units=1/GPa)
#
#
# Indices 1 2 3 4 5 6 
#
# 1 0.020667 -0.000361 -0.006374 0.000000 0.000000 0.000000
# 2 -0.000361 0.015935 -0.012737 0.000000 0.000000 0.000000
# 3 -0.006374 -0.012737 0.035089 0.000000 0.000000 0.000000
# 4 0.000000 0.000000 0.000000 0.039152 0.000000 0.000000
# 5 0.000000 0.000000 0.000000 0.000000 0.041207 0.000000
# 6 0.000000 0.000000 0.000000 0.000000 0.000000 0.034284
#
#
# Mechanical properties :
#
#
# Convention : Reuss Voigt Hill
#
# Bulk Modulus (GPa) = 30.53804 34.72942 32.63373
# Shear Modulus (GPa) = 21.16904 24.20493 22.68699
#
# Velocity S-wave (km/s) = 3.38297 3.61743 3.50216
# Velocity P-wave (km/s) = 5.63639 6.01858 5.83062
#
# Compressibility (1/GPa) = 0.03274604
#
# Stress axis : x y z
#
# Youngs Moduli (GPa) = 48.38562 62.75310 28.49920
#
# Poissons Ratio (x) = 0.02268 0.18165
# Poissons Ratio (y) = 0.01749 0.36301
# Poissons Ratio (z) = 0.30840 0.79931
#
# Static dielectric constant tensor:
#      x y z
#    x 1.636110 0.000000 0.000000 
#    y 0.000000 1.671700 0.000000 
#    z 0.000000 0.000000 1.638790 
# 
# From -- ./inp_files/6296.got.cif
#   From: 2010.05.17/outbox.cif.g08.bks.cpg/sg58_4_cif.got.tgz:6296.got - 2010.06.03 14:20:14.
