data_PCOD9441613
_publ_section_title
;
Structure prediction by ZEFSAII (Michael W. Deem and Ramdas Pophale) SiO2 
 PCOD9441613
Probable space group: P N N M
;
_chemical_formula_sum "Si O2"
_cell_formula_units_Z 48
_cell_length_a 14.442603
_cell_length_b 21.163633
_cell_length_c 7.443047
_cell_angle_alpha 90.000000
_cell_angle_beta 90.000000
_cell_angle_gamma 90.000000
_cell_volume 2275.026484
_symmetry_space_group_name_H-M "P N N M"
_symmetry_group_IT_number 58
_symmetry_cell_setting 'orthorhombic'
loop_
_space_group_symop_operation_xyz
x,y,z
-x,-y,z
1/2+x,1/2-y,1/2-z
1/2-x,1/2+y,1/2-z
-x,-y,-z
x,y,-z
1/2-x,1/2+y,1/2+z
1/2+x,1/2-y,1/2+z
loop_
_atom_site_type_symbol
_atom_site_label
_atom_site_fract_x
_atom_site_fract_y
_atom_site_fract_z
Si Si1 0.545108 0.937312 0.210370
Si Si2 0.063000 0.058667 0.281150
Si Si3 0.747920 0.137467 0.284883
Si Si4 0.740052 0.991242 0.282681
Si Si5 0.049006 0.818285 0.279896
Si Si6 0.952883 0.689566 0.285136
O O1 0.653435 0.949568 0.224498
O O2 0.505788 0.872448 0.286584
O O3 0.500000 0.000000 0.292477
O O4 0.518756 0.936048 0.000000
O O5 0.063765 0.059820 0.500000
O O6 0.166221 0.042614 0.222447
O O7 0.015906 0.123475 0.223439
O O8 0.000000 0.000000 0.226350
O O9 0.755483 0.133042 0.500000
O O10 0.845105 0.167745 0.221754
O O11 0.656355 0.178437 0.246359
O O12 0.735368 0.064624 0.220097
O O13 0.740120 0.993348 0.500000
O O14 0.050594 0.817803 0.500000
O O15 0.001633 0.753311 0.218101
O O16 0.964664 0.691714 0.500000
#
# Coordination Sequence:
#
# PCOD9441613 Si02
#       6
#     8   8   8   8   8   8
#     4  10  20  34  50  70 101 140 176 205 242 300
#     4   9  15  28  51  79 104 126 161 209 257 303
#     4  10  19  33  54  78 102 131 168 214 261 300
#     4  10  19  30  53  83 103 126 168 219 260 293
#     4   9  18  33  53  76 104 136 169 206 255 312
#     4  10  21  36  53  74 103 141 175 204 248 308
#
# _framework density 21.098656999999999
#
# number of rings (size 3 to 8) (size 9 to 14) (size 15 to 20)
#    0.000    2.333    3.333    0.000    0.000    2.333 
#    0.000    0.833    0.000    1.500    0.000    0.000 
#    0.000    0.000    0.000    0.000    0.000    0.000 
#
# Total GULP energy -267976.994874 kJ/mol
# GULP energy per Si atom -5582.854060 kJ/mol
# Density = 2.105064 g / cm^3
# Si number density = 21.098657 Si / 1000 Ang^3
#
#
#
# Elastic Constant Matrix: (Units=GPa)
#
#
# Indices 1 2 3 4 5 6 
#
# 1 167.5681 103.0831 -15.8749 0.0000 0.0000 0.0000
# 2 103.0831 197.9773 7.8057 0.0000 0.0000 0.0000
# 3 -15.8749 7.8057 63.8983 0.0000 0.0000 0.0000
# 4 0.0000 0.0000 0.0000 -13.6595 0.0000 0.0000
# 5 0.0000 0.0000 0.0000 0.0000 11.6457 0.0000
# 6 0.0000 0.0000 0.0000 0.0000 0.0000 34.8598
#
#
#
# Elastic Compliance Matrix: (Units=1/GPa)
#
#
# Indices 1 2 3 4 5 6 
#
# 1 0.009290 -0.004952 0.002913 0.000000 0.000000 0.000000
# 2 -0.004952 0.007715 -0.002173 0.000000 0.000000 0.000000
# 3 0.002913 -0.002173 0.016639 0.000000 0.000000 0.000000
# 4 0.000000 0.000000 0.000000 -0.073209 0.000000 0.000000
# 5 0.000000 0.000000 0.000000 0.000000 0.085868 0.000000
# 6 0.000000 0.000000 0.000000 0.000000 0.000000 0.028686
#
#
# Mechanical properties :
#
#
# Convention : Reuss Voigt Hill
#
# Bulk Modulus (GPa) = 39.65021 68.83017 54.24019
# Shear Modulus (GPa) = 54.45446 28.86454 41.65950
#
# Velocity S-wave (km/s) = 5.08581 3.70276 4.44837
# Velocity P-wave (km/s) = 7.30211 7.13964 7.22133
#
# Compressibility (1/GPa) = 0.02522055
#
# Stress axis : x y z
#
# Youngs Moduli (GPa) = 107.64256 129.61506 60.09990
#
# Poissons Ratio (x) = 0.64185 -0.17507
# Poissons Ratio (y) = 0.53304 0.13058
# Poissons Ratio (z) = -0.31356 0.28162
#
# Static dielectric constant tensor:
#      x y z
#    x 7.098290 0.000000 0.000000 
#    y 0.000000 1.740010 0.000000 
#    z 0.000000 0.000000 1.807210 
# 
# From -- ./inp_files/5909.got.cif
#   From: 2010.05.17/outbox.cif.g08.bks.cpg/sg58_3_cif.got.tgz:5909.got - 2010.06.03 14:20:14.
