data_PCOD9441694
_publ_section_title
;
Structure prediction by ZEFSAII (Michael W. Deem and Ramdas Pophale) SiO2 
 PCOD9441694
Probable space group: P N N M
;
_chemical_formula_sum "Si O2"
_cell_formula_units_Z 64
_cell_length_a 20.012154
_cell_length_b 20.610189
_cell_length_c 7.562081
_cell_angle_alpha 90.000000
_cell_angle_beta 90.000000
_cell_angle_gamma 90.000000
_cell_volume 3119.012646
_symmetry_space_group_name_H-M "P N N M"
_symmetry_group_IT_number 58
_symmetry_cell_setting 'orthorhombic'
loop_
_space_group_symop_operation_xyz
x,y,z
-x,-y,z
1/2+x,1/2-y,1/2-z
1/2-x,1/2+y,1/2-z
-x,-y,-z
x,y,-z
1/2-x,1/2+y,1/2+z
1/2+x,1/2-y,1/2+z
loop_
_atom_site_type_symbol
_atom_site_label
_atom_site_fract_x
_atom_site_fract_y
_atom_site_fract_z
Si Si1 0.319567 0.093382 0.712820
Si Si2 0.063521 0.042569 0.283295
Si Si3 0.770769 0.642855 0.206100
Si Si4 0.031658 0.567035 0.213215
Si Si5 0.087982 0.185006 0.703174
Si Si6 0.264673 0.712807 0.709400
Si Si7 0.080923 0.329728 0.290429
Si Si8 0.291593 0.490379 0.783179
O O1 0.320697 0.088790 0.500000
O O2 0.393206 0.076829 0.779209
O O3 0.296752 0.165529 0.760450
O O4 0.262831 0.043451 0.775451
O O5 0.064048 0.044343 0.500000
O O6 0.061363 0.117451 0.220607
O O7 0.133949 0.010622 0.229113
O O8 0.000000 0.000000 0.229094
O O9 0.754943 0.714298 0.280251
O O10 0.851341 0.637796 0.217074
O O11 0.733234 0.580207 0.279475
O O12 0.751986 0.645094 0.000000
O O13 0.000000 0.500000 0.278993
O O14 0.982832 0.626122 0.257462
O O15 0.034794 0.563139 0.000000
O O16 0.064558 0.186932 0.500000
O O17 0.168785 0.182043 0.706458
O O18 0.072735 0.256174 0.781514
O O19 0.278339 0.717158 0.500000
O O20 0.092238 0.323975 0.500000
O O21 0.290808 0.490256 0.000000
#
# Coordination Sequence:
#
# PCOD9441694 Si02
#       8
#     8   8   8   8   8   8   8   8
#     4  10  19  33  55  76  99 135 175 216 258 307
#     4   9  16  28  51  80 101 124 168 222 260 292
#     4   9  18  33  53  77 103 137 178 215 251 300
#     4  10  21  37  56  76 100 138 184 221 257 312
#     4   9  17  33  54  76 102 136 175 209 251 311
#     4  10  19  31  50  77 105 134 168 212 259 304
#     4  10  20  33  52  79 109 140 169 212 267 313
#     4   9  16  30  53  77  99 128 172 219 254 292
#
# _framework density 20.519314000000001
#
# number of rings (size 3 to 8) (size 9 to 14) (size 15 to 20)
#    0.000    2.500    1.250    1.500    0.000    3.750 
#    2.250    1.875    0.000    0.375    0.000    0.000 
#    0.000    0.000    0.000    0.000    0.000    0.000 
#
# Total GULP energy -357180.354066 kJ/mol
# GULP energy per Si atom -5580.943032 kJ/mol
# Density = 2.047261 g / cm^3
# Si number density = 20.519314 Si / 1000 Ang^3
#
#
#
# Elastic Constant Matrix: (Units=GPa)
#
#
# Indices 1 2 3 4 5 6 
#
# 1 146.2385 102.6916 -5.7317 0.0000 0.0000 0.0000
# 2 102.6916 153.4078 1.7915 0.0000 0.0000 0.0000
# 3 -5.7317 1.7915 49.7018 0.0000 0.0000 0.0000
# 4 0.0000 0.0000 0.0000 10.7564 0.0000 0.0000
# 5 0.0000 0.0000 0.0000 0.0000 9.9592 0.0000
# 6 0.0000 0.0000 0.0000 0.0000 0.0000 33.8629
#
#
#
# Elastic Compliance Matrix: (Units=1/GPa)
#
#
# Indices 1 2 3 4 5 6 
#
# 1 0.013067 -0.008768 0.001823 0.000000 0.000000 0.000000
# 2 -0.008768 0.012405 -0.001458 0.000000 0.000000 0.000000
# 3 0.001823 -0.001458 0.020383 0.000000 0.000000 0.000000
# 4 0.000000 0.000000 0.000000 0.092968 0.000000 0.000000
# 5 0.000000 0.000000 0.000000 0.000000 0.100410 0.000000
# 6 0.000000 0.000000 0.000000 0.000000 0.000000 0.029531
#
#
# Mechanical properties :
#
#
# Convention : Reuss Voigt Hill
#
# Bulk Modulus (GPa) = 34.42641 60.76121 47.59381
# Shear Modulus (GPa) = 16.93465 27.62215 22.27840
#
# Velocity S-wave (km/s) = 2.87593 3.67298 3.29861
# Velocity P-wave (km/s) = 5.27654 6.90389 6.14433
#
# Compressibility (1/GPa) = 0.02904747
#
# Stress axis : x y z
#
# Youngs Moduli (GPa) = 76.52963 80.61205 49.06099
#
# Poissons Ratio (x) = 0.70683 -0.08944
# Poissons Ratio (y) = 0.67103 0.07155
# Poissons Ratio (z) = -0.13951 0.11756
#
# Static dielectric constant tensor:
#      x y z
#    x 1.679560 0.000000 0.000000 
#    y 0.000000 1.743480 0.000000 
#    z 0.000000 0.000000 1.798030 
# 
# From -- ./inp_files/8421.got.cif
#   From: 2010.05.17/outbox.cif.g08.bks.cpg/sg58_5_cif.got.tgz:8421.got - 2010.06.03 14:20:14.
