data_PCOD9441754
_publ_section_title
;
Structure prediction by ZEFSAII (Michael W. Deem and Ramdas Pophale) SiO2 
 PCOD9441754
Probable space group: P N N M
;
_chemical_formula_sum "Si O2"
_cell_formula_units_Z 64
_cell_length_a 30.275113
_cell_length_b 12.188704
_cell_length_c 8.750924
_cell_angle_alpha 90.000000
_cell_angle_beta 90.000000
_cell_angle_gamma 90.000000
_cell_volume 3229.216890
_symmetry_space_group_name_H-M "P N N M"
_symmetry_group_IT_number 58
_symmetry_cell_setting 'orthorhombic'
loop_
_space_group_symop_operation_xyz
x,y,z
-x,-y,z
1/2+x,1/2-y,1/2-z
1/2-x,1/2+y,1/2-z
-x,-y,-z
x,y,-z
1/2-x,1/2+y,1/2+z
1/2+x,1/2-y,1/2+z
loop_
_atom_site_type_symbol
_atom_site_label
_atom_site_fract_x
_atom_site_fract_y
_atom_site_fract_z
Si Si1 0.925673 0.048445 0.320233
Si Si2 0.335993 0.716948 0.317231
Si Si3 0.024863 0.724468 0.317683
Si Si4 0.182523 0.461168 0.186039
Si Si5 0.778329 0.980039 0.317682
Si Si6 0.566585 0.299955 0.182543
Si Si7 0.341658 0.354540 0.319856
Si Si8 0.610645 0.871173 0.315892
O O1 0.912600 0.054586 0.500000
O O2 0.956810 0.152058 0.289562
O O3 0.882457 0.064547 0.217696
O O4 0.945672 0.928622 0.296203
O O5 0.334836 0.709369 0.500000
O O6 0.316819 0.834702 0.267652
O O7 0.307467 0.617902 0.249897
O O8 0.386660 0.715579 0.262309
O O9 0.024439 0.708157 0.500000
O O10 0.061369 0.644599 0.246859
O O11 0.974216 0.725129 0.262811
O O12 0.227415 0.521546 0.234128
O O13 0.138213 0.523404 0.236607
O O14 0.181985 0.463511 0.000000
O O15 0.779729 0.972326 0.500000
O O16 0.800169 0.095105 0.266999
O O17 0.571819 0.283594 0.000000
O O18 0.332751 0.351748 0.500000
O O19 0.359969 0.235573 0.271064
O O20 0.608134 0.870668 0.500000
#
# Coordination Sequence:
#
# PCOD9441754 Si02
#       8
#     8   8   8   8   8   8   8   8
#     4   9  16  29  50  76 112 152 184 221 274 335
#     4  11  23  40  60  85 115 146 191 240 280 332
#     4   9  18  32  53  83 115 150 193 235 279 335
#     4   9  22  42  61  80 110 152 191 232 282 340
#     4  11  22  38  60  83 112 149 185 226 287 348
#     4  10  19  33  54  81 116 155 190 230 285 340
#     4  10  19  31  53  84 114 143 180 230 276 326
#     4   9  19  38  59  80 111 150 191 234 282 332
#
# _framework density 19.819046
#
# number of rings (size 3 to 8) (size 9 to 14) (size 15 to 20)
#    0.000    2.250    1.250    1.500    1.750    2.500 
#    0.000    5.000    0.000    7.500    0.000    0.000 
#    0.000    0.000    0.000    0.000    0.000    0.000 
#
# Total GULP energy -357093.915157 kJ/mol
# GULP energy per Si atom -5579.592424 kJ/mol
# Density = 1.977394 g / cm^3
# Si number density = 19.819046 Si / 1000 Ang^3
#
#
#
# Elastic Constant Matrix: (Units=GPa)
#
#
# Indices 1 2 3 4 5 6 
#
# 1 94.0003 18.7212 22.4839 0.0000 0.0000 0.0000
# 2 18.7212 44.4074 13.8135 0.0000 0.0000 0.0000
# 3 22.4839 13.8135 24.9092 0.0000 0.0000 0.0000
# 4 0.0000 0.0000 0.0000 78.0821 0.0000 0.0000
# 5 0.0000 0.0000 0.0000 0.0000 16.7090 0.0000
# 6 0.0000 0.0000 0.0000 0.0000 0.0000 13.8859
#
#
#
# Elastic Compliance Matrix: (Units=1/GPa)
#
#
# Indices 1 2 3 4 5 6 
#
# 1 0.013766 -0.002342 -0.011127 0.000000 0.000000 0.000000
# 2 -0.002342 0.027612 -0.013198 0.000000 0.000000 0.000000
# 3 -0.011127 -0.013198 0.057508 0.000000 0.000000 0.000000
# 4 0.000000 0.000000 0.000000 0.012807 0.000000 0.000000
# 5 0.000000 0.000000 0.000000 0.000000 0.059848 0.000000
# 6 0.000000 0.000000 0.000000 0.000000 0.000000 0.072015
#
#
# Mechanical properties :
#
#
# Convention : Reuss Voigt Hill
#
# Bulk Modulus (GPa) = 21.95300 30.37271 26.16286
# Shear Modulus (GPa) = 16.02179 28.95528 22.48854
#
# Velocity S-wave (km/s) = 2.84633 3.82643 3.37218
# Velocity P-wave (km/s) = 4.68005 5.90596 5.32838
#
# Compressibility (1/GPa) = 0.04555185
#
# Stress axis : x y z
#
# Youngs Moduli (GPa) = 72.64161 36.21655 17.38878
#
# Poissons Ratio (x) = 0.08483 0.19348
# Poissons Ratio (y) = 0.17015 0.22950
# Poissons Ratio (z) = 0.80828 0.47798
#
# Static dielectric constant tensor:
#      x y z
#    x 1.707500 0.000000 0.000000 
#    y 0.000000 1.711150 0.000000 
#    z 0.000000 0.000000 1.671580 
# 
# From -- ./inp_files/11070.got.cif
#   From: 2010.05.17/outbox.cif.g08.bks.cpg/sg58_6_cif.got.tgz:11070.got - 2010.06.03 14:20:14.
