data_PCOD9441550
_publ_section_title
;
Structure prediction by ZEFSAII (Michael W. Deem and Ramdas Pophale) SiO2 
 PCOD9441550
Probable space group: P N N M
;
_chemical_formula_sum "Si O2"
_cell_formula_units_Z 64
_cell_length_a 28.095562
_cell_length_b 10.745066
_cell_length_c 13.275834
_cell_angle_alpha 90.000000
_cell_angle_beta 90.000000
_cell_angle_gamma 90.000000
_cell_volume 4007.823843
_symmetry_space_group_name_H-M "P N N M"
_symmetry_group_IT_number 58
_symmetry_cell_setting 'orthorhombic'
loop_
_space_group_symop_operation_xyz
x,y,z
-x,-y,z
1/2+x,1/2-y,1/2-z
1/2-x,1/2+y,1/2-z
-x,-y,-z
x,y,-z
1/2-x,1/2+y,1/2+z
1/2+x,1/2-y,1/2+z
loop_
_atom_site_type_symbol
_atom_site_label
_atom_site_fract_x
_atom_site_fract_y
_atom_site_fract_z
Si Si1 0.290196 0.430434 0.306994
Si Si2 0.004414 0.356903 0.621856
Si Si3 0.389700 0.784395 0.119228
Si Si4 0.679659 0.822882 0.740808
Si Si5 0.650432 0.493523 0.885228
Si Si6 0.272395 0.686761 0.385906
Si Si7 0.595394 0.743247 0.882080
Si Si8 0.314809 0.903010 0.735602
O O1 0.316029 0.299657 0.328640
O O2 0.309751 0.472609 0.196802
O O3 0.296518 0.551080 0.375803
O O4 0.234046 0.404623 0.300140
O O5 0.004185 0.359675 0.500000
O O6 0.055210 0.298974 0.649730
O O7 0.000000 0.500000 0.656765
O O8 0.957836 0.278294 0.650503
O O9 0.370462 0.643691 0.130783
O O10 0.357423 0.870756 0.189203
O O11 0.385472 0.816783 0.000000
O O12 0.726079 0.815036 0.813699
O O13 0.633795 0.810635 0.812005
O O14 0.680044 0.958425 0.691530
O O15 0.609192 0.597599 0.875831
O O16 0.669021 0.501298 0.000000
O O17 0.257670 0.710306 0.500000
O O18 0.306854 0.794611 0.345321
O O19 0.601153 0.779801 0.000000
#
# Coordination Sequence:
#
# PCOD9441550 Si02
#       8
#     8   8   8   8   8   8   8   8
#     4   9  18  32  47  65  92 121 159 199 233 279
#     4   9  17  27  40  63  97 129 159 194 229 275
#     4  10  19  30  46  68  97 132 163 194 234 283
#     4   9  18  30  48  67  93 121 158 195 235 280
#     4   9  17  30  48  68  93 128 162 195 237 284
#     4  10  19  32  48  66  92 126 160 195 239 283
#     4   9  16  27  44  66  94 129 161 188 229 283
#     4  10  19  30  47  67  93 123 159 201 234 280
#
# _framework density 15.968767
#
# number of rings (size 3 to 8) (size 9 to 14) (size 15 to 20)
#    0.000    2.625    1.250    1.125    0.000    7.000 
#    0.000    3.125    0.000    0.000    0.000    0.000 
#    0.000   12.500    0.000    0.000    0.000    0.000 
#
# Total GULP energy -356390.460844 kJ/mol
# GULP energy per Si atom -5568.600951 kJ/mol
# Density = 1.593242 g / cm^3
# Si number density = 15.968767 Si / 1000 Ang^3
#
#
#
# Elastic Constant Matrix: (Units=GPa)
#
#
# Indices 1 2 3 4 5 6 
#
# 1 84.0552 19.5913 5.3449 0.0000 0.0000 0.0000
# 2 19.5913 97.3275 14.0919 0.0000 0.0000 0.0000
# 3 5.3449 14.0919 14.9608 0.0000 0.0000 0.0000
# 4 0.0000 0.0000 0.0000 5.4936 0.0000 0.0000
# 5 0.0000 0.0000 0.0000 0.0000 17.8425 0.0000
# 6 0.0000 0.0000 0.0000 0.0000 0.0000 18.9124
#
#
#
# Elastic Compliance Matrix: (Units=1/GPa)
#
#
# Indices 1 2 3 4 5 6 
#
# 1 0.012559 -0.002175 -0.002438 0.000000 0.000000 0.000000
# 2 -0.002175 0.012274 -0.010784 0.000000 0.000000 0.000000
# 3 -0.002438 -0.010784 0.077870 0.000000 0.000000 0.000000
# 4 0.000000 0.000000 0.000000 0.182030 0.000000 0.000000
# 5 0.000000 0.000000 0.000000 0.000000 0.056046 0.000000
# 6 0.000000 0.000000 0.000000 0.000000 0.000000 0.052875
#
#
# Mechanical properties :
#
#
# Convention : Reuss Voigt Hill
#
# Bulk Modulus (GPa) = 13.90657 30.48889 22.19773
# Shear Modulus (GPa) = 11.15033 18.93740 15.04386
#
# Velocity S-wave (km/s) = 2.64532 3.44743 3.07266
# Velocity P-wave (km/s) = 4.24945 5.91444 5.14968
#
# Compressibility (1/GPa) = 0.07190848
#
# Stress axis : x y z
#
# Youngs Moduli (GPa) = 79.62467 81.47443 12.84193
#
# Poissons Ratio (x) = 0.17721 0.03131
# Poissons Ratio (y) = 0.17318 0.13849
# Poissons Ratio (z) = 0.19414 0.87861
#
# Static dielectric constant tensor:
#      x y z
#    x 1.516260 0.000000 0.000000 
#    y 0.000000 1.592750 0.000000 
#    z 0.000000 0.000000 1.502440 
# 
# From -- ./inp_files/17829.got.cif
#   From: 2010.05.17/outbox.cif.g08.bks.cpg/sg58_9_cif.got.tgz:17829.got - 2010.06.03 14:20:14.
