data_PCOD9441911
_publ_section_title
;
Structure prediction by ZEFSAII (Michael W. Deem and Ramdas Pophale) SiO2 
 PCOD9441911
Probable space group: P N N M
;
_chemical_formula_sum "Si O2"
_cell_formula_units_Z 64
_cell_length_a 13.015894
_cell_length_b 28.562823
_cell_length_c 7.850771
_cell_angle_alpha 90.000000
_cell_angle_beta 90.000000
_cell_angle_gamma 90.000000
_cell_volume 2918.686446
_symmetry_space_group_name_H-M "P N N M"
_symmetry_group_IT_number 58
_symmetry_cell_setting 'orthorhombic'
loop_
_space_group_symop_operation_xyz
x,y,z
-x,-y,z
1/2+x,1/2-y,1/2-z
1/2-x,1/2+y,1/2-z
-x,-y,-z
x,y,-z
1/2-x,1/2+y,1/2+z
1/2+x,1/2-y,1/2+z
loop_
_atom_site_type_symbol
_atom_site_label
_atom_site_fract_x
_atom_site_fract_y
_atom_site_fract_z
Si Si1 0.062261 0.693445 0.792991
Si Si2 0.873300 0.411020 0.206329
Si Si3 0.351355 0.290186 0.300484
Si Si4 0.587760 0.057371 0.695912
Si Si5 0.149128 0.340304 0.700786
Si Si6 0.356916 0.561430 0.698844
Si Si7 0.807878 0.039044 0.295009
Si Si8 0.953687 0.121464 0.698442
O O1 0.108525 0.643079 0.742149
O O2 0.121947 0.739245 0.730761
O O3 0.946805 0.693957 0.724056
O O4 0.058904 0.694134 0.000000
O O5 0.761309 0.426299 0.263059
O O6 0.971654 0.441904 0.267878
O O7 0.876700 0.413181 0.000000
O O8 0.329173 0.283199 0.500000
O O9 0.251177 0.316127 0.229440
O O10 0.442202 0.328026 0.283238
O O11 0.580705 0.041201 0.500000
O O12 0.619342 0.112312 0.701706
O O13 0.690732 0.034637 0.772913
O O14 0.160883 0.352072 0.500000
O O15 0.376677 0.564598 0.500000
O O16 0.369661 0.507871 0.756254
O O17 0.436640 0.596567 0.785323
O O18 0.800489 0.043304 0.500000
O O19 0.868726 0.084645 0.230848
O O20 0.931754 0.128498 0.500000
#
# Coordination Sequence:
#
# PCOD9441911 Si02
#       8
#     8   8   8   8   8   8   8   8
#     4   9  20  38  59  83 115 155 196 237 287 348
#     4   9  19  38  61  83 115 158 200 241 289 348
#     4  10  21  37  58  87 119 150 189 240 296 348
#     4   9  18  36  62  87 112 148 194 241 288 345
#     4  10  19  32  54  84 117 149 186 238 293 343
#     4  12  26  40  57  84 123 161 196 242 300 351
#     4  10  21  39  63  89 115 150 199 244 292 355
#     4  11  23  40  63  87 115 152 199 245 288 352
#
# _framework density 21.927672000000001
#
# number of rings (size 3 to 8) (size 9 to 14) (size 15 to 20)
#    0.000    2.000    1.250    3.000    0.000    7.500 
#    0.000    3.750    0.000    0.000    0.000    0.000 
#    0.000    0.000    0.000    0.000    0.000    0.000 
#
# Total GULP energy -357455.062958 kJ/mol
# GULP energy per Si atom -5585.235359 kJ/mol
# Density = 2.187776 g / cm^3
# Si number density = 21.927672 Si / 1000 Ang^3
#
#
#
# Elastic Constant Matrix: (Units=GPa)
#
#
# Indices 1 2 3 4 5 6 
#
# 1 93.7056 21.1321 0.2581 0.0000 0.0000 0.0000
# 2 21.1321 75.5028 -1.1863 0.0000 0.0000 0.0000
# 3 0.2581 -1.1863 37.2316 0.0000 0.0000 0.0000
# 4 0.0000 0.0000 0.0000 19.3446 0.0000 0.0000
# 5 0.0000 0.0000 0.0000 0.0000 27.1597 0.0000
# 6 0.0000 0.0000 0.0000 0.0000 0.0000 32.6486
#
#
#
# Elastic Compliance Matrix: (Units=1/GPa)
#
#
# Indices 1 2 3 4 5 6 
#
# 1 0.011392 -0.003191 -0.000181 0.000000 0.000000 0.000000
# 2 -0.003191 0.014145 0.000473 0.000000 0.000000 0.000000
# 3 -0.000181 0.000473 0.026875 0.000000 0.000000 0.000000
# 4 0.000000 0.000000 0.000000 0.051694 0.000000 0.000000
# 5 0.000000 0.000000 0.000000 0.000000 0.036819 0.000000
# 6 0.000000 0.000000 0.000000 0.000000 0.000000 0.030629
#
#
# Mechanical properties :
#
#
# Convention : Reuss Voigt Hill
#
# Bulk Modulus (GPa) = 21.45274 27.42755 24.44014
# Shear Modulus (GPa) = 25.92138 28.24632 27.08385
#
# Velocity S-wave (km/s) = 3.44194 3.59299 3.51828
# Velocity P-wave (km/s) = 5.05970 5.45418 5.26064
#
# Compressibility (1/GPa) = 0.04661409
#
# Stress axis : x y z
#
# Youngs Moduli (GPa) = 87.78169 70.69557 37.20897
#
# Poissons Ratio (x) = 0.22561 0.00672
# Poissons Ratio (y) = 0.28013 -0.01759
# Poissons Ratio (z) = 0.01586 -0.03343
#
# Static dielectric constant tensor:
#      x y z
#    x 1.839710 0.000000 0.000000 
#    y 0.000000 1.802060 0.000000 
#    z 0.000000 0.000000 1.797530 
# 
# From -- ./inp_files/4714.got.cif
#   From: 2010.05.17/outbox.cif.g08.bks.cpg/sg58_3_cif.got.tgz:4714.got - 2010.06.03 14:20:14.
