data_PCOD9441168
_publ_section_title
;
Structure prediction by ZEFSAII (Michael W. Deem and Ramdas Pophale) SiO2 
 PCOD9441168
Probable space group: P N N M
;
_chemical_formula_sum "Si O2"
_cell_formula_units_Z 48
_cell_length_a 17.063578
_cell_length_b 18.697460
_cell_length_c 7.572219
_cell_angle_alpha 90.000000
_cell_angle_beta 90.000000
_cell_angle_gamma 90.000000
_cell_volume 2415.882905
_symmetry_space_group_name_H-M "P N N M"
_symmetry_group_IT_number 58
_symmetry_cell_setting 'orthorhombic'
loop_
_space_group_symop_operation_xyz
x,y,z
-x,-y,z
1/2+x,1/2-y,1/2-z
1/2-x,1/2+y,1/2-z
-x,-y,-z
x,y,-z
1/2-x,1/2+y,1/2+z
1/2+x,1/2-y,1/2+z
loop_
_atom_site_type_symbol
_atom_site_label
_atom_site_fract_x
_atom_site_fract_y
_atom_site_fract_z
Si Si1 0.830231 0.662248 0.713731
Si Si2 0.329729 0.407790 0.708843
Si Si3 0.643727 0.322956 0.783556
Si Si4 0.913902 0.516476 0.209564
Si Si5 0.744450 0.945842 0.287336
Si Si6 0.002665 0.079503 0.704432
O O1 0.828416 0.662361 0.500000
O O2 0.743408 0.638946 0.775293
O O3 0.852318 0.741186 0.775792
O O4 0.888893 0.598869 0.766684
O O5 0.336770 0.396994 0.500000
O O6 0.304021 0.489823 0.741992
O O7 0.414160 0.392370 0.788993
O O8 0.718073 0.371226 0.728841
O O9 0.566387 0.365583 0.722613
O O10 0.643345 0.320703 0.000000
O O11 0.841094 0.469279 0.281042
O O12 0.000000 0.500000 0.282795
O O13 0.916824 0.501923 0.000000
O O14 0.740147 0.943636 0.500000
O O15 0.026628 0.069394 0.500000
O O16 0.000000 0.000000 0.786559
#
# Coordination Sequence:
#
# PCOD9441168 Si02
#       6
#     8   8   8   8   8   8
#     4   9  19  35  52  71  99 135 167 201 250 301
#     4  10  19  31  48  74 103 129 159 199 249 297
#     4   9  17  32  52  72  95 130 172 205 237 292
#     4   9  18  33  53  78 100 126 169 214 249 288
#     4   9  16  31  54  71  92 131 171 202 237 292
#     4  10  18  31  53  76  96 128 173 205 234 291
#
# _framework density 19.868511999999999
#
# number of rings (size 3 to 8) (size 9 to 14) (size 15 to 20)
#    0.000    2.667    1.667    0.500    0.000    1.333 
#    3.000    1.667    0.000    0.000    0.000    0.000 
#    0.000    0.000    0.000    0.000    0.000    0.000 
#
# Total GULP energy -267717.583751 kJ/mol
# GULP energy per Si atom -5577.449661 kJ/mol
# Density = 1.982329 g / cm^3
# Si number density = 19.868512 Si / 1000 Ang^3
#
#
#
# Elastic Constant Matrix: (Units=GPa)
#
#
# Indices 1 2 3 4 5 6 
#
# 1 155.9416 85.0904 -5.5299 0.0000 0.0000 0.0000
# 2 85.0904 123.6761 -10.0299 0.0000 0.0000 0.0000
# 3 -5.5299 -10.0299 42.4529 0.0000 0.0000 0.0000
# 4 0.0000 0.0000 0.0000 13.0569 0.0000 0.0000
# 5 0.0000 0.0000 0.0000 0.0000 14.2166 0.0000
# 6 0.0000 0.0000 0.0000 0.0000 0.0000 23.1422
#
#
#
# Elastic Compliance Matrix: (Units=1/GPa)
#
#
# Indices 1 2 3 4 5 6 
#
# 1 0.010272 -0.007095 -0.000338 0.000000 0.000000 0.000000
# 2 -0.007095 0.013144 0.002181 0.000000 0.000000 0.000000
# 3 -0.000338 0.002181 0.024027 0.000000 0.000000 0.000000
# 4 0.000000 0.000000 0.000000 0.076588 0.000000 0.000000
# 5 0.000000 0.000000 0.000000 0.000000 0.070340 0.000000
# 6 0.000000 0.000000 0.000000 0.000000 0.000000 0.043211
#
#
# Mechanical properties :
#
#
# Convention : Reuss Voigt Hill
#
# Bulk Modulus (GPa) = 27.07148 51.23687 39.15417
# Shear Modulus (GPa) = 19.20140 26.91914 23.06027
#
# Velocity S-wave (km/s) = 3.11211 3.68484 3.41052
# Velocity P-wave (km/s) = 5.15447 6.62933 5.93787
#
# Compressibility (1/GPa) = 0.03693925
#
# Stress axis : x y z
#
# Youngs Moduli (GPa) = 97.35349 76.08237 41.62018
#
# Poissons Ratio (x) = 0.53977 0.01407
# Poissons Ratio (y) = 0.69068 -0.09078
# Poissons Ratio (z) = 0.03292 -0.16595
#
# Static dielectric constant tensor:
#      x y z
#    x 1.710020 0.000000 0.000000 
#    y 0.000000 1.677530 0.000000 
#    z 0.000000 0.000000 1.733020 
# 
# From -- ./inp_files/7848.got.cif
#   From: 2010.05.17/outbox.cif.g08.bks.cpg/sg58_4_cif.got.tgz:7848.got - 2010.06.03 14:20:14.
