data_PCOD9441944
_publ_section_title
;
Structure prediction by ZEFSAII (Michael W. Deem and Ramdas Pophale) SiO2 
 PCOD9441944
Probable space group: P N N M
;
_chemical_formula_sum "Si O2"
_cell_formula_units_Z 56
_cell_length_a 29.446571
_cell_length_b 10.155929
_cell_length_c 7.190115
_cell_angle_alpha 90.000000
_cell_angle_beta 90.000000
_cell_angle_gamma 90.000000
_cell_volume 2150.256266
_symmetry_space_group_name_H-M "P N N M"
_symmetry_group_IT_number 58
_symmetry_cell_setting 'orthorhombic'
loop_
_space_group_symop_operation_xyz
x,y,z
-x,-y,z
1/2+x,1/2-y,1/2-z
1/2-x,1/2+y,1/2-z
-x,-y,-z
x,y,-z
1/2-x,1/2+y,1/2+z
1/2+x,1/2-y,1/2+z
loop_
_atom_site_type_symbol
_atom_site_label
_atom_site_fract_x
_atom_site_fract_y
_atom_site_fract_z
Si Si1 0.467526 0.812109 0.225051
Si Si2 0.551463 0.471324 0.225848
Si Si3 0.171062 0.251728 0.290325
Si Si4 0.351996 0.460185 0.773079
Si Si5 0.658188 0.962665 0.773260
Si Si6 0.562954 0.894405 0.225279
Si Si7 0.275644 0.251968 0.775234
O O1 0.440988 0.681749 0.280077
O O2 0.520410 0.806941 0.284868
O O3 0.449125 0.954808 0.278313
O O4 0.467264 0.812633 0.000000
O O5 0.500000 0.500000 0.286725
O O6 0.595186 0.555993 0.283254
O O7 0.550454 0.480220 0.000000
O O8 0.151913 0.246814 0.500000
O O9 0.161722 0.107665 0.212820
O O10 0.153444 0.388052 0.206926
O O11 0.225289 0.271324 0.296592
O O12 0.313079 0.358868 0.715127
O O13 0.351582 0.454132 0.000000
O O14 0.614675 0.876061 0.717302
O O15 0.704074 0.889708 0.719137
O O16 0.658228 0.967461 0.000000
O O17 0.562836 0.886527 0.000000
O O18 0.272936 0.256296 0.000000
#
# Coordination Sequence:
#
# PCOD9441944 Si02
#       7
#     8   8   8   8   8   8   8
#     4   8  13  20  31  50  77 110 145 174 204 252
#     4   9  16  23  35  56  86 123 153 174 213 280
#     4  10  19  33  50  66  89 124 158 188 228 281
#     4   9  18  30  44  64  94 128 155 186 235 282
#     4   9  17  27  43  62  84 116 152 183 219 267
#     4   8  13  21  34  52  76 108 143 177 210 252
#     4  10  20  32  47  69  94 119 151 195 236 269
#
# _framework density 26.043406000000001
#
# number of rings (size 3 to 8) (size 9 to 14) (size 15 to 20)
#    0.000    3.000    0.000    2.571    2.000    3.429 
#    0.000    0.000    0.000    0.000    0.000    0.000 
#    0.000    2.286    0.000    7.571    0.000    7.714 
#
# Total GULP energy -313053.313020 kJ/mol
# GULP energy per Si atom -5590.237733 kJ/mol
# Density = 2.598413 g / cm^3
# Si number density = 26.043406 Si / 1000 Ang^3
#
#
#
# Elastic Constant Matrix: (Units=GPa)
#
#
# Indices 1 2 3 4 5 6 
#
# 1 135.4833 9.6126 -9.6284 0.0000 0.0000 0.0000
# 2 9.6126 78.5038 -4.0505 0.0000 0.0000 0.0000
# 3 -9.6284 -4.0505 132.0728 0.0000 0.0000 0.0000
# 4 0.0000 0.0000 0.0000 -38.3487 0.0000 0.0000
# 5 0.0000 0.0000 0.0000 0.0000 -10.7481 0.0000
# 6 0.0000 0.0000 0.0000 0.0000 0.0000 47.1196
#
#
#
# Elastic Compliance Matrix: (Units=1/GPa)
#
#
# Indices 1 2 3 4 5 6 
#
# 1 0.007481 -0.000889 0.000518 0.000000 0.000000 0.000000
# 2 -0.000889 0.012864 0.000330 0.000000 0.000000 0.000000
# 3 0.000518 0.000330 0.007619 0.000000 0.000000 0.000000
# 4 0.000000 0.000000 0.000000 -0.026077 0.000000 0.000000
# 5 0.000000 0.000000 0.000000 0.000000 -0.093040 0.000000
# 6 0.000000 0.000000 0.000000 0.000000 0.000000 0.021223
#
#
# Mechanical properties :
#
#
# Convention : Reuss Voigt Hill
#
# Bulk Modulus (GPa) = 35.86604 37.54747 36.70676
# Shear Modulus (GPa) = -82.57335 22.94631 -29.81352
#
# Velocity S-wave (km/s) = -5.63692 2.97152 -3.38710
# Velocity P-wave (km/s) = 5.34462 5.12072 1.08240
#
# Compressibility (1/GPa) = 0.02788153
#
# Stress axis : x y z
#
# Youngs Moduli (GPa) = 133.67374 77.73551 131.24283
#
# Poissons Ratio (x) = 0.06913 -0.06800
# Poissons Ratio (y) = 0.11887 -0.04327
# Poissons Ratio (z) = -0.06926 -0.02563
#
# Static dielectric constant tensor:
#      x y z
#    x 2.000810 0.000000 0.000000 
#    y 0.000000 2.004670 0.000000 
#    z 0.000000 0.000000 2.289740 
# 
# From -- ./inp_files/17793.got.cif
#   From: 2010.05.17/outbox.cif.g08.bks.cpg/sg58_9_cif.got.tgz:17793.got - 2010.06.03 14:20:14.
