data_PCOD9441060
_publ_section_title
;
Structure prediction by ZEFSAII (Michael W. Deem and Ramdas Pophale) SiO2 
 PCOD9441060
Probable space group: P N N M
;
_chemical_formula_sum "Si O2"
_cell_formula_units_Z 64
_cell_length_a 31.371199
_cell_length_b 14.983065
_cell_length_c 8.199918
_cell_angle_alpha 90.000000
_cell_angle_beta 90.000000
_cell_angle_gamma 90.000000
_cell_volume 3854.262510
_symmetry_space_group_name_H-M "P N N M"
_symmetry_group_IT_number 58
_symmetry_cell_setting 'orthorhombic'
loop_
_space_group_symop_operation_xyz
x,y,z
-x,-y,z
1/2+x,1/2-y,1/2-z
1/2-x,1/2+y,1/2-z
-x,-y,-z
x,y,-z
1/2-x,1/2+y,1/2+z
1/2+x,1/2-y,1/2+z
loop_
_atom_site_type_symbol
_atom_site_label
_atom_site_fract_x
_atom_site_fract_y
_atom_site_fract_z
Si Si1 0.955774 0.892571 0.805767
Si Si2 0.213519 0.711019 0.192562
Si Si3 0.797520 0.681391 0.196001
Si Si4 0.133728 0.819609 0.688014
Si Si5 0.770349 0.489542 0.198413
Si Si6 0.326328 0.497105 0.307677
Si Si7 0.550462 0.594523 0.194024
Si Si8 0.869277 0.814250 0.801998
O O1 0.917851 0.828294 0.745496
O O2 0.001990 0.877610 0.728607
O O3 0.943596 0.996204 0.771364
O O4 0.959840 0.883101 0.000000
O O5 0.253227 0.767121 0.265077
O O6 0.168179 0.756830 0.226672
O O7 0.213389 0.608096 0.249731
O O8 0.220908 0.710771 0.000000
O O9 0.795495 0.578512 0.250547
O O10 0.838526 0.735845 0.259565
O O11 0.800588 0.680845 0.000000
O O12 0.131485 0.791706 0.500000
O O13 0.085796 0.834721 0.753599
O O14 0.153059 0.918800 0.703764
O O15 0.723436 0.500202 0.271057
O O16 0.768002 0.490605 0.000000
O O17 0.333948 0.479526 0.500000
O O18 0.345705 0.592791 0.265778
O O19 0.556242 0.584375 0.000000
O O20 0.871175 0.807064 0.000000
#
# Coordination Sequence:
#
# PCOD9441060 Si02
#       8
#     8   8   8   8   8   8   8   8
#     4  10  18  30  48  71  98 126 158 195 239 287
#     4  11  22  33  47  72  98 125 166 207 239 281
#     4  10  19  34  51  68  95 132 164 195 241 290
#     4  11  22  34  48  68  96 134 168 199 243 291
#     4  10  21  34  48  69  99 130 164 203 243 283
#     4  11  19  29  48  72  99 129 165 203 236 281
#     4  10  20  32  46  68  96 126 161 196 239 292
#     4   9  18  30  47  72  97 129 165 193 234 288
#
# _framework density 16.604994000000001
#
# number of rings (size 3 to 8) (size 9 to 14) (size 15 to 20)
#    0.000    1.750    3.750    2.625    0.000    2.000 
#    0.000    1.250    0.000    0.000    0.000    0.875 
#    0.000    7.000    0.000    0.000    0.000    0.000 
#
# Total GULP energy -356903.382164 kJ/mol
# GULP energy per Si atom -5576.615346 kJ/mol
# Density = 1.656720 g / cm^3
# Si number density = 16.604994 Si / 1000 Ang^3
#
#
#
# Elastic Constant Matrix: (Units=GPa)
#
#
# Indices 1 2 3 4 5 6 
#
# 1 94.0243 31.6946 -7.6680 0.0000 0.0000 0.0000
# 2 31.6946 74.3299 1.3610 0.0000 0.0000 0.0000
# 3 -7.6680 1.3610 8.2438 0.0000 0.0000 0.0000
# 4 0.0000 0.0000 0.0000 9.3632 0.0000 0.0000
# 5 0.0000 0.0000 0.0000 0.0000 2.3645 0.0000
# 6 0.0000 0.0000 0.0000 0.0000 0.0000 21.8054
#
#
#
# Elastic Compliance Matrix: (Units=1/GPa)
#
#
# Indices 1 2 3 4 5 6 
#
# 1 0.013844 -0.006158 0.013894 0.000000 0.000000 0.000000
# 2 -0.006158 0.016233 -0.008408 0.000000 0.000000 0.000000
# 3 0.013894 -0.008408 0.135615 0.000000 0.000000 0.000000
# 4 0.000000 0.000000 0.000000 0.106802 0.000000 0.000000
# 5 0.000000 0.000000 0.000000 0.000000 0.422914 0.000000
# 6 0.000000 0.000000 0.000000 0.000000 0.000000 0.045860
#
#
# Mechanical properties :
#
#
# Convention : Reuss Voigt Hill
#
# Bulk Modulus (GPa) = 6.08459 25.26369 15.67414
# Shear Modulus (GPa) = 6.27042 16.78731 11.52887
#
# Velocity S-wave (km/s) = 1.94536 3.18304 2.63782
# Velocity P-wave (km/s) = 2.95265 5.36251 4.32867
#
# Compressibility (1/GPa) = 0.16434970
#
# Stress axis : x y z
#
# Youngs Moduli (GPa) = 72.23160 61.60227 7.37382
#
# Poissons Ratio (x) = 0.37933 -0.10245
# Poissons Ratio (y) = 0.44478 0.06200
# Poissons Ratio (z) = -1.00359 0.51793
#
# Static dielectric constant tensor:
#      x y z
#    x 1.585030 0.000000 0.000000 
#    y 0.000000 1.560830 0.000000 
#    z 0.000000 0.000000 1.575580 
# 
# From -- ./inp_files/7186.got.cif
#   From: 2010.05.17/outbox.cif.g08.bks.cpg/sg58_4_cif.got.tgz:7186.got - 2010.06.03 14:20:14.
