data_PCOD9441464
_publ_section_title
;
Structure prediction by ZEFSAII (Michael W. Deem and Ramdas Pophale) SiO2 
 PCOD9441464
Probable space group: P N N M
;
_chemical_formula_sum "Si O2"
_cell_formula_units_Z 64
_cell_length_a 6.346062
_cell_length_b 30.503895
_cell_length_c 17.879439
_cell_angle_alpha 90.000000
_cell_angle_beta 90.000000
_cell_angle_gamma 90.000000
_cell_volume 3461.094809
_symmetry_space_group_name_H-M "P N N M"
_symmetry_group_IT_number 58
_symmetry_cell_setting 'orthorhombic'
loop_
_space_group_symop_operation_xyz
x,y,z
-x,-y,z
1/2+x,1/2-y,1/2-z
1/2-x,1/2+y,1/2-z
-x,-y,-z
x,y,-z
1/2-x,1/2+y,1/2+z
1/2+x,1/2-y,1/2+z
loop_
_atom_site_type_symbol
_atom_site_label
_atom_site_fract_x
_atom_site_fract_y
_atom_site_fract_z
Si Si1 0.646709 0.345017 0.085018
Si Si2 0.167129 0.110125 0.178003
Si Si3 0.053948 0.449543 0.721121
Si Si4 0.720329 0.596141 0.412118
Si Si5 0.961163 0.686643 0.817515
Si Si6 0.826319 0.236478 0.581394
Si Si7 0.488049 0.821954 0.141980
Si Si8 0.638561 0.608526 0.187135
O O1 0.476436 0.305891 0.081989
O O2 0.526700 0.387794 0.118813
O O3 0.823534 0.327073 0.141819
O O4 0.724948 0.352328 0.000000
O O5 0.337785 0.078654 0.218340
O O6 0.299157 0.149425 0.143368
O O7 0.022486 0.090757 0.112432
O O8 0.001160 0.123240 0.241770
O O9 0.154699 0.437955 0.640351
O O10 0.225025 0.432705 0.782595
O O11 0.000000 0.500000 0.730470
O O12 0.752310 0.590544 0.500000
O O13 0.809202 0.644474 0.387443
O O14 0.851487 0.728156 0.856562
O O15 0.963699 0.691996 0.728467
O O16 0.813802 0.644515 0.829571
O O17 0.723143 0.239613 0.500000
O O18 0.970228 0.278659 0.595198
#
# Coordination Sequence:
#
# PCOD9441464 Si02
#       8
#     8   8   8   8   8   8   8   8
#     4  10  21  37  57  81 116 150 188 238 293 350
#     4  10  19  37  57  83 110 150 195 237 284 342
#     4  10  21  37  60  88 118 149 192 244 291 350
#     4  10  22  38  57  82 116 151 193 237 286 349
#     4  11  20  35  58  82 109 149 195 239 282 339
#     4  10  24  36  50  79 116 150 190 240 290 338
#     4  11  21  36  58  81 111 154 198 242 284 337
#     4  10  18  37  58  84 112 144 194 233 285 349
#
# _framework density 18.491258999999999
#
# number of rings (size 3 to 8) (size 9 to 14) (size 15 to 20)
#    0.000    1.750    5.000    0.750    1.750    6.250 
#    0.000    0.625    0.000    0.375    0.000    3.500 
#    0.000    0.000    0.000    0.000    0.000    0.000 
#
# Total GULP energy -356443.378061 kJ/mol
# GULP energy per Si atom -5569.427782 kJ/mol
# Density = 1.844917 g / cm^3
# Si number density = 18.491259 Si / 1000 Ang^3
#
#
#
# Elastic Constant Matrix: (Units=GPa)
#
#
# Indices 1 2 3 4 5 6 
#
# 1 58.2434 0.0953 -0.9277 0.0000 0.0000 0.0000
# 2 0.0953 9.6203 7.5510 0.0000 0.0000 0.0000
# 3 -0.9277 7.5510 39.0002 0.0000 0.0000 0.0000
# 4 0.0000 0.0000 0.0000 11.7502 0.0000 0.0000
# 5 0.0000 0.0000 0.0000 0.0000 6.4098 0.0000
# 6 0.0000 0.0000 0.0000 0.0000 0.0000 -1.2663
#
#
#
# Elastic Compliance Matrix: (Units=1/GPa)
#
#
# Indices 1 2 3 4 5 6 
#
# 1 0.017179 -0.000579 0.000521 0.000000 0.000000 0.000000
# 2 -0.000579 0.122594 -0.023750 0.000000 0.000000 0.000000
# 3 0.000521 -0.023750 0.030252 0.000000 0.000000 0.000000
# 4 0.000000 0.000000 0.000000 0.085105 0.000000 0.000000
# 5 0.000000 0.000000 0.000000 0.000000 0.156012 0.000000
# 6 0.000000 0.000000 0.000000 0.000000 0.000000 -0.789722
#
#
# Mechanical properties :
#
#
# Convention : Reuss Voigt Hill
#
# Bulk Modulus (GPa) = 8.16940 13.36681 10.76811
# Shear Modulus (GPa) = -17.23170 10.05509 -3.58830
#
# Velocity S-wave (km/s) = -3.05599 2.33443 -1.39454
# Velocity P-wave (km/s) = 2.83276 3.80926 1.80083
#
# Compressibility (1/GPa) = 0.12240797
#
# Stress axis : x y z
#
# Youngs Moduli (GPa) = 58.21208 8.15701 33.05605
#
# Poissons Ratio (x) = 0.00472 -0.01721
# Poissons Ratio (y) = 0.03370 0.78508
# Poissons Ratio (z) = -0.03031 0.19373
#
# Static dielectric constant tensor:
#      x y z
#    x 1.664740 0.000000 0.000000 
#    y 0.000000 1.629100 0.000000 
#    z 0.000000 0.000000 1.674640 
# 
# From -- ./inp_files/24514.got.cif
#   From: 2010.05.17/outbox.cif.g08.bks.cpg/sg58_13_cif.got.tgz:24514.got - 2010.06.03 14:20:14.
