data_PCOD9441734
_publ_section_title
;
Structure prediction by ZEFSAII (Michael W. Deem and Ramdas Pophale) SiO2 
 PCOD9441734
Probable space group: P N N M
;
_chemical_formula_sum "Si O2"
_cell_formula_units_Z 56
_cell_length_a 25.186017
_cell_length_b 14.707059
_cell_length_c 8.926263
_cell_angle_alpha 90.000000
_cell_angle_beta 90.000000
_cell_angle_gamma 90.000000
_cell_volume 3306.397055
_symmetry_space_group_name_H-M "P N N M"
_symmetry_group_IT_number 58
_symmetry_cell_setting 'orthorhombic'
loop_
_space_group_symop_operation_xyz
x,y,z
-x,-y,z
1/2+x,1/2-y,1/2-z
1/2-x,1/2+y,1/2-z
-x,-y,-z
x,y,-z
1/2-x,1/2+y,1/2+z
1/2+x,1/2-y,1/2+z
loop_
_atom_site_type_symbol
_atom_site_label
_atom_site_fract_x
_atom_site_fract_y
_atom_site_fract_z
Si Si1 0.794798 0.223103 0.817625
Si Si2 0.496269 0.893150 0.179140
Si Si3 0.824776 0.513015 0.168198
Si Si4 0.392483 0.805531 0.326295
Si Si5 0.717317 0.514642 0.323657
Si Si6 0.103493 0.661336 0.175859
Si Si7 0.312910 0.669690 0.820610
O O1 0.849438 0.271812 0.771628
O O2 0.741793 0.278300 0.770541
O O3 0.793941 0.117762 0.770985
O O4 0.793932 0.224998 0.000000
O O5 0.445649 0.843611 0.250703
O O6 0.549540 0.842368 0.232144
O O7 0.500000 0.000000 0.226598
O O8 0.491682 0.891926 0.000000
O O9 0.850605 0.611406 0.178563
O O10 0.779544 0.500517 0.289726
O O11 0.870299 0.438448 0.184757
O O12 0.801528 0.499975 0.000000
O O13 0.402576 0.783320 0.500000
O O14 0.363435 0.723263 0.243128
O O15 0.706325 0.509020 0.500000
O O16 0.688501 0.433096 0.238652
O O17 0.092280 0.680108 0.000000
O O18 0.313588 0.671483 0.000000
#
# Coordination Sequence:
#
# PCOD9441734 Si02
#       7
#     8   8   8   8   8   8   8
#     4   9  19  34  54  78 109 146 182 221 273 325
#     4  11  23  36  53  81 114 147 182 226 281 331
#     4  10  19  31  52  81 113 145 183 224 268 322
#     4  11  22  36  55  82 112 148 189 227 272 331
#     4  11  21  34  53  81 113 148 186 223 270 329
#     4  10  19  36  56  77 108 149 188 224 270 327
#     4  11  21  37  56  80 113 149 184 227 279 326
#
# _framework density 16.936865000000001
#
# number of rings (size 3 to 8) (size 9 to 14) (size 15 to 20)
#    0.000    1.571    4.286    1.714    0.000    1.714 
#    0.000    1.429    0.000    0.857    0.000    6.000 
#    0.000    0.000    0.000    0.000    0.000    0.000 
#
# Total GULP energy -312509.659474 kJ/mol
# GULP energy per Si atom -5580.529633 kJ/mol
# Density = 1.689832 g / cm^3
# Si number density = 16.936865 Si / 1000 Ang^3
#
#
#
# Elastic Constant Matrix: (Units=GPa)
#
#
# Indices 1 2 3 4 5 6 
#
# 1 75.2688 16.6395 24.4038 0.0000 0.0000 0.0000
# 2 16.6395 74.1761 21.0520 0.0000 0.0000 0.0000
# 3 24.4038 21.0520 50.0704 0.0000 0.0000 0.0000
# 4 0.0000 0.0000 0.0000 23.9192 0.0000 0.0000
# 5 0.0000 0.0000 0.0000 0.0000 29.7686 0.0000
# 6 0.0000 0.0000 0.0000 0.0000 0.0000 26.6511
#
#
#
# Elastic Compliance Matrix: (Units=1/GPa)
#
#
# Indices 1 2 3 4 5 6 
#
# 1 0.015936 -0.001556 -0.007113 0.000000 0.000000 0.000000
# 2 -0.001556 0.015460 -0.005742 0.000000 0.000000 0.000000
# 3 -0.007113 -0.005742 0.025853 0.000000 0.000000 0.000000
# 4 0.000000 0.000000 0.000000 0.041807 0.000000 0.000000
# 5 0.000000 0.000000 0.000000 0.000000 0.033592 0.000000
# 6 0.000000 0.000000 0.000000 0.000000 0.000000 0.037522
#
#
# Mechanical properties :
#
#
# Convention : Reuss Voigt Hill
#
# Bulk Modulus (GPa) = 35.17726 35.96731 35.57229
# Shear Modulus (GPa) = 23.98459 25.22911 24.60685
#
# Velocity S-wave (km/s) = 3.76722 3.86372 3.81577
# Velocity P-wave (km/s) = 6.30375 6.41768 6.36097
#
# Compressibility (1/GPa) = 0.02842746
#
# Stress axis : x y z
#
# Youngs Moduli (GPa) = 62.75174 64.68274 38.68080
#
# Poissons Ratio (x) = 0.10065 0.27512
# Poissons Ratio (y) = 0.09765 0.22209
# Poissons Ratio (z) = 0.44633 0.37139
#
# Static dielectric constant tensor:
#      x y z
#    x 1.552050 0.000000 0.000000 
#    y 0.000000 1.576570 0.000000 
#    z 0.000000 0.000000 1.583730 
# 
# From -- ./inp_files/9015.got.cif
#   From: 2010.05.17/outbox.cif.g08.bks.cpg/sg58_5_cif.got.tgz:9015.got - 2010.06.03 14:20:14.
