data_PCOD9441519
_publ_section_title
;
Structure prediction by ZEFSAII (Michael W. Deem and Ramdas Pophale) SiO2 
 PCOD9441519
Probable space group: P N N M
;
_chemical_formula_sum "Si O2"
_cell_formula_units_Z 64
_cell_length_a 19.967097
_cell_length_b 20.830549
_cell_length_c 9.094780
_cell_angle_alpha 90.000000
_cell_angle_beta 90.000000
_cell_angle_gamma 90.000000
_cell_volume 3782.751760
_symmetry_space_group_name_H-M "P N N M"
_symmetry_group_IT_number 58
_symmetry_cell_setting 'orthorhombic'
loop_
_space_group_symop_operation_xyz
x,y,z
-x,-y,z
1/2+x,1/2-y,1/2-z
1/2-x,1/2+y,1/2-z
-x,-y,-z
x,y,-z
1/2-x,1/2+y,1/2+z
1/2+x,1/2-y,1/2+z
loop_
_atom_site_type_symbol
_atom_site_label
_atom_site_fract_x
_atom_site_fract_y
_atom_site_fract_z
Si Si1 0.981366 0.297863 0.169566
Si Si2 0.558293 0.450482 0.324335
Si Si3 0.505004 0.668404 0.825395
Si Si4 0.319647 0.219726 0.669533
Si Si5 0.805576 0.423673 0.821944
Si Si6 0.199706 0.982018 0.823923
Si Si7 0.162522 0.850101 0.675685
Si Si8 0.539017 0.937187 0.320822
O O1 0.008463 0.239319 0.263857
O O2 0.900248 0.291375 0.169503
O O3 0.994042 0.369801 0.226040
O O4 0.003407 0.291872 0.000000
O O5 0.500000 0.500000 0.279594
O O6 0.553423 0.441192 0.500000
O O7 0.543412 0.383831 0.245421
O O8 0.629486 0.482116 0.291125
O O9 0.582669 0.651124 0.786734
O O10 0.499741 0.667456 0.000000
O O11 0.300110 0.231888 0.500000
O O12 0.290238 0.150885 0.717882
O O13 0.307795 0.282569 0.766697
O O14 0.757504 0.474398 0.745598
O O15 0.882801 0.437560 0.780283
O O16 0.800633 0.427888 0.000000
O O17 0.195216 0.911433 0.753238
O O18 0.206581 0.977127 0.000000
O O19 0.168614 0.854563 0.500000
O O20 0.537473 0.935843 0.500000
O O21 0.500000 0.000000 0.270294
#
# Coordination Sequence:
#
# PCOD9441519 Si02
#       8
#     8   8   8   8   8   8   8   8
#     4   8  14  26  47  73  99 128 161 199 240 290
#     4  10  20  34  50  69  96 133 174 212 248 295
#     4  10  19  29  46  72 101 129 162 209 255 294
#     4   8  15  29  49  71  96 127 162 200 246 296
#     4   9  18  33  53  77 104 132 164 207 255 301
#     4  11  22  34  51  73 100 135 172 210 254 305
#     4  10  19  30  48  75 101 127 164 210 253 294
#     4   8  14  28  54  83 104 127 165 206 246 295
#
# _framework density 16.918900000000001
#
# number of rings (size 3 to 8) (size 9 to 14) (size 15 to 20)
#    0.000    2.750    1.250    2.625    0.000    2.750 
#    0.000    1.875    2.750    1.500    0.000    0.000 
#    0.000    0.000    0.000    0.000    0.000    0.000 
#
# Total GULP energy -356652.644235 kJ/mol
# GULP energy per Si atom -5572.697566 kJ/mol
# Density = 1.688039 g / cm^3
# Si number density = 16.918900 Si / 1000 Ang^3
#
#
#
# Elastic Constant Matrix: (Units=GPa)
#
#
# Indices 1 2 3 4 5 6 
#
# 1 44.6934 54.4527 25.5159 0.0000 0.0000 0.0000
# 2 54.4527 187.4206 57.7296 0.0000 0.0000 0.0000
# 3 25.5159 57.7296 32.8659 0.0000 0.0000 0.0000
# 4 0.0000 0.0000 0.0000 22.4785 0.0000 0.0000
# 5 0.0000 0.0000 0.0000 0.0000 15.5659 0.0000
# 6 0.0000 0.0000 0.0000 0.0000 0.0000 26.6718
#
#
#
# Elastic Compliance Matrix: (Units=1/GPa)
#
#
# Indices 1 2 3 4 5 6 
#
# 1 0.042008 -0.004705 -0.024350 0.000000 0.000000 0.000000
# 2 -0.004705 0.012152 -0.017694 0.000000 0.000000 0.000000
# 3 -0.024350 -0.017694 0.080410 0.000000 0.000000 0.000000
# 4 0.000000 0.000000 0.000000 0.044487 0.000000 0.000000
# 5 0.000000 0.000000 0.000000 0.000000 0.064243 0.000000
# 6 0.000000 0.000000 0.000000 0.000000 0.000000 0.037493
#
#
# Mechanical properties :
#
#
# Convention : Reuss Voigt Hill
#
# Bulk Modulus (GPa) = 24.34587 60.04183 42.19385
# Shear Modulus (GPa) = 12.88723 21.42870 17.15797
#
# Velocity S-wave (km/s) = 2.76290 3.56273 3.18800
# Velocity P-wave (km/s) = 4.95975 7.24494 6.20839
#
# Compressibility (1/GPa) = 0.04107473
#
# Stress axis : x y z
#
# Youngs Moduli (GPa) = 23.80486 82.28780 12.43625
#
# Poissons Ratio (x) = 0.38714 0.30282
# Poissons Ratio (y) = 0.11199 0.22004
# Poissons Ratio (z) = 0.57964 1.45596
#
# Static dielectric constant tensor:
#      x y z
#    x 1.555360 0.000000 0.000000 
#    y 0.000000 1.581640 0.000000 
#    z 0.000000 0.000000 1.558920 
# 
# From -- ./inp_files/8308.got.cif
#   From: 2010.05.17/outbox.cif.g08.bks.cpg/sg58_5_cif.got.tgz:8308.got - 2010.06.03 14:20:14.
