data_PCOD9441457
_publ_section_title
;
Structure prediction by ZEFSAII (Michael W. Deem and Ramdas Pophale) SiO2 
 PCOD9441457
Probable space group: P N N M
;
_chemical_formula_sum "Si O2"
_cell_formula_units_Z 64
_cell_length_a 12.300255
_cell_length_b 31.448782
_cell_length_c 7.752996
_cell_angle_alpha 90.000000
_cell_angle_beta 90.000000
_cell_angle_gamma 90.000000
_cell_volume 2999.076232
_symmetry_space_group_name_H-M "P N N M"
_symmetry_group_IT_number 58
_symmetry_cell_setting 'orthorhombic'
loop_
_space_group_symop_operation_xyz
x,y,z
-x,-y,z
1/2+x,1/2-y,1/2-z
1/2-x,1/2+y,1/2-z
-x,-y,-z
x,y,-z
1/2-x,1/2+y,1/2+z
1/2+x,1/2-y,1/2+z
loop_
_atom_site_type_symbol
_atom_site_label
_atom_site_fract_x
_atom_site_fract_y
_atom_site_fract_z
Si Si1 0.259540 0.193912 0.292942
Si Si2 0.282333 0.448457 0.699914
Si Si3 0.086281 0.617020 0.211795
Si Si4 0.695466 0.708800 0.207934
Si Si5 0.655466 0.133565 0.700726
Si Si6 0.023457 0.165415 0.710811
Si Si7 0.978959 0.932498 0.291926
Si Si8 0.739937 0.959495 0.707586
O O1 0.257100 0.190014 0.500000
O O2 0.346780 0.158935 0.233701
O O3 0.285339 0.242372 0.250534
O O4 0.139679 0.181943 0.228188
O O5 0.268786 0.440036 0.500000
O O6 0.236542 0.406597 0.792186
O O7 0.410248 0.455353 0.737789
O O8 0.219616 0.491491 0.748392
O O9 0.151931 0.574970 0.268766
O O10 0.962099 0.620684 0.273266
O O11 0.085990 0.615590 0.000000
O O12 0.785861 0.675435 0.274982
O O13 0.577786 0.693225 0.270388
O O14 0.694747 0.704887 0.000000
O O15 0.635261 0.143420 0.500000
O O16 0.024655 0.166141 0.500000
O O17 0.008265 0.116553 0.761048
O O18 0.976095 0.934800 0.500000
O O19 0.861554 0.947997 0.228181
O O20 0.742992 0.956141 0.500000
#
# Coordination Sequence:
#
# PCOD9441457 Si02
#       8
#     8   8   8   8   8   8   8   8
#     4  10  20  36  59  86 115 145 185 235 283 329
#     4  12  25  38  55  84 120 150 184 234 293 342
#     4   9  19  37  62  88 110 143 194 244 276 321
#     4  10  21  36  56  83 116 152 188 228 277 333
#     4  10  21  40  62  81 110 151 196 237 275 330
#     4   9  17  34  59  83 111 148 187 230 276 328
#     4  10  18  36  63  86 111 150 193 232 278 336
#     4  10  20  37  63  88 111 146 195 236 279 338
#
# _framework density 21.339903
#
# number of rings (size 3 to 8) (size 9 to 14) (size 15 to 20)
#    0.000    2.000    2.500    1.500    1.750    3.000 
#    0.000    5.000    0.000    0.000    0.000    0.000 
#    0.000    0.000    0.000    0.000    0.000    0.000 
#
# Total GULP energy -357471.646814 kJ/mol
# GULP energy per Si atom -5585.494481 kJ/mol
# Density = 2.129133 g / cm^3
# Si number density = 21.339903 Si / 1000 Ang^3
#
#
#
# Elastic Constant Matrix: (Units=GPa)
#
#
# Indices 1 2 3 4 5 6 
#
# 1 80.0603 -7.6359 -2.5231 0.0000 0.0000 0.0000
# 2 -7.6359 66.8753 -13.2362 0.0000 0.0000 0.0000
# 3 -2.5231 -13.2362 27.4744 0.0000 0.0000 0.0000
# 4 0.0000 0.0000 0.0000 20.6604 0.0000 0.0000
# 5 0.0000 0.0000 0.0000 0.0000 -8.4577 0.0000
# 6 0.0000 0.0000 0.0000 0.0000 0.0000 14.5811
#
#
#
# Elastic Compliance Matrix: (Units=1/GPa)
#
#
# Indices 1 2 3 4 5 6 
#
# 1 0.012733 0.001863 0.002067 0.000000 0.000000 0.000000
# 2 0.001863 0.016802 0.008266 0.000000 0.000000 0.000000
# 3 0.002067 0.008266 0.040569 0.000000 0.000000 0.000000
# 4 0.000000 0.000000 0.000000 0.048402 0.000000 0.000000
# 5 0.000000 0.000000 0.000000 0.000000 -0.118235 0.000000
# 6 0.000000 0.000000 0.000000 0.000000 0.000000 0.068582
#
#
# Mechanical properties :
#
#
# Convention : Reuss Voigt Hill
#
# Bulk Modulus (GPa) = 10.58249 14.17996 12.38123
# Shear Modulus (GPa) = 65.82378 18.54378 42.18378
#
# Velocity S-wave (km/s) = 5.55989 2.95103 4.45090
# Velocity P-wave (km/s) = 6.79605 4.27442 5.67701
#
# Compressibility (1/GPa) = 0.09449571
#
# Stress axis : x y z
#
# Youngs Moduli (GPa) = 78.53355 59.51713 24.64914
#
# Poissons Ratio (x) = -0.11088 -0.05095
# Poissons Ratio (y) = -0.14631 -0.20374
# Poissons Ratio (z) = -0.16232 -0.49195
#
# Static dielectric constant tensor:
#      x y z
#    x 1.766560 0.000000 0.000000 
#    y 0.000000 1.743240 0.000000 
#    z 0.000000 0.000000 1.787360 
# 
# From -- ./inp_files/4669.got.cif
#   From: 2010.05.17/outbox.cif.g08.bks.cpg/sg58_3_cif.got.tgz:4669.got - 2010.06.03 14:20:14.
