data_PCOD9441026
_publ_section_title
;
Structure prediction by ZEFSAII (Michael W. Deem and Ramdas Pophale) SiO2 
 PCOD9441026
Probable space group: P N N M
;
_chemical_formula_sum "Si O2"
_cell_formula_units_Z 40
_cell_length_a 12.018864
_cell_length_b 8.003296
_cell_length_c 17.279835
_cell_angle_alpha 90.000000
_cell_angle_beta 90.000000
_cell_angle_gamma 90.000000
_cell_volume 1662.156421
_symmetry_space_group_name_H-M "P N N M"
_symmetry_group_IT_number 58
_symmetry_cell_setting 'orthorhombic'
loop_
_space_group_symop_operation_xyz
x,y,z
-x,-y,z
1/2+x,1/2-y,1/2-z
1/2-x,1/2+y,1/2-z
-x,-y,-z
x,y,-z
1/2-x,1/2+y,1/2+z
1/2+x,1/2-y,1/2+z
loop_
_atom_site_type_symbol
_atom_site_label
_atom_site_fract_x
_atom_site_fract_y
_atom_site_fract_z
Si Si1 0.123905 0.131080 0.411157
Si Si2 0.075876 0.665194 0.409831
Si Si3 0.193073 0.775681 0.835829
Si Si4 0.342073 0.954099 0.407553
Si Si5 0.303362 0.643774 0.681378
O O1 0.096359 0.110053 0.500000
O O2 0.215741 0.279554 0.404662
O O3 0.007358 0.190298 0.376190
O O4 0.207642 0.978793 0.392151
O O5 0.106702 0.697572 0.500000
O O6 0.183051 0.631519 0.359018
O O7 0.000000 0.500000 0.409698
O O8 0.115762 0.620823 0.863101
O O9 0.272431 0.714900 0.765486
O O10 0.146764 0.957457 0.817932
O O11 0.361817 0.959056 0.500000
O O12 0.370395 0.780187 0.367808
#
# Coordination Sequence:
#
# PCOD9441026 Si02
#       5
#     8   8   8   8   8
#     4   8  16  32  48  70 104 130 161 209 248 306
#     4  10  18  29  50  78 104 136 171 207 259 318
#     4  10  19  33  47  67 101 138 175 214 247 302
#     4   9  19  32  48  72  97 131 173 209 249 306
#     4  12  20  31  50  69 101 145 177 211 258 302
#
# _framework density 24.065125999999999
#
# number of rings (size 3 to 8) (size 9 to 14) (size 15 to 20)
#    1.200    1.000    4.000    0.600    0.000    3.200 
#    0.000    3.000    0.000    0.000    0.000    0.000 
#    0.000   17.600    0.000   34.600    0.000    0.000 
#
# Total GULP energy -222731.427498 kJ/mol
# GULP energy per Si atom -5568.285687 kJ/mol
# Density = 2.401035 g / cm^3
# Si number density = 24.065126 Si / 1000 Ang^3
#
#
#
# Elastic Constant Matrix: (Units=GPa)
#
#
# Indices 1 2 3 4 5 6 
#
# 1 52.8183 -14.7382 -5.5752 0.0000 0.0000 0.0000
# 2 -14.7382 204.5669 48.0334 0.0000 0.0000 0.0000
# 3 -5.5752 48.0334 85.7981 0.0000 0.0000 0.0000
# 4 0.0000 0.0000 0.0000 30.1029 0.0000 0.0000
# 5 0.0000 0.0000 0.0000 0.0000 -8.2637 0.0000
# 6 0.0000 0.0000 0.0000 0.0000 0.0000 10.6249
#
#
#
# Elastic Compliance Matrix: (Units=1/GPa)
#
#
# Indices 1 2 3 4 5 6 
#
# 1 0.019344 0.001265 0.000549 0.000000 0.000000 0.000000
# 2 0.001265 0.005711 -0.003115 0.000000 0.000000 0.000000
# 3 0.000549 -0.003115 0.013435 0.000000 0.000000 0.000000
# 4 0.000000 0.000000 0.000000 0.033219 0.000000 0.000000
# 5 0.000000 0.000000 0.000000 0.000000 -0.121011 0.000000
# 6 0.000000 0.000000 0.000000 0.000000 0.000000 0.094119
#
#
# Mechanical properties :
#
#
# Convention : Reuss Voigt Hill
#
# Bulk Modulus (GPa) = 27.86545 44.29147 36.07846
# Shear Modulus (GPa) = 84.20145 27.52369 55.86257
#
# Velocity S-wave (km/s) = 5.92157 3.38556 4.82322
# Velocity P-wave (km/s) = 7.63921 5.80753 6.78546
#
# Compressibility (1/GPa) = 0.03588673
#
# Stress axis : x y z
#
# Youngs Moduli (GPa) = 51.69644 175.10307 74.43315
#
# Poissons Ratio (x) = -0.22146 -0.04086
# Poissons Ratio (y) = -0.06538 0.23186
# Poissons Ratio (z) = -0.02838 0.54545
#
# Static dielectric constant tensor:
#      x y z
#    x 1.986900 0.000000 0.000000 
#    y 0.000000 2.149310 0.000000 
#    z 0.000000 0.000000 2.003450 
# 
# From -- ./inp_files/27193.got.cif
#   From: 2010.05.17/outbox.cif.g08.bks.cpg/sg58_14_cif.got.tgz:27193.got - 2010.06.03 14:20:14.
