data_PCOD9441049
_publ_section_title
;
Structure prediction by ZEFSAII (Michael W. Deem and Ramdas Pophale) SiO2 
 PCOD9441049
Probable space group: P N N M
;
_chemical_formula_sum "Si O2"
_cell_formula_units_Z 40
_cell_length_a 7.369632
_cell_length_b 30.503648
_cell_length_c 7.990320
_cell_angle_alpha 90.000000
_cell_angle_beta 90.000000
_cell_angle_gamma 90.000000
_cell_volume 1796.229213
_symmetry_space_group_name_H-M "P N N M"
_symmetry_group_IT_number 58
_symmetry_cell_setting 'orthorhombic'
loop_
_space_group_symop_operation_xyz
x,y,z
-x,-y,z
1/2+x,1/2-y,1/2-z
1/2-x,1/2+y,1/2-z
-x,-y,-z
x,y,-z
1/2-x,1/2+y,1/2+z
1/2+x,1/2-y,1/2+z
loop_
_atom_site_type_symbol
_atom_site_label
_atom_site_fract_x
_atom_site_fract_y
_atom_site_fract_z
Si Si1 0.802793 0.798556 0.297917
Si Si2 0.252302 0.606759 0.810474
Si Si3 0.299643 0.298992 0.310969
Si Si4 0.292145 0.447156 0.500000
Si Si5 0.765125 0.952353 0.000000
Si Si6 0.196596 0.890899 0.318310
O O1 0.840257 0.798130 0.500000
O O2 0.692300 0.843258 0.270163
O O3 0.729704 0.750725 0.251790
O O4 0.984255 0.803548 0.192638
O O5 0.201756 0.573021 0.666060
O O6 0.474774 0.608621 0.813803
O O7 0.196092 0.595446 0.000000
O O8 0.229148 0.303116 0.500000
O O9 0.239333 0.340663 0.203962
O O10 0.220390 0.496457 0.500000
O O11 0.513404 0.449638 0.500000
O O12 0.240193 0.420159 0.335347
O O13 0.251213 0.907670 0.500000
#
# Coordination Sequence:
#
# PCOD9441049 Si02
#       6
#     8   8   8   4   4   8
#     4   9  19  31  44  67  95 124 160 195 230 279
#     4   8  15  27  39  56  86 116 145 186 229 271
#     4  10  18  30  47  66  94 127 158 195 232 275
#     4   9  16  26  38  60  85 113 155 191 222 279
#     4   9  16  24  40  60  81 115 157 185 224 281
#     4   9  16  27  41  58  86 119 148 186 233 274
#
# _framework density 22.268874
#
# number of rings (size 3 to 8) (size 9 to 14) (size 15 to 20)
#    0.000    3.000    1.000    1.800    4.200    2.400 
#    0.000    4.000    0.000    0.000    0.000    0.000 
#    0.000    3.200    0.000    9.000    0.000    7.400 
#
# Total GULP energy -223121.744867 kJ/mol
# GULP energy per Si atom -5578.043622 kJ/mol
# Density = 2.221819 g / cm^3
# Si number density = 22.268874 Si / 1000 Ang^3
#
#
#
# Elastic Constant Matrix: (Units=GPa)
#
#
# Indices 1 2 3 4 5 6 
#
# 1 56.1811 -2.7421 1.6033 0.0000 0.0000 0.0000
# 2 -2.7421 192.2412 117.3164 0.0000 0.0000 0.0000
# 3 1.6033 117.3164 151.8337 0.0000 0.0000 0.0000
# 4 0.0000 0.0000 0.0000 133.1439 0.0000 0.0000
# 5 0.0000 0.0000 0.0000 0.0000 -12.6501 0.0000
# 6 0.0000 0.0000 0.0000 0.0000 0.0000 10.1277
#
#
#
# Elastic Compliance Matrix: (Units=1/GPa)
#
#
# Indices 1 2 3 4 5 6 
#
# 1 0.017855 0.000700 -0.000729 0.000000 0.000000 0.000000
# 2 0.000700 0.009870 -0.007634 0.000000 0.000000 0.000000
# 3 -0.000729 -0.007634 0.012492 0.000000 0.000000 0.000000
# 4 0.000000 0.000000 0.000000 0.007511 0.000000 0.000000
# 5 0.000000 0.000000 0.000000 0.000000 -0.079051 0.000000
# 6 0.000000 0.000000 0.000000 0.000000 0.000000 0.098740
#
#
# Mechanical properties :
#
#
# Convention : Reuss Voigt Hill
#
# Bulk Modulus (GPa) = 40.17601 70.29013 55.23307
# Shear Modulus (GPa) = 54.92067 45.06284 49.99176
#
# Velocity S-wave (km/s) = 4.97153 4.50330 4.74320
# Velocity P-wave (km/s) = 7.14390 7.65980 7.40634
#
# Compressibility (1/GPa) = 0.02489047
#
# Stress axis : x y z
#
# Youngs Moduli (GPa) = 56.00814 101.31300 80.04946
#
# Poissons Ratio (x) = -0.07088 0.05836
# Poissons Ratio (y) = -0.03918 0.61109
# Poissons Ratio (z) = 0.04084 0.77341
#
# Static dielectric constant tensor:
#      x y z
#    x 1.924160 0.000000 0.000000 
#    y 0.000000 1.824220 0.000000 
#    z 0.000000 0.000000 1.773980 
# 
# From -- ./inp_files/2667.got.cif
#   From: 2010.05.17/outbox.cif.g08.bks.cpg/sg58_2_cif.got.tgz:2667.got - 2010.06.03 14:20:14.
