data_PCOD9441368
_publ_section_title
;
Structure prediction by ZEFSAII (Michael W. Deem and Ramdas Pophale) SiO2 
 PCOD9441368
Probable space group: P N N M
;
_chemical_formula_sum "Si O2"
_cell_formula_units_Z 40
_cell_length_a 11.467561
_cell_length_b 9.647244
_cell_length_c 15.385115
_cell_angle_alpha 90.000000
_cell_angle_beta 90.000000
_cell_angle_gamma 90.000000
_cell_volume 1702.060797
_symmetry_space_group_name_H-M "P N N M"
_symmetry_group_IT_number 58
_symmetry_cell_setting 'orthorhombic'
loop_
_space_group_symop_operation_xyz
x,y,z
-x,-y,z
1/2+x,1/2-y,1/2-z
1/2-x,1/2+y,1/2-z
-x,-y,-z
x,y,-z
1/2-x,1/2+y,1/2+z
1/2+x,1/2-y,1/2+z
loop_
_atom_site_type_symbol
_atom_site_label
_atom_site_fract_x
_atom_site_fract_y
_atom_site_fract_z
Si Si1 0.974209 0.843761 0.850263
Si Si2 0.122229 0.547345 0.600388
Si Si3 0.105394 0.083185 0.650664
Si Si4 0.741815 0.693525 0.150521
Si Si5 0.730394 0.696512 0.352266
O O1 0.948954 0.868434 0.745541
O O2 0.866494 0.750496 0.882365
O O3 0.097361 0.773891 0.874519
O O4 0.000000 0.000000 0.883708
O O5 0.121018 0.507605 0.500000
O O6 0.144182 0.710101 0.607158
O O7 0.231391 0.463516 0.639753
O O8 0.000000 0.500000 0.641858
O O9 0.165458 0.214867 0.606689
O O10 0.208545 0.967514 0.651318
O O11 0.000000 0.000000 0.607556
O O12 0.735908 0.734045 0.251325
#
# Coordination Sequence:
#
# PCOD9441368 Si02
#       5
#     8   8   8   8   8
#     4  10  18  34  53  91 121 155 220 256 328 372
#     4  11  25  42  63  95 134 179 221 263 334 404
#     4  10  19  33  53  89 122 154 209 273 316 369
#     4  11  20  36  60  88 127 165 216 275 315 378
#     4  11  20  38  61  87 130 169 217 275 313 388
#
# _framework density 23.500924000000001
#
# number of rings (size 3 to 8) (size 9 to 14) (size 15 to 20)
#    0.000    1.400    6.000    2.400    2.800    0.800 
#    0.000    3.000    0.000    3.600    0.000    2.800 
#    0.000    0.000    0.000    0.000    0.000    0.000 
#
# Total GULP energy -222879.874150 kJ/mol
# GULP energy per Si atom -5571.996854 kJ/mol
# Density = 2.344744 g / cm^3
# Si number density = 23.500924 Si / 1000 Ang^3
#
#
#
# Elastic Constant Matrix: (Units=GPa)
#
#
# Indices 1 2 3 4 5 6 
#
# 1 102.9676 12.5650 4.8603 0.0000 0.0000 0.0000
# 2 12.5650 83.7463 3.8427 0.0000 0.0000 0.0000
# 3 4.8603 3.8427 35.6187 0.0000 0.0000 0.0000
# 4 0.0000 0.0000 0.0000 10.9430 0.0000 0.0000
# 5 0.0000 0.0000 0.0000 0.0000 16.0262 0.0000
# 6 0.0000 0.0000 0.0000 0.0000 0.0000 53.9578
#
#
#
# Elastic Compliance Matrix: (Units=1/GPa)
#
#
# Indices 1 2 3 4 5 6 
#
# 1 0.009944 -0.001437 -0.001202 0.000000 0.000000 0.000000
# 2 -0.001437 0.012208 -0.001121 0.000000 0.000000 0.000000
# 3 -0.001202 -0.001121 0.028360 0.000000 0.000000 0.000000
# 4 0.000000 0.000000 0.000000 0.091383 0.000000 0.000000
# 5 0.000000 0.000000 0.000000 0.000000 0.062398 0.000000
# 6 0.000000 0.000000 0.000000 0.000000 0.000000 0.018533
#
#
# Mechanical properties :
#
#
# Convention : Reuss Voigt Hill
#
# Bulk Modulus (GPa) = 23.25984 29.42981 26.34482
# Shear Modulus (GPa) = 20.43521 29.58969 25.01245
#
# Velocity S-wave (km/s) = 2.95201 3.55221 3.26593
# Velocity P-wave (km/s) = 4.64091 5.41980 5.04541
#
# Compressibility (1/GPa) = 0.04299256
#
# Stress axis : x y z
#
# Youngs Moduli (GPa) = 100.56464 81.91458 35.26079
#
# Poissons Ratio (x) = 0.11769 0.04238
# Poissons Ratio (y) = 0.14449 0.03953
# Poissons Ratio (z) = 0.12087 0.09182
#
# Static dielectric constant tensor:
#      x y z
#    x 2.012380 0.000000 0.000000 
#    y 0.000000 1.927370 0.000000 
#    z 0.000000 0.000000 1.861450 
# 
# From -- ./inp_files/25927.got.cif
#   From: 2010.05.17/outbox.cif.g08.bks.cpg/sg58_13_cif.got.tgz:25927.got - 2010.06.03 14:20:14.
