data_PCOD9441282
_publ_section_title
;
Structure prediction by ZEFSAII (Michael W. Deem and Ramdas Pophale) SiO2 
 PCOD9441282
Probable space group: P N N M
;
_chemical_formula_sum "Si O2"
_cell_formula_units_Z 58
_cell_length_a 15.258194
_cell_length_b 24.347944
_cell_length_c 7.578531
_cell_angle_alpha 90.000000
_cell_angle_beta 90.000000
_cell_angle_gamma 90.000000
_cell_volume 2815.467108
_symmetry_space_group_name_H-M "P N N M"
_symmetry_group_IT_number 58
_symmetry_cell_setting 'orthorhombic'
loop_
_space_group_symop_operation_xyz
x,y,z
-x,-y,z
1/2+x,1/2-y,1/2-z
1/2-x,1/2+y,1/2-z
-x,-y,-z
x,y,-z
1/2-x,1/2+y,1/2+z
1/2+x,1/2-y,1/2+z
loop_
_atom_site_type_symbol
_atom_site_label
_atom_site_fract_x
_atom_site_fract_y
_atom_site_fract_z
Si Si1 0.265572 0.019527 0.801173
Si Si2 0.043674 0.722911 0.787362
Si Si3 0.107568 0.943276 0.215402
Si Si4 0.638288 0.180154 0.790618
Si Si5 0.166635 0.819504 0.213856
Si Si6 0.000000 0.000000 0.500000
Si Si7 0.081805 0.440465 0.798568
Si Si8 0.904263 0.397072 0.207177
O O1 0.310902 0.073821 0.724690
O O2 0.180376 0.989010 0.726140
O O3 0.343668 0.974774 0.797317
O O4 0.242180 0.033314 0.000000
O O5 0.096260 0.775468 0.720382
O O6 0.084438 0.664655 0.722289
O O7 0.940963 0.721717 0.742844
O O8 0.050700 0.722850 0.000000
O O9 0.145323 0.882708 0.254710
O O10 0.026471 0.955694 0.341406
O O11 0.093904 0.946839 0.000000
O O12 0.735044 0.196063 0.729815
O O13 0.611805 0.122814 0.702193
O O14 0.642020 0.169430 0.000000
O O15 0.165395 0.816703 0.000000
O O16 0.983144 0.436061 0.722715
O O17 0.081071 0.461790 0.000000
O O18 0.924030 0.393652 0.000000
#
# Coordination Sequence:
#
# PCOD9441282 Si02
#       8
#     8   8   8   8   8   2   8   8
#     4  11  21  33  54  84 118 155 198 247 304 361
#     4   9  19  37  57  82 117 164 200 248 314 370
#     4  10  23  43  66  95 122 158 210 267 311 370
#     4  10  18  32  55  86 117 149 193 252 301 361
#     4   9  18  38  65  84 117 160 202 250 313 366
#     4  12  26  44  68  94 118 160 198 256 330 360
#     4  10  19  31  51  81 117 152 192 242 289 358
#     4   9  19  32  49  78 120 161 196 235 297 367
#
# _framework density 20.600489
#
# number of rings (size 3 to 8) (size 9 to 14) (size 15 to 20)
#    0.000    2.207    1.379    2.690    1.931    4.414 
#    2.483    1.379    3.034    1.655    0.000    0.000 
#    0.000    0.000    0.000    0.000    0.000    0.000 
#
# Total GULP energy -322898.838806 kJ/mol
# GULP energy per Si atom -5567.221359 kJ/mol
# Density = 2.055360 g / cm^3
# Si number density = 20.600489 Si / 1000 Ang^3
#
#
#
# Elastic Constant Matrix: (Units=GPa)
#
#
# Indices 1 2 3 4 5 6 
#
# 1 66.7941 54.9534 7.1301 0.0000 0.0000 0.0000
# 2 54.9534 70.3805 12.8546 0.0000 0.0000 0.0000
# 3 7.1301 12.8546 65.5932 0.0000 0.0000 0.0000
# 4 0.0000 0.0000 0.0000 15.5981 0.0000 0.0000
# 5 0.0000 0.0000 0.0000 0.0000 36.8882 0.0000
# 6 0.0000 0.0000 0.0000 0.0000 0.0000 36.2915
#
#
#
# Elastic Compliance Matrix: (Units=1/GPa)
#
#
# Indices 1 2 3 4 5 6 
#
# 1 0.042101 -0.033226 0.001935 0.000000 0.000000 0.000000
# 2 -0.033226 0.040958 -0.004415 0.000000 0.000000 0.000000
# 3 0.001935 -0.004415 0.015900 0.000000 0.000000 0.000000
# 4 0.000000 0.000000 0.000000 0.064110 0.000000 0.000000
# 5 0.000000 0.000000 0.000000 0.000000 0.027109 0.000000
# 6 0.000000 0.000000 0.000000 0.000000 0.000000 0.027555
#
#
# Mechanical properties :
#
#
# Convention : Reuss Voigt Hill
#
# Bulk Modulus (GPa) = 36.30133 39.18265 37.74199
# Shear Modulus (GPa) = 16.76015 26.27754 21.51885
#
# Velocity S-wave (km/s) = 2.85543 3.57540 3.23550
# Velocity P-wave (km/s) = 5.34145 6.00884 5.68495
#
# Compressibility (1/GPa) = 0.02754720
#
# Stress axis : x y z
#
# Youngs Moduli (GPa) = 23.75258 24.41540 62.89161
#
# Poissons Ratio (x) = 0.81122 -0.12170
# Poissons Ratio (y) = 0.78920 0.27767
# Poissons Ratio (z) = -0.04596 0.10779
#
# Static dielectric constant tensor:
#      x y z
#    x 1.786090 0.000000 0.000000 
#    y 0.000000 1.741920 0.000000 
#    z 0.000000 0.000000 1.763640 
# 
# From -- ./inp_files/6718.got.cif
#   From: 2010.05.17/outbox.cif.g08.bks.cpg/sg58_4_cif.got.tgz:6718.got - 2010.06.03 14:20:14.
