data_PCOD9441209
_publ_section_title
;
Structure prediction by ZEFSAII (Michael W. Deem and Ramdas Pophale) SiO2 
 PCOD9441209
Probable space group: P N N M
;
_chemical_formula_sum "Si O2"
_cell_formula_units_Z 56
_cell_length_a 10.024571
_cell_length_b 22.688156
_cell_length_c 13.657230
_cell_angle_alpha 90.000000
_cell_angle_beta 90.000000
_cell_angle_gamma 90.000000
_cell_volume 3106.187153
_symmetry_space_group_name_H-M "P N N M"
_symmetry_group_IT_number 58
_symmetry_cell_setting 'orthorhombic'
loop_
_space_group_symop_operation_xyz
x,y,z
-x,-y,z
1/2+x,1/2-y,1/2-z
1/2-x,1/2+y,1/2-z
-x,-y,-z
x,y,-z
1/2-x,1/2+y,1/2+z
1/2+x,1/2-y,1/2+z
loop_
_atom_site_type_symbol
_atom_site_label
_atom_site_fract_x
_atom_site_fract_y
_atom_site_fract_z
Si Si1 0.148167 0.975493 0.500000
Si Si2 0.103828 0.553477 0.219034
Si Si3 0.691875 0.654957 0.730456
Si Si4 0.493823 0.714864 0.886379
Si Si5 0.101962 0.554950 0.000000
Si Si6 0.645173 0.529123 0.783053
Si Si7 0.497905 0.169873 0.773236
Si Si8 0.814776 0.269404 0.886778
O O1 0.169488 0.946090 0.605388
O O2 0.248802 0.030067 0.500000
O O3 0.000000 0.000000 0.500000
O O4 0.246354 0.522349 0.231392
O O5 0.068608 0.606541 0.290633
O O6 0.000000 0.500000 0.227575
O O7 0.086706 0.580715 0.108548
O O8 0.590231 0.679343 0.813402
O O9 0.661616 0.586053 0.715042
O O10 0.680270 0.699764 0.639164
O O11 0.848298 0.660433 0.757312
O O12 0.511887 0.784337 0.862797
O O13 0.335221 0.705883 0.867060
O O14 0.520003 0.701154 0.000000
O O15 0.000000 0.500000 0.000000
O O16 0.500000 0.500000 0.777716
O O17 0.417999 0.201380 0.686470
O O18 0.844490 0.279983 0.000000
#
# Coordination Sequence:
#
# PCOD9441209 Si02
#       8
#     4   8   8   8   4   8   8   8
#     4   8  16  30  40  62  98 130 164 194 234 300
#     4  10  18  32  47  73 105 134 166 209 256 312
#     4  10  20  35  55  80 106 138 176 216 264 312
#     4   9  20  38  55  76 104 138 178 221 263 307
#     4   8  16  26  40  62  98 128 154 192 242 292
#     4  10  20  32  49  75 106 139 171 207 260 316
#     4  10  20  34  56  79 105 138 176 217 264 312
#     4   9  20  38  56  77 103 138 179 221 264 307
#
# _framework density 18.028532999999999
#
# number of rings (size 3 to 8) (size 9 to 14) (size 15 to 20)
#    0.000    2.571    1.429    0.000    4.000    0.571 
#    0.000    0.000    0.000    1.714    0.000    0.000 
#    0.000    0.000    0.000    0.000    0.000    0.000 
#
# Total GULP energy -311783.191306 kJ/mol
# GULP energy per Si atom -5567.556988 kJ/mol
# Density = 1.798750 g / cm^3
# Si number density = 18.028533 Si / 1000 Ang^3
#
#
#
# Elastic Constant Matrix: (Units=GPa)
#
#
# Indices 1 2 3 4 5 6 
#
# 1 84.9761 9.0500 14.5289 0.0000 0.0000 0.0000
# 2 9.0500 59.7334 -4.6804 0.0000 0.0000 0.0000
# 3 14.5289 -4.6804 21.3503 0.0000 0.0000 0.0000
# 4 0.0000 0.0000 0.0000 19.4006 0.0000 0.0000
# 5 0.0000 0.0000 0.0000 0.0000 17.3886 0.0000
# 6 0.0000 0.0000 0.0000 0.0000 0.0000 22.8980
#
#
#
# Elastic Compliance Matrix: (Units=1/GPa)
#
#
# Indices 1 2 3 4 5 6 
#
# 1 0.013786 -0.002873 -0.010011 0.000000 0.000000 0.000000
# 2 -0.002873 0.017632 0.005821 0.000000 0.000000 0.000000
# 3 -0.010011 0.005821 0.054926 0.000000 0.000000 0.000000
# 4 0.000000 0.000000 0.000000 0.051545 0.000000 0.000000
# 5 0.000000 0.000000 0.000000 0.000000 0.057509 0.000000
# 6 0.000000 0.000000 0.000000 0.000000 0.000000 0.043672
#
#
# Mechanical properties :
#
#
# Convention : Reuss Voigt Hill
#
# Bulk Modulus (GPa) = 13.84710 22.65075 18.24893
# Shear Modulus (GPa) = 18.03300 21.74818 19.89059
#
# Velocity S-wave (km/s) = 3.16610 3.47698 3.32518
# Velocity P-wave (km/s) = 4.58944 5.35820 4.98865
#
# Compressibility (1/GPa) = 0.07221729
#
# Stress axis : x y z
#
# Youngs Moduli (GPa) = 72.53929 56.71370 18.20623
#
# Poissons Ratio (x) = 0.16294 0.18226
# Poissons Ratio (y) = 0.20841 -0.10597
# Poissons Ratio (z) = 0.72619 -0.33010
#
# Static dielectric constant tensor:
#      x y z
#    x 1.618070 0.000000 0.000000 
#    y 0.000000 1.641590 0.000000 
#    z 0.000000 0.000000 1.627520 
# 
# From -- ./inp_files/20177.got.cif
#   From: 2010.05.17/outbox.cif.g08.bks.cpg/sg58_11_cif.got.tgz:20177.got - 2010.06.03 14:20:14.
