data_PCOD9441864
_publ_section_title
;
Structure prediction by ZEFSAII (Michael W. Deem and Ramdas Pophale) SiO2 
 PCOD9441864
Probable space group: P N N M
;
_chemical_formula_sum "Si O2"
_cell_formula_units_Z 48
_cell_length_a 10.469563
_cell_length_b 29.995233
_cell_length_c 8.755810
_cell_angle_alpha 90.000000
_cell_angle_beta 90.000000
_cell_angle_gamma 90.000000
_cell_volume 2749.648144
_symmetry_space_group_name_H-M "P N N M"
_symmetry_group_IT_number 58
_symmetry_cell_setting 'orthorhombic'
loop_
_space_group_symop_operation_xyz
x,y,z
-x,-y,z
1/2+x,1/2-y,1/2-z
1/2-x,1/2+y,1/2-z
-x,-y,-z
x,y,-z
1/2-x,1/2+y,1/2+z
1/2+x,1/2-y,1/2+z
loop_
_atom_site_type_symbol
_atom_site_label
_atom_site_fract_x
_atom_site_fract_y
_atom_site_fract_z
Si Si1 0.223007 0.615704 0.817299
Si Si2 0.778189 0.287091 0.683366
Si Si3 0.122841 0.971608 0.183908
Si Si4 0.372443 0.026295 0.184351
Si Si5 0.497701 0.282568 0.815400
Si Si6 0.480460 0.384321 0.817109
O O1 0.191469 0.663580 0.745799
O O2 0.139374 0.575125 0.755925
O O3 0.371486 0.606029 0.775398
O O4 0.215904 0.618852 0.000000
O O5 0.772569 0.288098 0.500000
O O6 0.638065 0.274190 0.746573
O O7 0.889315 0.252642 0.729656
O O8 0.108038 0.921508 0.243116
O O9 0.250441 0.996963 0.232984
O O10 0.121339 0.970714 0.000000
O O11 0.000000 0.000000 0.236668
O O12 0.500000 0.000000 0.226683
O O13 0.369034 0.030720 0.000000
O O14 0.457261 0.333021 0.771736
O O15 0.510009 0.281907 0.000000
O O16 0.469533 0.387243 0.000000
#
# Coordination Sequence:
#
# PCOD9441864 Si02
#       6
#     8   8   8   8   8   8
#     4  10  20  35  56  80 108 141 183 223 265 324
#     4  10  20  36  60  83 110 146 182 224 276 326
#     4  10  19  32  53  79 103 132 176 219 253 311
#     4  10  21  37  54  75 109 143 176 220 271 324
#     4   9  20  38  56  81 113 142 180 226 272 326
#     4   9  18  33  54  78 105 136 172 220 267 310
#
# _framework density 17.456779000000001
#
# number of rings (size 3 to 8) (size 9 to 14) (size 15 to 20)
#    0.000    2.333    1.667    2.000    0.000    5.333 
#    3.000    0.000    0.000    0.000    0.000    0.000 
#    0.000    0.000    0.000    0.000    0.000    0.000 
#
# Total GULP energy -267793.632556 kJ/mol
# GULP energy per Si atom -5579.034012 kJ/mol
# Density = 1.741705 g / cm^3
# Si number density = 17.456779 Si / 1000 Ang^3
#
#
#
# Elastic Constant Matrix: (Units=GPa)
#
#
# Indices 1 2 3 4 5 6 
#
# 1 122.5451 95.9963 32.4129 0.0000 0.0000 0.0000
# 2 95.9963 153.1960 35.7557 0.0000 0.0000 0.0000
# 3 32.4129 35.7557 18.4353 0.0000 0.0000 0.0000
# 4 0.0000 0.0000 0.0000 29.4275 0.0000 0.0000
# 5 0.0000 0.0000 0.0000 0.0000 14.0906 0.0000
# 6 0.0000 0.0000 0.0000 0.0000 0.0000 36.6635
#
#
#
# Elastic Compliance Matrix: (Units=1/GPa)
#
#
# Indices 1 2 3 4 5 6 
#
# 1 0.019060 -0.007531 -0.018904 0.000000 0.000000 0.000000
# 2 -0.007531 0.014902 -0.015662 0.000000 0.000000 0.000000
# 3 -0.018904 -0.015662 0.117858 0.000000 0.000000 0.000000
# 4 0.000000 0.000000 0.000000 0.033982 0.000000 0.000000
# 5 0.000000 0.000000 0.000000 0.000000 0.070969 0.000000
# 6 0.000000 0.000000 0.000000 0.000000 0.000000 0.027275
#
#
# Mechanical properties :
#
#
# Convention : Reuss Voigt Hill
#
# Bulk Modulus (GPa) = 14.78737 69.16737 41.97737
# Shear Modulus (GPa) = 12.79481 24.70375 18.74928
#
# Velocity S-wave (km/s) = 2.71023 3.76591 3.28081
# Velocity P-wave (km/s) = 4.27586 7.65621 6.20083
#
# Compressibility (1/GPa) = 0.06762526
#
# Stress axis : x y z
#
# Youngs Moduli (GPa) = 52.46577 67.10352 8.48479
#
# Poissons Ratio (x) = 0.50537 0.16040
# Poissons Ratio (y) = 0.39513 0.13289
# Poissons Ratio (z) = 0.99183 1.05098
#
# Static dielectric constant tensor:
#      x y z
#    x 1.580100 0.000000 0.000000 
#    y 0.000000 1.581900 0.000000 
#    z 0.000000 0.000000 1.588490 
# 
# From -- ./inp_files/2942.got.cif
#   From: 2010.05.17/outbox.cif.g08.bks.cpg/sg58_2_cif.got.tgz:2942.got - 2010.06.03 14:20:14.
