data_PCOD9441695
_publ_section_title
;
Structure prediction by ZEFSAII (Michael W. Deem and Ramdas Pophale) SiO2 
 PCOD9441695
Probable space group: P N N M
;
_chemical_formula_sum "Si O2"
_cell_formula_units_Z 40
_cell_length_a 8.116585
_cell_length_b 24.639548
_cell_length_c 7.490182
_cell_angle_alpha 90.000000
_cell_angle_beta 90.000000
_cell_angle_gamma 90.000000
_cell_volume 1497.953901
_symmetry_space_group_name_H-M "P N N M"
_symmetry_group_IT_number 58
_symmetry_cell_setting 'orthorhombic'
loop_
_space_group_symop_operation_xyz
x,y,z
-x,-y,z
1/2+x,1/2-y,1/2-z
1/2-x,1/2+y,1/2-z
-x,-y,-z
x,y,-z
1/2-x,1/2+y,1/2+z
1/2+x,1/2-y,1/2+z
loop_
_atom_site_type_symbol
_atom_site_label
_atom_site_fract_x
_atom_site_fract_y
_atom_site_fract_z
Si Si1 0.354624 0.727923 0.215379
Si Si2 0.984385 0.332548 0.712514
Si Si3 0.550957 0.629496 0.207420
Si Si4 0.835905 0.966316 0.784240
Si Si5 0.129526 0.437702 0.704334
O O1 0.381605 0.789027 0.281375
O O2 0.501327 0.688213 0.280021
O O3 0.186199 0.698504 0.262865
O O4 0.365512 0.728886 0.000000
O O5 0.007929 0.338655 0.500000
O O6 0.005975 0.393356 0.786578
O O7 0.383782 0.593345 0.221659
O O8 0.698823 0.597082 0.299193
O O9 0.595105 0.632894 0.000000
O O10 0.684203 0.003686 0.720117
O O11 0.826165 0.964389 0.000000
O O12 0.000000 0.000000 0.733750
O O13 0.078900 0.447391 0.500000
#
# Coordination Sequence:
#
# PCOD9441695 Si02
#       5
#     8   8   8   8   8
#     4  10  22  37  52  76 106 131 164 210 253 299
#     4  10  21  37  56  76  99 132 171 207 250 303
#     4  10  19  31  50  77 106 135 167 203 248 301
#     4   8  15  29  49  73 101 132 168 209 246 285
#     4   9  18  33  53  77 102 130 170 213 247 289
#
# _framework density 26.703091000000001
#
# number of rings (size 3 to 8) (size 9 to 14) (size 15 to 20)
#    0.000    2.600    0.000    3.000    0.000    6.800 
#    0.000    1.000    0.000    6.000    0.000    0.000 
#    0.000    0.000    0.000    0.000    0.000    0.000 
#
# Total GULP energy -223665.540115 kJ/mol
# GULP energy per Si atom -5591.638503 kJ/mol
# Density = 2.664231 g / cm^3
# Si number density = 26.703091 Si / 1000 Ang^3
#
#
#
# Elastic Constant Matrix: (Units=GPa)
#
#
# Indices 1 2 3 4 5 6 
#
# 1 114.7773 27.1018 -5.7061 0.0000 0.0000 0.0000
# 2 27.1018 172.5893 20.6664 0.0000 0.0000 0.0000
# 3 -5.7061 20.6664 80.8064 0.0000 0.0000 0.0000
# 4 0.0000 0.0000 0.0000 14.5186 0.0000 0.0000
# 5 0.0000 0.0000 0.0000 0.0000 18.9008 0.0000
# 6 0.0000 0.0000 0.0000 0.0000 0.0000 55.7211
#
#
#
# Elastic Compliance Matrix: (Units=1/GPa)
#
#
# Indices 1 2 3 4 5 6 
#
# 1 0.009133 -0.001559 0.001044 0.000000 0.000000 0.000000
# 2 -0.001559 0.006243 -0.001707 0.000000 0.000000 0.000000
# 3 0.001044 -0.001707 0.012885 0.000000 0.000000 0.000000
# 4 0.000000 0.000000 0.000000 0.068877 0.000000 0.000000
# 5 0.000000 0.000000 0.000000 0.000000 0.052908 0.000000
# 6 0.000000 0.000000 0.000000 0.000000 0.000000 0.017947
#
#
# Mechanical properties :
#
#
# Convention : Reuss Voigt Hill
#
# Bulk Modulus (GPa) = 41.98716 50.25523 46.12119
# Shear Modulus (GPa) = 27.71982 39.56883 33.64432
#
# Velocity S-wave (km/s) = 3.22541 3.85360 3.55342
# Velocity P-wave (km/s) = 5.44324 6.21781 5.84338
#
# Compressibility (1/GPa) = 0.02381681
#
# Stress axis : x y z
#
# Youngs Moduli (GPa) = 109.49853 160.17160 77.60672
#
# Poissons Ratio (x) = 0.24972 -0.08099
# Poissons Ratio (y) = 0.17071 0.13246
# Poissons Ratio (z) = -0.11428 0.27339
#
# Static dielectric constant tensor:
#      x y z
#    x 2.161620 0.000000 0.000000 
#    y 0.000000 2.130200 0.000000 
#    z 0.000000 0.000000 1.993950 
# 
# From -- ./inp_files/2447.got.cif
#   From: 2010.05.17/outbox.cif.g08.bks.cpg/sg58_2_cif.got.tgz:2447.got - 2010.06.03 14:20:14.
