data_PCOD9441515
_publ_section_title
;
Structure prediction by ZEFSAII (Michael W. Deem and Ramdas Pophale) SiO2 
 PCOD9441515
Probable space group: P N N M
;
_chemical_formula_sum "Si O2"
_cell_formula_units_Z 64
_cell_length_a 18.506462
_cell_length_b 16.221686
_cell_length_c 14.339460
_cell_angle_alpha 90.000000
_cell_angle_beta 90.000000
_cell_angle_gamma 90.000000
_cell_volume 4304.792152
_symmetry_space_group_name_H-M "P N N M"
_symmetry_group_IT_number 58
_symmetry_cell_setting 'orthorhombic'
loop_
_space_group_symop_operation_xyz
x,y,z
-x,-y,z
1/2+x,1/2-y,1/2-z
1/2-x,1/2+y,1/2-z
-x,-y,-z
x,y,-z
1/2-x,1/2+y,1/2+z
1/2+x,1/2-y,1/2+z
loop_
_atom_site_type_symbol
_atom_site_label
_atom_site_fract_x
_atom_site_fract_y
_atom_site_fract_z
Si Si1 0.461379 0.910393 0.605659
Si Si2 0.163783 0.358385 0.609789
Si Si3 0.987140 0.738819 0.388499
Si Si4 0.949489 0.925527 0.613161
Si Si5 0.416964 0.164267 0.270208
Si Si6 0.792308 0.267932 0.107432
Si Si7 0.659413 0.014292 0.730539
Si Si8 0.783710 0.946852 0.392006
O O1 0.446644 0.883782 0.500000
O O2 0.516432 0.850933 0.658981
O O3 0.609654 0.072102 0.665410
O O4 0.500000 0.000000 0.600930
O O5 0.165394 0.377172 0.500000
O O6 0.088954 0.308772 0.626978
O O7 0.232899 0.300865 0.630694
O O8 0.166657 0.439281 0.672280
O O9 0.002355 0.734923 0.500000
O O10 0.975846 0.834341 0.360392
O O11 0.049209 0.698559 0.325123
O O12 0.950407 0.925759 0.500000
O O13 0.866446 0.941017 0.639141
O O14 0.000000 0.000000 0.646118
O O15 0.357989 0.222202 0.320557
O O16 0.379758 0.074358 0.257546
O O17 0.750054 0.355165 0.107852
O O18 0.817592 0.255442 0.000000
O O19 0.734016 0.999389 0.676469
O O20 0.780430 0.976395 0.500000
#
# Coordination Sequence:
#
# PCOD9441515 Si02
#       8
#     8   8   8   8   8   8   8   8
#     4   9  16  27  42  65  98 127 151 188 240 290
#     4  10  19  32  49  68  97 134 170 199 228 282
#     4  10  19  32  49  70  99 133 162 194 240 293
#     4   9  17  30  49  71  93 120 159 204 247 288
#     4  10  19  30  47  73  99 128 160 201 243 290
#     4   9  17  31  50  69  89 124 170 209 242 279
#     4  10  19  29  45  72 101 128 160 192 240 291
#     4   9  16  29  48  69  94 124 156 196 246 290
#
# _framework density 14.867152000000001
#
# number of rings (size 3 to 8) (size 9 to 14) (size 15 to 20)
#    0.000    2.500    2.500    0.750    0.000    4.500 
#    0.000    1.250    0.000    0.750    0.000    3.500 
#    0.000    4.500    0.000    0.000    0.000    0.000 
#
# Total GULP energy -356477.065571 kJ/mol
# GULP energy per Si atom -5569.954150 kJ/mol
# Density = 1.483331 g / cm^3
# Si number density = 14.867152 Si / 1000 Ang^3
#
#
#
# Elastic Constant Matrix: (Units=GPa)
#
#
# Indices 1 2 3 4 5 6 
#
# 1 101.8192 41.5609 58.7900 0.0000 0.0000 0.0000
# 2 41.5609 57.3726 46.0037 0.0000 0.0000 0.0000
# 3 58.7900 46.0037 78.5487 0.0000 0.0000 0.0000
# 4 0.0000 0.0000 0.0000 15.5688 0.0000 0.0000
# 5 0.0000 0.0000 0.0000 0.0000 14.0508 0.0000
# 6 0.0000 0.0000 0.0000 0.0000 0.0000 17.1780
#
#
#
# Elastic Compliance Matrix: (Units=1/GPa)
#
#
# Indices 1 2 3 4 5 6 
#
# 1 0.017810 -0.004173 -0.010886 0.000000 0.000000 0.000000
# 2 -0.004173 0.033840 -0.016696 0.000000 0.000000 0.000000
# 3 -0.010886 -0.016696 0.030657 0.000000 0.000000 0.000000
# 4 0.000000 0.000000 0.000000 0.064231 0.000000 0.000000
# 5 0.000000 0.000000 0.000000 0.000000 0.071170 0.000000
# 6 0.000000 0.000000 0.000000 0.000000 0.000000 0.058214
#
#
# Mechanical properties :
#
#
# Convention : Reuss Voigt Hill
#
# Bulk Modulus (GPa) = 53.19870 58.93885 56.06877
# Shear Modulus (GPa) = 14.46342 15.45192 14.95767
#
# Velocity S-wave (km/s) = 3.12243 3.22737 3.17533
# Velocity P-wave (km/s) = 6.98998 7.32240 7.15812
#
# Compressibility (1/GPa) = 0.01879745
#
# Stress axis : x y z
#
# Youngs Moduli (GPa) = 56.14730 29.55053 32.61862
#
# Poissons Ratio (x) = 0.12331 0.35510
# Poissons Ratio (y) = 0.23429 0.54461
# Poissons Ratio (z) = 0.61124 0.49338
#
# Static dielectric constant tensor:
#      x y z
#    x 1.489760 0.000000 0.000000 
#    y 0.000000 1.480720 0.000000 
#    z 0.000000 0.000000 1.484000 
# 
# From -- ./inp_files/16665.got.cif
#   From: 2010.05.17/outbox.cif.g08.bks.cpg/sg58_9_cif.got.tgz:16665.got - 2010.06.03 14:20:14.
