data_PCOD9441492
_publ_section_title
;
Structure prediction by ZEFSAII (Michael W. Deem and Ramdas Pophale) SiO2 
 PCOD9441492
Probable space group: P N N M
;
_chemical_formula_sum "Si O2"
_cell_formula_units_Z 64
_cell_length_a 17.962104
_cell_length_b 22.613698
_cell_length_c 9.262762
_cell_angle_alpha 90.000000
_cell_angle_beta 90.000000
_cell_angle_gamma 90.000000
_cell_volume 3762.437548
_symmetry_space_group_name_H-M "P N N M"
_symmetry_group_IT_number 58
_symmetry_cell_setting 'orthorhombic'
loop_
_space_group_symop_operation_xyz
x,y,z
-x,-y,z
1/2+x,1/2-y,1/2-z
1/2-x,1/2+y,1/2-z
-x,-y,-z
x,y,-z
1/2-x,1/2+y,1/2+z
1/2+x,1/2-y,1/2+z
loop_
_atom_site_type_symbol
_atom_site_label
_atom_site_fract_x
_atom_site_fract_y
_atom_site_fract_z
Si Si1 0.735629 0.513530 0.671997
Si Si2 0.084987 0.273139 0.169344
Si Si3 0.040183 0.438215 0.339874
Si Si4 0.944692 0.349535 0.167753
Si Si5 0.784924 0.397484 0.169372
Si Si6 0.671967 0.105397 0.670890
Si Si7 0.072250 0.037932 0.827711
Si Si8 0.122386 0.153107 0.328750
O O1 0.747311 0.516349 0.500000
O O2 0.781872 0.457693 0.737321
O O3 0.759607 0.575379 0.745218
O O4 0.649216 0.497348 0.700933
O O5 0.138643 0.329325 0.207834
O O6 0.102446 0.216160 0.262594
O O7 0.997984 0.292450 0.183667
O O8 0.097988 0.260918 0.000000
O O9 0.069612 0.423269 0.500000
O O10 0.104369 0.436437 0.221576
O O11 0.000000 0.500000 0.345735
O O12 0.979167 0.392595 0.285590
O O13 0.856309 0.354901 0.189374
O O14 0.958405 0.368920 0.000000
O O15 0.709081 0.362249 0.200126
O O16 0.784039 0.415098 0.000000
O O17 0.684087 0.103713 0.500000
O O18 0.077028 0.099927 0.745122
O O19 0.069474 0.049003 0.000000
O O20 0.000000 0.000000 0.787296
O O21 0.110852 0.152803 0.500000
#
# Coordination Sequence:
#
# PCOD9441492 Si02
#       8
#     8   8   8   8   8   8   8   8
#     4  10  19  31  51  79 106 131 165 211 258 302
#     4   9  19  35  52  70  97 137 178 210 246 300
#     4  10  19  28  41  66  98 128 161 202 243 283
#     4   9  18  32  49  68  93 129 170 207 245 297
#     4   9  18  33  52  74 100 130 166 207 255 313
#     4  10  20  33  49  69  98 137 172 201 242 297
#     4   9  19  37  59  80 103 134 170 208 256 313
#     4  10  20  34  55  80 103 131 167 212 264 308
#
# _framework density 17.010249000000002
#
# number of rings (size 3 to 8) (size 9 to 14) (size 15 to 20)
#    0.000    2.500    0.000    3.000    0.000    7.250 
#    0.000    1.250    0.000    6.000    0.000    0.000 
#    0.000    0.000    0.000    0.000    0.000    0.000 
#
# Total GULP energy -356366.855849 kJ/mol
# GULP energy per Si atom -5568.232123 kJ/mol
# Density = 1.697153 g / cm^3
# Si number density = 17.010249 Si / 1000 Ang^3
#
#
#
# Elastic Constant Matrix: (Units=GPa)
#
#
# Indices 1 2 3 4 5 6 
#
# 1 85.3836 64.3459 43.7938 0.0000 0.0000 0.0000
# 2 64.3459 113.4225 64.4993 0.0000 0.0000 0.0000
# 3 43.7938 64.4993 56.2759 0.0000 0.0000 0.0000
# 4 0.0000 0.0000 0.0000 36.9517 0.0000 0.0000
# 5 0.0000 0.0000 0.0000 0.0000 23.2764 0.0000
# 6 0.0000 0.0000 0.0000 0.0000 0.0000 18.6009
#
#
#
# Elastic Compliance Matrix: (Units=1/GPa)
#
#
# Indices 1 2 3 4 5 6 
#
# 1 0.021630 -0.007750 -0.007950 0.000000 0.000000 0.000000
# 2 -0.007750 0.028095 -0.026169 0.000000 0.000000 0.000000
# 3 -0.007950 -0.026169 0.053949 0.000000 0.000000 0.000000
# 4 0.000000 0.000000 0.000000 0.027062 0.000000 0.000000
# 5 0.000000 0.000000 0.000000 0.000000 0.042962 0.000000
# 6 0.000000 0.000000 0.000000 0.000000 0.000000 0.053761
#
#
# Mechanical properties :
#
#
# Convention : Reuss Voigt Hill
#
# Bulk Modulus (GPa) = 50.16053 66.70664 58.43358
# Shear Modulus (GPa) = 15.73115 21.26201 18.49658
#
# Velocity S-wave (km/s) = 3.04436 3.53930 3.30112
# Velocity P-wave (km/s) = 6.47379 7.48351 6.99689
#
# Compressibility (1/GPa) = 0.01993599
#
# Stress axis : x y z
#
# Youngs Moduli (GPa) = 46.23226 35.59400 18.53614
#
# Poissons Ratio (x) = 0.27586 0.14736
# Poissons Ratio (y) = 0.35831 0.48507
# Poissons Ratio (z) = 0.36753 0.93145
#
# Static dielectric constant tensor:
#      x y z
#    x 1.663040 0.000000 0.000000 
#    y 0.000000 1.572340 0.000000 
#    z 0.000000 0.000000 1.578120 
# 
# From -- ./inp_files/8279.got.cif
#   From: 2010.05.17/outbox.cif.g08.bks.cpg/sg58_5_cif.got.tgz:8279.got - 2010.06.03 14:20:14.
