data_PCOD9441453
_publ_section_title
;
Structure prediction by ZEFSAII (Michael W. Deem and Ramdas Pophale) SiO2 
 PCOD9441453
Probable space group: P N N M
;
_chemical_formula_sum "Si O2"
_cell_formula_units_Z 64
_cell_length_a 15.040368
_cell_length_b 25.223518
_cell_length_c 8.710399
_cell_angle_alpha 90.000000
_cell_angle_beta 90.000000
_cell_angle_gamma 90.000000
_cell_volume 3304.472718
_symmetry_space_group_name_H-M "P N N M"
_symmetry_group_IT_number 58
_symmetry_cell_setting 'orthorhombic'
loop_
_space_group_symop_operation_xyz
x,y,z
-x,-y,z
1/2+x,1/2-y,1/2-z
1/2-x,1/2+y,1/2-z
-x,-y,-z
x,y,-z
1/2-x,1/2+y,1/2+z
1/2+x,1/2-y,1/2+z
loop_
_atom_site_type_symbol
_atom_site_label
_atom_site_fract_x
_atom_site_fract_y
_atom_site_fract_z
Si Si1 0.065063 0.368462 0.821137
Si Si2 0.677331 0.735837 0.821001
Si Si3 0.371891 0.757361 0.183081
Si Si4 0.749718 0.441311 0.314956
Si Si5 0.047914 0.054775 0.186259
Si Si6 0.616712 0.854617 0.822689
Si Si7 0.902768 0.521515 0.314772
Si Si8 0.988290 0.166912 0.686115
O O1 0.091194 0.312465 0.748540
O O2 0.110448 0.418897 0.742693
O O3 0.960418 0.374382 0.786828
O O4 0.084254 0.368043 0.000000
O O5 0.769109 0.743790 0.732444
O O6 0.626374 0.791875 0.815272
O O7 0.607006 0.691795 0.766061
O O8 0.698883 0.725010 0.000000
O O9 0.432638 0.707515 0.235953
O O10 0.378655 0.758664 0.000000
O O11 0.745017 0.447100 0.500000
O O12 0.650077 0.447214 0.257704
O O13 0.791208 0.383547 0.284864
O O14 0.822937 0.483607 0.260814
O O15 0.004065 0.108307 0.250200
O O16 0.046830 0.057996 0.000000
O O17 0.000000 0.000000 0.229972
O O18 0.593476 0.869424 0.000000
O O19 0.903213 0.521099 0.500000
O O20 0.000000 0.500000 0.264949
O O21 0.988793 0.165834 0.500000
#
# Coordination Sequence:
#
# PCOD9441453 Si02
#       8
#     8   8   8   8   8   8   8   8
#     4  12  24  36  55  86 124 157 195 249 304 352
#     4  10  21  38  62  91 124 158 196 249 306 355
#     4  11  23  41  62  88 122 161 204 244 297 370
#     4   9  18  34  60  87 112 153 205 248 294 356
#     4  10  22  40  62  89 119 152 200 253 295 346
#     4  10  18  36  61  83 115 160 202 241 298 363
#     4  10  19  35  59  82 112 158 204 241 296 369
#     4  10  22  41  64  89 122 159 198 246 304 362
#
# _framework density 19.367688000000001
#
# number of rings (size 3 to 8) (size 9 to 14) (size 15 to 20)
#    0.000    1.750    2.500    2.250    0.000    4.500 
#    0.000    2.500    0.000    0.000    0.000    0.000 
#    0.000    0.000    0.000    0.000    0.000    0.000 
#
# Total GULP energy -357303.228947 kJ/mol
# GULP energy per Si atom -5582.862952 kJ/mol
# Density = 1.932361 g / cm^3
# Si number density = 19.367688 Si / 1000 Ang^3
#
#
#
# Elastic Constant Matrix: (Units=GPa)
#
#
# Indices 1 2 3 4 5 6 
#
# 1 72.1456 39.1793 11.3432 0.0000 0.0000 0.0000
# 2 39.1793 138.4168 21.0649 0.0000 0.0000 0.0000
# 3 11.3432 21.0649 21.2467 0.0000 0.0000 0.0000
# 4 0.0000 0.0000 0.0000 11.5969 0.0000 0.0000
# 5 0.0000 0.0000 0.0000 0.0000 24.1754 0.0000
# 6 0.0000 0.0000 0.0000 0.0000 0.0000 29.6982
#
#
#
# Elastic Compliance Matrix: (Units=1/GPa)
#
#
# Indices 1 2 3 4 5 6 
#
# 1 0.016821 -0.003998 -0.005017 0.000000 0.000000 0.000000
# 2 -0.003998 0.009458 -0.007243 0.000000 0.000000 0.000000
# 3 -0.005017 -0.007243 0.056926 0.000000 0.000000 0.000000
# 4 0.000000 0.000000 0.000000 0.086230 0.000000 0.000000
# 5 0.000000 0.000000 0.000000 0.000000 0.041364 0.000000
# 6 0.000000 0.000000 0.000000 0.000000 0.000000 0.033672
#
#
# Mechanical properties :
#
#
# Convention : Reuss Voigt Hill
#
# Bulk Modulus (GPa) = 19.72794 41.66488 30.69641
# Shear Modulus (GPa) = 17.01361 23.77556 20.39458
#
# Velocity S-wave (km/s) = 2.96709 3.50750 3.24855
# Velocity P-wave (km/s) = 4.68468 6.16138 5.47307
#
# Compressibility (1/GPa) = 0.05068954
#
# Stress axis : x y z
#
# Youngs Moduli (GPa) = 59.45103 105.72598 17.56675
#
# Poissons Ratio (x) = 0.42266 0.08813
# Poissons Ratio (y) = 0.23766 0.12724
# Poissons Ratio (z) = 0.29825 0.76580
#
# Static dielectric constant tensor:
#      x y z
#    x 1.702680 0.000000 0.000000 
#    y 0.000000 1.666430 0.000000 
#    z 0.000000 0.000000 1.663760 
# 
# From -- ./inp_files/6735.got.cif
#   From: 2010.05.17/outbox.cif.g08.bks.cpg/sg58_4_cif.got.tgz:6735.got - 2010.06.03 14:20:14.
