data_PCOD9441791
_publ_section_title
;
Structure prediction by ZEFSAII (Michael W. Deem and Ramdas Pophale) SiO2 
 PCOD9441791
Probable space group: P N N M
;
_chemical_formula_sum "Si O2"
_cell_formula_units_Z 48
_cell_length_a 30.238502
_cell_length_b 10.562259
_cell_length_c 7.600093
_cell_angle_alpha 90.000000
_cell_angle_beta 90.000000
_cell_angle_gamma 90.000000
_cell_volume 2427.370066
_symmetry_space_group_name_H-M "P N N M"
_symmetry_group_IT_number 58
_symmetry_cell_setting 'orthorhombic'
loop_
_space_group_symop_operation_xyz
x,y,z
-x,-y,z
1/2+x,1/2-y,1/2-z
1/2-x,1/2+y,1/2-z
-x,-y,-z
x,y,-z
1/2-x,1/2+y,1/2+z
1/2+x,1/2-y,1/2+z
loop_
_atom_site_type_symbol
_atom_site_label
_atom_site_fract_x
_atom_site_fract_y
_atom_site_fract_z
Si Si1 0.781218 0.489276 0.213068
Si Si2 0.385971 0.261493 0.791345
Si Si3 0.521844 0.628887 0.287991
Si Si4 0.029051 0.379143 0.215778
Si Si5 0.119937 0.476916 0.796903
Si Si6 0.712448 0.698461 0.790108
O O1 0.830640 0.523633 0.280090
O O2 0.745276 0.590293 0.278243
O O3 0.771987 0.342687 0.257620
O O4 0.782641 0.494982 0.000000
O O5 0.426887 0.352965 0.758119
O O6 0.338227 0.308676 0.724623
O O7 0.394926 0.123996 0.708256
O O8 0.382156 0.240129 0.000000
O O9 0.500000 0.500000 0.222461
O O10 0.519181 0.628634 0.500000
O O11 0.494649 0.751294 0.225677
O O12 0.079428 0.396918 0.278845
O O13 0.000000 0.500000 0.269448
O O14 0.029982 0.379692 0.000000
O O15 0.124528 0.437559 0.000000
O O16 0.710775 0.680610 0.000000
#
# Coordination Sequence:
#
# PCOD9441791 Si02
#       6
#     8   8   8   8   8   8
#     4   9  18  33  53  75  99 130 169 208 247 298
#     4  10  19  32  51  71 100 135 164 196 245 301
#     4  10  20  34  50  72 100 128 164 207 246 292
#     4   9  15  27  50  73  95 121 152 200 249 280
#     4   9  16  30  53  74  93 124 167 205 243 288
#     4   9  19  35  52  75 104 133 166 209 256 299
#
# _framework density 19.774488000000002
#
# number of rings (size 3 to 8) (size 9 to 14) (size 15 to 20)
#    0.000    2.667    1.667    0.500    0.000    1.667 
#    3.000    1.667    0.000    0.000    0.000    0.000 
#    0.000    0.000    0.000    0.000    0.000    0.000 
#
# Total GULP energy -267717.481979 kJ/mol
# GULP energy per Si atom -5577.447541 kJ/mol
# Density = 1.972948 g / cm^3
# Si number density = 19.774488 Si / 1000 Ang^3
#
#
#
# Elastic Constant Matrix: (Units=GPa)
#
#
# Indices 1 2 3 4 5 6 
#
# 1 153.2543 103.5926 -1.9157 0.0000 0.0000 0.0000
# 2 103.5926 137.9776 -2.7423 0.0000 0.0000 0.0000
# 3 -1.9157 -2.7423 41.9350 0.0000 0.0000 0.0000
# 4 0.0000 0.0000 0.0000 8.8366 0.0000 0.0000
# 5 0.0000 0.0000 0.0000 0.0000 9.9595 0.0000
# 6 0.0000 0.0000 0.0000 0.0000 0.0000 37.7164
#
#
#
# Elastic Compliance Matrix: (Units=1/GPa)
#
#
# Indices 1 2 3 4 5 6 
#
# 1 0.013249 -0.009948 -0.000045 0.000000 0.000000 0.000000
# 2 -0.009948 0.014727 0.000509 0.000000 0.000000 0.000000
# 3 -0.000045 0.000509 0.023878 0.000000 0.000000 0.000000
# 4 0.000000 0.000000 0.000000 0.113166 0.000000 0.000000
# 5 0.000000 0.000000 0.000000 0.000000 0.100406 0.000000
# 6 0.000000 0.000000 0.000000 0.000000 0.000000 0.026514
#
#
# Mechanical properties :
#
#
# Convention : Reuss Voigt Hill
#
# Bulk Modulus (GPa) = 30.41035 59.00400 44.70717
# Shear Modulus (GPa) = 15.53420 26.91799 21.22610
#
# Velocity S-wave (km/s) = 2.80584 3.69351 3.27985
# Velocity P-wave (km/s) = 5.09008 6.93488 6.08283
#
# Compressibility (1/GPa) = 0.03288354
#
# Stress axis : x y z
#
# Youngs Moduli (GPa) = 75.47716 67.90389 41.88021
#
# Poissons Ratio (x) = 0.67552 0.00190
# Poissons Ratio (y) = 0.75086 -0.02130
# Poissons Ratio (z) = 0.00342 -0.03454
#
# Static dielectric constant tensor:
#      x y z
#    x 1.720980 0.000000 0.000000 
#    y 0.000000 1.656370 0.000000 
#    z 0.000000 0.000000 1.737890 
# 
# From -- ./inp_files/10330.got.cif
#   From: 2010.05.17/outbox.cif.g08.bks.cpg/sg58_6_cif.got.tgz:10330.got - 2010.06.03 14:20:14.
