data_PCOD9441287
_publ_section_title
;
Structure prediction by ZEFSAII (Michael W. Deem and Ramdas Pophale) SiO2 
 PCOD9441287
Probable space group: P N N M
;
_chemical_formula_sum "Si O2"
_cell_formula_units_Z 64
_cell_length_a 24.769821
_cell_length_b 15.720300
_cell_length_c 7.641330
_cell_angle_alpha 90.000000
_cell_angle_beta 90.000000
_cell_angle_gamma 90.000000
_cell_volume 2975.449978
_symmetry_space_group_name_H-M "P N N M"
_symmetry_group_IT_number 58
_symmetry_cell_setting 'orthorhombic'
loop_
_space_group_symop_operation_xyz
x,y,z
-x,-y,z
1/2+x,1/2-y,1/2-z
1/2-x,1/2+y,1/2-z
-x,-y,-z
x,y,-z
1/2-x,1/2+y,1/2+z
1/2+x,1/2-y,1/2+z
loop_
_atom_site_type_symbol
_atom_site_label
_atom_site_fract_x
_atom_site_fract_y
_atom_site_fract_z
Si Si1 0.496605 0.140752 0.201240
Si Si2 0.494966 0.330018 0.703570
Si Si3 0.104416 0.092225 0.707115
Si Si4 0.175978 0.250526 0.714565
Si Si5 0.380273 0.400584 0.711142
Si Si6 0.623841 0.894080 0.788047
Si Si7 0.389642 0.917311 0.786073
Si Si8 0.701829 0.740246 0.293601
O O1 0.509420 0.241204 0.205258
O O2 0.436742 0.128697 0.275958
O O3 0.548486 0.092867 0.277020
O O4 0.492409 0.111740 0.000000
O O5 0.487185 0.308807 0.500000
O O6 0.544450 0.394837 0.718186
O O7 0.438981 0.368013 0.773423
O O8 0.099063 0.102887 0.500000
O O9 0.143082 0.167459 0.773486
O O10 0.126735 0.998776 0.743061
O O11 0.175997 0.248814 0.500000
O O12 0.145096 0.336195 0.769117
O O13 0.237737 0.250911 0.776713
O O14 0.381244 0.395085 0.500000
O O15 0.333970 0.337492 0.778646
O O16 0.667076 0.825805 0.725840
O O17 0.634131 0.991507 0.735885
O O18 0.624089 0.889190 0.000000
O O19 0.391373 0.915263 0.000000
O O20 0.708036 0.723197 0.500000
#
# Coordination Sequence:
#
# PCOD9441287 Si02
#       8
#     8   8   8   8   8   8   8   8
#     4  10  18  32  56  84 113 143 178 223 276 329
#     4  11  21  35  56  83 114 148 183 222 276 338
#     4  11  22  37  59  86 111 144 186 232 280 325
#     4   9  19  36  58  80 106 146 191 227 269 327
#     4  10  22  38  56  81 113 150 184 222 276 336
#     4  10  20  33  57  88 112 139 179 230 278 322
#     4   9  17  33  56  83 112 141 178 223 272 327
#     4  10  21  39  58  76 108 152 189 224 272 327
#
# _framework density 21.509352
#
# number of rings (size 3 to 8) (size 9 to 14) (size 15 to 20)
#    0.000    2.000    2.500    1.500    0.000    5.500 
#    0.000    3.125    0.000    1.500    0.000    0.000 
#    0.000    0.000    0.000    0.000    0.000    0.000 
#
# Total GULP energy -357603.497002 kJ/mol
# GULP energy per Si atom -5587.554641 kJ/mol
# Density = 2.146040 g / cm^3
# Si number density = 21.509352 Si / 1000 Ang^3
#
#
#
# Elastic Constant Matrix: (Units=GPa)
#
#
# Indices 1 2 3 4 5 6 
#
# 1 140.1869 37.0443 2.7067 0.0000 0.0000 0.0000
# 2 37.0443 105.3318 -8.3277 0.0000 0.0000 0.0000
# 3 2.7067 -8.3277 44.0708 0.0000 0.0000 0.0000
# 4 0.0000 0.0000 0.0000 21.0110 0.0000 0.0000
# 5 0.0000 0.0000 0.0000 0.0000 12.6841 0.0000
# 6 0.0000 0.0000 0.0000 0.0000 0.0000 6.4817
#
#
#
# Elastic Compliance Matrix: (Units=1/GPa)
#
#
# Indices 1 2 3 4 5 6 
#
# 1 0.007910 -0.002863 -0.001027 0.000000 0.000000 0.000000
# 2 -0.002863 0.010674 0.002193 0.000000 0.000000 0.000000
# 3 -0.001027 0.002193 0.023168 0.000000 0.000000 0.000000
# 4 0.000000 0.000000 0.000000 0.047594 0.000000 0.000000
# 5 0.000000 0.000000 0.000000 0.000000 0.078839 0.000000
# 6 0.000000 0.000000 0.000000 0.000000 0.000000 0.154281
#
#
# Mechanical properties :
#
#
# Convention : Reuss Voigt Hill
#
# Bulk Modulus (GPa) = 26.07010 39.15955 32.61482
# Shear Modulus (GPa) = 14.76466 25.24642 20.00554
#
# Velocity S-wave (km/s) = 2.62282 3.42971 3.05304
# Velocity P-wave (km/s) = 4.61724 5.82488 5.25586
#
# Compressibility (1/GPa) = 0.03835812
#
# Stress axis : x y z
#
# Youngs Moduli (GPa) = 126.42717 93.68515 43.16266
#
# Poissons Ratio (x) = 0.26822 0.04432
# Poissons Ratio (y) = 0.36195 -0.09465
# Poissons Ratio (z) = 0.12981 -0.20544
#
# Static dielectric constant tensor:
#      x y z
#    x 1.760600 0.000000 0.000000 
#    y 0.000000 1.751220 0.000000 
#    z 0.000000 0.000000 1.838180 
# 
# From -- ./inp_files/6874.got.cif
#   From: 2010.05.17/outbox.cif.g08.bks.cpg/sg58_4_cif.got.tgz:6874.got - 2010.06.03 14:20:14.
