data_PCOD9441207
_publ_section_title
;
Structure prediction by ZEFSAII (Michael W. Deem and Ramdas Pophale) SiO2 
 PCOD9441207
Probable space group: P N N M
;
_chemical_formula_sum "Si O2"
_cell_formula_units_Z 56
_cell_length_a 17.396120
_cell_length_b 9.907489
_cell_length_c 14.945298
_cell_angle_alpha 90.000000
_cell_angle_beta 90.000000
_cell_angle_gamma 90.000000
_cell_volume 2575.850021
_symmetry_space_group_name_H-M "P N N M"
_symmetry_group_IT_number 58
_symmetry_cell_setting 'orthorhombic'
loop_
_space_group_symop_operation_xyz
x,y,z
-x,-y,z
1/2+x,1/2-y,1/2-z
1/2-x,1/2+y,1/2-z
-x,-y,-z
x,y,-z
1/2-x,1/2+y,1/2+z
1/2+x,1/2-y,1/2+z
loop_
_atom_site_type_symbol
_atom_site_label
_atom_site_fract_x
_atom_site_fract_y
_atom_site_fract_z
Si Si1 0.680674 0.844438 0.645538
Si Si2 0.003502 0.654087 0.179946
Si Si3 0.210211 0.664745 0.642058
Si Si4 0.555341 0.320793 0.845959
Si Si5 0.103946 0.917020 0.403011
Si Si6 0.162585 0.357549 0.857868
Si Si7 0.688304 0.138135 0.860865
O O1 0.588185 0.820920 0.640338
O O2 0.700582 0.848210 0.751079
O O3 0.737526 0.727416 0.612487
O O4 0.693587 0.996892 0.609945
O O5 0.982774 0.761122 0.256470
O O6 0.927320 0.653457 0.119087
O O7 0.000000 0.500000 0.218613
O O8 0.153845 0.786305 0.616602
O O9 0.291861 0.725478 0.613691
O O10 0.194311 0.515286 0.607938
O O11 0.482852 0.363344 0.903369
O O12 0.605067 0.458509 0.833350
O O13 0.610961 0.212603 0.889951
O O14 0.125080 0.973086 0.500000
O O15 0.176146 0.360939 0.748834
#
# Coordination Sequence:
#
# PCOD9441207 Si02
#       7
#     8   8   8   8   8   8   8
#     4   9  15  28  45  71  97 127 153 183 231 295
#     4   9  16  28  49  75 102 128 157 187 234 294
#     4  10  18  32  46  65  94 125 160 200 243 273
#     4  10  19  33  48  64  91 126 161 202 243 270
#     4  11  23  36  49  65  90 129 179 212 238 280
#     4   8  16  27  45  69  96 127 154 184 229 299
#     4   9  18  28  48  68  93 122 159 192 238 296
#
# _framework density 21.740396
#
# number of rings (size 3 to 8) (size 9 to 14) (size 15 to 20)
#    0.000    2.571    1.429    2.571    0.000    3.429 
#    0.000    2.143    0.000    0.000    0.000    0.000 
#    0.000   17.714    0.000    0.000    0.000    0.286 
#
# Total GULP energy -312072.560741 kJ/mol
# GULP energy per Si atom -5572.724299 kJ/mol
# Density = 2.169091 g / cm^3
# Si number density = 21.740396 Si / 1000 Ang^3
#
#
#
# Elastic Constant Matrix: (Units=GPa)
#
#
# Indices 1 2 3 4 5 6 
#
# 1 110.5333 48.9815 -12.1101 0.0000 0.0000 0.0000
# 2 48.9815 127.6564 2.3384 0.0000 0.0000 0.0000
# 3 -12.1101 2.3384 35.9537 0.0000 0.0000 0.0000
# 4 0.0000 0.0000 0.0000 -20.1837 0.0000 0.0000
# 5 0.0000 0.0000 0.0000 0.0000 -66.7423 0.0000
# 6 0.0000 0.0000 0.0000 0.0000 0.0000 43.5636
#
#
#
# Elastic Compliance Matrix: (Units=1/GPa)
#
#
# Indices 1 2 3 4 5 6 
#
# 1 0.011491 -0.004485 0.004162 0.000000 0.000000 0.000000
# 2 -0.004485 0.009594 -0.002135 0.000000 0.000000 0.000000
# 3 0.004162 -0.002135 0.029354 0.000000 0.000000 0.000000
# 4 0.000000 0.000000 0.000000 -0.049545 0.000000 0.000000
# 5 0.000000 0.000000 0.000000 0.000000 -0.014983 0.000000
# 6 0.000000 0.000000 0.000000 0.000000 0.000000 0.022955
#
#
# Mechanical properties :
#
#
# Convention : Reuss Voigt Hill
#
# Bulk Modulus (GPa) = 21.96702 39.17367 30.57035
# Shear Modulus (GPa) = 172.67944 6.98975 89.83460
#
# Velocity S-wave (km/s) = 8.92190 1.79502 6.43515
# Velocity P-wave (km/s) = 10.78239 4.72801 8.32508
#
# Compressibility (1/GPa) = 0.04552279
#
# Stress axis : x y z
#
# Youngs Moduli (GPa) = 87.02786 104.23643 34.06662
#
# Poissons Ratio (x) = 0.46752 -0.14179
# Poissons Ratio (y) = 0.39033 0.07272
# Poissons Ratio (z) = -0.36221 0.22251
#
# Static dielectric constant tensor:
#      x y z
#    x 1.847660 0.000000 0.000000 
#    y 0.000000 1.812530 0.000000 
#    z 0.000000 0.000000 1.822380 
# 
# From -- ./inp_files/30236.got.cif
#   From: 2010.05.17/outbox.cif.g08.bks.cpg/sg58_16_cif.got.tgz:30236.got - 2010.06.03 14:20:14.
