data_PCOD9441053
_publ_section_title
;
Structure prediction by ZEFSAII (Michael W. Deem and Ramdas Pophale) SiO2 
 PCOD9441053
Probable space group: P N N M
;
_chemical_formula_sum "Si O2"
_cell_formula_units_Z 56
_cell_length_a 29.835114
_cell_length_b 13.910145
_cell_length_c 8.686263
_cell_angle_alpha 90.000000
_cell_angle_beta 90.000000
_cell_angle_gamma 90.000000
_cell_volume 3604.892625
_symmetry_space_group_name_H-M "P N N M"
_symmetry_group_IT_number 58
_symmetry_cell_setting 'orthorhombic'
loop_
_space_group_symop_operation_xyz
x,y,z
-x,-y,z
1/2+x,1/2-y,1/2-z
1/2-x,1/2+y,1/2-z
-x,-y,-z
x,y,-z
1/2-x,1/2+y,1/2+z
1/2+x,1/2-y,1/2+z
loop_
_atom_site_type_symbol
_atom_site_label
_atom_site_fract_x
_atom_site_fract_y
_atom_site_fract_z
Si Si1 0.408668 0.616633 0.815221
Si Si2 0.316124 0.716412 0.814420
Si Si3 0.229590 0.401821 0.184454
Si Si4 0.403058 0.391411 0.182939
Si Si5 0.502935 0.616431 0.677399
Si Si6 0.815749 0.203138 0.816521
Si Si7 0.770278 0.388231 0.315520
O O1 0.365373 0.678794 0.772646
O O2 0.400312 0.504669 0.773022
O O3 0.455248 0.650676 0.741627
O O4 0.413689 0.618797 0.000000
O O5 0.304222 0.820869 0.747880
O O6 0.278379 0.645320 0.746704
O O7 0.312103 0.717342 0.000000
O O8 0.278487 0.367783 0.243711
O O9 0.219559 0.506507 0.251259
O O10 0.229366 0.402599 0.000000
O O11 0.452926 0.356874 0.227211
O O12 0.364565 0.333455 0.269487
O O13 0.396195 0.384340 0.000000
O O14 0.500000 0.500000 0.685513
O O15 0.508745 0.643942 0.500000
O O16 0.804261 0.307756 0.748183
O O17 0.810182 0.204456 0.000000
O O18 0.770169 0.387347 0.500000
#
# Coordination Sequence:
#
# PCOD9441053 Si02
#       7
#     8   8   8   8   8   8   8
#     4   9  18  30  46  67  94 126 157 191 232 278
#     4  10  19  32  49  71  96 124 159 195 234 280
#     4  11  21  34  49  68  95 126 159 195 235 277
#     4  10  18  30  47  68  96 128 159 192 233 279
#     4   9  17  28  43  65  93 123 156 193 232 276
#     4  11  21  33  49  71  96 124 159 195 234 280
#     4  11  21  34  50  69  94 125 159 196 237 277
#
# _framework density 15.534443
#
# number of rings (size 3 to 8) (size 9 to 14) (size 15 to 20)
#    0.000    1.857    0.000    7.714    0.000    4.571 
#    0.000    0.000    0.000    0.000    0.000    1.000 
#    0.000    8.000    0.000    0.000    0.000    0.000 
#
# Total GULP energy -312576.982047 kJ/mol
# GULP energy per Si atom -5581.731822 kJ/mol
# Density = 1.549909 g / cm^3
# Si number density = 15.534443 Si / 1000 Ang^3
#
#
#
# Elastic Constant Matrix: (Units=GPa)
#
#
# Indices 1 2 3 4 5 6 
#
# 1 112.2216 47.3901 47.3815 0.0000 0.0000 0.0000
# 2 47.3901 79.8616 39.3257 0.0000 0.0000 0.0000
# 3 47.3815 39.3257 109.8473 0.0000 0.0000 0.0000
# 4 0.0000 0.0000 0.0000 42.8474 0.0000 0.0000
# 5 0.0000 0.0000 0.0000 0.0000 30.0643 0.0000
# 6 0.0000 0.0000 0.0000 0.0000 0.0000 18.1353
#
#
#
# Elastic Compliance Matrix: (Units=1/GPa)
#
#
# Indices 1 2 3 4 5 6 
#
# 1 0.012868 -0.005952 -0.003420 0.000000 0.000000 0.000000
# 2 -0.005952 0.017955 -0.003860 0.000000 0.000000 0.000000
# 3 -0.003420 -0.003860 0.011961 0.000000 0.000000 0.000000
# 4 0.000000 0.000000 0.000000 0.023339 0.000000 0.000000
# 5 0.000000 0.000000 0.000000 0.000000 0.033262 0.000000
# 6 0.000000 0.000000 0.000000 0.000000 0.000000 0.055141
#
#
# Mechanical properties :
#
#
# Convention : Reuss Voigt Hill
#
# Bulk Modulus (GPa) = 61.27819 63.34724 62.31272
# Shear Modulus (GPa) = 26.81976 29.39829 28.10903
#
# Velocity S-wave (km/s) = 4.15959 4.35496 4.25839
# Velocity P-wave (km/s) = 7.91214 8.13355 8.02361
#
# Compressibility (1/GPa) = 0.01631902
#
# Stress axis : x y z
#
# Youngs Moduli (GPa) = 77.71011 55.69590 83.60745
#
# Poissons Ratio (x) = 0.33151 0.28592
# Poissons Ratio (y) = 0.46254 0.32276
# Poissons Ratio (z) = 0.26575 0.21501
#
# Static dielectric constant tensor:
#      x y z
#    x 1.508210 0.000000 0.000000 
#    y 0.000000 1.500030 0.000000 
#    z 0.000000 0.000000 1.518710 
# 
# From -- ./inp_files/11096.got.cif
#   From: 2010.05.17/outbox.cif.g08.bks.cpg/sg58_6_cif.got.tgz:11096.got - 2010.06.03 14:20:14.
