data_PCOD9441926
_publ_section_title
;
Structure prediction by ZEFSAII (Michael W. Deem and Ramdas Pophale) SiO2 
 PCOD9441926
Probable space group: P N N M
;
_chemical_formula_sum "Si O2"
_cell_formula_units_Z 56
_cell_length_a 19.692518
_cell_length_b 16.058396
_cell_length_c 8.999528
_cell_angle_alpha 90.000000
_cell_angle_beta 90.000000
_cell_angle_gamma 90.000000
_cell_volume 2845.923010
_symmetry_space_group_name_H-M "P N N M"
_symmetry_group_IT_number 58
_symmetry_cell_setting 'orthorhombic'
loop_
_space_group_symop_operation_xyz
x,y,z
-x,-y,z
1/2+x,1/2-y,1/2-z
1/2-x,1/2+y,1/2-z
-x,-y,-z
x,y,-z
1/2-x,1/2+y,1/2+z
1/2+x,1/2-y,1/2+z
loop_
_atom_site_type_symbol
_atom_site_label
_atom_site_fract_x
_atom_site_fract_y
_atom_site_fract_z
Si Si1 0.513700 0.597434 0.822028
Si Si2 0.744715 0.825615 0.322172
Si Si3 0.825750 0.478979 0.668887
Si Si4 0.610431 0.304719 0.329710
Si Si5 0.614663 0.717927 0.322093
Si Si6 0.594798 0.106626 0.331635
Si Si7 0.960627 0.368745 0.668828
O O1 0.500000 0.500000 0.789311
O O2 0.451067 0.649330 0.753112
O O3 0.583326 0.635583 0.753556
O O4 0.515597 0.607681 0.000000
O O5 0.746576 0.826821 0.500000
O O6 0.719021 0.914189 0.260301
O O7 0.818614 0.814238 0.254409
O O8 0.689508 0.753535 0.278960
O O9 0.801378 0.490346 0.500000
O O10 0.840966 0.564923 0.751691
O O11 0.898695 0.432912 0.663457
O O12 0.614741 0.335338 0.500000
O O13 0.598873 0.205942 0.335015
O O14 0.612412 0.709279 0.500000
O O15 0.564711 0.792087 0.268936
O O16 0.589506 0.074204 0.500000
O O17 0.526962 0.091155 0.238516
O O18 0.974472 0.340107 0.500000
#
# Coordination Sequence:
#
# PCOD9441926 Si02
#       7
#     8   8   8   8   8   8   8
#     4  11  24  42  66  95 124 163 211 262 317 373
#     4  10  22  41  64  89 122 162 205 256 315 377
#     4  10  21  36  56  85 119 157 199 242 296 360
#     4  11  24  42  64  90 123 164 207 257 316 371
#     4  10  20  37  62  91 120 157 202 251 309 369
#     4  11  22  35  55  86 120 156 197 243 298 359
#     4  10  19  32  55  85 118 154 191 237 290 352
#
# _framework density 19.677273
#
# number of rings (size 3 to 8) (size 9 to 14) (size 15 to 20)
#    0.000    1.571    1.429    3.429    0.000    8.000 
#    2.571    0.000    0.000    0.000    0.000    0.000 
#    0.000    0.000    0.000    0.000    0.000    0.000 
#
# Total GULP energy -312697.634768 kJ/mol
# GULP energy per Si atom -5583.886335 kJ/mol
# Density = 1.963249 g / cm^3
# Si number density = 19.677273 Si / 1000 Ang^3
#
#
#
# Elastic Constant Matrix: (Units=GPa)
#
#
# Indices 1 2 3 4 5 6 
#
# 1 82.6240 10.7513 34.3675 0.0000 0.0000 0.0000
# 2 10.7513 74.5398 26.4324 0.0000 0.0000 0.0000
# 3 34.3675 26.4324 96.8357 0.0000 0.0000 0.0000
# 4 0.0000 0.0000 0.0000 30.0345 0.0000 0.0000
# 5 0.0000 0.0000 0.0000 0.0000 -37.9847 0.0000
# 6 0.0000 0.0000 0.0000 0.0000 0.0000 7.9815
#
#
#
# Elastic Compliance Matrix: (Units=1/GPa)
#
#
# Indices 1 2 3 4 5 6 
#
# 1 0.014205 -0.000289 -0.004962 0.000000 0.000000 0.000000
# 2 -0.000289 0.014859 -0.003953 0.000000 0.000000 0.000000
# 3 -0.004962 -0.003953 0.013167 0.000000 0.000000 0.000000
# 4 0.000000 0.000000 0.000000 0.033295 0.000000 0.000000
# 5 0.000000 0.000000 0.000000 0.000000 -0.026326 0.000000
# 6 0.000000 0.000000 0.000000 0.000000 0.000000 0.125290
#
#
# Mechanical properties :
#
#
# Convention : Reuss Voigt Hill
#
# Bulk Modulus (GPa) = 41.97936 44.12243 43.05089
# Shear Modulus (GPa) = 24.89549 12.16948 18.53249
#
# Velocity S-wave (km/s) = 3.56081 2.48957 3.07224
# Velocity P-wave (km/s) = 6.18757 5.54398 5.87460
#
# Compressibility (1/GPa) = 0.02382123
#
# Stress axis : x y z
#
# Youngs Moduli (GPa) = 70.39893 67.29813 75.94694
#
# Poissons Ratio (x) = 0.01946 0.37688
# Poissons Ratio (y) = 0.02035 0.30025
# Poissons Ratio (z) = 0.34935 0.26606
#
# Static dielectric constant tensor:
#      x y z
#    x 1.675940 0.000000 0.000000 
#    y 0.000000 1.706860 0.000000 
#    z 0.000000 0.000000 1.685810 
# 
# From -- ./inp_files/9051.got.cif
#   From: 2010.05.17/outbox.cif.g08.bks.cpg/sg58_5_cif.got.tgz:9051.got - 2010.06.03 14:20:14.
