data_PCOD9441942
_publ_section_title
;
Structure prediction by ZEFSAII (Michael W. Deem and Ramdas Pophale) SiO2 
 PCOD9441942
Probable space group: P N N M
;
_chemical_formula_sum "Si O2"
_cell_formula_units_Z 58
_cell_length_a 13.278472
_cell_length_b 15.408428
_cell_length_c 15.547242
_cell_angle_alpha 90.000000
_cell_angle_beta 90.000000
_cell_angle_gamma 90.000000
_cell_volume 3180.971617
_symmetry_space_group_name_H-M "P N N M"
_symmetry_group_IT_number 58
_symmetry_cell_setting 'orthorhombic'
loop_
_space_group_symop_operation_xyz
x,y,z
-x,-y,z
1/2+x,1/2-y,1/2-z
1/2-x,1/2+y,1/2-z
-x,-y,-z
x,y,-z
1/2-x,1/2+y,1/2+z
1/2+x,1/2-y,1/2+z
loop_
_atom_site_type_symbol
_atom_site_label
_atom_site_fract_x
_atom_site_fract_y
_atom_site_fract_z
Si Si1 0.773325 0.938138 0.596447
Si Si2 0.639451 0.196207 0.402100
Si Si3 0.160153 0.547257 0.724828
Si Si4 0.000000 0.000000 0.000000
Si Si5 0.448558 0.867301 0.763438
Si Si6 0.854798 0.130463 0.400344
Si Si7 0.565936 0.326456 0.179856
Si Si8 0.865837 0.896817 0.860260
O O1 0.729421 0.934142 0.500000
O O2 0.696824 0.939521 0.676386
O O3 0.852929 0.861650 0.612238
O O4 0.836326 0.027558 0.602779
O O5 0.631015 0.164809 0.500000
O O6 0.561137 0.150212 0.338918
O O7 0.751015 0.172690 0.368466
O O8 0.631482 0.299753 0.399178
O O9 0.123560 0.447973 0.714250
O O10 0.252691 0.571804 0.662708
O O11 0.061634 0.606330 0.711333
O O12 0.075059 0.040446 0.924084
O O13 0.417806 0.775307 0.803242
O O14 0.867353 0.156019 0.500000
O O15 0.952691 0.158260 0.349983
O O16 0.583375 0.381812 0.266814
#
# Coordination Sequence:
#
# PCOD9441942 Si02
#       8
#     8   8   8   2   8   8   8   8
#     4  10  20  35  57  89 119 148 187 243 305 357
#     4  10  19  36  56  86 120 154 197 240 289 352
#     4  10  21  39  61  85 116 159 197 237 293 351
#     4  12  24  40  60  86 110 154 202 248 294 334
#     4  10  21  37  60  84 115 158 200 239 287 356
#     4  10  19  32  58  88 118 152 186 233 301 360
#     4  10  21  35  58  85 117 151 193 245 297 352
#     4  10  23  38  60  82 116 152 200 249 289 348
#
# _framework density 18.233422000000001
#
# number of rings (size 3 to 8) (size 9 to 14) (size 15 to 20)
#    0.000    1.931    2.069    1.655    3.862    1.655 
#    0.000    1.379    9.103    0.828    0.000    0.000 
#    0.000    0.000    0.000    0.000    0.000    0.000 
#
# Total GULP energy -322983.671982 kJ/mol
# GULP energy per Si atom -5568.684000 kJ/mol
# Density = 1.819192 g / cm^3
# Si number density = 18.233422 Si / 1000 Ang^3
#
#
#
# Elastic Constant Matrix: (Units=GPa)
#
#
# Indices 1 2 3 4 5 6 
#
# 1 89.6382 34.4624 26.2009 0.0000 0.0000 0.0000
# 2 34.4624 47.1003 14.3788 0.0000 0.0000 0.0000
# 3 26.2009 14.3788 50.8566 0.0000 0.0000 0.0000
# 4 0.0000 0.0000 0.0000 10.6132 0.0000 0.0000
# 5 0.0000 0.0000 0.0000 0.0000 13.7448 0.0000
# 6 0.0000 0.0000 0.0000 0.0000 0.0000 11.3036
#
#
#
# Elastic Compliance Matrix: (Units=1/GPa)
#
#
# Indices 1 2 3 4 5 6 
#
# 1 0.016911 -0.010632 -0.005707 0.000000 0.000000 0.000000
# 2 -0.010632 0.029921 -0.002982 0.000000 0.000000 0.000000
# 3 -0.005707 -0.002982 0.023446 0.000000 0.000000 0.000000
# 4 0.000000 0.000000 0.000000 0.094222 0.000000 0.000000
# 5 0.000000 0.000000 0.000000 0.000000 0.072755 0.000000
# 6 0.000000 0.000000 0.000000 0.000000 0.000000 0.088467
#
#
# Mechanical properties :
#
#
# Convention : Reuss Voigt Hill
#
# Bulk Modulus (GPa) = 31.60820 37.51990 34.56405
# Shear Modulus (GPa) = 13.33653 14.63584 13.98619
#
# Velocity S-wave (km/s) = 2.70744 2.83626 2.77260
# Velocity P-wave (km/s) = 5.21024 5.59893 5.40808
#
# Compressibility (1/GPa) = 0.03163736
#
# Stress axis : x y z
#
# Youngs Moduli (GPa) = 59.13140 33.42170 42.65054
#
# Poissons Ratio (x) = 0.35533 0.24340
# Poissons Ratio (y) = 0.62866 0.12719
# Poissons Ratio (z) = 0.33745 0.09967
#
# Static dielectric constant tensor:
#      x y z
#    x 1.610160 0.000000 0.000000 
#    y 0.000000 1.630290 0.000000 
#    z 0.000000 0.000000 1.638880 
# 
# From -- ./inp_files/26312.got.cif
#   From: 2010.05.17/outbox.cif.g08.bks.cpg/sg58_14_cif.got.tgz:26312.got - 2010.06.03 14:20:14.
