data_PCOD9441225
_publ_section_title
;
Structure prediction by ZEFSAII (Michael W. Deem and Ramdas Pophale) SiO2 
 PCOD9441225
Probable space group: P N N M
;
_chemical_formula_sum "Si O2"
_cell_formula_units_Z 64
_cell_length_a 9.496498
_cell_length_b 19.602485
_cell_length_c 19.738020
_cell_angle_alpha 90.000000
_cell_angle_beta 90.000000
_cell_angle_gamma 90.000000
_cell_volume 3674.330316
_symmetry_space_group_name_H-M "P N N M"
_symmetry_group_IT_number 58
_symmetry_cell_setting 'orthorhombic'
loop_
_space_group_symop_operation_xyz
x,y,z
-x,-y,z
1/2+x,1/2-y,1/2-z
1/2-x,1/2+y,1/2-z
-x,-y,-z
x,y,-z
1/2-x,1/2+y,1/2+z
1/2+x,1/2-y,1/2+z
loop_
_atom_site_type_symbol
_atom_site_label
_atom_site_fract_x
_atom_site_fract_y
_atom_site_fract_z
Si Si1 0.785724 0.878134 0.795152
Si Si2 0.206571 0.931409 0.423624
Si Si3 0.711428 0.803888 0.923572
Si Si4 0.668703 0.512160 0.782242
Si Si5 0.059090 0.314560 0.922484
Si Si6 0.989101 0.188439 0.619937
Si Si7 0.294525 0.211296 0.331993
Si Si8 0.606258 0.654164 0.729573
O O1 0.716657 0.861599 0.866815
O O2 0.727666 0.824889 0.740119
O O3 0.954487 0.866191 0.801074
O O4 0.765149 0.951914 0.761446
O O5 0.203337 0.959619 0.500000
O O6 0.212048 0.983392 0.361042
O O7 0.338967 0.879945 0.417267
O O8 0.071844 0.881198 0.412419
O O9 0.578035 0.753824 0.915823
O O10 0.842090 0.751676 0.911427
O O11 0.720379 0.829890 0.000000
O O12 0.500000 0.500000 0.782930
O O13 0.690773 0.585675 0.747737
O O14 0.933622 0.314403 0.869527
O O15 0.006577 0.311571 0.000000
O O16 0.931242 0.187027 0.697297
O O17 0.156142 0.193628 0.624851
O O18 0.313906 0.291427 0.316294
#
# Coordination Sequence:
#
# PCOD9441225 Si02
#       8
#     8   8   8   8   8   8   8   8
#     4  10  19  33  53  80 104 137 183 228 264 313
#     4   9  18  35  55  76 111 152 180 210 263 330
#     4  10  18  32  52  75 107 138 170 217 273 325
#     4   9  19  34  52  78 108 140 186 230 262 308
#     4   9  19  33  53  79 111 143 169 211 269 324
#     4   9  18  29  49  84 107 133 176 220 268 311
#     4  11  19  31  57  80 109 140 176 230 269 312
#     4   9  17  31  52  75 106 138 173 224 266 314
#
# _framework density 17.418140000000001
#
# number of rings (size 3 to 8) (size 9 to 14) (size 15 to 20)
#    0.000    2.500    2.500    1.875    0.000    1.250 
#    0.000    1.250    0.000    5.625    0.000    0.875 
#    0.000    0.000    0.000    0.000    0.000    0.000 
#
# Total GULP energy -356859.669155 kJ/mol
# GULP energy per Si atom -5575.932331 kJ/mol
# Density = 1.737850 g / cm^3
# Si number density = 17.418140 Si / 1000 Ang^3
#
#
#
# Elastic Constant Matrix: (Units=GPa)
#
#
# Indices 1 2 3 4 5 6 
#
# 1 55.3220 15.8570 31.8280 0.0000 0.0000 0.0000
# 2 15.8570 65.7729 30.7827 0.0000 0.0000 0.0000
# 3 31.8280 30.7827 88.5279 0.0000 0.0000 0.0000
# 4 0.0000 0.0000 0.0000 27.9160 0.0000 0.0000
# 5 0.0000 0.0000 0.0000 0.0000 16.2451 0.0000
# 6 0.0000 0.0000 0.0000 0.0000 0.0000 11.4726
#
#
#
# Elastic Compliance Matrix: (Units=1/GPa)
#
#
# Indices 1 2 3 4 5 6 
#
# 1 0.023008 -0.002001 -0.007576 0.000000 0.000000 0.000000
# 2 -0.002001 0.018333 -0.005655 0.000000 0.000000 0.000000
# 3 -0.007576 -0.005655 0.015986 0.000000 0.000000 0.000000
# 4 0.000000 0.000000 0.000000 0.035822 0.000000 0.000000
# 5 0.000000 0.000000 0.000000 0.000000 0.061557 0.000000
# 6 0.000000 0.000000 0.000000 0.000000 0.000000 0.087164
#
#
# Mechanical properties :
#
#
# Convention : Reuss Voigt Hill
#
# Bulk Modulus (GPa) = 37.22704 40.72868 38.97786
# Shear Modulus (GPa) = 17.77526 19.87043 18.82285
#
# Velocity S-wave (km/s) = 3.19800 3.38122 3.29088
# Velocity P-wave (km/s) = 5.92074 6.21910 6.07176
#
# Compressibility (1/GPa) = 0.02686219
#
# Stress axis : x y z
#
# Youngs Moduli (GPa) = 43.46247 54.54632 62.55425
#
# Poissons Ratio (x) = 0.10916 0.47392
# Poissons Ratio (y) = 0.08698 0.35376
# Poissons Ratio (z) = 0.32928 0.30847
#
# Static dielectric constant tensor:
#      x y z
#    x 1.591380 0.000000 0.000000 
#    y 0.000000 1.604330 0.000000 
#    z 0.000000 0.000000 1.596580 
# 
# From -- ./inp_files/29200.got.cif
#   From: 2010.05.17/outbox.cif.g08.bks.cpg/sg58_15_cif.got.tgz:29200.got - 2010.06.03 14:20:14.
