data_PCOD9441451
_publ_section_title
;
Structure prediction by ZEFSAII (Michael W. Deem and Ramdas Pophale) SiO2 
 PCOD9441451
Probable space group: P N N M
;
_chemical_formula_sum "Si O2"
_cell_formula_units_Z 56
_cell_length_a 11.492916
_cell_length_b 16.554706
_cell_length_c 15.309830
_cell_angle_alpha 90.000000
_cell_angle_beta 90.000000
_cell_angle_gamma 90.000000
_cell_volume 2912.876510
_symmetry_space_group_name_H-M "P N N M"
_symmetry_group_IT_number 58
_symmetry_cell_setting 'orthorhombic'
loop_
_space_group_symop_operation_xyz
x,y,z
-x,-y,z
1/2+x,1/2-y,1/2-z
1/2-x,1/2+y,1/2-z
-x,-y,-z
x,y,-z
1/2-x,1/2+y,1/2+z
1/2+x,1/2-y,1/2+z
loop_
_atom_site_type_symbol
_atom_site_label
_atom_site_fract_x
_atom_site_fract_y
_atom_site_fract_z
Si Si1 0.628620 0.532089 0.210281
Si Si2 0.273822 0.120430 0.287203
Si Si3 0.308066 0.308913 0.100761
Si Si4 0.099599 0.908108 0.093931
Si Si5 0.101757 0.197626 0.150520
Si Si6 0.520060 0.801867 0.793561
Si Si7 0.201792 0.273914 0.598858
O O1 0.500000 0.500000 0.182713
O O2 0.726073 0.466179 0.186124
O O3 0.665849 0.614812 0.162879
O O4 0.619031 0.544879 0.315335
O O5 0.191897 0.145684 0.206580
O O6 0.405930 0.127964 0.253068
O O7 0.245349 0.190433 0.357704
O O8 0.179327 0.269252 0.109347
O O9 0.396281 0.240858 0.136259
O O10 0.329862 0.329091 0.000000
O O11 0.192820 0.836000 0.096009
O O12 0.974658 0.864019 0.095502
O O13 0.115135 0.951196 0.000000
O O14 0.011669 0.238334 0.217878
O O15 0.398544 0.814839 0.842400
O O16 0.160180 0.259106 0.500000
#
# Coordination Sequence:
#
# PCOD9441451 Si02
#       7
#     8   8   8   8   8   8   8
#     4  12  22  39  57  88 128 158 192 244 310 375
#     4  10  20  34  60  83 118 158 191 238 303 360
#     4  11  23  37  60  91 120 153 200 252 300 351
#     4  11  21  38  62  86 115 156 205 253 296 351
#     4  10  18  39  60  85 113 150 203 247 285 344
#     4  10  18  36  60  83 114 154 200 245 292 350
#     4  10  20  36  60  87 113 152 208 250 289 353
#
# _framework density 19.224981
#
# number of rings (size 3 to 8) (size 9 to 14) (size 15 to 20)
#    0.000    1.429    4.286    3.429    0.000    1.143 
#    0.000    4.286    0.000    2.571    0.000    0.000 
#    0.000    0.000    0.000    0.000    0.000    0.000 
#
# Total GULP energy -312262.562593 kJ/mol
# GULP energy per Si atom -5576.117189 kJ/mol
# Density = 1.918122 g / cm^3
# Si number density = 19.224981 Si / 1000 Ang^3
#
#
#
# Elastic Constant Matrix: (Units=GPa)
#
#
# Indices 1 2 3 4 5 6 
#
# 1 56.1636 13.8212 16.5937 0.0000 0.0000 0.0000
# 2 13.8212 61.1115 4.0009 0.0000 0.0000 0.0000
# 3 16.5937 4.0009 80.9673 0.0000 0.0000 0.0000
# 4 0.0000 0.0000 0.0000 11.6350 0.0000 0.0000
# 5 0.0000 0.0000 0.0000 0.0000 11.0950 0.0000
# 6 0.0000 0.0000 0.0000 0.0000 0.0000 30.0294
#
#
#
# Elastic Compliance Matrix: (Units=1/GPa)
#
#
# Indices 1 2 3 4 5 6 
#
# 1 0.020005 -0.004270 -0.003889 0.000000 0.000000 0.000000
# 2 -0.004270 0.017328 0.000019 0.000000 0.000000 0.000000
# 3 -0.003889 0.000019 0.013147 0.000000 0.000000 0.000000
# 4 0.000000 0.000000 0.000000 0.085948 0.000000 0.000000
# 5 0.000000 0.000000 0.000000 0.000000 0.090131 0.000000
# 6 0.000000 0.000000 0.000000 0.000000 0.000000 0.033301
#
#
# Mechanical properties :
#
#
# Convention : Reuss Voigt Hill
#
# Bulk Modulus (GPa) = 29.23985 29.67489 29.45737
# Shear Modulus (GPa) = 17.38898 21.47365 19.43131
#
# Velocity S-wave (km/s) = 3.01075 3.34573 3.18265
# Velocity P-wave (km/s) = 5.22767 5.51310 5.37228
#
# Compressibility (1/GPa) = 0.03419990
#
# Stress axis : x y z
#
# Youngs Moduli (GPa) = 49.98795 57.71014 76.06451
#
# Poissons Ratio (x) = 0.24641 0.29580
# Poissons Ratio (y) = 0.21344 -0.00143
# Poissons Ratio (z) = 0.19440 -0.00109
#
# Static dielectric constant tensor:
#      x y z
#    x 1.699990 0.000000 0.000000 
#    y 0.000000 1.686400 0.000000 
#    z 0.000000 0.000000 1.706460 
# 
# From -- ./inp_files/21264.got.cif
#   From: 2010.05.17/outbox.cif.g08.bks.cpg/sg58_11_cif.got.tgz:21264.got - 2010.06.03 14:20:14.
