data_PCOD9441074
_publ_section_title
;
Structure prediction by ZEFSAII (Michael W. Deem and Ramdas Pophale) SiO2 
 PCOD9441074
Probable space group: P N N M
;
_chemical_formula_sum "Si O2"
_cell_formula_units_Z 56
_cell_length_a 19.697382
_cell_length_b 19.915929
_cell_length_c 7.645683
_cell_angle_alpha 90.000000
_cell_angle_beta 90.000000
_cell_angle_gamma 90.000000
_cell_volume 2999.337687
_symmetry_space_group_name_H-M "P N N M"
_symmetry_group_IT_number 58
_symmetry_cell_setting 'orthorhombic'
loop_
_space_group_symop_operation_xyz
x,y,z
-x,-y,z
1/2+x,1/2-y,1/2-z
1/2-x,1/2+y,1/2-z
-x,-y,-z
x,y,-z
1/2-x,1/2+y,1/2+z
1/2+x,1/2-y,1/2+z
loop_
_atom_site_type_symbol
_atom_site_label
_atom_site_fract_x
_atom_site_fract_y
_atom_site_fract_z
Si Si1 0.239796 0.387949 0.201560
Si Si2 0.858929 0.211578 0.203403
Si Si3 0.512522 0.299470 0.713673
Si Si4 0.210418 0.032345 0.205154
Si Si5 0.558160 0.448953 0.286083
Si Si6 0.356577 0.774037 0.713215
Si Si7 0.262974 0.171680 0.211358
O O1 0.306674 0.340824 0.211331
O O2 0.255343 0.460134 0.280083
O O3 0.179066 0.342216 0.277579
O O4 0.223827 0.400415 0.000000
O O5 0.825429 0.284919 0.218251
O O6 0.935360 0.210180 0.273563
O O7 0.861652 0.191569 0.000000
O O8 0.511716 0.297094 0.500000
O O9 0.539257 0.373148 0.763055
O O10 0.568101 0.244961 0.771950
O O11 0.133496 0.031787 0.276348
O O12 0.253243 0.095597 0.274560
O O13 0.202494 0.047461 0.000000
O O14 0.500000 0.500000 0.226426
O O15 0.558013 0.451482 0.500000
O O16 0.357003 0.777130 0.500000
O O17 0.305224 0.713265 0.757497
O O18 0.269307 0.173447 0.000000
#
# Coordination Sequence:
#
# PCOD9441074 Si02
#       7
#     8   8   8   8   8   8   8
#     4  10  20  32  48  69  98 130 159 197 241 287
#     4  10  19  30  49  74  97 122 157 202 241 281
#     4   9  15  26  46  71  94 118 158 204 236 272
#     4  10  18  30  50  73  95 125 163 198 238 285
#     4   9  15  23  41  71  99 120 149 192 235 276
#     4   8  14  28  47  67  89 120 162 199 234 274
#     4   9  17  31  50  70  95 127 160 196 238 290
#
# _framework density 18.670787000000001
#
# number of rings (size 3 to 8) (size 9 to 14) (size 15 to 20)
#    0.000    2.714    1.429    2.571    0.000    2.857 
#    0.000    0.000    0.000   14.143    0.000    6.000 
#    0.000    0.000    0.000    0.000    0.000    0.000 
#
# Total GULP energy -312273.191220 kJ/mol
# GULP energy per Si atom -5576.306986 kJ/mol
# Density = 1.862829 g / cm^3
# Si number density = 18.670787 Si / 1000 Ang^3
#
#
#
# Elastic Constant Matrix: (Units=GPa)
#
#
# Indices 1 2 3 4 5 6 
#
# 1 36.2367 25.2593 -7.5959 0.0000 0.0000 0.0000
# 2 25.2593 109.0595 -9.1408 0.0000 0.0000 0.0000
# 3 -7.5959 -9.1408 30.9893 0.0000 0.0000 0.0000
# 4 0.0000 0.0000 0.0000 18.2778 0.0000 0.0000
# 5 0.0000 0.0000 0.0000 0.0000 14.1957 0.0000
# 6 0.0000 0.0000 0.0000 0.0000 0.0000 24.1439
#
#
#
# Elastic Compliance Matrix: (Units=1/GPa)
#
#
# Indices 1 2 3 4 5 6 
#
# 1 0.034022 -0.007363 0.006167 0.000000 0.000000 0.000000
# 2 -0.007363 0.010995 0.001438 0.000000 0.000000 0.000000
# 3 0.006167 0.001438 0.034205 0.000000 0.000000 0.000000
# 4 0.000000 0.000000 0.000000 0.054711 0.000000 0.000000
# 5 0.000000 0.000000 0.000000 0.000000 0.070444 0.000000
# 6 0.000000 0.000000 0.000000 0.000000 0.000000 0.041418
#
#
# Mechanical properties :
#
#
# Convention : Reuss Voigt Hill
#
# Bulk Modulus (GPa) = 12.54578 21.48118 17.01348
# Shear Modulus (GPa) = 18.39054 22.50766 20.44910
#
# Velocity S-wave (km/s) = 3.14186 3.47580 3.31304
# Velocity P-wave (km/s) = 4.46047 5.25723 4.87515
#
# Compressibility (1/GPa) = 0.07970809
#
# Stress axis : x y z
#
# Youngs Moduli (GPa) = 29.39315 90.94896 29.23526
#
# Poissons Ratio (x) = 0.66964 -0.18031
# Poissons Ratio (y) = 0.21642 -0.04205
# Poissons Ratio (z) = -0.18128 -0.13083
#
# Static dielectric constant tensor:
#      x y z
#    x 1.642980 0.000000 0.000000 
#    y 0.000000 1.633160 0.000000 
#    z 0.000000 0.000000 1.710570 
# 
# From -- ./inp_files/8174.got.cif
#   From: 2010.05.17/outbox.cif.g08.bks.cpg/sg58_5_cif.got.tgz:8174.got - 2010.06.03 14:20:14.
