data_PCOD9441560
_publ_section_title
;
Structure prediction by ZEFSAII (Michael W. Deem and Ramdas Pophale) SiO2 
 PCOD9441560
Probable space group: P N N M
;
_chemical_formula_sum "Si O2"
_cell_formula_units_Z 56
_cell_length_a 15.094070
_cell_length_b 21.313265
_cell_length_c 7.711980
_cell_angle_alpha 90.000000
_cell_angle_beta 90.000000
_cell_angle_gamma 90.000000
_cell_volume 2480.974149
_symmetry_space_group_name_H-M "P N N M"
_symmetry_group_IT_number 58
_symmetry_cell_setting 'orthorhombic'
loop_
_space_group_symop_operation_xyz
x,y,z
-x,-y,z
1/2+x,1/2-y,1/2-z
1/2-x,1/2+y,1/2-z
-x,-y,-z
x,y,-z
1/2-x,1/2+y,1/2+z
1/2+x,1/2-y,1/2+z
loop_
_atom_site_type_symbol
_atom_site_label
_atom_site_fract_x
_atom_site_fract_y
_atom_site_fract_z
Si Si1 0.510916 0.730593 0.790332
Si Si2 0.734125 0.117192 0.793353
Si Si3 0.417004 0.036843 0.299158
Si Si4 0.541703 0.134520 0.206307
Si Si5 0.140470 0.144322 0.706826
Si Si6 0.278868 0.516105 0.790397
Si Si7 0.707319 0.755394 0.799987
O O1 0.451754 0.792038 0.760310
O O2 0.451321 0.673478 0.723028
O O3 0.608460 0.747296 0.721437
O O4 0.520718 0.722582 0.000000
O O5 0.633045 0.102765 0.734131
O O6 0.758525 0.183706 0.712161
O O7 0.794723 0.056863 0.754011
O O8 0.731592 0.126394 0.000000
O O9 0.410858 0.017790 0.500000
O O10 0.453920 0.107111 0.290856
O O11 0.320519 0.030151 0.221837
O O12 0.500000 0.000000 0.216316
O O13 0.532569 0.126302 0.000000
O O14 0.129121 0.139062 0.500000
O O15 0.162584 0.074462 0.773008
O O16 0.222337 0.193634 0.729538
O O17 0.278689 0.519758 0.000000
O O18 0.696133 0.773981 0.000000
#
# Coordination Sequence:
#
# PCOD9441560 Si02
#       7
#     8   8   8   8   8   8   8
#     4   9  19  37  58  82 111 145 190 238 284 343
#     4  11  22  37  58  81 114 154 191 235 286 344
#     4  10  19  30  46  75 114 142 172 226 283 336
#     4  10  19  33  54  77 105 146 187 225 276 343
#     4  10  20  39  62  84 117 155 192 236 291 348
#     4  10  21  36  56  82 115 154 192 236 288 345
#     4  11  22  37  61  88 115 148 193 244 288 340
#
# _framework density 22.571777999999998
#
# number of rings (size 3 to 8) (size 9 to 14) (size 15 to 20)
#    0.000    1.857    2.857    1.714    0.000    2.000 
#    0.000    2.857    0.000    4.286    0.000    0.000 
#    0.000    0.000    0.000    0.000    0.000    0.000 
#
# Total GULP energy -312332.266029 kJ/mol
# GULP energy per Si atom -5577.361893 kJ/mol
# Density = 2.252040 g / cm^3
# Si number density = 22.571778 Si / 1000 Ang^3
#
#
#
# Elastic Constant Matrix: (Units=GPa)
#
#
# Indices 1 2 3 4 5 6 
#
# 1 44.6140 -5.6530 -6.5787 0.0000 0.0000 0.0000
# 2 -5.6530 59.2526 -4.7465 0.0000 0.0000 0.0000
# 3 -6.5787 -4.7465 40.2957 0.0000 0.0000 0.0000
# 4 0.0000 0.0000 0.0000 13.0351 0.0000 0.0000
# 5 0.0000 0.0000 0.0000 0.0000 13.1132 0.0000
# 6 0.0000 0.0000 0.0000 0.0000 0.0000 31.1428
#
#
#
# Elastic Compliance Matrix: (Units=1/GPa)
#
#
# Indices 1 2 3 4 5 6 
#
# 1 0.023345 0.002557 0.004112 0.000000 0.000000 0.000000
# 2 0.002557 0.017318 0.002457 0.000000 0.000000 0.000000
# 3 0.004112 0.002457 0.025777 0.000000 0.000000 0.000000
# 4 0.000000 0.000000 0.000000 0.076716 0.000000 0.000000
# 5 0.000000 0.000000 0.000000 0.000000 0.076259 0.000000
# 6 0.000000 0.000000 0.000000 0.000000 0.000000 0.032110
#
#
# Mechanical properties :
#
#
# Convention : Reuss Voigt Hill
#
# Bulk Modulus (GPa) = 11.80738 12.24508 12.02623
# Shear Modulus (GPa) = 19.12024 22.20093 20.66058
#
# Velocity S-wave (km/s) = 2.91363 3.13959 3.02872
# Velocity P-wave (km/s) = 4.06957 4.31039 4.19171
#
# Compressibility (1/GPa) = 0.08469276
#
# Stress axis : x y z
#
# Youngs Moduli (GPa) = 42.83594 57.74453 38.79371
#
# Poissons Ratio (x) = -0.14763 -0.15954
# Poissons Ratio (y) = -0.10952 -0.09533
# Poissons Ratio (z) = -0.17616 -0.14189
#
# Static dielectric constant tensor:
#      x y z
#    x 1.877920 0.000000 0.000000 
#    y 0.000000 1.922980 0.000000 
#    z 0.000000 0.000000 1.818390 
# 
# From -- ./inp_files/6358.got.cif
#   From: 2010.05.17/outbox.cif.g08.bks.cpg/sg58_4_cif.got.tgz:6358.got - 2010.06.03 14:20:14.
