data_PCOD9441570
_publ_section_title
;
Structure prediction by ZEFSAII (Michael W. Deem and Ramdas Pophale) SiO2 
 PCOD9441570
Probable space group: P N N M
;
_chemical_formula_sum "Si O2"
_cell_formula_units_Z 56
_cell_length_a 18.510112
_cell_length_b 21.308827
_cell_length_c 8.933795
_cell_angle_alpha 90.000000
_cell_angle_beta 90.000000
_cell_angle_gamma 90.000000
_cell_volume 3523.745812
_symmetry_space_group_name_H-M "P N N M"
_symmetry_group_IT_number 58
_symmetry_cell_setting 'orthorhombic'
loop_
_space_group_symop_operation_xyz
x,y,z
-x,-y,z
1/2+x,1/2-y,1/2-z
1/2-x,1/2+y,1/2-z
-x,-y,-z
x,y,-z
1/2-x,1/2+y,1/2+z
1/2+x,1/2-y,1/2+z
loop_
_atom_site_type_symbol
_atom_site_label
_atom_site_fract_x
_atom_site_fract_y
_atom_site_fract_z
Si Si1 0.414162 0.500127 0.178394
Si Si2 0.710576 0.816299 0.327436
Si Si3 0.918259 0.248753 0.321526
Si Si4 0.656016 0.377213 0.678095
Si Si5 0.297512 0.816045 0.828493
Si Si6 0.651786 0.624437 0.680338
Si Si7 0.572877 0.245786 0.323675
O O1 0.500000 0.500000 0.206939
O O2 0.379998 0.563729 0.242179
O O3 0.378811 0.440384 0.258628
O O4 0.402955 0.496203 0.000000
O O5 0.698584 0.834319 0.500000
O O6 0.636279 0.801112 0.243389
O O7 0.764600 0.863269 0.243947
O O8 0.753353 0.749719 0.328242
O O9 0.912830 0.246008 0.500000
O O10 0.892229 0.182270 0.252151
O O11 0.999637 0.260670 0.268657
O O12 0.659673 0.386864 0.500000
O O13 0.607830 0.314639 0.704821
O O14 0.236600 0.865823 0.781201
O O15 0.366717 0.804398 0.726358
O O16 0.319750 0.828376 0.000000
O O17 0.645730 0.628473 0.500000
O O18 0.557927 0.240996 0.500000
#
# Coordination Sequence:
#
# PCOD9441570 Si02
#       7
#     8   8   8   8   8   8   8
#     4  11  23  35  48  69  97 130 166 200 234 275
#     4   9  17  31  49  68  93 123 157 196 238 284
#     4  11  20  30  47  71  99 127 157 195 239 285
#     4  10  20  33  49  69  95 128 164 199 237 282
#     4   8  16  30  47  67  91 120 153 192 238 283
#     4  10  20  34  50  68  94 127 162 199 238 282
#     4  10  19  30  47  71  97 125 157 194 237 283
#
# _framework density 15.892179
#
# number of rings (size 3 to 8) (size 9 to 14) (size 15 to 20)
#    0.000    2.143    0.000    5.143    0.000    9.143 
#    0.000    0.000    0.000    0.000    0.000    1.000 
#    0.000    8.000    0.000    0.000    0.000    0.000 
#
# Total GULP energy -312420.502830 kJ/mol
# GULP energy per Si atom -5578.937551 kJ/mol
# Density = 1.585601 g / cm^3
# Si number density = 15.892179 Si / 1000 Ang^3
#
#
#
# Elastic Constant Matrix: (Units=GPa)
#
#
# Indices 1 2 3 4 5 6 
#
# 1 120.6461 53.4005 79.4468 0.0000 0.0000 0.0000
# 2 53.4005 63.0465 44.5739 0.0000 0.0000 0.0000
# 3 79.4468 44.5739 105.0281 0.0000 0.0000 0.0000
# 4 0.0000 0.0000 0.0000 6.6587 0.0000 0.0000
# 5 0.0000 0.0000 0.0000 0.0000 30.4447 0.0000
# 6 0.0000 0.0000 0.0000 0.0000 0.0000 25.3124
#
#
#
# Elastic Compliance Matrix: (Units=1/GPa)
#
#
# Indices 1 2 3 4 5 6 
#
# 1 0.019316 -0.008616 -0.010955 0.000000 0.000000 0.000000
# 2 -0.008616 0.026504 -0.004731 0.000000 0.000000 0.000000
# 3 -0.010955 -0.004731 0.019816 0.000000 0.000000 0.000000
# 4 0.000000 0.000000 0.000000 0.150179 0.000000 0.000000
# 5 0.000000 0.000000 0.000000 0.000000 0.032846 0.000000
# 6 0.000000 0.000000 0.000000 0.000000 0.000000 0.039506
#
#
# Mechanical properties :
#
#
# Convention : Reuss Voigt Hill
#
# Bulk Modulus (GPa) = 58.71150 71.50700 65.10925
# Shear Modulus (GPa) = 14.60081 19.90314 17.25198
#
# Velocity S-wave (km/s) = 3.03436 3.54275 3.29836
# Velocity P-wave (km/s) = 7.02142 7.86305 7.45412
#
# Compressibility (1/GPa) = 0.01703244
#
# Stress axis : x y z
#
# Youngs Moduli (GPa) = 51.77047 37.73084 50.46518
#
# Poissons Ratio (x) = 0.32508 0.55284
# Poissons Ratio (y) = 0.44604 0.23875
# Poissons Ratio (z) = 0.56714 0.17850
#
# Static dielectric constant tensor:
#      x y z
#    x 1.528710 0.000000 0.000000 
#    y 0.000000 1.507940 0.000000 
#    z 0.000000 0.000000 1.529440 
# 
# From -- ./inp_files/8143.got.cif
#   From: 2010.05.17/outbox.cif.g08.bks.cpg/sg58_5_cif.got.tgz:8143.got - 2010.06.03 14:20:14.
