data_PCOD9441815
_publ_section_title
;
Structure prediction by ZEFSAII (Michael W. Deem and Ramdas Pophale) SiO2 
 PCOD9441815
Probable space group: P N N M
;
_chemical_formula_sum "Si O2"
_cell_formula_units_Z 64
_cell_length_a 18.172242
_cell_length_b 21.218591
_cell_length_c 8.679618
_cell_angle_alpha 90.000000
_cell_angle_beta 90.000000
_cell_angle_gamma 90.000000
_cell_volume 3346.768441
_symmetry_space_group_name_H-M "P N N M"
_symmetry_group_IT_number 58
_symmetry_cell_setting 'orthorhombic'
loop_
_space_group_symop_operation_xyz
x,y,z
-x,-y,z
1/2+x,1/2-y,1/2-z
1/2-x,1/2+y,1/2-z
-x,-y,-z
x,y,-z
1/2-x,1/2+y,1/2+z
1/2+x,1/2-y,1/2+z
loop_
_atom_site_type_symbol
_atom_site_label
_atom_site_fract_x
_atom_site_fract_y
_atom_site_fract_z
Si Si1 0.127602 0.867548 0.687992
Si Si2 0.085525 0.267750 0.316378
Si Si3 0.622666 0.494852 0.821436
Si Si4 0.298555 0.864528 0.313933
Si Si5 0.801844 0.497415 0.178361
Si Si6 0.131519 0.137507 0.816065
Si Si7 0.197615 0.634335 0.684450
Si Si8 0.424054 0.232347 0.811883
O O1 0.126120 0.870415 0.500000
O O2 0.213188 0.858380 0.733113
O O3 0.086188 0.804734 0.738181
O O4 0.098907 0.936273 0.739244
O O5 0.090784 0.271014 0.500000
O O6 0.150338 0.309005 0.244653
O O7 0.091709 0.195443 0.264242
O O8 0.004688 0.291490 0.267507
O O9 0.712267 0.498679 0.818138
O O10 0.602922 0.431483 0.731963
O O11 0.600066 0.487960 0.000000
O O12 0.298981 0.864488 0.500000
O O13 0.325550 0.933939 0.262429
O O14 0.826597 0.435693 0.267915
O O15 0.823443 0.491185 0.000000
O O16 0.217643 0.142300 0.765044
O O17 0.128445 0.144190 0.000000
O O18 0.198584 0.638235 0.500000
O O19 0.142108 0.687772 0.742741
O O20 0.421107 0.232986 0.000000
#
# Coordination Sequence:
#
# PCOD9441815 Si02
#       8
#     8   8   8   8   8   8   8   8
#     4   8  14  29  54  76  94 123 162 200 236 279
#     4  11  22  33  47  69  98 129 161 201 240 277
#     4   8  14  27  50  77  98 117 151 199 241 278
#     4   9  17  32  54  75  96 125 159 196 241 290
#     4   8  15  28  48  75 101 121 148 193 244 288
#     4  10  19  32  52  74  97 126 157 193 240 291
#     4   9  17  31  53  75  94 123 162 199 234 278
#     4   9  18  32  48  69  96 126 164 203 236 274
#
# _framework density 19.122924999999999
#
# number of rings (size 3 to 8) (size 9 to 14) (size 15 to 20)
#    0.000    3.000    0.000    3.000    0.000    3.000 
#    0.000    4.375    0.000   11.250    0.000    0.000 
#    0.000    0.000    0.000    0.000    0.000    0.000 
#
# Total GULP energy -356693.728768 kJ/mol
# GULP energy per Si atom -5573.339512 kJ/mol
# Density = 1.907940 g / cm^3
# Si number density = 19.122925 Si / 1000 Ang^3
#
#
#
# Elastic Constant Matrix: (Units=GPa)
#
#
# Indices 1 2 3 4 5 6 
#
# 1 43.9067 17.9437 6.6088 0.0000 0.0000 0.0000
# 2 17.9437 85.4532 1.8365 0.0000 0.0000 0.0000
# 3 6.6088 1.8365 4.0991 0.0000 0.0000 0.0000
# 4 0.0000 0.0000 0.0000 31.8731 0.0000 0.0000
# 5 0.0000 0.0000 0.0000 0.0000 9.5877 0.0000
# 6 0.0000 0.0000 0.0000 0.0000 0.0000 -12.2158
#
#
#
# Elastic Compliance Matrix: (Units=1/GPa)
#
#
# Indices 1 2 3 4 5 6 
#
# 1 0.032681 -0.005786 -0.050097 0.000000 0.000000 0.000000
# 2 -0.005786 0.012840 0.003575 0.000000 0.000000 0.000000
# 3 -0.050097 0.003575 0.323122 0.000000 0.000000 0.000000
# 4 0.000000 0.000000 0.000000 0.031374 0.000000 0.000000
# 5 0.000000 0.000000 0.000000 0.000000 0.104300 0.000000
# 6 0.000000 0.000000 0.000000 0.000000 0.000000 -0.081861
#
#
# Mechanical properties :
#
#
# Convention : Reuss Voigt Hill
#
# Bulk Modulus (GPa) = 3.78749 20.69303 12.24026
# Shear Modulus (GPa) = 8.12901 12.98700 10.55800
#
# Velocity S-wave (km/s) = 2.06401 2.60884 2.35226
# Velocity P-wave (km/s) = 2.76859 4.46311 3.71379
#
# Compressibility (1/GPa) = 0.26402696
#
# Stress axis : x y z
#
# Youngs Moduli (GPa) = 30.59914 77.87938 3.09481
#
# Poissons Ratio (x) = 0.45059 0.15504
# Poissons Ratio (y) = 0.17704 -0.01106
# Poissons Ratio (z) = 1.53293 -0.27843
#
# Static dielectric constant tensor:
#      x y z
#    x 1.670310 0.000000 0.000000 
#    y 0.000000 1.682400 0.000000 
#    z 0.000000 0.000000 1.648450 
# 
# From -- ./inp_files/8264.got.cif
#   From: 2010.05.17/outbox.cif.g08.bks.cpg/sg58_5_cif.got.tgz:8264.got - 2010.06.03 14:20:14.
