data_PCOD9441068
_publ_section_title
;
Structure prediction by ZEFSAII (Michael W. Deem and Ramdas Pophale) SiO2 
 PCOD9441068
Probable space group: P N N M
;
_chemical_formula_sum "Si O2"
_cell_formula_units_Z 64
_cell_length_a 25.749595
_cell_length_b 14.750326
_cell_length_c 9.183441
_cell_angle_alpha 90.000000
_cell_angle_beta 90.000000
_cell_angle_gamma 90.000000
_cell_volume 3488.007914
_symmetry_space_group_name_H-M "P N N M"
_symmetry_group_IT_number 58
_symmetry_cell_setting 'orthorhombic'
loop_
_space_group_symop_operation_xyz
x,y,z
-x,-y,z
1/2+x,1/2-y,1/2-z
1/2-x,1/2+y,1/2-z
-x,-y,-z
x,y,-z
1/2-x,1/2+y,1/2+z
1/2+x,1/2-y,1/2+z
loop_
_atom_site_type_symbol
_atom_site_label
_atom_site_fract_x
_atom_site_fract_y
_atom_site_fract_z
Si Si1 0.293167 0.924131 0.172759
Si Si2 0.014624 0.230787 0.169528
Si Si3 0.194981 0.829400 0.327795
Si Si4 0.161547 0.118754 0.336513
Si Si5 0.233725 0.628745 0.668846
Si Si6 0.575829 0.642032 0.173686
Si Si7 0.572707 0.463338 0.667127
Si Si8 0.392701 0.815430 0.166813
O O1 0.241891 0.881880 0.247795
O O2 0.347218 0.880337 0.226549
O O3 0.294371 0.032619 0.188594
O O4 0.289843 0.902742 0.000000
O O5 0.042217 0.131390 0.179230
O O6 0.055066 0.300935 0.241371
O O7 0.960682 0.217841 0.254022
O O8 0.006551 0.250637 0.000000
O O9 0.199321 0.850144 0.500000
O O10 0.202206 0.721159 0.310345
O O11 0.136292 0.851999 0.281021
O O12 0.157844 0.079859 0.500000
O O13 0.219509 0.129964 0.282422
O O14 0.130735 0.059863 0.219376
O O15 0.134546 0.216750 0.338877
O O16 0.252986 0.630432 0.500000
O O17 0.555724 0.544552 0.229083
O O18 0.572723 0.648438 0.000000
O O19 0.569630 0.493885 0.500000
O O20 0.405254 0.841825 0.000000
#
# Coordination Sequence:
#
# PCOD9441068 Si02
#       8
#     8   8   8   8   8   8   8   8
#     4  10  20  35  56  81 106 139 179 220 265 316
#     4  10  21  35  53  76 102 137 178 220 267 319
#     4  10  22  37  53  78 112 146 178 218 266 320
#     4  10  18  30  49  74 105 137 173 214 259 310
#     4  10  20  34  53  76 107 143 179 218 266 319
#     4  11  22  35  51  74 106 142 180 220 267 320
#     4  10  20  33  50  75 106 139 177 218 264 319
#     4   9  18  33  52  75 102 132 170 216 259 306
#
# _framework density 18.348582
#
# number of rings (size 3 to 8) (size 9 to 14) (size 15 to 20)
#    0.000    2.000    1.250    2.625    0.000    7.500 
#    0.000    0.000    0.000    0.750    0.000    5.250 
#    0.000    0.000    0.000    0.000    0.000    0.000 
#
# Total GULP energy -356999.375118 kJ/mol
# GULP energy per Si atom -5578.115236 kJ/mol
# Density = 1.830682 g / cm^3
# Si number density = 18.348582 Si / 1000 Ang^3
#
#
#
# Elastic Constant Matrix: (Units=GPa)
#
#
# Indices 1 2 3 4 5 6 
#
# 1 45.2134 15.2066 12.7476 0.0000 0.0000 0.0000
# 2 15.2066 58.4776 15.4564 0.0000 0.0000 0.0000
# 3 12.7476 15.4564 43.2576 0.0000 0.0000 0.0000
# 4 0.0000 0.0000 0.0000 14.2534 0.0000 0.0000
# 5 0.0000 0.0000 0.0000 0.0000 25.1768 0.0000
# 6 0.0000 0.0000 0.0000 0.0000 0.0000 19.8764
#
#
#
# Elastic Compliance Matrix: (Units=1/GPa)
#
#
# Indices 1 2 3 4 5 6 
#
# 1 0.025436 -0.005116 -0.005668 0.000000 0.000000 0.000000
# 2 -0.005116 0.019913 -0.005607 0.000000 0.000000 0.000000
# 3 -0.005668 -0.005607 0.026791 0.000000 0.000000 0.000000
# 4 0.000000 0.000000 0.000000 0.070159 0.000000 0.000000
# 5 0.000000 0.000000 0.000000 0.000000 0.039719 0.000000
# 6 0.000000 0.000000 0.000000 0.000000 0.000000 0.050311
#
#
# Mechanical properties :
#
#
# Convention : Reuss Voigt Hill
#
# Bulk Modulus (GPa) = 25.40815 25.97442 25.69129
# Shear Modulus (GPa) = 17.97068 18.76386 18.36727
#
# Velocity S-wave (km/s) = 3.13294 3.20133 3.16732
# Velocity P-wave (km/s) = 5.19275 5.27745 5.23527
#
# Compressibility (1/GPa) = 0.03935745
#
# Stress axis : x y z
#
# Youngs Moduli (GPa) = 39.31421 50.21801 37.32576
#
# Poissons Ratio (x) = 0.25694 0.21155
# Poissons Ratio (y) = 0.20115 0.20930
# Poissons Ratio (z) = 0.22282 0.28159
#
# Static dielectric constant tensor:
#      x y z
#    x 1.638590 0.000000 0.000000 
#    y 0.000000 1.645190 0.000000 
#    z 0.000000 0.000000 1.627630 
# 
# From -- ./inp_files/6841.got.cif
#   From: 2010.05.17/outbox.cif.g08.bks.cpg/sg58_4_cif.got.tgz:6841.got - 2010.06.03 14:20:14.
