data_PCOD9441796
_publ_section_title
;
Structure prediction by ZEFSAII (Michael W. Deem and Ramdas Pophale) SiO2 
 PCOD9441796
Probable space group: P N N M
;
_chemical_formula_sum "Si O2"
_cell_formula_units_Z 64
_cell_length_a 14.575415
_cell_length_b 28.978718
_cell_length_c 8.179053
_cell_angle_alpha 90.000000
_cell_angle_beta 90.000000
_cell_angle_gamma 90.000000
_cell_volume 3454.642569
_symmetry_space_group_name_H-M "P N N M"
_symmetry_group_IT_number 58
_symmetry_cell_setting 'orthorhombic'
loop_
_space_group_symop_operation_xyz
x,y,z
-x,-y,z
1/2+x,1/2-y,1/2-z
1/2-x,1/2+y,1/2-z
-x,-y,-z
x,y,-z
1/2-x,1/2+y,1/2+z
1/2+x,1/2-y,1/2+z
loop_
_atom_site_type_symbol
_atom_site_label
_atom_site_fract_x
_atom_site_fract_y
_atom_site_fract_z
Si Si1 0.377515 0.959930 0.810012
Si Si2 0.181364 0.643998 0.693149
Si Si3 0.117059 0.175266 0.699996
Si Si4 0.723485 0.130095 0.196212
Si Si5 0.654982 0.755553 0.190831
Si Si6 0.423243 0.342356 0.809110
Si Si7 0.844131 0.725393 0.686331
Si Si8 0.925527 0.443206 0.814108
O O1 0.314780 0.918610 0.743322
O O2 0.483321 0.943568 0.796138
O O3 0.373017 0.008965 0.720917
O O4 0.354932 0.967516 0.000000
O O5 0.176352 0.635322 0.500000
O O6 0.286926 0.654020 0.741615
O O7 0.127427 0.692133 0.727860
O O8 0.137245 0.600817 0.782367
O O9 0.118088 0.176694 0.500000
O O10 0.111131 0.228685 0.760603
O O11 0.025765 0.147886 0.753019
O O12 0.831263 0.137410 0.230417
O O13 0.664757 0.174220 0.261508
O O14 0.711166 0.131012 0.000000
O O15 0.585666 0.713404 0.200373
O O16 0.737753 0.741538 0.309061
O O17 0.688160 0.756035 0.000000
O O18 0.418990 0.355045 0.000000
O O19 0.878539 0.720813 0.500000
O O20 0.958249 0.443479 0.000000
#
# Coordination Sequence:
#
# PCOD9441796 Si02
#       8
#     8   8   8   8   8   8   8   8
#     4  10  20  36  56  77 100 126 159 199 247 300
#     4  10  19  32  51  73  99 132 168 206 247 291
#     4   9  17  29  46  70 101 137 172 203 238 281
#     4   9  18  31  50  74  99 130 165 202 243 289
#     4   8  15  27  43  65  93 127 165 200 235 277
#     4   9  17  29  47  71 102 138 171 204 241 285
#     4   8  14  26  43  64  93 127 162 198 234 273
#     4  11  22  36  54  76 100 125 157 200 251 302
#
# _framework density 18.525794999999999
#
# number of rings (size 3 to 8) (size 9 to 14) (size 15 to 20)
#    0.000    2.750    0.000    2.625    0.000    3.000 
#    0.000    3.750    0.000    5.250    0.000    5.250 
#    0.000    0.000    0.000    0.000    0.000    0.000 
#
# Total GULP energy -356271.160710 kJ/mol
# GULP energy per Si atom -5566.736886 kJ/mol
# Density = 1.848363 g / cm^3
# Si number density = 18.525795 Si / 1000 Ang^3
#
#
#
# Elastic Constant Matrix: (Units=GPa)
#
#
# Indices 1 2 3 4 5 6 
#
# 1 25.1318 11.5901 -3.5707 0.0000 0.0000 0.0000
# 2 11.5901 86.8578 8.2419 0.0000 0.0000 0.0000
# 3 -3.5707 8.2419 21.5666 0.0000 0.0000 0.0000
# 4 0.0000 0.0000 0.0000 16.0848 0.0000 0.0000
# 5 0.0000 0.0000 0.0000 0.0000 17.4179 0.0000
# 6 0.0000 0.0000 0.0000 0.0000 0.0000 22.1747
#
#
#
# Elastic Compliance Matrix: (Units=1/GPa)
#
#
# Indices 1 2 3 4 5 6 
#
# 1 0.044374 -0.006867 0.009971 0.000000 0.000000 0.000000
# 2 -0.006867 0.013009 -0.006109 0.000000 0.000000 0.000000
# 3 0.009971 -0.006109 0.050353 0.000000 0.000000 0.000000
# 4 0.000000 0.000000 0.000000 0.062170 0.000000 0.000000
# 5 0.000000 0.000000 0.000000 0.000000 0.057412 0.000000
# 6 0.000000 0.000000 0.000000 0.000000 0.000000 0.045096
#
#
# Mechanical properties :
#
#
# Convention : Reuss Voigt Hill
#
# Bulk Modulus (GPa) = 9.83022 18.45319 14.14171
# Shear Modulus (GPa) = 16.00852 18.95515 17.48183
#
# Velocity S-wave (km/s) = 2.94278 3.20218 3.07522
# Velocity P-wave (km/s) = 4.10663 4.86358 4.50104
#
# Compressibility (1/GPa) = 0.10172715
#
# Stress axis : x y z
#
# Youngs Moduli (GPa) = 22.53578 76.86942 19.85964
#
# Poissons Ratio (x) = 0.52789 -0.19803
# Poissons Ratio (y) = 0.15476 0.12131
# Poissons Ratio (z) = -0.22471 0.46956
#
# Static dielectric constant tensor:
#      x y z
#    x 1.643250 0.000000 0.000000 
#    y 0.000000 1.660900 0.000000 
#    z 0.000000 0.000000 1.666490 
# 
# From -- ./inp_files/7145.got.cif
#   From: 2010.05.17/outbox.cif.g08.bks.cpg/sg58_4_cif.got.tgz:7145.got - 2010.06.03 14:20:14.
