data_PCOD9441167
_publ_section_title
;
Structure prediction by ZEFSAII (Michael W. Deem and Ramdas Pophale) SiO2 
 PCOD9441167
Probable space group: P N N M
;
_chemical_formula_sum "Si O2"
_cell_formula_units_Z 64
_cell_length_a 10.212738
_cell_length_b 17.438489
_cell_length_c 15.434628
_cell_angle_alpha 90.000000
_cell_angle_beta 90.000000
_cell_angle_gamma 90.000000
_cell_volume 2748.825741
_symmetry_space_group_name_H-M "P N N M"
_symmetry_group_IT_number 58
_symmetry_cell_setting 'orthorhombic'
loop_
_space_group_symop_operation_xyz
x,y,z
-x,-y,z
1/2+x,1/2-y,1/2-z
1/2-x,1/2+y,1/2-z
-x,-y,-z
x,y,-z
1/2-x,1/2+y,1/2+z
1/2+x,1/2-y,1/2+z
loop_
_atom_site_type_symbol
_atom_site_label
_atom_site_fract_x
_atom_site_fract_y
_atom_site_fract_z
Si Si1 0.720688 0.933640 0.096057
Si Si2 0.104215 0.570203 0.905369
Si Si3 0.083597 0.342857 0.207039
Si Si4 0.617282 0.551432 0.335864
Si Si5 0.027694 0.165627 0.594061
Si Si6 0.810061 0.047717 0.357747
Si Si7 0.538252 0.158123 0.903986
Si Si8 0.087574 0.166675 0.208406
O O1 0.571656 0.907548 0.099463
O O2 0.800687 0.882808 0.163643
O O3 0.754028 0.022487 0.115057
O O4 0.768598 0.915152 0.000000
O O5 0.243636 0.527458 0.897648
O O6 0.000000 0.500000 0.904191
O O7 0.055759 0.623942 0.826884
O O8 0.092409 0.608206 0.000000
O O9 0.193425 0.392284 0.159768
O O10 0.096940 0.254673 0.183617
O O11 0.106497 0.347848 0.310498
O O12 0.500000 0.500000 0.375016
O O13 0.638326 0.525900 0.236856
O O14 0.553681 0.634670 0.325059
O O15 0.096587 0.161371 0.500000
O O16 0.921369 0.097132 0.595597
O O17 0.976455 0.254668 0.597713
O O18 0.096582 0.159121 0.687395
O O19 0.602847 0.153670 0.000000
#
# Coordination Sequence:
#
# PCOD9441167 Si02
#       8
#     8   8   8   8   8   8   8   8
#     4  10  19  33  54  75 100 139 181 218 259 312
#     4   9  18  30  46  71 102 134 167 207 257 307
#     4  10  19  32  51  76 107 134 165 217 268 312
#     4   9  19  34  51  73 100 131 170 213 255 300
#     4   9  17  31  52  77 104 135 175 218 258 309
#     4  10  18  31  53  75  99 137 175 209 257 311
#     4   9  18  32  51  76 104 137 176 217 261 310
#     4   9  19  32  50  77 103 132 172 216 263 311
#
# _framework density 23.282668999999999
#
# number of rings (size 3 to 8) (size 9 to 14) (size 15 to 20)
#    0.000    2.625    0.000    1.875    0.000    3.250 
#    0.000    0.625    0.000   42.000    0.000   15.750 
#    0.000    0.000    0.000    0.000    0.000    0.000 
#
# Total GULP energy -356883.781482 kJ/mol
# GULP energy per Si atom -5576.309086 kJ/mol
# Density = 2.322968 g / cm^3
# Si number density = 23.282669 Si / 1000 Ang^3
#
#
#
# Elastic Constant Matrix: (Units=GPa)
#
#
# Indices 1 2 3 4 5 6 
#
# 1 29.0230 17.8604 -0.6745 0.0000 0.0000 0.0000
# 2 17.8604 104.0111 24.9459 0.0000 0.0000 0.0000
# 3 -0.6745 24.9459 103.3640 0.0000 0.0000 0.0000
# 4 0.0000 0.0000 0.0000 28.9992 0.0000 0.0000
# 5 0.0000 0.0000 0.0000 0.0000 11.5276 0.0000
# 6 0.0000 0.0000 0.0000 0.0000 0.0000 30.3899
#
#
#
# Elastic Compliance Matrix: (Units=1/GPa)
#
#
# Indices 1 2 3 4 5 6 
#
# 1 0.038905 -0.007156 0.001981 0.000000 0.000000 0.000000
# 2 -0.007156 0.011521 -0.002827 0.000000 0.000000 0.000000
# 3 0.001981 -0.002827 0.010370 0.000000 0.000000 0.000000
# 4 0.000000 0.000000 0.000000 0.034484 0.000000 0.000000
# 5 0.000000 0.000000 0.000000 0.000000 0.086749 0.000000
# 6 0.000000 0.000000 0.000000 0.000000 0.000000 0.032906
#
#
# Mechanical properties :
#
#
# Convention : Reuss Voigt Hill
#
# Bulk Modulus (GPa) = 22.32552 35.62905 28.97729
# Shear Modulus (GPa) = 20.33607 27.13443 23.73525
#
# Velocity S-wave (km/s) = 2.95861 3.41755 3.19633
# Velocity P-wave (km/s) = 4.61312 5.55958 5.10832
#
# Compressibility (1/GPa) = 0.04479178
#
# Stress axis : x y z
#
# Youngs Moduli (GPa) = 25.70369 86.79669 96.43392
#
# Poissons Ratio (x) = 0.62109 -0.19102
# Poissons Ratio (y) = 0.18393 0.27264
# Poissons Ratio (z) = -0.05091 0.24539
#
# Static dielectric constant tensor:
#      x y z
#    x 1.995860 0.000000 0.000000 
#    y 0.000000 1.881700 0.000000 
#    z 0.000000 0.000000 1.870380 
# 
# From -- ./inp_files/21514.got.cif
#   From: 2010.05.17/outbox.cif.g08.bks.cpg/sg58_11_cif.got.tgz:21514.got - 2010.06.03 14:20:14.
