data_PCOD9441463
_publ_section_title
;
Structure prediction by ZEFSAII (Michael W. Deem and Ramdas Pophale) SiO2 
 PCOD9441463
Probable space group: P N N M
;
_chemical_formula_sum "Si O2"
_cell_formula_units_Z 64
_cell_length_a 18.333291
_cell_length_b 9.558901
_cell_length_c 19.163076
_cell_angle_alpha 90.000000
_cell_angle_beta 90.000000
_cell_angle_gamma 90.000000
_cell_volume 3358.254595
_symmetry_space_group_name_H-M "P N N M"
_symmetry_group_IT_number 58
_symmetry_cell_setting 'orthorhombic'
loop_
_space_group_symop_operation_xyz
x,y,z
-x,-y,z
1/2+x,1/2-y,1/2-z
1/2-x,1/2+y,1/2-z
-x,-y,-z
x,y,-z
1/2-x,1/2+y,1/2+z
1/2+x,1/2-y,1/2+z
loop_
_atom_site_type_symbol
_atom_site_label
_atom_site_fract_x
_atom_site_fract_y
_atom_site_fract_z
Si Si1 0.578487 0.557277 0.656530
Si Si2 0.189355 0.156129 0.217415
Si Si3 0.827143 0.285446 0.916851
Si Si4 0.414206 0.028171 0.189710
Si Si5 0.099394 0.128564 0.356285
Si Si6 0.692416 0.023516 0.696780
Si Si7 0.931705 0.155998 0.682957
Si Si8 0.825004 0.642334 0.576681
O O1 0.500000 0.500000 0.632006
O O2 0.639357 0.433764 0.663913
O O3 0.607277 0.690038 0.613004
O O4 0.567483 0.607905 0.736555
O O5 0.139601 0.180907 0.286296
O O6 0.253381 0.057363 0.248949
O O7 0.212045 0.311229 0.190921
O O8 0.813301 0.426904 0.872196
O O9 0.756675 0.186241 0.904705
O O10 0.833532 0.310871 0.000000
O O11 0.386270 0.982954 0.265597
O O12 0.400266 0.191546 0.180106
O O13 0.500000 0.000000 0.181502
O O14 0.366657 0.950458 0.132121
O O15 0.131379 0.211572 0.420299
O O16 0.014107 0.155748 0.345385
O O17 0.111379 0.962981 0.358474
O O18 0.826444 0.579286 0.500000
#
# Coordination Sequence:
#
# PCOD9441463 Si02
#       8
#     8   8   8   8   8   8   8   8
#     4  11  21  39  65  92 122 158 201 257 313 372
#     4  11  21  35  61  98 118 149 203 253 306 354
#     4  11  25  43  60  85 122 165 204 251 318 374
#     4  12  22  35  60  91 120 155 198 250 300 350
#     4  10  18  37  55  87 120 154 192 244 296 353
#     4  12  22  36  63  91 121 154 203 257 306 358
#     4  10  19  33  59  91 122 142 200 262 290 344
#     4  11  23  41  58  82 126 167 196 239 304 370
#
# _framework density 19.057518000000002
#
# number of rings (size 3 to 8) (size 9 to 14) (size 15 to 20)
#    0.000    1.000    7.500    1.500    1.750    0.500 
#    0.000    2.500    0.000    6.375    0.000    0.000 
#    0.000    0.000    0.000    0.000    0.000    0.000 
#
# Total GULP energy -357055.702670 kJ/mol
# GULP energy per Si atom -5578.995354 kJ/mol
# Density = 1.901414 g / cm^3
# Si number density = 19.057518 Si / 1000 Ang^3
#
#
#
# Elastic Constant Matrix: (Units=GPa)
#
#
# Indices 1 2 3 4 5 6 
#
# 1 73.9075 36.9109 29.8163 0.0000 0.0000 0.0000
# 2 36.9109 125.9147 23.8175 0.0000 0.0000 0.0000
# 3 29.8163 23.8175 56.9685 0.0000 0.0000 0.0000
# 4 0.0000 0.0000 0.0000 4.5392 0.0000 0.0000
# 5 0.0000 0.0000 0.0000 0.0000 6.1402 0.0000
# 6 0.0000 0.0000 0.0000 0.0000 0.0000 25.7434
#
#
#
# Elastic Compliance Matrix: (Units=1/GPa)
#
#
# Indices 1 2 3 4 5 6 
#
# 1 0.018815 -0.003966 -0.008189 0.000000 0.000000 0.000000
# 2 -0.003966 0.009460 -0.001879 0.000000 0.000000 0.000000
# 3 -0.008189 -0.001879 0.022625 0.000000 0.000000 0.000000
# 4 0.000000 0.000000 0.000000 0.220303 0.000000 0.000000
# 5 0.000000 0.000000 0.000000 0.000000 0.162862 0.000000
# 6 0.000000 0.000000 0.000000 0.000000 0.000000 0.038845
#
#
# Mechanical properties :
#
#
# Convention : Reuss Voigt Hill
#
# Bulk Modulus (GPa) = 43.80026 48.65334 46.22680
# Shear Modulus (GPa) = 9.83111 18.36762 14.09937
#
# Velocity S-wave (km/s) = 2.27373 3.10788 2.72294
# Velocity P-wave (km/s) = 5.47049 6.20191 5.84765
#
# Compressibility (1/GPa) = 0.02283091
#
# Stress axis : x y z
#
# Youngs Moduli (GPa) = 53.14876 105.70745 44.19839
#
# Poissons Ratio (x) = 0.41929 0.36195
# Poissons Ratio (y) = 0.21081 0.08305
# Poissons Ratio (z) = 0.43525 0.19863
#
# Static dielectric constant tensor:
#      x y z
#    x 1.719280 0.000000 0.000000 
#    y 0.000000 1.716070 0.000000 
#    z 0.000000 0.000000 1.638470 
# 
# From -- ./inp_files/30291.got.cif
#   From: 2010.05.17/outbox.cif.g08.bks.cpg/sg58_16_cif.got.tgz:30291.got - 2010.06.03 14:20:14.
