data_PCOD9441842
_publ_section_title
;
Structure prediction by ZEFSAII (Michael W. Deem and Ramdas Pophale) SiO2 
 PCOD9441842
Probable space group: P N N M
;
_chemical_formula_sum "Si O2"
_cell_formula_units_Z 56
_cell_length_a 21.356686
_cell_length_b 14.725358
_cell_length_c 9.335520
_cell_angle_alpha 90.000000
_cell_angle_beta 90.000000
_cell_angle_gamma 90.000000
_cell_volume 2935.879579
_symmetry_space_group_name_H-M "P N N M"
_symmetry_group_IT_number 58
_symmetry_cell_setting 'orthorhombic'
loop_
_space_group_symop_operation_xyz
x,y,z
-x,-y,z
1/2+x,1/2-y,1/2-z
1/2-x,1/2+y,1/2-z
-x,-y,-z
x,y,-z
1/2-x,1/2+y,1/2+z
1/2+x,1/2-y,1/2+z
loop_
_atom_site_type_symbol
_atom_site_label
_atom_site_fract_x
_atom_site_fract_y
_atom_site_fract_z
Si Si1 0.259691 0.013683 0.670784
Si Si2 0.978246 0.278599 0.667627
Si Si3 0.741191 0.197128 0.326630
Si Si4 0.899046 0.744976 0.167434
Si Si5 0.640755 0.444437 0.335277
Si Si6 0.657122 0.849776 0.173756
Si Si7 0.441568 0.431424 0.840885
O O1 0.265648 0.021051 0.500000
O O2 0.199611 0.066066 0.731830
O O3 0.317888 0.059792 0.750534
O O4 0.248632 0.908184 0.709211
O O5 0.988303 0.297928 0.500000
O O6 0.914511 0.328338 0.713583
O O7 0.962931 0.171194 0.679951
O O8 0.042065 0.296925 0.751709
O O9 0.740150 0.204306 0.500000
O O10 0.670587 0.220777 0.277876
O O11 0.796160 0.266516 0.281899
O O12 0.901640 0.854687 0.177024
O O13 0.901890 0.720031 0.000000
O O14 0.661528 0.450891 0.500000
O O15 0.603360 0.531764 0.281730
O O16 0.660544 0.856917 0.000000
O O17 0.500000 0.500000 0.843701
O O18 0.410626 0.436639 0.000000
#
# Coordination Sequence:
#
# PCOD9441842 Si02
#       7
#     8   8   8   8   8   8   8
#     4  11  22  37  61  87 111 144 195 246 285 337
#     4  10  21  36  56  82 116 156 188 231 290 345
#     4   9  19  39  62  82 110 153 195 232 285 343
#     4  10  20  36  58  80 109 149 189 231 278 339
#     4  11  21  34  55  81 113 150 185 228 288 346
#     4  10  20  39  61  82 116 154 188 231 292 347
#     4  10  19  32  52  79 112 146 185 228 276 339
#
# _framework density 19.074352999999999
#
# number of rings (size 3 to 8) (size 9 to 14) (size 15 to 20)
#    0.000    1.857    2.857    1.714    0.000    4.286 
#    0.000    5.000    0.000    4.286    0.000    0.000 
#    0.000    0.000    0.000    0.000    0.000    0.000 
#
# Total GULP energy -312396.165113 kJ/mol
# GULP energy per Si atom -5578.502948 kJ/mol
# Density = 1.903094 g / cm^3
# Si number density = 19.074353 Si / 1000 Ang^3
#
#
#
# Elastic Constant Matrix: (Units=GPa)
#
#
# Indices 1 2 3 4 5 6 
#
# 1 99.6181 0.2572 30.6396 0.0000 0.0000 0.0000
# 2 0.2572 27.9524 12.9098 0.0000 0.0000 0.0000
# 3 30.6396 12.9098 38.0493 0.0000 0.0000 0.0000
# 4 0.0000 0.0000 0.0000 22.5729 0.0000 0.0000
# 5 0.0000 0.0000 0.0000 0.0000 31.4294 0.0000
# 6 0.0000 0.0000 0.0000 0.0000 0.0000 24.0238
#
#
#
# Elastic Compliance Matrix: (Units=1/GPa)
#
#
# Indices 1 2 3 4 5 6 
#
# 1 0.014167 0.006094 -0.013476 0.000000 0.000000 0.000000
# 2 0.006094 0.045044 -0.020190 0.000000 0.000000 0.000000
# 3 -0.013476 -0.020190 0.043984 0.000000 0.000000 0.000000
# 4 0.000000 0.000000 0.000000 0.044301 0.000000 0.000000
# 5 0.000000 0.000000 0.000000 0.000000 0.031817 0.000000
# 6 0.000000 0.000000 0.000000 0.000000 0.000000 0.041625
#
#
# Mechanical properties :
#
#
# Convention : Reuss Voigt Hill
#
# Bulk Modulus (GPa) = 20.81157 28.13700 24.47428
# Shear Modulus (GPa) = 17.11745 23.72609 20.42177
#
# Velocity S-wave (km/s) = 2.99892 3.53069 3.27561
# Velocity P-wave (km/s) = 4.78809 5.60395 5.21201
#
# Compressibility (1/GPa) = 0.04805020
#
# Stress axis : x y z
#
# Youngs Moduli (GPa) = 70.58444 22.20069 22.73573
#
# Poissons Ratio (x) = -0.13528 0.30639
# Poissons Ratio (y) = -0.43011 0.45903
# Poissons Ratio (z) = 0.95119 0.44823
#
# Static dielectric constant tensor:
#      x y z
#    x 1.697010 0.000000 0.000000 
#    y 0.000000 1.672360 0.000000 
#    z 0.000000 0.000000 1.648100 
# 
# From -- ./inp_files/6293.got.cif
#   From: 2010.05.17/outbox.cif.g08.bks.cpg/sg58_4_cif.got.tgz:6293.got - 2010.06.03 14:20:14.
