data_PCOD9441226
_publ_section_title
;
Structure prediction by ZEFSAII (Michael W. Deem and Ramdas Pophale) SiO2 
 PCOD9441226
Probable space group: P N N M
;
_chemical_formula_sum "Si O2"
_cell_formula_units_Z 64
_cell_length_a 21.267726
_cell_length_b 20.263425
_cell_length_c 8.104777
_cell_angle_alpha 90.000000
_cell_angle_beta 90.000000
_cell_angle_gamma 90.000000
_cell_volume 3492.810144
_symmetry_space_group_name_H-M "P N N M"
_symmetry_group_IT_number 58
_symmetry_cell_setting 'orthorhombic'
loop_
_space_group_symop_operation_xyz
x,y,z
-x,-y,z
1/2+x,1/2-y,1/2-z
1/2-x,1/2+y,1/2-z
-x,-y,-z
x,y,-z
1/2-x,1/2+y,1/2+z
1/2+x,1/2-y,1/2+z
loop_
_atom_site_type_symbol
_atom_site_label
_atom_site_fract_x
_atom_site_fract_y
_atom_site_fract_z
Si Si1 0.437543 0.707806 0.702361
Si Si2 0.197828 0.711315 0.694000
Si Si3 0.376915 0.423955 0.194012
Si Si4 0.243210 0.576095 0.194676
Si Si5 0.576541 0.711579 0.307530
Si Si6 0.384949 0.569129 0.306377
Si Si7 0.269735 0.931508 0.700246
Si Si8 0.680527 0.205378 0.701900
O O1 0.437164 0.706605 0.500000
O O2 0.507033 0.728365 0.755981
O O3 0.421677 0.633213 0.756940
O O4 0.382066 0.756784 0.755513
O O5 0.206927 0.701213 0.500000
O O6 0.200842 0.639627 0.775617
O O7 0.134006 0.751163 0.722198
O O8 0.257414 0.754259 0.754374
O O9 0.414051 0.366983 0.286810
O O10 0.398605 0.498873 0.223374
O O11 0.303447 0.420908 0.246572
O O12 0.379476 0.408978 0.000000
O O13 0.310684 0.584184 0.282186
O O14 0.214120 0.506135 0.250757
O O15 0.257153 0.570145 0.000000
O O16 0.579829 0.728487 0.500000
O O17 0.397762 0.561585 0.500000
O O18 0.271715 0.929698 0.500000
O O19 0.311013 0.870074 0.758659
O O20 0.680258 0.205285 0.500000
#
# Coordination Sequence:
#
# PCOD9441226 Si02
#       8
#     8   8   8   8   8   8   8   8
#     4   9  19  33  51  75 105 140 178 219 266 320
#     4  11  20  34  57  78 102 140 180 217 264 319
#     4  10  19  33  50  74 106 143 180 216 261 314
#     4  10  19  31  50  81 112 135 168 219 272 316
#     4  11  22  35  51  76 107 138 176 224 270 316
#     4  10  18  32  52  76 105 143 183 216 259 316
#     4   8  15  28  50  76 102 130 165 214 259 301
#     4   9  15  30  55  78  97 129 176 217 257 310
#
# _framework density 18.323353999999998
#
# number of rings (size 3 to 8) (size 9 to 14) (size 15 to 20)
#    0.000    2.250    2.500    2.625    0.000    0.500 
#    0.000    5.000    0.000    0.750    0.000    5.250 
#    0.000    0.000    0.000    0.000    0.000    0.000 
#
# Total GULP energy -357059.159088 kJ/mol
# GULP energy per Si atom -5579.049361 kJ/mol
# Density = 1.828165 g / cm^3
# Si number density = 18.323354 Si / 1000 Ang^3
#
#
#
# Elastic Constant Matrix: (Units=GPa)
#
#
# Indices 1 2 3 4 5 6 
#
# 1 93.8067 50.7358 -1.8024 0.0000 0.0000 0.0000
# 2 50.7358 110.1031 -1.4950 0.0000 0.0000 0.0000
# 3 -1.8024 -1.4950 14.7798 0.0000 0.0000 0.0000
# 4 0.0000 0.0000 0.0000 48.1798 0.0000 0.0000
# 5 0.0000 0.0000 0.0000 0.0000 15.4121 0.0000
# 6 0.0000 0.0000 0.0000 0.0000 0.0000 20.8413
#
#
#
# Elastic Compliance Matrix: (Units=1/GPa)
#
#
# Indices 1 2 3 4 5 6 
#
# 1 0.014216 -0.006536 0.001073 0.000000 0.000000 0.000000
# 2 -0.006536 0.012100 0.000427 0.000000 0.000000 0.000000
# 3 0.001073 0.000427 0.067834 0.000000 0.000000 0.000000
# 4 0.000000 0.000000 0.000000 0.020756 0.000000 0.000000
# 5 0.000000 0.000000 0.000000 0.000000 0.064884 0.000000
# 6 0.000000 0.000000 0.000000 0.000000 0.000000 0.047982
#
#
# Mechanical properties :
#
#
# Convention : Reuss Voigt Hill
#
# Bulk Modulus (GPa) = 11.89393 34.84071 23.36732
# Shear Modulus (GPa) = 18.80615 28.30340 23.55477
#
# Velocity S-wave (km/s) = 3.20714 3.93448 3.58928
# Velocity P-wave (km/s) = 4.49662 6.30047 5.47336
#
# Compressibility (1/GPa) = 0.08407648
#
# Stress axis : x y z
#
# Youngs Moduli (GPa) = 70.34349 82.64409 14.74185
#
# Poissons Ratio (x) = 0.54018 -0.01581
# Poissons Ratio (y) = 0.45978 -0.00629
# Poissons Ratio (z) = -0.07545 -0.03527
#
# Static dielectric constant tensor:
#      x y z
#    x 1.615250 0.000000 0.000000 
#    y 0.000000 1.642330 0.000000 
#    z 0.000000 0.000000 1.644350 
# 
# From -- ./inp_files/9440.got.cif
#   From: 2010.05.17/outbox.cif.g08.bks.cpg/sg58_5_cif.got.tgz:9440.got - 2010.06.03 14:20:14.
