data_PCOD9441042
_publ_section_title
;
Structure prediction by ZEFSAII (Michael W. Deem and Ramdas Pophale) SiO2 
 PCOD9441042
Probable space group: P N N M
;
_chemical_formula_sum "Si O2"
_cell_formula_units_Z 56
_cell_length_a 30.543432
_cell_length_b 14.122805
_cell_length_c 7.683221
_cell_angle_alpha 90.000000
_cell_angle_beta 90.000000
_cell_angle_gamma 90.000000
_cell_volume 3314.226022
_symmetry_space_group_name_H-M "P N N M"
_symmetry_group_IT_number 58
_symmetry_cell_setting 'orthorhombic'
loop_
_space_group_symop_operation_xyz
x,y,z
-x,-y,z
1/2+x,1/2-y,1/2-z
1/2-x,1/2+y,1/2-z
-x,-y,-z
x,y,-z
1/2-x,1/2+y,1/2+z
1/2+x,1/2-y,1/2+z
loop_
_atom_site_type_symbol
_atom_site_label
_atom_site_fract_x
_atom_site_fract_y
_atom_site_fract_z
Si Si1 0.180986 0.209083 0.703602
Si Si2 0.311338 0.306414 0.705578
Si Si3 0.776735 0.596716 0.200975
Si Si4 0.597540 0.599066 0.210324
Si Si5 0.769428 0.386691 0.786521
Si Si6 0.502678 0.615006 0.202955
Si Si7 0.092616 0.120242 0.713661
O O1 0.178840 0.184906 0.500000
O O2 0.195742 0.317809 0.717660
O O3 0.221211 0.146428 0.775002
O O4 0.133278 0.183377 0.774444
O O5 0.302362 0.309531 0.500000
O O6 0.274316 0.373160 0.788813
O O7 0.359962 0.342454 0.738291
O O8 0.301809 0.198657 0.763463
O O9 0.781343 0.491362 0.275482
O O10 0.789871 0.593953 0.000000
O O11 0.550617 0.637711 0.277043
O O12 0.601651 0.488991 0.263791
O O13 0.595330 0.598440 0.000000
O O14 0.768410 0.390443 0.000000
O O15 0.500000 0.500000 0.205904
O O16 0.456068 0.648145 0.276863
O O17 0.503489 0.643945 0.000000
O O18 0.090387 0.122163 0.500000
#
# Coordination Sequence:
#
# PCOD9441042 Si02
#       7
#     8   8   8   8   8   8   8
#     4   9  16  27  42  61  83 106 132 160 198 242
#     4  10  19  30  42  59  82 107 134 162 201 245
#     4  10  18  30  45  59  77 104 138 170 197 229
#     4   9  15  25  42  63  84 107 138 169 193 227
#     4   8  16  29  42  55  77 108 134 159 195 240
#     4   7  11  20  37  61  83 105 136 166 189 226
#     4   8  13  23  41  62  86 114 136 157 194 243
#
# _framework density 16.896854999999999
#
# number of rings (size 3 to 8) (size 9 to 14) (size 15 to 20)
#    0.000    3.286    0.000    4.286    0.000    2.286 
#    0.000   10.714    0.000    4.714    0.000    1.000 
#    0.000    8.000    0.000    0.000    0.000    0.000 
#
# Total GULP energy -311748.616519 kJ/mol
# GULP energy per Si atom -5566.939581 kJ/mol
# Density = 1.685840 g / cm^3
# Si number density = 16.896855 Si / 1000 Ang^3
#
#
#
# Elastic Constant Matrix: (Units=GPa)
#
#
# Indices 1 2 3 4 5 6 
#
# 1 144.5939 51.7107 -3.8268 0.0000 0.0000 0.0000
# 2 51.7107 78.5875 -5.7616 0.0000 0.0000 0.0000
# 3 -3.8268 -5.7616 26.3523 0.0000 0.0000 0.0000
# 4 0.0000 0.0000 0.0000 19.6142 0.0000 0.0000
# 5 0.0000 0.0000 0.0000 0.0000 14.4828 0.0000
# 6 0.0000 0.0000 0.0000 0.0000 0.0000 24.1799
#
#
#
# Elastic Compliance Matrix: (Units=1/GPa)
#
#
# Indices 1 2 3 4 5 6 
#
# 1 0.009044 -0.005950 0.000012 0.000000 0.000000 0.000000
# 2 -0.005950 0.016847 0.002819 0.000000 0.000000 0.000000
# 3 0.000012 0.002819 0.038565 0.000000 0.000000 0.000000
# 4 0.000000 0.000000 0.000000 0.050983 0.000000 0.000000
# 5 0.000000 0.000000 0.000000 0.000000 0.069048 0.000000
# 6 0.000000 0.000000 0.000000 0.000000 0.000000 0.041357
#
#
# Mechanical properties :
#
#
# Convention : Reuss Voigt Hill
#
# Bulk Modulus (GPa) = 17.17647 37.08649 27.13148
# Shear Modulus (GPa) = 19.88171 25.48280 22.68225
#
# Velocity S-wave (km/s) = 3.43396 3.88769 3.66785
# Velocity P-wave (km/s) = 5.09022 6.49219 5.83348
#
# Compressibility (1/GPa) = 0.05821919
#
# Stress axis : x y z
#
# Youngs Moduli (GPa) = 110.56819 59.35922 25.92992
#
# Poissons Ratio (x) = 0.35320 -0.00032
# Poissons Ratio (y) = 0.65790 -0.07310
# Poissons Ratio (z) = -0.00137 -0.16735
#
# Static dielectric constant tensor:
#      x y z
#    x 1.602450 0.000000 0.000000 
#    y 0.000000 1.554860 0.000000 
#    z 0.000000 0.000000 1.641380 
# 
# From -- ./inp_files/11093.got.cif
#   From: 2010.05.17/outbox.cif.g08.bks.cpg/sg58_6_cif.got.tgz:11093.got - 2010.06.03 14:20:14.
