data_PCOD9441806
_publ_section_title
;
Structure prediction by ZEFSAII (Michael W. Deem and Ramdas Pophale) SiO2 
 PCOD9441806
Probable space group: P N N M
;
_chemical_formula_sum "Si O2"
_cell_formula_units_Z 56
_cell_length_a 13.179463
_cell_length_b 11.524366
_cell_length_c 22.251069
_cell_angle_alpha 90.000000
_cell_angle_beta 90.000000
_cell_angle_gamma 90.000000
_cell_volume 3379.602620
_symmetry_space_group_name_H-M "P N N M"
_symmetry_group_IT_number 58
_symmetry_cell_setting 'orthorhombic'
loop_
_space_group_symop_operation_xyz
x,y,z
-x,-y,z
1/2+x,1/2-y,1/2-z
1/2-x,1/2+y,1/2-z
-x,-y,-z
x,y,-z
1/2-x,1/2+y,1/2+z
1/2+x,1/2-y,1/2+z
loop_
_atom_site_type_symbol
_atom_site_label
_atom_site_fract_x
_atom_site_fract_y
_atom_site_fract_z
Si Si1 0.884190 0.963477 0.215560
Si Si2 0.418437 0.800069 0.069132
Si Si3 0.716790 0.599620 0.174413
Si Si4 0.078990 0.670647 0.323595
Si Si5 0.887896 0.693852 0.757293
Si Si6 0.115357 0.030887 0.570227
Si Si7 0.705702 0.059894 0.152036
O O1 0.878617 0.825919 0.222447
O O2 0.833520 0.018312 0.274964
O O3 0.819108 0.015072 0.160566
O O4 0.000000 0.000000 0.212220
O O5 0.509985 0.815257 0.116533
O O6 0.376227 0.669446 0.076160
O O7 0.333346 0.892503 0.088833
O O8 0.450431 0.814509 0.000000
O O9 0.657902 0.722995 0.178570
O O10 0.834694 0.617597 0.190998
O O11 0.692165 0.539954 0.111318
O O12 0.135983 0.548432 0.327631
O O13 0.001544 0.672549 0.267107
O O14 0.818154 0.663338 0.699216
O O15 0.124436 0.999758 0.500000
O O16 0.000000 0.000000 0.589726
#
# Coordination Sequence:
#
# PCOD9441806 Si02
#       7
#     8   8   8   8   8   8   8
#     4  11  20  33  53  74 101 140 175 211 250 307
#     4  10  20  34  53  75 104 140 171 208 263 313
#     4  11  19  30  51  74 106 137 166 209 259 298
#     4  11  19  33  49  74 113 137 166 213 248 307
#     4  10  20  32  48  73 102 141 174 203 255 300
#     4  10  19  32  51  77 103 132 174 212 253 313
#     4  10  22  34  48  77 109 136 171 214 254 310
#
# _framework density 16.569994999999999
#
# number of rings (size 3 to 8) (size 9 to 14) (size 15 to 20)
#    0.000    1.571    4.286    3.857    0.000    1.143 
#    0.000    0.000    0.000    0.429    0.000    0.000 
#    0.000   11.429    0.000    0.000    0.000    0.000 
#
# Total GULP energy -312301.174630 kJ/mol
# GULP energy per Si atom -5576.806690 kJ/mol
# Density = 1.653228 g / cm^3
# Si number density = 16.569995 Si / 1000 Ang^3
#
#
#
# Elastic Constant Matrix: (Units=GPa)
#
#
# Indices 1 2 3 4 5 6 
#
# 1 53.1924 29.1504 19.2945 0.0000 0.0000 0.0000
# 2 29.1504 57.3843 14.6287 0.0000 0.0000 0.0000
# 3 19.2945 14.6287 56.7469 0.0000 0.0000 0.0000
# 4 0.0000 0.0000 0.0000 25.2715 0.0000 0.0000
# 5 0.0000 0.0000 0.0000 0.0000 16.7378 0.0000
# 6 0.0000 0.0000 0.0000 0.0000 0.0000 20.3744
#
#
#
# Elastic Compliance Matrix: (Units=1/GPa)
#
#
# Indices 1 2 3 4 5 6 
#
# 1 0.027988 -0.012621 -0.006263 0.000000 0.000000 0.000000
# 2 -0.012621 0.024343 -0.001984 0.000000 0.000000 0.000000
# 3 -0.006263 -0.001984 0.020263 0.000000 0.000000 0.000000
# 4 0.000000 0.000000 0.000000 0.039570 0.000000 0.000000
# 5 0.000000 0.000000 0.000000 0.000000 0.059745 0.000000
# 6 0.000000 0.000000 0.000000 0.000000 0.000000 0.049081
#
#
# Mechanical properties :
#
#
# Convention : Reuss Voigt Hill
#
# Bulk Modulus (GPa) = 32.40572 32.60785 32.50679
# Shear Modulus (GPa) = 18.31419 19.42673 18.87046
#
# Velocity S-wave (km/s) = 3.32815 3.42775 3.37832
# Velocity P-wave (km/s) = 5.86243 5.94874 5.90575
#
# Compressibility (1/GPa) = 0.03085875
#
# Stress axis : x y z
#
# Youngs Moduli (GPa) = 35.72994 41.07887 49.35112
#
# Poissons Ratio (x) = 0.51845 0.30906
# Poissons Ratio (y) = 0.45094 0.09792
# Poissons Ratio (z) = 0.22376 0.08151
#
# Static dielectric constant tensor:
#      x y z
#    x 1.572390 0.000000 0.000000 
#    y 0.000000 1.576850 0.000000 
#    z 0.000000 0.000000 1.567700 
# 
# From -- ./inp_files/32035.got.cif
#   From: 2010.05.17/outbox.cif.g08.bks.cpg/sg58_17_cif.got.tgz:32035.got - 2010.06.03 14:20:14.
