data_PCOD9441612
_publ_section_title
;
Structure prediction by ZEFSAII (Michael W. Deem and Ramdas Pophale) SiO2 
 PCOD9441612
Probable space group: P N N M
;
_chemical_formula_sum "Si O2"
_cell_formula_units_Z 58
_cell_length_a 16.346171
_cell_length_b 18.410874
_cell_length_c 7.729961
_cell_angle_alpha 90.000000
_cell_angle_beta 90.000000
_cell_angle_gamma 90.000000
_cell_volume 2326.310851
_symmetry_space_group_name_H-M "P N N M"
_symmetry_group_IT_number 58
_symmetry_cell_setting 'orthorhombic'
loop_
_space_group_symop_operation_xyz
x,y,z
-x,-y,z
1/2+x,1/2-y,1/2-z
1/2-x,1/2+y,1/2-z
-x,-y,-z
x,y,-z
1/2-x,1/2+y,1/2+z
1/2+x,1/2-y,1/2+z
loop_
_atom_site_type_symbol
_atom_site_label
_atom_site_fract_x
_atom_site_fract_y
_atom_site_fract_z
Si Si1 0.864631 0.592681 0.694705
Si Si2 0.907036 0.916858 0.288560
Si Si3 0.875766 0.205251 0.789591
Si Si4 0.261354 0.680898 0.800365
Si Si5 0.001791 0.318956 0.200439
Si Si6 0.000000 0.000000 0.000000
Si Si7 0.307749 0.437751 0.193494
Si Si8 0.872691 0.434024 0.298181
O O1 0.895366 0.595084 0.500000
O O2 0.767498 0.589114 0.693776
O O3 0.887520 0.514414 0.774241
O O4 0.903343 0.663327 0.780600
O O5 0.924035 0.915559 0.500000
O O6 0.847712 0.986887 0.256419
O O7 0.849968 0.847536 0.237476
O O8 0.977540 0.938621 0.153845
O O9 0.797286 0.254609 0.730520
O O10 0.958912 0.246253 0.735094
O O11 0.870810 0.127447 0.705018
O O12 0.873136 0.199058 0.000000
O O13 0.199946 0.611409 0.789361
O O14 0.275242 0.699816 0.000000
O O15 0.953215 0.385700 0.284990
O O16 0.980127 0.322634 0.000000
O O17 0.275769 0.445341 0.000000
O O18 0.849737 0.442446 0.500000
#
# Coordination Sequence:
#
# PCOD9441612 Si02
#       8
#     8   8   8   8   8   2   8   8
#     4  11  22  34  55  86 121 155 199 248 297 364
#     4  10  23  43  67  98 131 160 218 274 323 391
#     4   9  20  38  61  86 119 163 210 250 314 387
#     4   9  18  36  61  88 121 161 199 256 310 367
#     4  10  21  36  54  81 120 161 197 245 304 362
#     4  12  26  40  72  98 124 174 214 270 356 366
#     4  11  23  39  63  91 122 164 206 261 316 377
#     4  10  19  30  52  86 121 153 193 237 293 360
#
# _framework density 24.932179999999999
#
# number of rings (size 3 to 8) (size 9 to 14) (size 15 to 20)
#    0.000    1.931    1.379    3.103    2.897    6.069 
#    0.000    1.379    0.000    1.655    0.000    0.000 
#    0.000    0.000    0.000    0.000    0.000    0.000 
#
# Total GULP energy -323416.097493 kJ/mol
# GULP energy per Si atom -5576.139612 kJ/mol
# Density = 2.487543 g / cm^3
# Si number density = 24.932180 Si / 1000 Ang^3
#
#
#
# Elastic Constant Matrix: (Units=GPa)
#
#
# Indices 1 2 3 4 5 6 
#
# 1 57.1830 -1.6323 24.5274 0.0000 0.0000 0.0000
# 2 -1.6323 63.3972 6.9038 0.0000 0.0000 0.0000
# 3 24.5274 6.9038 46.1172 0.0000 0.0000 0.0000
# 4 0.0000 0.0000 0.0000 9.0923 0.0000 0.0000
# 5 0.0000 0.0000 0.0000 0.0000 26.6331 0.0000
# 6 0.0000 0.0000 0.0000 0.0000 0.0000 2.3376
#
#
#
# Elastic Compliance Matrix: (Units=1/GPa)
#
#
# Indices 1 2 3 4 5 6 
#
# 1 0.022890 0.001947 -0.012465 0.000000 0.000000 0.000000
# 2 0.001947 0.016201 -0.003461 0.000000 0.000000 0.000000
# 3 -0.012465 -0.003461 0.028832 0.000000 0.000000 0.000000
# 4 0.000000 0.000000 0.000000 0.109984 0.000000 0.000000
# 5 0.000000 0.000000 0.000000 0.000000 0.037547 0.000000
# 6 0.000000 0.000000 0.000000 0.000000 0.000000 0.427792
#
#
# Mechanical properties :
#
#
# Convention : Reuss Voigt Hill
#
# Bulk Modulus (GPa) = 25.02273 25.14391 25.08332
# Shear Modulus (GPa) = 7.30433 16.73917 12.02175
#
# Velocity S-wave (km/s) = 1.71349 2.59393 2.19824
# Velocity P-wave (km/s) = 3.73802 4.36785 4.06515
#
# Compressibility (1/GPa) = 0.03996366
#
# Stress axis : x y z
#
# Youngs Moduli (GPa) = 43.68706 61.72632 34.68408
#
# Poissons Ratio (x) = -0.12017 0.43235
# Poissons Ratio (y) = -0.08505 0.12003
# Poissons Ratio (z) = 0.54458 0.21361
#
# Static dielectric constant tensor:
#      x y z
#    x 2.118670 0.000000 0.000000 
#    y 0.000000 1.985830 0.000000 
#    z 0.000000 0.000000 1.946210 
# 
# From -- ./inp_files/8049.got.cif
#   From: 2010.05.17/outbox.cif.g08.bks.cpg/sg58_5_cif.got.tgz:8049.got - 2010.06.03 14:20:14.
