data_PCOD9441531
_publ_section_title
;
Structure prediction by ZEFSAII (Michael W. Deem and Ramdas Pophale) SiO2 
 PCOD9441531
Probable space group: P N N M
;
_chemical_formula_sum "Si O2"
_cell_formula_units_Z 56
_cell_length_a 19.430321
_cell_length_b 5.419164
_cell_length_c 22.934208
_cell_angle_alpha 90.000000
_cell_angle_beta 90.000000
_cell_angle_gamma 90.000000
_cell_volume 2414.882569
_symmetry_space_group_name_H-M "P N N M"
_symmetry_group_IT_number 58
_symmetry_cell_setting 'orthorhombic'
loop_
_space_group_symop_operation_xyz
x,y,z
-x,-y,z
1/2+x,1/2-y,1/2-z
1/2-x,1/2+y,1/2-z
-x,-y,-z
x,y,-z
1/2-x,1/2+y,1/2+z
1/2+x,1/2-y,1/2+z
loop_
_atom_site_type_symbol
_atom_site_label
_atom_site_fract_x
_atom_site_fract_y
_atom_site_fract_z
Si Si1 0.848370 0.117579 0.226444
Si Si2 0.031649 0.255768 0.431743
Si Si3 0.224374 0.878669 0.663502
Si Si4 0.835541 0.120233 0.914972
Si Si5 0.683482 0.124863 0.896419
Si Si6 0.571402 0.114885 0.725916
Si Si7 0.875809 0.625193 0.103402
O O1 0.878896 0.386425 0.239046
O O2 0.781314 0.113236 0.266914
O O3 0.836298 0.109437 0.156951
O O4 0.898887 0.885818 0.242623
O O5 0.010966 0.252467 0.500000
O O6 0.113080 0.308508 0.428860
O O7 0.000000 0.500000 0.402924
O O8 0.000000 0.000000 0.407121
O O9 0.191926 0.137279 0.644511
O O10 0.300801 0.873938 0.636885
O O11 0.184994 0.641170 0.635970
O O12 0.755432 0.122818 0.932179
O O13 0.873717 0.873269 0.932934
O O14 0.874376 0.369573 0.930103
O O15 0.569281 0.134183 0.655162
O O16 0.500000 0.000000 0.747905
#
# Coordination Sequence:
#
# PCOD9441531 Si02
#       7
#     8   8   8   8   8   8   8
#     4  10  19  31  45  61  84 118 154 181 221 273
#     4  10  21  38  57  72  90 120 154 187 233 296
#     4  10  19  31  48  66  86 112 146 189 228 268
#     4   8  16  27  44  65  84 107 141 181 219 256
#     4  10  19  32  49  69  87 106 142 189 229 262
#     4  10  19  30  41  55  80 113 151 185 213 253
#     4   8  16  27  42  60  77 104 141 177 220 257
#
# _framework density 23.189533999999998
#
# number of rings (size 3 to 8) (size 9 to 14) (size 15 to 20)
#    0.000    2.571    0.000    2.143    0.000   10.286 
#    0.000    7.143    0.000    0.000    0.000    0.000 
#    0.000    0.000    0.000    0.000    0.000  347.143 
#
# Total GULP energy -312061.740946 kJ/mol
# GULP energy per Si atom -5572.531088 kJ/mol
# Density = 2.313675 g / cm^3
# Si number density = 23.189534 Si / 1000 Ang^3
#
#
#
# Elastic Constant Matrix: (Units=GPa)
#
#
# Indices 1 2 3 4 5 6 
#
# 1 18.2947 9.0973 -12.3773 0.0000 0.0000 0.0000
# 2 9.0973 232.2210 6.9008 0.0000 0.0000 0.0000
# 3 -12.3773 6.9008 61.1924 0.0000 0.0000 0.0000
# 4 0.0000 0.0000 0.0000 -6.3302 0.0000 0.0000
# 5 0.0000 0.0000 0.0000 0.0000 11.6728 0.0000
# 6 0.0000 0.0000 0.0000 0.0000 0.0000 32.7029
#
#
#
# Elastic Compliance Matrix: (Units=1/GPa)
#
#
# Indices 1 2 3 4 5 6 
#
# 1 0.065294 -0.002960 0.013541 0.000000 0.000000 0.000000
# 2 -0.002960 0.004455 -0.001101 0.000000 0.000000 0.000000
# 3 0.013541 -0.001101 0.019205 0.000000 0.000000 0.000000
# 4 0.000000 0.000000 0.000000 -0.157974 0.000000 0.000000
# 5 0.000000 0.000000 0.000000 0.000000 0.085669 0.000000
# 6 0.000000 0.000000 0.000000 0.000000 0.000000 0.030578
#
#
# Mechanical properties :
#
#
# Convention : Reuss Voigt Hill
#
# Bulk Modulus (GPa) = 9.26680 35.43886 22.35283
# Shear Modulus (GPa) = 77.83342 28.14824 52.99083
#
# Velocity S-wave (km/s) = 5.79973 3.48779 4.78548
# Velocity P-wave (km/s) = 6.98956 5.61561 6.33991
#
# Compressibility (1/GPa) = 0.10791211
#
# Stress axis : x y z
#
# Youngs Moduli (GPa) = 15.31541 224.47009 52.06993
#
# Poissons Ratio (x) = 0.66450 -0.70506
# Poissons Ratio (y) = 0.04534 0.05734
# Poissons Ratio (z) = -0.20738 0.24718
#
# Static dielectric constant tensor:
#      x y z
#    x 1.901360 0.000000 0.000000 
#    y 0.000000 1.967570 0.000000 
#    z 0.000000 0.000000 1.890010 
# 
# From -- ./inp_files/33848.got.cif
#   From: 2010.05.17/outbox.cif.g08.bks.cpg/sg58_17_cif.got.tgz:33848.got - 2010.06.03 14:20:14.
