data_PCOD9441567
_publ_section_title
;
Structure prediction by ZEFSAII (Michael W. Deem and Ramdas Pophale) SiO2 
 PCOD9441567
Probable space group: P N N M
;
_chemical_formula_sum "Si O2"
_cell_formula_units_Z 56
_cell_length_a 19.662931
_cell_length_b 18.943830
_cell_length_c 7.732623
_cell_angle_alpha 90.000000
_cell_angle_beta 90.000000
_cell_angle_gamma 90.000000
_cell_volume 2880.334192
_symmetry_space_group_name_H-M "P N N M"
_symmetry_group_IT_number 58
_symmetry_cell_setting 'orthorhombic'
loop_
_space_group_symop_operation_xyz
x,y,z
-x,-y,z
1/2+x,1/2-y,1/2-z
1/2-x,1/2+y,1/2-z
-x,-y,-z
x,y,-z
1/2-x,1/2+y,1/2+z
1/2+x,1/2-y,1/2+z
loop_
_atom_site_type_symbol
_atom_site_label
_atom_site_fract_x
_atom_site_fract_y
_atom_site_fract_z
Si Si1 0.855486 0.961676 0.210698
Si Si2 0.390064 0.807406 0.711449
Si Si3 0.790179 0.491217 0.699772
Si Si4 0.601561 0.621286 0.204015
Si Si5 0.951567 0.836677 0.796842
Si Si6 0.933375 0.537743 0.796223
Si Si7 0.246755 0.850572 0.289952
O O1 0.905201 0.900167 0.274036
O O2 0.777066 0.952197 0.270402
O O3 0.883639 0.038334 0.264740
O O4 0.854186 0.962541 0.000000
O O5 0.392888 0.809877 0.500000
O O6 0.431827 0.740046 0.774233
O O7 0.417384 0.883614 0.773882
O O8 0.309951 0.801094 0.756952
O O9 0.797991 0.471796 0.500000
O O10 0.865153 0.490633 0.779607
O O11 0.767311 0.572909 0.717664
O O12 0.530593 0.645000 0.281935
O O13 0.669431 0.662310 0.266704
O O14 0.595668 0.632588 0.000000
O O15 0.934799 0.833829 0.000000
O O16 0.000000 0.500000 0.721459
O O17 0.945661 0.547790 0.000000
O O18 0.245929 0.856400 0.500000
#
# Coordination Sequence:
#
# PCOD9441567 Si02
#       7
#     8   8   8   8   8   8   8
#     4   9  18  31  46  66  92 124 158 189 225 273
#     4   8  15  30  50  67  84 116 158 189 219 268
#     4   9  16  27  45  69  92 112 144 189 231 269
#     4  10  19  30  47  71  95 120 154 195 232 267
#     4  10  19  31  47  66  93 126 156 187 226 277
#     4   9  17  31  51  71  91 119 156 194 232 278
#     4   8  15  30  49  65  84 115 153 186 222 273
#
# _framework density 19.44219
#
# number of rings (size 3 to 8) (size 9 to 14) (size 15 to 20)
#    0.000    3.000    0.000    2.143    0.000    3.714 
#    0.000    4.286    0.000    1.714    0.000    0.000 
#    0.000    0.000    0.000    0.000    0.000    0.000 
#
# Total GULP energy -311780.484495 kJ/mol
# GULP energy per Si atom -5567.508652 kJ/mol
# Density = 1.939794 g / cm^3
# Si number density = 19.442190 Si / 1000 Ang^3
#
#
#
# Elastic Constant Matrix: (Units=GPa)
#
#
# Indices 1 2 3 4 5 6 
#
# 1 166.2638 73.2473 -8.7031 0.0000 0.0000 0.0000
# 2 73.2473 71.7562 0.9709 0.0000 0.0000 0.0000
# 3 -8.7031 0.9709 21.3354 0.0000 0.0000 0.0000
# 4 0.0000 0.0000 0.0000 28.0726 0.0000 0.0000
# 5 0.0000 0.0000 0.0000 0.0000 7.8332 0.0000
# 6 0.0000 0.0000 0.0000 0.0000 0.0000 18.3693
#
#
#
# Elastic Compliance Matrix: (Units=1/GPa)
#
#
# Indices 1 2 3 4 5 6 
#
# 1 0.011483 -0.011792 0.005221 0.000000 0.000000 0.000000
# 2 -0.011792 0.026054 -0.005996 0.000000 0.000000 0.000000
# 3 0.005221 -0.005996 0.049273 0.000000 0.000000 0.000000
# 4 0.000000 0.000000 0.000000 0.035622 0.000000 0.000000
# 5 0.000000 0.000000 0.000000 0.000000 0.127662 0.000000
# 6 0.000000 0.000000 0.000000 0.000000 0.000000 0.054439
#
#
# Mechanical properties :
#
#
# Convention : Reuss Voigt Hill
#
# Bulk Modulus (GPa) = 16.21385 43.37618 29.79502
# Shear Modulus (GPa) = 14.27650 23.77770 19.02710
#
# Velocity S-wave (km/s) = 2.71275 3.50093 3.13173
# Velocity P-wave (km/s) = 4.26258 6.22099 5.33247
#
# Compressibility (1/GPa) = 0.06167567
#
# Stress axis : x y z
#
# Youngs Moduli (GPa) = 87.08691 38.38139 20.29509
#
# Poissons Ratio (x) = 0.45259 -0.10595
# Poissons Ratio (y) = 1.02693 0.12169
# Poissons Ratio (z) = -0.45465 0.23013
#
# Static dielectric constant tensor:
#      x y z
#    x 1.718260 0.000000 0.000000 
#    y 0.000000 1.665100 0.000000 
#    z 0.000000 0.000000 1.727310 
# 
# From -- ./inp_files/8110.got.cif
#   From: 2010.05.17/outbox.cif.g08.bks.cpg/sg58_5_cif.got.tgz:8110.got - 2010.06.03 14:20:14.
