data_PCOD9441738
_publ_section_title
;
Structure prediction by ZEFSAII (Michael W. Deem and Ramdas Pophale) SiO2 
 PCOD9441738
Probable space group: P N N M
;
_chemical_formula_sum "Si O2"
_cell_formula_units_Z 56
_cell_length_a 16.685719
_cell_length_b 19.355714
_cell_length_c 9.218243
_cell_angle_alpha 90.000000
_cell_angle_beta 90.000000
_cell_angle_gamma 90.000000
_cell_volume 2977.160677
_symmetry_space_group_name_H-M "P N N M"
_symmetry_group_IT_number 58
_symmetry_cell_setting 'orthorhombic'
loop_
_space_group_symop_operation_xyz
x,y,z
-x,-y,z
1/2+x,1/2-y,1/2-z
1/2-x,1/2+y,1/2-z
-x,-y,-z
x,y,-z
1/2-x,1/2+y,1/2+z
1/2+x,1/2-y,1/2+z
loop_
_atom_site_type_symbol
_atom_site_label
_atom_site_fract_x
_atom_site_fract_y
_atom_site_fract_z
Si Si1 0.362900 0.627530 0.334726
Si Si2 0.123318 0.963779 0.166159
Si Si3 0.014748 0.862756 0.666395
Si Si4 0.770329 0.607041 0.174858
Si Si5 0.591826 0.006740 0.675991
Si Si6 0.168104 0.762976 0.666687
Si Si7 0.694273 0.871739 0.673133
O O1 0.355195 0.652120 0.500000
O O2 0.381418 0.545793 0.337224
O O3 0.436951 0.662171 0.252439
O O4 0.280672 0.632229 0.248033
O O5 0.052183 0.929253 0.255476
O O6 0.205130 0.940295 0.244146
O O7 0.121582 0.938089 0.000000
O O8 0.993502 0.877727 0.500000
O O9 0.088270 0.809303 0.668985
O O10 0.857428 0.575912 0.214520
O O11 0.742424 0.685779 0.206916
O O12 0.760476 0.599344 0.000000
O O13 0.588482 0.006151 0.500000
O O14 0.644086 0.939539 0.719355
O O15 0.500000 0.000000 0.728506
O O16 0.180457 0.739568 0.500000
O O17 0.155249 0.699232 0.772796
O O18 0.701957 0.874246 0.500000
#
# Coordination Sequence:
#
# PCOD9441738 Si02
#       7
#     8   8   8   8   8   8   8
#     4  11  22  35  54  82 116 149 185 232 288 343
#     4  10  19  31  52  82 115 145 178 227 283 334
#     4  10  21  36  56  81 112 151 191 229 279 344
#     4   9  17  34  59  82 109 150 194 235 286 347
#     4   9  18  35  60  88 113 142 194 252 291 340
#     4   9  20  38  57  80 115 154 189 236 295 353
#     4  11  22  37  60  85 114 152 195 244 294 349
#
# _framework density 18.809868999999999
#
# number of rings (size 3 to 8) (size 9 to 14) (size 15 to 20)
#    0.000    2.143    1.429    3.000    0.000    6.286 
#    2.571    0.000    0.000    3.857    0.000    0.000 
#    0.000    0.000    0.000    0.000    0.000    0.000 
#
# Total GULP energy -312273.780522 kJ/mol
# GULP energy per Si atom -5576.317509 kJ/mol
# Density = 1.876706 g / cm^3
# Si number density = 18.809869 Si / 1000 Ang^3
#
#
#
# Elastic Constant Matrix: (Units=GPa)
#
#
# Indices 1 2 3 4 5 6 
#
# 1 95.8230 3.3285 22.2260 0.0000 0.0000 0.0000
# 2 3.3285 36.7833 15.0093 0.0000 0.0000 0.0000
# 3 22.2260 15.0093 70.4145 0.0000 0.0000 0.0000
# 4 0.0000 0.0000 0.0000 26.0409 0.0000 0.0000
# 5 0.0000 0.0000 0.0000 0.0000 337.7188 0.0000
# 6 0.0000 0.0000 0.0000 0.0000 0.0000 8.3915
#
#
#
# Elastic Compliance Matrix: (Units=1/GPa)
#
#
# Indices 1 2 3 4 5 6 
#
# 1 0.011268 0.000473 -0.003657 0.000000 0.000000 0.000000
# 2 0.000473 0.029796 -0.006500 0.000000 0.000000 0.000000
# 3 -0.003657 -0.006500 0.016742 0.000000 0.000000 0.000000
# 4 0.000000 0.000000 0.000000 0.038401 0.000000 0.000000
# 5 0.000000 0.000000 0.000000 0.000000 0.002961 0.000000
# 6 0.000000 0.000000 0.000000 0.000000 0.000000 0.119169
#
#
# Mechanical properties :
#
#
# Convention : Reuss Voigt Hill
#
# Bulk Modulus (GPa) = 26.01774 31.57205 28.79489
# Shear Modulus (GPa) = 19.95864 85.26069 52.60967
#
# Velocity S-wave (km/s) = 3.26095 6.73988 5.29433
# Velocity P-wave (km/s) = 5.29531 8.79712 7.26050
#
# Compressibility (1/GPa) = 0.03843532
#
# Stress axis : x y z
#
# Youngs Moduli (GPa) = 88.74833 33.56162 59.73120
#
# Poissons Ratio (x) = -0.01587 0.21846
# Poissons Ratio (y) = -0.04196 0.38828
# Poissons Ratio (z) = 0.32459 0.21816
#
# Static dielectric constant tensor:
#      x y z
#    x 1.680180 0.000000 0.000000 
#    y 0.000000 1.674430 0.000000 
#    z 0.000000 0.000000 1.644030 
# 
# From -- ./inp_files/6468.got.cif
#   From: 2010.05.17/outbox.cif.g08.bks.cpg/sg58_4_cif.got.tgz:6468.got - 2010.06.03 14:20:14.
