data_PCOD9441297
_publ_section_title
;
Structure prediction by ZEFSAII (Michael W. Deem and Ramdas Pophale) SiO2 
 PCOD9441297
Probable space group: P N N M
;
_chemical_formula_sum "Si O2"
_cell_formula_units_Z 56
_cell_length_a 14.426029
_cell_length_b 14.223187
_cell_length_c 11.750080
_cell_angle_alpha 90.000000
_cell_angle_beta 90.000000
_cell_angle_gamma 90.000000
_cell_volume 2410.929685
_symmetry_space_group_name_H-M "P N N M"
_symmetry_group_IT_number 58
_symmetry_cell_setting 'orthorhombic'
loop_
_space_group_symop_operation_xyz
x,y,z
-x,-y,z
1/2+x,1/2-y,1/2-z
1/2-x,1/2+y,1/2-z
-x,-y,-z
x,y,-z
1/2-x,1/2+y,1/2+z
1/2+x,1/2-y,1/2+z
loop_
_atom_site_type_symbol
_atom_site_label
_atom_site_fract_x
_atom_site_fract_y
_atom_site_fract_z
Si Si1 0.600638 0.975925 0.127678
Si Si2 0.279478 0.972212 0.318168
Si Si3 0.104267 0.295992 0.122728
Si Si4 0.730615 0.807681 0.625193
Si Si5 0.927134 0.069840 0.631154
Si Si6 0.697394 0.774783 0.128683
Si Si7 0.054203 0.249740 0.628451
O O1 0.680910 0.029668 0.191925
O O2 0.500000 0.000000 0.179375
O O3 0.633854 0.868033 0.125894
O O4 0.597164 0.008915 0.000000
O O5 0.341924 0.895580 0.380591
O O6 0.174601 0.939156 0.321574
O O7 0.287584 0.079967 0.359808
O O8 0.189154 0.219731 0.126093
O O9 0.051930 0.294788 0.244392
O O10 0.054762 0.284433 0.000000
O O11 0.696928 0.778248 0.500000
O O12 0.689891 0.752775 0.734639
O O13 0.842318 0.794248 0.625069
O O14 0.916066 0.038238 0.500000
O O15 0.974347 0.171098 0.633013
O O16 0.000000 0.000000 0.688428
O O17 0.681623 0.730575 0.000000
O O18 0.043898 0.294278 0.500000
#
# Coordination Sequence:
#
# PCOD9441297 Si02
#       7
#     8   8   8   8   8   8   8
#     4   9  19  38  61  83 110 149 201 252 288 338
#     4  11  20  32  56  87 115 144 186 241 296 342
#     4  10  20  34  52  78 116 155 185 229 291 355
#     4   9  15  27  51  78 104 136 179 229 277 327
#     4  10  18  32  57  87 115 143 188 246 294 345
#     4   8  16  31  51  74 103 143 185 224 277 335
#     4   9  18  33  54  80 109 148 192 235 282 342
#
# _framework density 23.227554000000001
#
# number of rings (size 3 to 8) (size 9 to 14) (size 15 to 20)
#    0.000    2.571    1.429    1.286    0.000    0.571 
#    2.571    0.714    0.000   16.286    0.000    0.000 
#    0.000    0.000    0.000    0.000    0.000    0.000 
#
# Total GULP energy -311785.743536 kJ/mol
# GULP energy per Si atom -5567.602563 kJ/mol
# Density = 2.317469 g / cm^3
# Si number density = 23.227554 Si / 1000 Ang^3
#
#
#
# Elastic Constant Matrix: (Units=GPa)
#
#
# Indices 1 2 3 4 5 6 
#
# 1 91.4791 18.9060 65.0258 0.0000 0.0000 0.0000
# 2 18.9060 57.4080 36.3589 0.0000 0.0000 0.0000
# 3 65.0258 36.3589 232.3236 0.0000 0.0000 0.0000
# 4 0.0000 0.0000 0.0000 17.8443 0.0000 0.0000
# 5 0.0000 0.0000 0.0000 0.0000 38.0178 0.0000
# 6 0.0000 0.0000 0.0000 0.0000 0.0000 32.0377
#
#
#
# Elastic Compliance Matrix: (Units=1/GPa)
#
#
# Indices 1 2 3 4 5 6 
#
# 1 0.013927 -0.002351 -0.003530 0.000000 0.000000 0.000000
# 2 -0.002351 0.019732 -0.002430 0.000000 0.000000 0.000000
# 3 -0.003530 -0.002430 0.005673 0.000000 0.000000 0.000000
# 4 0.000000 0.000000 0.000000 0.056040 0.000000 0.000000
# 5 0.000000 0.000000 0.000000 0.000000 0.026303 0.000000
# 6 0.000000 0.000000 0.000000 0.000000 0.000000 0.031213
#
#
# Mechanical properties :
#
#
# Convention : Reuss Voigt Hill
#
# Bulk Modulus (GPa) = 44.03374 69.08799 56.56087
# Shear Modulus (GPa) = 28.23574 34.97463 31.60519
#
# Velocity S-wave (km/s) = 3.49035 3.88459 3.69274
# Velocity P-wave (km/s) = 5.93650 7.06602 6.52575
#
# Compressibility (1/GPa) = 0.02270986
#
# Stress axis : x y z
#
# Youngs Moduli (GPa) = 71.80546 50.67791 176.28255
#
# Poissons Ratio (x) = 0.11913 0.62229
# Poissons Ratio (y) = 0.16879 0.42841
# Poissons Ratio (z) = 0.25348 0.12316
#
# Static dielectric constant tensor:
#      x y z
#    x 1.896570 0.000000 0.000000 
#    y 0.000000 1.967020 0.000000 
#    z 0.000000 0.000000 1.911430 
# 
# From -- ./inp_files/15685.got.cif
#   From: 2010.05.17/outbox.cif.g08.bks.cpg/sg58_8_cif.got.tgz:15685.got - 2010.06.03 14:20:14.
