data_PCOD9441018
_publ_section_title
;
Structure prediction by ZEFSAII (Michael W. Deem and Ramdas Pophale) SiO2 
 PCOD9441018
Probable space group: P N N M
;
_chemical_formula_sum "Si O2"
_cell_formula_units_Z 56
_cell_length_a 19.563475
_cell_length_b 18.597440
_cell_length_c 8.726886
_cell_angle_alpha 90.000000
_cell_angle_beta 90.000000
_cell_angle_gamma 90.000000
_cell_volume 3175.107755
_symmetry_space_group_name_H-M "P N N M"
_symmetry_group_IT_number 58
_symmetry_cell_setting 'orthorhombic'
loop_
_space_group_symop_operation_xyz
x,y,z
-x,-y,z
1/2+x,1/2-y,1/2-z
1/2-x,1/2+y,1/2-z
-x,-y,-z
x,y,-z
1/2-x,1/2+y,1/2+z
1/2+x,1/2-y,1/2+z
loop_
_atom_site_type_symbol
_atom_site_label
_atom_site_fract_x
_atom_site_fract_y
_atom_site_fract_z
Si Si1 0.925420 0.471576 0.685169
Si Si2 0.457531 0.337527 0.816280
Si Si3 0.748341 0.354260 0.315496
Si Si4 0.852286 0.047183 0.183184
Si Si5 0.891607 0.308938 0.314772
Si Si6 0.213344 0.490440 0.818453
Si Si7 0.601252 0.383919 0.316774
O O1 0.920069 0.473141 0.500000
O O2 0.915775 0.388252 0.735547
O O3 0.862772 0.518155 0.751483
O O4 0.000000 0.500000 0.728900
O O5 0.404311 0.394862 0.749137
O O6 0.435459 0.258216 0.759879
O O7 0.533635 0.357692 0.765566
O O8 0.453129 0.339227 0.000000
O O9 0.750692 0.367684 0.500000
O O10 0.810733 0.301424 0.277791
O O11 0.766987 0.428459 0.232337
O O12 0.669689 0.338290 0.278654
O O13 0.775763 0.055310 0.249263
O O14 0.880607 0.966993 0.221748
O O15 0.849389 0.051450 0.000000
O O16 0.896530 0.309486 0.500000
O O17 0.212461 0.483263 0.000000
O O18 0.590406 0.380744 0.500000
#
# Coordination Sequence:
#
# PCOD9441018 Si02
#       7
#     8   8   8   8   8   8   8
#     4   9  17  33  57  77  97 133 175 207 241 295
#     4  11  21  31  47  73 106 135 159 201 258 303
#     4   8  15  32  54  69  89 127 169 200 235 295
#     4  10  20  35  52  69  95 133 175 209 242 297
#     4   8  16  32  51  72  98 129 165 204 249 297
#     4  10  18  29  49  77 103 122 153 205 257 295
#     4   9  18  32  51  72  93 125 169 210 243 288
#
# _framework density 17.637197
#
# number of rings (size 3 to 8) (size 9 to 14) (size 15 to 20)
#    0.000    2.714    0.000    4.286    0.000    4.857 
#    0.000    7.143    0.000    3.429    0.000    0.000 
#    0.000    0.000    0.000    0.000    0.000    0.000 
#
# Total GULP energy -311953.885352 kJ/mol
# GULP energy per Si atom -5570.605096 kJ/mol
# Density = 1.759705 g / cm^3
# Si number density = 17.637197 Si / 1000 Ang^3
#
#
#
# Elastic Constant Matrix: (Units=GPa)
#
#
# Indices 1 2 3 4 5 6 
#
# 1 196.2635 65.9143 54.2115 0.0000 0.0000 0.0000
# 2 65.9143 56.9823 19.8949 0.0000 0.0000 0.0000
# 3 54.2115 19.8949 36.4487 0.0000 0.0000 0.0000
# 4 0.0000 0.0000 0.0000 8.0921 0.0000 0.0000
# 5 0.0000 0.0000 0.0000 0.0000 26.0179 0.0000
# 6 0.0000 0.0000 0.0000 0.0000 0.0000 15.5832
#
#
#
# Elastic Compliance Matrix: (Units=1/GPa)
#
#
# Indices 1 2 3 4 5 6 
#
# 1 0.011491 -0.009050 -0.012151 0.000000 0.000000 0.000000
# 2 -0.009050 0.028808 -0.002265 0.000000 0.000000 0.000000
# 3 -0.012151 -0.002265 0.046745 0.000000 0.000000 0.000000
# 4 0.000000 0.000000 0.000000 0.123577 0.000000 0.000000
# 5 0.000000 0.000000 0.000000 0.000000 0.038435 0.000000
# 6 0.000000 0.000000 0.000000 0.000000 0.000000 0.064172
#
#
# Mechanical properties :
#
#
# Convention : Reuss Voigt Hill
#
# Bulk Modulus (GPa) = 24.92961 63.30397 44.11679
# Shear Modulus (GPa) = 13.38583 19.91690 16.65136
#
# Velocity S-wave (km/s) = 2.75790 3.36409 3.07596
# Velocity P-wave (km/s) = 4.93018 7.14560 6.13866
#
# Compressibility (1/GPa) = 0.04011294
#
# Stress axis : x y z
#
# Youngs Moduli (GPa) = 87.02610 34.71252 21.39276
#
# Poissons Ratio (x) = 0.31413 0.25995
# Poissons Ratio (y) = 0.78754 0.04845
# Poissons Ratio (z) = 1.05747 0.07861
#
# Static dielectric constant tensor:
#      x y z
#    x 1.625870 0.000000 0.000000 
#    y 0.000000 1.595490 0.000000 
#    z 0.000000 0.000000 1.591560 
# 
# From -- ./inp_files/8190.got.cif
#   From: 2010.05.17/outbox.cif.g08.bks.cpg/sg58_5_cif.got.tgz:8190.got - 2010.06.03 14:20:14.
