data_PCOD9441719
_publ_section_title
;
Structure prediction by ZEFSAII (Michael W. Deem and Ramdas Pophale) SiO2 
 PCOD9441719
Probable space group: P N N M
;
_chemical_formula_sum "Si O2"
_cell_formula_units_Z 64
_cell_length_a 15.074769
_cell_length_b 24.986214
_cell_length_c 7.644849
_cell_angle_alpha 90.000000
_cell_angle_beta 90.000000
_cell_angle_gamma 90.000000
_cell_volume 2879.519560
_symmetry_space_group_name_H-M "P N N M"
_symmetry_group_IT_number 58
_symmetry_cell_setting 'orthorhombic'
loop_
_space_group_symop_operation_xyz
x,y,z
-x,-y,z
1/2+x,1/2-y,1/2-z
1/2-x,1/2+y,1/2-z
-x,-y,-z
x,y,-z
1/2-x,1/2+y,1/2+z
1/2+x,1/2-y,1/2+z
loop_
_atom_site_type_symbol
_atom_site_label
_atom_site_fract_x
_atom_site_fract_y
_atom_site_fract_z
Si Si1 0.066091 0.451522 0.214398
Si Si2 0.748541 0.401618 0.207968
Si Si3 0.264991 0.479276 0.211118
Si Si4 0.043249 0.945424 0.208700
Si Si5 0.641719 0.747194 0.204194
Si Si6 0.996069 0.831330 0.205042
Si Si7 0.676273 0.288714 0.699069
Si Si8 0.942297 0.359434 0.793053
O O1 0.167666 0.460346 0.270815
O O2 0.000000 0.500000 0.266790
O O3 0.024082 0.394920 0.272458
O O4 0.065405 0.451508 0.000000
O O5 0.719246 0.459574 0.271657
O O6 0.705770 0.351039 0.301230
O O7 0.854537 0.396071 0.229273
O O8 0.730355 0.396497 0.000000
O O9 0.351086 0.445858 0.262218
O O10 0.261053 0.481019 0.000000
O O11 0.001383 0.890769 0.281406
O O12 0.028451 0.945203 0.000000
O O13 0.000000 0.000000 0.280128
O O14 0.589225 0.698323 0.284427
O O15 0.739448 0.758918 0.280869
O O16 0.584353 0.801759 0.219746
O O17 0.652008 0.735888 0.000000
O O18 0.920436 0.792560 0.283047
O O19 0.973710 0.836522 0.000000
O O20 0.667828 0.268197 0.500000
O O21 0.954933 0.350741 0.000000
#
# Coordination Sequence:
#
# PCOD9441719 Si02
#       8
#     8   8   8   8   8   8   8   8
#     4   9  15  28  51  79 112 150 189 223 263 325
#     4   9  16  27  49  80 109 139 180 224 263 310
#     4  10  19  31  51  82 114 145 181 224 273 319
#     4  10  22  40  60  81 108 146 186 226 278 340
#     4  10  21  37  57  83 111 135 174 234 284 319
#     4  10  21  40  62  81 106 145 188 223 268 337
#     4   9  19  36  58  80 102 136 181 225 269 320
#     4   9  16  30  53  77 106 147 189 223 260 318
#
# _framework density 22.225930999999999
#
# number of rings (size 3 to 8) (size 9 to 14) (size 15 to 20)
#    0.000    2.500    1.250    1.125    0.000    3.250 
#    2.250    0.625    0.000    0.750    0.000    0.000 
#    0.000    0.000    0.000    0.000    0.000    0.000 
#
# Total GULP energy -357147.432363 kJ/mol
# GULP energy per Si atom -5580.428631 kJ/mol
# Density = 2.217534 g / cm^3
# Si number density = 22.225931 Si / 1000 Ang^3
#
#
#
# Elastic Constant Matrix: (Units=GPa)
#
#
# Indices 1 2 3 4 5 6 
#
# 1 129.2287 39.4713 5.0743 0.0000 0.0000 0.0000
# 2 39.4713 60.2023 3.1463 0.0000 0.0000 0.0000
# 3 5.0743 3.1463 40.9571 0.0000 0.0000 0.0000
# 4 0.0000 0.0000 0.0000 28.5052 0.0000 0.0000
# 5 0.0000 0.0000 0.0000 0.0000 17.9924 0.0000
# 6 0.0000 0.0000 0.0000 0.0000 0.0000 31.0947
#
#
#
# Elastic Compliance Matrix: (Units=1/GPa)
#
#
# Indices 1 2 3 4 5 6 
#
# 1 0.009697 -0.006320 -0.000716 0.000000 0.000000 0.000000
# 2 -0.006320 0.020797 -0.000815 0.000000 0.000000 0.000000
# 3 -0.000716 -0.000815 0.024567 0.000000 0.000000 0.000000
# 4 0.000000 0.000000 0.000000 0.035081 0.000000 0.000000
# 5 0.000000 0.000000 0.000000 0.000000 0.055579 0.000000
# 6 0.000000 0.000000 0.000000 0.000000 0.000000 0.032160
#
#
# Mechanical properties :
#
#
# Convention : Reuss Voigt Hill
#
# Bulk Modulus (GPa) = 25.40676 36.19688 30.80182
# Shear Modulus (GPa) = 24.18938 27.69820 25.94379
#
# Velocity S-wave (km/s) = 3.30258 3.53400 3.42025
# Velocity P-wave (km/s) = 5.09889 5.74225 5.43011
#
# Compressibility (1/GPa) = 0.03935960
#
# Stress axis : x y z
#
# Youngs Moduli (GPa) = 103.12721 48.08372 40.70488
#
# Poissons Ratio (x) = 0.30390 0.02914
# Poissons Ratio (y) = 0.65179 0.03316
# Poissons Ratio (z) = 0.07382 0.03917
#
# Static dielectric constant tensor:
#      x y z
#    x 1.855620 0.000000 0.000000 
#    y 0.000000 1.803610 0.000000 
#    z 0.000000 0.000000 1.838290 
# 
# From -- ./inp_files/6956.got.cif
#   From: 2010.05.17/outbox.cif.g08.bks.cpg/sg58_4_cif.got.tgz:6956.got - 2010.06.03 14:20:14.
