data_PCOD9441516
_publ_section_title
;
Structure prediction by ZEFSAII (Michael W. Deem and Ramdas Pophale) SiO2 
 PCOD9441516
Probable space group: P N N M
;
_chemical_formula_sum "Si O2"
_cell_formula_units_Z 40
_cell_length_a 23.304172
_cell_length_b 6.119827
_cell_length_c 13.674069
_cell_angle_alpha 90.000000
_cell_angle_beta 90.000000
_cell_angle_gamma 90.000000
_cell_volume 1950.161550
_symmetry_space_group_name_H-M "P N N M"
_symmetry_group_IT_number 58
_symmetry_cell_setting 'orthorhombic'
loop_
_space_group_symop_operation_xyz
x,y,z
-x,-y,z
1/2+x,1/2-y,1/2-z
1/2-x,1/2+y,1/2-z
-x,-y,-z
x,y,-z
1/2-x,1/2+y,1/2+z
1/2+x,1/2-y,1/2+z
loop_
_atom_site_type_symbol
_atom_site_label
_atom_site_fract_x
_atom_site_fract_y
_atom_site_fract_z
Si Si1 0.562119 0.006384 0.789708
Si Si2 0.547458 0.311298 0.604158
Si Si3 0.627110 0.638739 0.686629
Si Si4 0.680696 0.254423 0.795483
Si Si5 0.783766 0.466950 0.109644
O O1 0.579971 0.767800 0.750835
O O2 0.500000 0.000000 0.845108
O O3 0.547623 0.151199 0.694480
O O4 0.622407 0.120563 0.826350
O O5 0.500000 0.500000 0.609409
O O6 0.543970 0.197047 0.500000
O O7 0.604323 0.453808 0.614722
O O8 0.663202 0.498318 0.763244
O O9 0.660294 0.818240 0.625257
O O10 0.730228 0.301907 0.873707
O O11 0.708889 0.135463 0.700439
O O12 0.781546 0.560848 0.000000
#
# Coordination Sequence:
#
# PCOD9441516 Si02
#       5
#     8   8   8   8   8
#     4  10  20  34  53  77 110 155 193 233 290 337
#     4  10  19  29  45  74 110 148 192 229 269 339
#     4  10  20  35  54  77 115 148 190 237 279 345
#     4  10  22  38  57  86 117 144 199 240 282 355
#     4  11  22  39  61  82 114 154 188 237 297 342
#
# _framework density 20.511122
#
# number of rings (size 3 to 8) (size 9 to 14) (size 15 to 20)
#    0.000    1.800    4.000    0.600    0.000    9.200 
#    0.000    0.000    0.000    0.600    0.000    1.400 
#    0.000    0.000    0.000    0.000    0.000    0.000 
#
# Total GULP energy -222673.852638 kJ/mol
# GULP energy per Si atom -5566.846316 kJ/mol
# Density = 2.046444 g / cm^3
# Si number density = 20.511122 Si / 1000 Ang^3
#
#
#
# Elastic Constant Matrix: (Units=GPa)
#
#
# Indices 1 2 3 4 5 6 
#
# 1 110.9410 7.0439 7.6967 0.0000 0.0000 0.0000
# 2 7.0439 59.2003 3.0181 0.0000 0.0000 0.0000
# 3 7.6967 3.0181 21.5333 0.0000 0.0000 0.0000
# 4 0.0000 0.0000 0.0000 -6.1855 0.0000 0.0000
# 5 0.0000 0.0000 0.0000 0.0000 0.8320 0.0000
# 6 0.0000 0.0000 0.0000 0.0000 0.0000 42.7450
#
#
#
# Elastic Compliance Matrix: (Units=1/GPa)
#
#
# Indices 1 2 3 4 5 6 
#
# 1 0.009295 -0.000943 -0.003190 0.000000 0.000000 0.000000
# 2 -0.000943 0.017109 -0.002061 0.000000 0.000000 0.000000
# 3 -0.003190 -0.002061 0.047869 0.000000 0.000000 0.000000
# 4 0.000000 0.000000 0.000000 -0.161667 0.000000 0.000000
# 5 0.000000 0.000000 0.000000 0.000000 1.201902 0.000000
# 6 0.000000 0.000000 0.000000 0.000000 0.000000 0.023395
#
#
# Mechanical properties :
#
#
# Convention : Reuss Voigt Hill
#
# Bulk Modulus (GPa) = 16.15916 25.24356 20.70136
# Shear Modulus (GPa) = 4.27015 19.07269 11.67142
#
# Velocity S-wave (km/s) = 1.44443 3.05269 2.38802
# Velocity P-wave (km/s) = 3.26760 4.97586 4.20930
#
# Compressibility (1/GPa) = 0.06188441
#
# Stress axis : x y z
#
# Youngs Moduli (GPa) = 107.58458 58.44842 20.89039
#
# Poissons Ratio (x) = 0.05514 0.06664
# Poissons Ratio (y) = 0.10149 0.04305
# Poissons Ratio (z) = 0.34321 0.12045
#
# Static dielectric constant tensor:
#      x y z
#    x 1.917410 0.000000 0.000000 
#    y 0.000000 1.717490 0.000000 
#    z 0.000000 0.000000 1.743420 
# 
# From -- ./inp_files/17893.got.cif
#   From: 2010.05.17/outbox.cif.g08.bks.cpg/sg58_9_cif.got.tgz:17893.got - 2010.06.03 14:20:14.
