data_PCOD9441020
_publ_section_title
;
Structure prediction by ZEFSAII (Michael W. Deem and Ramdas Pophale) SiO2 
 PCOD9441020
Probable space group: P N N M
;
_chemical_formula_sum "Si O2"
_cell_formula_units_Z 56
_cell_length_a 19.032648
_cell_length_b 14.714430
_cell_length_c 7.550177
_cell_angle_alpha 90.000000
_cell_angle_beta 90.000000
_cell_angle_gamma 90.000000
_cell_volume 2114.461548
_symmetry_space_group_name_H-M "P N N M"
_symmetry_group_IT_number 58
_symmetry_cell_setting 'orthorhombic'
loop_
_space_group_symop_operation_xyz
x,y,z
-x,-y,z
1/2+x,1/2-y,1/2-z
1/2-x,1/2+y,1/2-z
-x,-y,-z
x,y,-z
1/2-x,1/2+y,1/2+z
1/2+x,1/2-y,1/2+z
loop_
_atom_site_type_symbol
_atom_site_label
_atom_site_fract_x
_atom_site_fract_y
_atom_site_fract_z
Si Si1 0.353083 0.043814 0.713778
Si Si2 0.934874 0.629065 0.710973
Si Si3 0.293562 0.768496 0.211334
Si Si4 0.215391 0.935915 0.289261
Si Si5 0.517805 0.598549 0.705968
Si Si6 0.866746 0.901933 0.713963
Si Si7 0.580750 0.777927 0.294425
O O1 0.347132 0.050466 0.500000
O O2 0.367192 0.145597 0.781556
O O3 0.417937 0.976780 0.755678
O O4 0.284144 0.990278 0.779462
O O5 0.940172 0.643853 0.500000
O O6 0.863547 0.679070 0.776702
O O7 0.005380 0.670016 0.791460
O O8 0.226892 0.830359 0.253479
O O9 0.303299 0.664783 0.266904
O O10 0.296488 0.767928 0.000000
O O11 0.215277 0.945070 0.500000
O O12 0.149634 0.995334 0.225598
O O13 0.500000 0.500000 0.790650
O O14 0.535717 0.585679 0.500000
O O15 0.438379 0.637489 0.712120
O O16 0.566548 0.677679 0.785481
O O17 0.872180 0.900447 0.500000
O O18 0.600289 0.762854 0.500000
#
# Coordination Sequence:
#
# PCOD9441020 Si02
#       7
#     8   8   8   8   8   8   8
#     4   9  18  32  49  74 107 141 172 213 264 320
#     4  10  18  29  49  77 106 136 171 213 262 319
#     4   9  18  33  53  78 107 140 179 221 270 326
#     4   9  19  35  55  79 108 141 183 225 267 324
#     4  10  22  39  57  82 109 140 187 235 273 321
#     4  10  20  38  60  82 108 144 184 224 275 332
#     4  10  19  32  51  74 104 140 175 214 266 321
#
# _framework density 26.484286000000001
#
# number of rings (size 3 to 8) (size 9 to 14) (size 15 to 20)
#    0.000    2.429    1.429    0.857    0.000    4.286 
#    2.571    0.000    0.000    0.000    0.000    0.000 
#    0.000    0.000    0.000    0.000    0.000    0.000 
#
# Total GULP energy -312994.603852 kJ/mol
# GULP energy per Si atom -5589.189354 kJ/mol
# Density = 2.642401 g / cm^3
# Si number density = 26.484286 Si / 1000 Ang^3
#
#
#
# Elastic Constant Matrix: (Units=GPa)
#
#
# Indices 1 2 3 4 5 6 
#
# 1 77.7071 12.5920 5.2484 0.0000 0.0000 0.0000
# 2 12.5920 168.6935 9.7599 0.0000 0.0000 0.0000
# 3 5.2484 9.7599 81.8000 0.0000 0.0000 0.0000
# 4 0.0000 0.0000 0.0000 12.0980 0.0000 0.0000
# 5 0.0000 0.0000 0.0000 0.0000 39.5056 0.0000
# 6 0.0000 0.0000 0.0000 0.0000 0.0000 47.4256
#
#
#
# Elastic Compliance Matrix: (Units=1/GPa)
#
#
# Indices 1 2 3 4 5 6 
#
# 1 0.013069 -0.000933 -0.000727 0.000000 0.000000 0.000000
# 2 -0.000933 0.006036 -0.000660 0.000000 0.000000 0.000000
# 3 -0.000727 -0.000660 0.012350 0.000000 0.000000 0.000000
# 4 0.000000 0.000000 0.000000 0.082658 0.000000 0.000000
# 5 0.000000 0.000000 0.000000 0.000000 0.025313 0.000000
# 6 0.000000 0.000000 0.000000 0.000000 0.000000 0.021086
#
#
# Mechanical properties :
#
#
# Convention : Reuss Voigt Hill
#
# Bulk Modulus (GPa) = 37.29453 42.60013 39.94733
# Shear Modulus (GPa) = 28.72044 39.84585 34.28314
#
# Velocity S-wave (km/s) = 3.29665 3.88301 3.60178
# Velocity P-wave (km/s) = 5.34816 6.01861 5.69326
#
# Compressibility (1/GPa) = 0.02681358
#
# Stress axis : x y z
#
# Youngs Moduli (GPa) = 76.51567 165.67841 80.96924
#
# Poissons Ratio (x) = 0.15466 0.05888
# Poissons Ratio (y) = 0.07143 0.05346
# Poissons Ratio (z) = 0.05564 0.10939
#
# Static dielectric constant tensor:
#      x y z
#    x 2.117050 0.000000 0.000000 
#    y 0.000000 2.152170 0.000000 
#    z 0.000000 0.000000 1.953640 
# 
# From -- ./inp_files/6356.got.cif
#   From: 2010.05.17/outbox.cif.g08.bks.cpg/sg58_4_cif.got.tgz:6356.got - 2010.06.03 14:20:14.
