data_PCOD9441953
_publ_section_title
;
Structure prediction by ZEFSAII (Michael W. Deem and Ramdas Pophale) SiO2 
 PCOD9441953
Probable space group: P N N M
;
_chemical_formula_sum "Si O2"
_cell_formula_units_Z 56
_cell_length_a 19.098213
_cell_length_b 7.806660
_cell_length_c 22.131157
_cell_angle_alpha 90.000000
_cell_angle_beta 90.000000
_cell_angle_gamma 90.000000
_cell_volume 3299.606245
_symmetry_space_group_name_H-M "P N N M"
_symmetry_group_IT_number 58
_symmetry_cell_setting 'orthorhombic'
loop_
_space_group_symop_operation_xyz
x,y,z
-x,-y,z
1/2+x,1/2-y,1/2-z
1/2-x,1/2+y,1/2-z
-x,-y,-z
x,y,-z
1/2-x,1/2+y,1/2+z
1/2+x,1/2-y,1/2+z
loop_
_atom_site_type_symbol
_atom_site_label
_atom_site_fract_x
_atom_site_fract_y
_atom_site_fract_z
Si Si1 0.347297 0.697241 0.762610
Si Si2 0.766350 0.307322 0.658165
Si Si3 0.284175 0.974654 0.430038
Si Si4 0.366148 0.299417 0.747302
Si Si5 0.443669 0.846347 0.432382
Si Si6 0.255935 0.307333 0.359451
Si Si7 0.985633 0.701826 0.804054
O O1 0.291403 0.734827 0.709545
O O2 0.352321 0.493309 0.767264
O O3 0.316107 0.768649 0.824297
O O4 0.420631 0.767770 0.739844
O O5 0.761231 0.153966 0.610803
O O6 0.838301 0.314837 0.696875
O O7 0.745530 0.489362 0.628708
O O8 0.268719 0.948320 0.500000
O O9 0.366257 0.924538 0.420837
O O10 0.269232 0.170798 0.411748
O O11 0.316840 0.267120 0.689430
O O12 0.444977 0.281677 0.724559
O O13 0.442866 0.764547 0.500000
O O14 0.465434 0.739800 0.372536
O O15 0.500000 0.000000 0.435965
O O16 0.000000 0.500000 0.808445
#
# Coordination Sequence:
#
# PCOD9441953 Si02
#       7
#     8   8   8   8   8   8   8
#     4  10  19  33  51  75 111 138 175 229 282 319
#     4  10  20  35  53  79 107 140 181 228 280 318
#     4  11  21  36  56  77 110 150 187 225 269 324
#     4  10  20  32  52  77 108 141 179 227 278 327
#     4   9  18  31  50  73 107 152 191 221 259 319
#     4  10  20  34  54  77 105 140 178 228 275 324
#     4  11  19  29  50  78 107 142 182 218 272 326
#
# _framework density 16.971722
#
# number of rings (size 3 to 8) (size 9 to 14) (size 15 to 20)
#    0.000    1.857    2.857    3.000    2.000    0.571 
#    0.000    0.000    0.000    2.571    0.000    2.000 
#    0.000    3.429    0.000    0.000    0.000    0.000 
#
# Total GULP energy -312185.419082 kJ/mol
# GULP energy per Si atom -5574.739626 kJ/mol
# Density = 1.693309 g / cm^3
# Si number density = 16.971722 Si / 1000 Ang^3
#
#
#
# Elastic Constant Matrix: (Units=GPa)
#
#
# Indices 1 2 3 4 5 6 
#
# 1 89.4942 -7.0623 40.5570 0.0000 0.0000 0.0000
# 2 -7.0623 31.8581 21.1908 0.0000 0.0000 0.0000
# 3 40.5570 21.1908 61.5766 0.0000 0.0000 0.0000
# 4 0.0000 0.0000 0.0000 22.7454 0.0000 0.0000
# 5 0.0000 0.0000 0.0000 0.0000 23.0073 0.0000
# 6 0.0000 0.0000 0.0000 0.0000 0.0000 21.7104
#
#
#
# Elastic Compliance Matrix: (Units=1/GPa)
#
#
# Indices 1 2 3 4 5 6 
#
# 1 0.022323 0.019101 -0.021276 0.000000 0.000000 0.000000
# 2 0.019101 0.057051 -0.032214 0.000000 0.000000 0.000000
# 3 -0.021276 -0.032214 0.041339 0.000000 0.000000 0.000000
# 4 0.000000 0.000000 0.000000 0.043965 0.000000 0.000000
# 5 0.000000 0.000000 0.000000 0.000000 0.043465 0.000000
# 6 0.000000 0.000000 0.000000 0.000000 0.000000 0.046061
#
#
# Mechanical properties :
#
#
# Convention : Reuss Voigt Hill
#
# Bulk Modulus (GPa) = 19.25498 32.47776 25.86637
# Shear Modulus (GPa) = 14.69318 22.04218 18.36768
#
# Velocity S-wave (km/s) = 2.94555 3.60774 3.29333
# Velocity P-wave (km/s) = 4.78939 6.04420 5.45301
#
# Compressibility (1/GPa) = 0.05193462
#
# Stress axis : x y z
#
# Youngs Moduli (GPa) = 44.79646 17.52823 24.19001
#
# Poissons Ratio (x) = -0.33480 0.51467
# Poissons Ratio (y) = -0.85565 0.77925
# Poissons Ratio (z) = 0.95310 0.56465
#
# Static dielectric constant tensor:
#      x y z
#    x 1.555330 0.000000 0.000000 
#    y 0.000000 1.714110 0.000000 
#    z 0.000000 0.000000 1.582150 
# 
# From -- ./inp_files/29071.got.cif
#   From: 2010.05.17/outbox.cif.g08.bks.cpg/sg58_15_cif.got.tgz:29071.got - 2010.06.03 14:20:14.
