data_PCOD9441967
_publ_section_title
;
Structure prediction by ZEFSAII (Michael W. Deem and Ramdas Pophale) SiO2 
 PCOD9441967
Probable space group: P N N M
;
_chemical_formula_sum "Si O2"
_cell_formula_units_Z 40
_cell_length_a 17.798750
_cell_length_b 9.070332
_cell_length_c 12.164034
_cell_angle_alpha 90.000000
_cell_angle_beta 90.000000
_cell_angle_gamma 90.000000
_cell_volume 1963.768603
_symmetry_space_group_name_H-M "P N N M"
_symmetry_group_IT_number 58
_symmetry_cell_setting 'orthorhombic'
loop_
_space_group_symop_operation_xyz
x,y,z
-x,-y,z
1/2+x,1/2-y,1/2-z
1/2-x,1/2+y,1/2-z
-x,-y,-z
x,y,-z
1/2-x,1/2+y,1/2+z
1/2+x,1/2-y,1/2+z
loop_
_atom_site_type_symbol
_atom_site_label
_atom_site_fract_x
_atom_site_fract_y
_atom_site_fract_z
Si Si1 0.157878 0.812381 0.874091
Si Si2 0.895338 0.852014 0.129593
Si Si3 0.024043 0.160680 0.657688
Si Si4 0.572649 0.906256 0.787358
Si Si5 0.331484 0.814081 0.817441
O O1 0.117435 0.693041 0.798723
O O2 0.247412 0.803603 0.857088
O O3 0.134445 0.982014 0.851250
O O4 0.138489 0.782658 0.000000
O O5 0.968432 0.836946 0.207491
O O6 0.839222 0.735613 0.188689
O O7 0.906532 0.828670 0.000000
O O8 0.108781 0.203211 0.626285
O O9 0.965803 0.289069 0.630290
O O10 0.000000 0.000000 0.623329
O O11 0.500000 0.000000 0.744830
O O12 0.631318 0.025814 0.832442
#
# Coordination Sequence:
#
# PCOD9441967 Si02
#       5
#     8   8   8   8   8
#     4  11  21  34  52  75 107 147 180 213 262 319
#     4   9  19  32  51  73 102 138 168 203 265 328
#     4   9  17  33  53  75 105 138 165 210 271 331
#     4  10  19  33  52  81 106 139 171 220 269 313
#     4   9  20  34  51  74 110 135 176 222 258 315
#
# _framework density 20.368998000000001
#
# number of rings (size 3 to 8) (size 9 to 14) (size 15 to 20)
#    1.200    1.200    2.000    1.200    0.000    2.400 
#    0.000    0.000    0.000    6.000    0.000    0.000 
#    0.000    0.000    0.000    0.000    0.000    0.000 
#
# Total GULP energy -222753.174506 kJ/mol
# GULP energy per Si atom -5568.829363 kJ/mol
# Density = 2.032264 g / cm^3
# Si number density = 20.368998 Si / 1000 Ang^3
#
#
#
# Elastic Constant Matrix: (Units=GPa)
#
#
# Indices 1 2 3 4 5 6 
#
# 1 104.8724 46.7815 -1.2190 0.0000 0.0000 0.0000
# 2 46.7815 114.9647 17.9481 0.0000 0.0000 0.0000
# 3 -1.2190 17.9481 72.1713 0.0000 0.0000 0.0000
# 4 0.0000 0.0000 0.0000 -8.0045 0.0000 0.0000
# 5 0.0000 0.0000 0.0000 0.0000 -103.3403 0.0000
# 6 0.0000 0.0000 0.0000 0.0000 0.0000 31.3300
#
#
#
# Elastic Compliance Matrix: (Units=1/GPa)
#
#
# Indices 1 2 3 4 5 6 
#
# 1 0.011794 -0.005025 0.001449 0.000000 0.000000 0.000000
# 2 -0.005025 0.011191 -0.002868 0.000000 0.000000 0.000000
# 3 0.001449 -0.002868 0.014594 0.000000 0.000000 0.000000
# 4 0.000000 0.000000 0.000000 -0.124930 0.000000 0.000000
# 5 0.000000 0.000000 0.000000 0.000000 -0.009677 0.000000
# 6 0.000000 0.000000 0.000000 0.000000 0.000000 0.031918
#
#
# Mechanical properties :
#
#
# Convention : Reuss Voigt Hill
#
# Bulk Modulus (GPa) = 40.50255 46.55884 43.53070
# Shear Modulus (GPa) = -113.65961 -0.76977 -57.21469
#
# Velocity S-wave (km/s) = -7.47806 -0.61541 -5.30567
# Velocity P-wave (km/s) = 7.39150 4.73311 4.01447
#
# Compressibility (1/GPa) = 0.02468980
#
# Stress axis : x y z
#
# Youngs Moduli (GPa) = 84.78905 89.35745 68.52308
#
# Poissons Ratio (x) = 0.44906 -0.09929
# Poissons Ratio (y) = 0.42610 0.19652
# Poissons Ratio (z) = -0.12286 0.25627
#
# Static dielectric constant tensor:
#      x y z
#    x 1.712690 0.000000 0.000000 
#    y 0.000000 1.747070 0.000000 
#    z 0.000000 0.000000 1.765550 
# 
# From -- ./inp_files/23113.got.cif
#   From: 2010.05.17/outbox.cif.g08.bks.cpg/sg58_12_cif.got.tgz:23113.got - 2010.06.03 14:20:14.
