data_PCOD9441374
_publ_section_title
;
Structure prediction by ZEFSAII (Michael W. Deem and Ramdas Pophale) SiO2 
 PCOD9441374
Probable space group: P N N M
;
_chemical_formula_sum "Si O2"
_cell_formula_units_Z 64
_cell_length_a 16.790955
_cell_length_b 11.930409
_cell_length_c 17.825705
_cell_angle_alpha 90.000000
_cell_angle_beta 90.000000
_cell_angle_gamma 90.000000
_cell_volume 3570.898001
_symmetry_space_group_name_H-M "P N N M"
_symmetry_group_IT_number 58
_symmetry_cell_setting 'orthorhombic'
loop_
_space_group_symop_operation_xyz
x,y,z
-x,-y,z
1/2+x,1/2-y,1/2-z
1/2-x,1/2+y,1/2-z
-x,-y,-z
x,y,-z
1/2-x,1/2+y,1/2+z
1/2+x,1/2-y,1/2+z
loop_
_atom_site_type_symbol
_atom_site_label
_atom_site_fract_x
_atom_site_fract_y
_atom_site_fract_z
Si Si1 0.852327 0.925789 0.588421
Si Si2 0.395259 0.189672 0.740817
Si Si3 0.730504 0.524223 0.582344
Si Si4 0.811742 0.287304 0.915338
Si Si5 0.933866 0.775444 0.290834
Si Si6 0.908896 0.964948 0.823446
Si Si7 0.842163 0.545245 0.281413
Si Si8 0.685278 0.610018 0.799444
O O1 0.870152 0.927590 0.500000
O O2 0.766856 0.862849 0.599083
O O3 0.915977 0.854697 0.637411
O O4 0.843051 0.049111 0.624878
O O5 0.374093 0.202166 0.652594
O O6 0.475654 0.245309 0.771295
O O7 0.326901 0.258022 0.786437
O O8 0.395670 0.057716 0.755814
O O9 0.757245 0.491018 0.500000
O O10 0.716001 0.658192 0.584153
O O11 0.646702 0.468488 0.604236
O O12 0.794641 0.502339 0.645950
O O13 0.841276 0.313506 0.000000
O O14 0.903990 0.847592 0.219845
O O15 0.887665 0.659213 0.299622
O O16 0.868975 0.053780 0.766004
O O17 0.000000 0.000000 0.836768
O O18 0.775059 0.574144 0.219596
#
# Coordination Sequence:
#
# PCOD9441374 Si02
#       8
#     8   8   8   8   8   8   8   8
#     4  10  20  37  62  87 113 150 198 246 291 342
#     4  12  21  38  58  86 118 152 193 241 290 350
#     4  10  20  33  54  83 112 145 190 236 286 345
#     4  10  18  34  60  88 112 147 195 240 284 345
#     4  11  22  36  58  87 117 153 194 237 290 358
#     4  10  18  34  56  83 113 140 180 244 294 339
#     4  11  22  36  58  82 115 157 199 235 284 351
#     4  10  20  34  58  84 107 147 197 241 286 335
#
# _framework density 17.922663
#
# number of rings (size 3 to 8) (size 9 to 14) (size 15 to 20)
#    0.000    1.500    6.250    0.375    3.500    0.250 
#    0.000    3.125    0.000    4.500    0.000    0.000 
#    0.000    0.000    0.000    0.000    0.000    0.000 
#
# Total GULP energy -356847.114627 kJ/mol
# GULP energy per Si atom -5575.736166 kJ/mol
# Density = 1.788187 g / cm^3
# Si number density = 17.922663 Si / 1000 Ang^3
#
#
#
# Elastic Constant Matrix: (Units=GPa)
#
#
# Indices 1 2 3 4 5 6 
#
# 1 46.4792 -5.1457 28.3066 0.0000 0.0000 0.0000
# 2 -5.1457 63.4195 17.7715 0.0000 0.0000 0.0000
# 3 28.3066 17.7715 102.5482 0.0000 0.0000 0.0000
# 4 0.0000 0.0000 0.0000 20.3814 0.0000 0.0000
# 5 0.0000 0.0000 0.0000 0.0000 16.3059 0.0000
# 6 0.0000 0.0000 0.0000 0.0000 0.0000 13.5159
#
#
#
# Elastic Compliance Matrix: (Units=1/GPa)
#
#
# Indices 1 2 3 4 5 6 
#
# 1 0.027033 0.004503 -0.008242 0.000000 0.000000 0.000000
# 2 0.004503 0.017323 -0.004245 0.000000 0.000000 0.000000
# 3 -0.008242 -0.004245 0.012762 0.000000 0.000000 0.000000
# 4 0.000000 0.000000 0.000000 0.049064 0.000000 0.000000
# 5 0.000000 0.000000 0.000000 0.000000 0.061328 0.000000
# 6 0.000000 0.000000 0.000000 0.000000 0.000000 0.073987
#
#
# Mechanical properties :
#
#
# Convention : Reuss Voigt Hill
#
# Bulk Modulus (GPa) = 24.30138 32.70127 28.50133
# Shear Modulus (GPa) = 18.43776 21.47495 19.95636
#
# Velocity S-wave (km/s) = 3.21088 3.46526 3.34049
# Velocity P-wave (km/s) = 5.22827 5.85628 5.55116
#
# Compressibility (1/GPa) = 0.04114993
#
# Stress axis : x y z
#
# Youngs Moduli (GPa) = 36.99136 57.72684 78.35549
#
# Poissons Ratio (x) = -0.25995 0.64584
# Poissons Ratio (y) = -0.16658 0.33262
# Poissons Ratio (z) = 0.30490 0.24505
#
# Static dielectric constant tensor:
#      x y z
#    x 1.633080 0.000000 0.000000 
#    y 0.000000 1.624210 0.000000 
#    z 0.000000 0.000000 1.615710 
# 
# From -- ./inp_files/27388.got.cif
#   From: 2010.05.17/outbox.cif.g08.bks.cpg/sg58_14_cif.got.tgz:27388.got - 2010.06.03 14:20:14.
