data_PCOD9441046
_publ_section_title
;
Structure prediction by ZEFSAII (Michael W. Deem and Ramdas Pophale) SiO2 
 PCOD9441046
Probable space group: P N N M
;
_chemical_formula_sum "Si O2"
_cell_formula_units_Z 56
_cell_length_a 9.061073
_cell_length_b 15.744208
_cell_length_c 22.685744
_cell_angle_alpha 90.000000
_cell_angle_beta 90.000000
_cell_angle_gamma 90.000000
_cell_volume 3236.335036
_symmetry_space_group_name_H-M "P N N M"
_symmetry_group_IT_number 58
_symmetry_cell_setting 'orthorhombic'
loop_
_space_group_symop_operation_xyz
x,y,z
-x,-y,z
1/2+x,1/2-y,1/2-z
1/2-x,1/2+y,1/2-z
-x,-y,-z
x,y,-z
1/2-x,1/2+y,1/2+z
1/2+x,1/2-y,1/2+z
loop_
_atom_site_type_symbol
_atom_site_label
_atom_site_fract_x
_atom_site_fract_y
_atom_site_fract_z
Si Si1 0.310653 0.297322 0.204395
Si Si2 0.989746 0.338979 0.658474
Si Si3 0.340112 0.046689 0.934938
Si Si4 0.990624 0.234938 0.176050
Si Si5 0.167831 0.982114 0.264682
Si Si6 0.572506 0.909442 0.289817
Si Si7 0.191267 0.907162 0.134002
O O1 0.435548 0.257526 0.162825
O O2 0.382822 0.285955 0.268835
O O3 0.280988 0.397358 0.200530
O O4 0.161766 0.242571 0.195079
O O5 0.872564 0.386770 0.616887
O O6 0.984074 0.378402 0.724928
O O7 0.155337 0.353912 0.636388
O O8 0.500000 0.000000 0.937557
O O9 0.218116 0.977580 0.915920
O O10 0.309890 0.082053 0.000000
O O11 0.951183 0.333566 0.164206
O O12 0.944339 0.159534 0.131833
O O13 0.182903 0.959743 0.195364
O O14 0.258882 0.065273 0.280277
O O15 0.000000 0.000000 0.277823
O O16 0.500000 0.000000 0.303796
#
# Coordination Sequence:
#
# PCOD9441046 Si02
#       7
#     8   8   8   8   8   8   8
#     4  10  20  30  40  64  89 123 155 187 225 270
#     4  10  18  30  47  63  93 122 152 192 231 270
#     4   9  17  31  51  71  89 117 157 195 229 272
#     4  10  20  28  43  61  90 123 156 188 223 272
#     4  11  21  27  43  65  93 124 158 187 220 270
#     4  11  16  30  43  61  91 126 154 184 222 268
#     4  10  19  31  44  67  90 122 155 188 232 270
#
# _framework density 17.303522999999998
#
# number of rings (size 3 to 8) (size 9 to 14) (size 15 to 20)
#    0.000    1.857    4.286    3.000   10.000    0.000 
#    0.000    0.000    0.000    3.857    0.000    0.000 
#    0.000    2.286    0.000    0.143    0.000    0.000 
#
# Total GULP energy -311767.471753 kJ/mol
# GULP energy per Si atom -5567.276281 kJ/mol
# Density = 1.726414 g / cm^3
# Si number density = 17.303523 Si / 1000 Ang^3
#
#
#
# Elastic Constant Matrix: (Units=GPa)
#
#
# Indices 1 2 3 4 5 6 
#
# 1 66.0738 -6.2835 -2.6349 0.0000 0.0000 0.0000
# 2 -6.2835 46.0179 15.6296 0.0000 0.0000 0.0000
# 3 -2.6349 15.6296 28.9727 0.0000 0.0000 0.0000
# 4 0.0000 0.0000 0.0000 6.4289 0.0000 0.0000
# 5 0.0000 0.0000 0.0000 0.0000 7.6467 0.0000
# 6 0.0000 0.0000 0.0000 0.0000 0.0000 37.9468
#
#
#
# Elastic Compliance Matrix: (Units=1/GPa)
#
#
# Indices 1 2 3 4 5 6 
#
# 1 0.015336 0.001984 0.000325 0.000000 0.000000 0.000000
# 2 0.001984 0.026862 -0.014311 0.000000 0.000000 0.000000
# 3 0.000325 -0.014311 0.042265 0.000000 0.000000 0.000000
# 4 0.000000 0.000000 0.000000 0.155548 0.000000 0.000000
# 5 0.000000 0.000000 0.000000 0.000000 0.130776 0.000000
# 6 0.000000 0.000000 0.000000 0.000000 0.000000 0.026353
#
#
# Mechanical properties :
#
#
# Convention : Reuss Voigt Hill
#
# Bulk Modulus (GPa) = 16.54025 17.16521 16.85273
# Shear Modulus (GPa) = 11.33023 19.36134 15.34579
#
# Velocity S-wave (km/s) = 2.56167 3.34866 2.98125
# Velocity P-wave (km/s) = 4.28126 4.98929 4.64877
#
# Compressibility (1/GPa) = 0.06045858
#
# Stress axis : x y z
#
# Youngs Moduli (GPa) = 65.20527 37.22726 23.66034
#
# Poissons Ratio (x) = -0.07385 -0.00768
# Poissons Ratio (y) = -0.12936 0.33859
# Poissons Ratio (z) = -0.02116 0.53274
#
# Static dielectric constant tensor:
#      x y z
#    x 1.670220 0.000000 0.000000 
#    y 0.000000 1.662290 0.000000 
#    z 0.000000 0.000000 1.583490 
# 
# From -- ./inp_files/31664.got.cif
#   From: 2010.05.17/outbox.cif.g08.bks.cpg/sg58_16_cif.got.tgz:31664.got - 2010.06.03 14:20:14.
