data_PCOD9441432
_publ_section_title
;
Structure prediction by ZEFSAII (Michael W. Deem and Ramdas Pophale) SiO2 
 PCOD9441432
Probable space group: P N N M
;
_chemical_formula_sum "Si O2"
_cell_formula_units_Z 64
_cell_length_a 19.094946
_cell_length_b 20.330836
_cell_length_c 7.451118
_cell_angle_alpha 90.000000
_cell_angle_beta 90.000000
_cell_angle_gamma 90.000000
_cell_volume 2892.644832
_symmetry_space_group_name_H-M "P N N M"
_symmetry_group_IT_number 58
_symmetry_cell_setting 'orthorhombic'
loop_
_space_group_symop_operation_xyz
x,y,z
-x,-y,z
1/2+x,1/2-y,1/2-z
1/2-x,1/2+y,1/2-z
-x,-y,-z
x,y,-z
1/2-x,1/2+y,1/2+z
1/2+x,1/2-y,1/2+z
loop_
_atom_site_type_symbol
_atom_site_label
_atom_site_fract_x
_atom_site_fract_y
_atom_site_fract_z
Si Si1 0.297666 0.095751 0.214076
Si Si2 0.056716 0.549249 0.296074
Si Si3 0.958919 0.205620 0.283517
Si Si4 0.194906 0.744985 0.280950
Si Si5 0.538272 0.165782 0.290719
Si Si6 0.708095 0.524723 0.214601
Si Si7 0.051723 0.942347 0.719629
Si Si8 0.195879 0.356619 0.219458
O O1 0.367123 0.059319 0.287910
O O2 0.292443 0.170344 0.280366
O O3 0.231912 0.049089 0.245624
O O4 0.308324 0.101045 0.000000
O O5 0.067870 0.524682 0.500000
O O6 0.000000 0.500000 0.211754
O O7 0.020196 0.620463 0.300150
O O8 0.958146 0.205674 0.500000
O O9 0.881878 0.230115 0.224493
O O10 0.970299 0.130826 0.223892
O O11 0.016392 0.258476 0.226244
O O12 0.194989 0.745596 0.500000
O O13 0.255007 0.795794 0.225134
O O14 0.536507 0.147836 0.500000
O O15 0.615940 0.151029 0.220732
O O16 0.630968 0.543227 0.279643
O O17 0.766290 0.576532 0.279947
O O18 0.706060 0.532084 0.000000
O O19 0.051834 0.942509 0.500000
O O20 0.000000 0.000000 0.777869
O O21 0.194312 0.356524 0.000000
#
# Coordination Sequence:
#
# PCOD9441432 Si02
#       8
#     8   8   8   8   8   8   8   8
#     4  10  20  33  52  78 106 138 178 219 261 314
#     4  10  20  35  54  76 106 145 187 223 262 323
#     4  10  18  35  60  78 103 146 188 222 267 330
#     4   9  16  32  56  74  95 140 191 216 246 319
#     4  11  22  33  51  81 113 137 175 231 279 322
#     4  10  19  34  56  79 108 143 180 219 267 325
#     4   9  18  33  58  88 110 137 183 234 276 322
#     4   9  18  33  53  77 102 140 183 215 257 324
#
# _framework density 22.125078999999999
#
# number of rings (size 3 to 8) (size 9 to 14) (size 15 to 20)
#    0.000    2.250    2.500    1.125    0.000    1.750 
#    0.000    1.250    0.000    3.750    0.000    0.000 
#    0.000    0.000    0.000    0.000    0.000    0.000 
#
# Total GULP energy -357660.957952 kJ/mol
# GULP energy per Si atom -5588.452468 kJ/mol
# Density = 2.207472 g / cm^3
# Si number density = 22.125079 Si / 1000 Ang^3
#
#
#
# Elastic Constant Matrix: (Units=GPa)
#
#
# Indices 1 2 3 4 5 6 
#
# 1 86.8141 34.5647 -1.4803 0.0000 0.0000 0.0000
# 2 34.5647 145.0466 -5.9977 0.0000 0.0000 0.0000
# 3 -1.4803 -5.9977 68.3693 0.0000 0.0000 0.0000
# 4 0.0000 0.0000 0.0000 19.5049 0.0000 0.0000
# 5 0.0000 0.0000 0.0000 0.0000 -7.3980 0.0000
# 6 0.0000 0.0000 0.0000 0.0000 0.0000 45.7817
#
#
#
# Elastic Compliance Matrix: (Units=1/GPa)
#
#
# Indices 1 2 3 4 5 6 
#
# 1 0.012726 -0.003032 0.000010 0.000000 0.000000 0.000000
# 2 -0.003032 0.007642 0.000605 0.000000 0.000000 0.000000
# 3 0.000010 0.000605 0.014680 0.000000 0.000000 0.000000
# 4 0.000000 0.000000 0.000000 0.051269 0.000000 0.000000
# 5 0.000000 0.000000 0.000000 0.000000 -0.135172 0.000000
# 6 0.000000 0.000000 0.000000 0.000000 0.000000 0.021843
#
#
# Mechanical properties :
#
#
# Convention : Reuss Voigt Hill
#
# Bulk Modulus (GPa) = 33.09952 39.37816 36.23884
# Shear Modulus (GPa) = -413.04303 29.78730 -191.62787
#
# Velocity S-wave (km/s) = -13.67811 3.67320 -9.31661
# Velocity P-wave (km/s) = 15.31214 5.98552 9.96582
#
# Compressibility (1/GPa) = 0.03021192
#
# Stress axis : x y z
#
# Youngs Moduli (GPa) = 78.57727 130.85682 68.12131
#
# Poissons Ratio (x) = 0.39680 -0.00065
# Poissons Ratio (y) = 0.23827 -0.04120
# Poissons Ratio (z) = -0.00075 -0.07913
#
# Static dielectric constant tensor:
#      x y z
#    x 1.774050 0.000000 0.000000 
#    y 0.000000 1.787850 0.000000 
#    z 0.000000 0.000000 1.867070 
# 
# From -- ./inp_files/8290.got.cif
#   From: 2010.05.17/outbox.cif.g08.bks.cpg/sg58_5_cif.got.tgz:8290.got - 2010.06.03 14:20:14.
