data_PCOD9441906
_publ_section_title
;
Structure prediction by ZEFSAII (Michael W. Deem and Ramdas Pophale) SiO2 
 PCOD9441906
Probable space group: P N N M
;
_chemical_formula_sum "Si O2"
_cell_formula_units_Z 64
_cell_length_a 25.673306
_cell_length_b 14.545955
_cell_length_c 7.613852
_cell_angle_alpha 90.000000
_cell_angle_beta 90.000000
_cell_angle_gamma 90.000000
_cell_volume 2843.337858
_symmetry_space_group_name_H-M "P N N M"
_symmetry_group_IT_number 58
_symmetry_cell_setting 'orthorhombic'
loop_
_space_group_symop_operation_xyz
x,y,z
-x,-y,z
1/2+x,1/2-y,1/2-z
1/2-x,1/2+y,1/2-z
-x,-y,-z
x,y,-z
1/2-x,1/2+y,1/2+z
1/2+x,1/2-y,1/2+z
loop_
_atom_site_type_symbol
_atom_site_label
_atom_site_fract_x
_atom_site_fract_y
_atom_site_fract_z
Si Si1 0.222105 0.555064 0.207347
Si Si2 0.892756 0.459822 0.289580
Si Si3 0.666256 0.227242 0.201397
Si Si4 0.051043 0.720032 0.711475
Si Si5 0.665392 0.435825 0.701945
Si Si6 0.279074 0.268182 0.715032
Si Si7 0.622025 0.617495 0.290086
Si Si8 0.059119 0.355909 0.715291
O O1 0.166067 0.511346 0.243522
O O2 0.275904 0.522082 0.292306
O O3 0.215559 0.661473 0.266810
O O4 0.231058 0.553665 0.000000
O O5 0.894698 0.455991 0.500000
O O6 0.909301 0.359370 0.222021
O O7 0.933597 0.537743 0.233809
O O8 0.666339 0.338387 0.202405
O O9 0.722236 0.198968 0.278668
O O10 0.611976 0.193166 0.277920
O O11 0.666680 0.194394 0.000000
O O12 0.050725 0.715132 0.500000
O O13 0.071766 0.820606 0.757355
O O14 0.993643 0.692518 0.774872
O O15 0.652666 0.414862 0.500000
O O16 0.626734 0.513210 0.775331
O O17 0.278622 0.269810 0.500000
O O18 0.328239 0.325399 0.778433
O O19 0.628260 0.610181 0.500000
O O20 0.057852 0.352734 0.500000
#
# Coordination Sequence:
#
# PCOD9441906 Si02
#       8
#     8   8   8   8   8   8   8   8
#     4  10  19  33  53  78 111 144 176 214 262 323
#     4  10  19  32  54  82 112 143 177 219 268 318
#     4   9  18  35  57  77 104 144 182 221 267 319
#     4  10  20  35  55  83 112 139 181 231 266 309
#     4  10  21  35  55  80 109 141 180 227 274 321
#     4   8  15  29  50  73  99 134 173 209 252 315
#     4  10  20  35  55  78 107 146 182 215 268 330
#     4   9  19  35  57  80 107 146 185 219 270 329
#
# _framework density 22.508756000000002
#
# number of rings (size 3 to 8) (size 9 to 14) (size 15 to 20)
#    0.000    2.500    1.250    1.875    1.750    2.500 
#    0.000    2.500    0.000    5.250    0.000    0.000 
#    0.000    0.000    0.000    0.000    0.000    0.000 
#
# Total GULP energy -357344.058284 kJ/mol
# GULP energy per Si atom -5583.500911 kJ/mol
# Density = 2.245753 g / cm^3
# Si number density = 22.508756 Si / 1000 Ang^3
#
#
#
# Elastic Constant Matrix: (Units=GPa)
#
#
# Indices 1 2 3 4 5 6 
#
# 1 72.9835 1.2803 -5.4948 0.0000 0.0000 0.0000
# 2 1.2803 24.4398 -2.7880 0.0000 0.0000 0.0000
# 3 -5.4948 -2.7880 50.9338 0.0000 0.0000 0.0000
# 4 0.0000 0.0000 0.0000 6.4652 0.0000 0.0000
# 5 0.0000 0.0000 0.0000 0.0000 17.0945 0.0000
# 6 0.0000 0.0000 0.0000 0.0000 0.0000 35.3258
#
#
#
# Elastic Compliance Matrix: (Units=1/GPa)
#
#
# Indices 1 2 3 4 5 6 
#
# 1 0.013821 -0.000557 0.001461 0.000000 0.000000 0.000000
# 2 -0.000557 0.041196 0.002195 0.000000 0.000000 0.000000
# 3 0.001461 0.002195 0.019911 0.000000 0.000000 0.000000
# 4 0.000000 0.000000 0.000000 0.154675 0.000000 0.000000
# 5 0.000000 0.000000 0.000000 0.000000 0.058498 0.000000
# 6 0.000000 0.000000 0.000000 0.000000 0.000000 0.028308
#
#
# Mechanical properties :
#
#
# Convention : Reuss Voigt Hill
#
# Bulk Modulus (GPa) = 12.32667 14.92801 13.62734
# Shear Modulus (GPa) = 14.82552 22.13439 18.47995
#
# Velocity S-wave (km/s) = 2.56921 3.13927 2.86844
# Velocity P-wave (km/s) = 3.78013 4.44820 4.12771
#
# Compressibility (1/GPa) = 0.08112491
#
# Stress axis : x y z
#
# Youngs Moduli (GPa) = 72.35119 24.27393 50.22336
#
# Poissons Ratio (x) = 0.01353 -0.07335
# Poissons Ratio (y) = 0.04033 -0.11023
# Poissons Ratio (z) = -0.10567 -0.05328
#
# Static dielectric constant tensor:
#      x y z
#    x 1.842510 0.000000 0.000000 
#    y 0.000000 1.860180 0.000000 
#    z 0.000000 0.000000 1.845990 
# 
# From -- ./inp_files/10014.got.cif
#   From: 2010.05.17/outbox.cif.g08.bks.cpg/sg58_6_cif.got.tgz:10014.got - 2010.06.03 14:20:14.
