data_PCOD9441727
_publ_section_title
;
Structure prediction by ZEFSAII (Michael W. Deem and Ramdas Pophale) SiO2 
 PCOD9441727
Probable space group: P N N M
;
_chemical_formula_sum "Si O2"
_cell_formula_units_Z 48
_cell_length_a 12.305211
_cell_length_b 12.779857
_cell_length_c 13.870347
_cell_angle_alpha 90.000000
_cell_angle_beta 90.000000
_cell_angle_gamma 90.000000
_cell_volume 2181.234637
_symmetry_space_group_name_H-M "P N N M"
_symmetry_group_IT_number 58
_symmetry_cell_setting 'orthorhombic'
loop_
_space_group_symop_operation_xyz
x,y,z
-x,-y,z
1/2+x,1/2-y,1/2-z
1/2-x,1/2+y,1/2-z
-x,-y,-z
x,y,-z
1/2-x,1/2+y,1/2+z
1/2+x,1/2-y,1/2+z
loop_
_atom_site_type_symbol
_atom_site_label
_atom_site_fract_x
_atom_site_fract_y
_atom_site_fract_z
Si Si1 0.393063 0.127186 0.264396
Si Si2 0.003647 0.750195 0.393179
Si Si3 0.350280 0.615544 0.778057
Si Si4 0.459752 0.752790 0.386425
Si Si5 0.643553 0.042626 0.896978
Si Si6 0.893873 0.061941 0.141285
O O1 0.407986 0.220601 0.186360
O O2 0.273519 0.129624 0.309992
O O3 0.494303 0.141062 0.337417
O O4 0.387853 0.027030 0.194007
O O5 0.047361 0.762173 0.500000
O O6 0.934605 0.848036 0.357571
O O7 0.917681 0.653073 0.391252
O O8 0.373962 0.692243 0.683913
O O9 0.375909 0.498130 0.742749
O O10 0.430746 0.759409 0.500000
O O11 0.565977 0.678998 0.373333
O O12 0.773240 0.053442 0.898908
O O13 0.614339 0.991115 0.000000
O O14 0.000000 0.000000 0.101134
#
# Coordination Sequence:
#
# PCOD9441727 Si02
#       6
#     8   8   8   8   8   8
#     4  10  20  33  50  77 108 135 168 213 259 303
#     4  10  20  35  55  78 104 136 173 212 255 305
#     4   9  20  33  50  78 107 133 166 212 260 303
#     4  10  20  34  53  76 102 134 172 212 254 302
#     4  10  19  31  52  79 103 132 171 212 255 303
#     4   9  18  31  50  76 104 130 165 211 256 300
#
# _framework density 22.005887000000001
#
# number of rings (size 3 to 8) (size 9 to 14) (size 15 to 20)
#    0.000    2.333    0.000    2.500    0.000   13.333 
#    0.000    0.000    0.000   21.500    0.000   21.000 
#    0.000    0.000    0.000    0.000    0.000    0.000 
#
# Total GULP energy -267423.661477 kJ/mol
# GULP energy per Si atom -5571.326281 kJ/mol
# Density = 2.195580 g / cm^3
# Si number density = 22.005887 Si / 1000 Ang^3
#
#
#
# Elastic Constant Matrix: (Units=GPa)
#
#
# Indices 1 2 3 4 5 6 
#
# 1 85.5482 -14.5456 -26.8838 0.0000 0.0000 0.0000
# 2 -14.5456 40.2949 1.7952 0.0000 0.0000 0.0000
# 3 -26.8838 1.7952 70.1970 0.0000 0.0000 0.0000
# 4 0.0000 0.0000 0.0000 10.4133 0.0000 0.0000
# 5 0.0000 0.0000 0.0000 0.0000 4.7320 0.0000
# 6 0.0000 0.0000 0.0000 0.0000 0.0000 22.8249
#
#
#
# Elastic Compliance Matrix: (Units=1/GPa)
#
#
# Indices 1 2 3 4 5 6 
#
# 1 0.014188 0.004885 0.005309 0.000000 0.000000 0.000000
# 2 0.004885 0.026527 0.001193 0.000000 0.000000 0.000000
# 3 0.005309 0.001193 0.016248 0.000000 0.000000 0.000000
# 4 0.000000 0.000000 0.000000 0.096031 0.000000 0.000000
# 5 0.000000 0.000000 0.000000 0.000000 0.211329 0.000000
# 6 0.000000 0.000000 0.000000 0.000000 0.000000 0.043812
#
#
# Mechanical properties :
#
#
# Convention : Reuss Voigt Hill
#
# Bulk Modulus (GPa) = 12.54125 12.97462 12.75793
# Shear Modulus (GPa) = 12.13764 23.30565 17.72164
#
# Velocity S-wave (km/s) = 2.35109 3.25786 2.84088
# Velocity P-wave (km/s) = 3.61684 4.47887 4.07074
#
# Compressibility (1/GPa) = 0.07973689
#
# Stress axis : x y z
#
# Youngs Moduli (GPa) = 70.48089 37.69693 61.54495
#
# Poissons Ratio (x) = -0.18416 -0.32673
# Poissons Ratio (y) = -0.34431 -0.07339
# Poissons Ratio (z) = -0.37417 -0.04495
#
# Static dielectric constant tensor:
#      x y z
#    x 1.795150 0.000000 0.000000 
#    y 0.000000 1.897340 0.000000 
#    z 0.000000 0.000000 1.849580 
# 
# From -- ./inp_files/15563.got.cif
#   From: 2010.05.17/outbox.cif.g08.bks.cpg/sg58_8_cif.got.tgz:15563.got - 2010.06.03 14:20:14.
