data_PCOD9441118
_publ_section_title
;
Structure prediction by ZEFSAII (Michael W. Deem and Ramdas Pophale) SiO2 
 PCOD9441118
Probable space group: P N N M
;
_chemical_formula_sum "Si O2"
_cell_formula_units_Z 48
_cell_length_a 7.388759
_cell_length_b 20.729241
_cell_length_c 19.040218
_cell_angle_alpha 90.000000
_cell_angle_beta 90.000000
_cell_angle_gamma 90.000000
_cell_volume 2916.263878
_symmetry_space_group_name_H-M "P N N M"
_symmetry_group_IT_number 58
_symmetry_cell_setting 'orthorhombic'
loop_
_space_group_symop_operation_xyz
x,y,z
-x,-y,z
1/2+x,1/2-y,1/2-z
1/2-x,1/2+y,1/2-z
-x,-y,-z
x,y,-z
1/2-x,1/2+y,1/2+z
1/2+x,1/2-y,1/2+z
loop_
_atom_site_type_symbol
_atom_site_label
_atom_site_fract_x
_atom_site_fract_y
_atom_site_fract_z
Si Si1 0.306168 0.755091 0.500000
Si Si2 0.625035 0.248689 0.344483
Si Si3 0.097380 0.865262 0.652753
Si Si4 0.076446 0.623794 0.000000
Si Si5 0.994276 0.147045 0.500000
Si Si6 0.376070 0.056072 0.357229
Si Si7 0.500000 0.500000 0.161256
Si Si8 0.767586 0.313801 0.792634
O O1 0.344754 0.725204 0.423498
O O2 0.443659 0.815897 0.500000
O O3 0.101135 0.782588 0.500000
O O4 0.728193 0.179300 0.338014
O O5 0.716844 0.293339 0.285787
O O6 0.415224 0.234676 0.325851
O O7 0.081715 0.884470 0.570884
O O8 0.072664 0.932140 0.695613
O O9 0.923827 0.819453 0.666902
O O10 0.045531 0.583678 0.070498
O O11 0.288176 0.645663 0.000000
O O12 0.180869 0.025928 0.375049
O O13 0.347918 0.114750 0.303748
O O14 0.500000 0.000000 0.328126
#
# Coordination Sequence:
#
# PCOD9441118 Si02
#       8
#     4   8   8   4   4   8   4   8
#     4  10  22  33  53  73 105 137 173 216 256 310
#     4  11  20  35  53  73 100 134 175 217 261 305
#     4  10  20  32  48  71  98 138 167 213 244 295
#     4  12  19  32  48  70 106 147 177 202 248 302
#     4  10  18  31  47  67 100 133 176 199 242 285
#     4  11  23  33  47  73 105 142 177 213 252 307
#     4  10  20  31  46  66 100 133 176 204 240 291
#     4  11  20  33  54  72  97 136 176 214 263 297
#
# _framework density 16.459415
#
# number of rings (size 3 to 8) (size 9 to 14) (size 15 to 20)
#    0.000    1.333    6.667    1.250    2.333    1.333 
#    0.000    0.000    0.000    0.000    0.000    0.583 
#    0.000   10.667    0.000    0.000    0.000    0.667 
#
# Total GULP energy -267212.191474 kJ/mol
# GULP energy per Si atom -5566.920656 kJ/mol
# Density = 1.642195 g / cm^3
# Si number density = 16.459415 Si / 1000 Ang^3
#
#
#
# Elastic Constant Matrix: (Units=GPa)
#
#
# Indices 1 2 3 4 5 6 
#
# 1 72.1493 14.0654 20.0082 0.0000 0.0000 0.0000
# 2 14.0654 51.4539 39.0205 0.0000 0.0000 0.0000
# 3 20.0082 39.0205 96.5660 0.0000 0.0000 0.0000
# 4 0.0000 0.0000 0.0000 10.1741 0.0000 0.0000
# 5 0.0000 0.0000 0.0000 0.0000 18.2642 0.0000
# 6 0.0000 0.0000 0.0000 0.0000 0.0000 28.6597
#
#
#
# Elastic Compliance Matrix: (Units=1/GPa)
#
#
# Indices 1 2 3 4 5 6 
#
# 1 0.014925 -0.002501 -0.002082 0.000000 0.000000 0.000000
# 2 -0.002501 0.028441 -0.010974 0.000000 0.000000 0.000000
# 3 -0.002082 -0.010974 0.015221 0.000000 0.000000 0.000000
# 4 0.000000 0.000000 0.000000 0.098289 0.000000 0.000000
# 5 0.000000 0.000000 0.000000 0.000000 0.054752 0.000000
# 6 0.000000 0.000000 0.000000 0.000000 0.000000 0.034892
#
#
# Mechanical properties :
#
#
# Convention : Reuss Voigt Hill
#
# Bulk Modulus (GPa) = 36.39921 40.70640 38.55281
# Shear Modulus (GPa) = 17.43420 21.22460 19.32940
#
# Velocity S-wave (km/s) = 3.25810 3.59487 3.43062
# Velocity P-wave (km/s) = 6.02629 6.48197 6.25828
#
# Compressibility (1/GPa) = 0.02747312
#
# Stress axis : x y z
#
# Youngs Moduli (GPa) = 67.00142 35.16049 65.69688
#
# Poissons Ratio (x) = 0.08794 0.13676
# Poissons Ratio (y) = 0.16758 0.72097
# Poissons Ratio (z) = 0.13948 0.38586
#
# Static dielectric constant tensor:
#      x y z
#    x 1.623460 0.000000 0.000000 
#    y 0.000000 1.588070 0.000000 
#    z 0.000000 0.000000 1.568490 
# 
# From -- ./inp_files/25586.got.cif
#   From: 2010.05.17/outbox.cif.g08.bks.cpg/sg58_13_cif.got.tgz:25586.got - 2010.06.03 14:20:14.
