data_PCOD9441930
_publ_section_title
;
Structure prediction by ZEFSAII (Michael W. Deem and Ramdas Pophale) SiO2 
 PCOD9441930
Probable space group: P N N M
;
_chemical_formula_sum "Si O2"
_cell_formula_units_Z 56
_cell_length_a 13.747913
_cell_length_b 22.912310
_cell_length_c 8.457367
_cell_angle_alpha 90.000000
_cell_angle_beta 90.000000
_cell_angle_gamma 90.000000
_cell_volume 2664.040535
_symmetry_space_group_name_H-M "P N N M"
_symmetry_group_IT_number 58
_symmetry_cell_setting 'orthorhombic'
loop_
_space_group_symop_operation_xyz
x,y,z
-x,-y,z
1/2+x,1/2-y,1/2-z
1/2-x,1/2+y,1/2-z
-x,-y,-z
x,y,-z
1/2-x,1/2+y,1/2+z
1/2+x,1/2-y,1/2+z
loop_
_atom_site_type_symbol
_atom_site_label
_atom_site_fract_x
_atom_site_fract_y
_atom_site_fract_z
Si Si1 0.422211 0.377239 0.819058
Si Si2 0.148508 0.288584 0.320816
Si Si3 0.890376 0.477150 0.181095
Si Si4 0.217090 0.411283 0.311332
Si Si5 0.121383 0.759950 0.176440
Si Si6 0.335319 0.143168 0.816639
Si Si7 0.880207 0.836947 0.693030
O O1 0.331671 0.403133 0.724530
O O2 0.408402 0.307277 0.805401
O O3 0.533386 0.381252 0.760688
O O4 0.415484 0.396758 0.000000
O O5 0.109369 0.295085 0.500000
O O6 0.158187 0.353545 0.249924
O O7 0.261513 0.268643 0.332196
O O8 0.102033 0.230188 0.247507
O O9 0.822231 0.530098 0.234947
O O10 0.878078 0.420340 0.287455
O O11 0.000000 0.500000 0.189530
O O12 0.867767 0.460650 0.000000
O O13 0.204097 0.412551 0.500000
O O14 0.584454 0.726370 0.500000
O O15 0.105581 0.693314 0.224350
O O16 0.224381 0.143295 0.754252
O O17 0.335176 0.158914 0.000000
O O18 0.878624 0.834602 0.500000
#
# Coordination Sequence:
#
# PCOD9441930 Si02
#       7
#     8   8   8   8   8   8   8
#     4  10  19  32  55  88 122 155 191 230 277 336
#     4   7  13  28  50  75 105 143 180 216 263 314
#     4  11  25  44  63  82 107 142 186 236 288 342
#     4  10  20  36  58  83 115 152 189 234 284 334
#     4   9  17  32  53  78 113 151 185 226 275 326
#     4  11  22  37  59  85 114 148 189 237 285 338
#     4   9  18  34  56  84 120 157 189 225 276 337
#
# _framework density 21.020700999999999
#
# number of rings (size 3 to 8) (size 9 to 14) (size 15 to 20)
#    0.000    2.429    0.000    4.714    0.000    3.429 
#    0.000    2.857    0.000    4.286    0.000    0.000 
#    0.000    0.000    0.000    0.000    0.000    0.000 
#
# Total GULP energy -312298.343434 kJ/mol
# GULP energy per Si atom -5576.756133 kJ/mol
# Density = 2.097286 g / cm^3
# Si number density = 21.020701 Si / 1000 Ang^3
#
#
#
# Elastic Constant Matrix: (Units=GPa)
#
#
# Indices 1 2 3 4 5 6 
#
# 1 27.3584 -17.0125 2.9147 0.0000 0.0000 0.0000
# 2 -17.0125 51.1633 -7.3560 0.0000 0.0000 0.0000
# 3 2.9147 -7.3560 41.3014 0.0000 0.0000 0.0000
# 4 0.0000 0.0000 0.0000 25.1490 0.0000 0.0000
# 5 0.0000 0.0000 0.0000 0.0000 12.6087 0.0000
# 6 0.0000 0.0000 0.0000 0.0000 0.0000 21.8486
#
#
#
# Elastic Compliance Matrix: (Units=1/GPa)
#
#
# Indices 1 2 3 4 5 6 
#
# 1 0.046091 0.015249 -0.000537 0.000000 0.000000 0.000000
# 2 0.015249 0.025104 0.003395 0.000000 0.000000 0.000000
# 3 -0.000537 0.003395 0.024855 0.000000 0.000000 0.000000
# 4 0.000000 0.000000 0.000000 0.039763 0.000000 0.000000
# 5 0.000000 0.000000 0.000000 0.000000 0.079310 0.000000
# 6 0.000000 0.000000 0.000000 0.000000 0.000000 0.045770
#
#
# Mechanical properties :
#
#
# Convention : Reuss Voigt Hill
#
# Bulk Modulus (GPa) = 7.56066 8.54618 8.05342
# Shear Modulus (GPa) = 18.60348 21.33971 19.97160
#
# Velocity S-wave (km/s) = 2.97814 3.18964 3.08570
# Velocity P-wave (km/s) = 3.92814 4.19994 4.06631
#
# Compressibility (1/GPa) = 0.13226362
#
# Stress axis : x y z
#
# Youngs Moduli (GPa) = 21.69610 39.83466 40.23367
#
# Poissons Ratio (x) = -0.60743 0.02160
# Poissons Ratio (y) = -0.33084 -0.13659
# Poissons Ratio (z) = 0.01165 -0.13524
#
# Static dielectric constant tensor:
#      x y z
#    x 1.821670 0.000000 0.000000 
#    y 0.000000 1.747200 0.000000 
#    z 0.000000 0.000000 1.734700 
# 
# From -- ./inp_files/6370.got.cif
#   From: 2010.05.17/outbox.cif.g08.bks.cpg/sg58_4_cif.got.tgz:6370.got - 2010.06.03 14:20:14.
