data_PCOD9441205
_publ_section_title
;
Structure prediction by ZEFSAII (Michael W. Deem and Ramdas Pophale) SiO2 
 PCOD9441205
Probable space group: P N N M
;
_chemical_formula_sum "Si O2"
_cell_formula_units_Z 48
_cell_length_a 10.319435
_cell_length_b 26.710111
_cell_length_c 10.478571
_cell_angle_alpha 90.000000
_cell_angle_beta 90.000000
_cell_angle_gamma 90.000000
_cell_volume 2888.242625
_symmetry_space_group_name_H-M "P N N M"
_symmetry_group_IT_number 58
_symmetry_cell_setting 'orthorhombic'
loop_
_space_group_symop_operation_xyz
x,y,z
-x,-y,z
1/2+x,1/2-y,1/2-z
1/2-x,1/2+y,1/2-z
-x,-y,-z
x,y,-z
1/2-x,1/2+y,1/2+z
1/2+x,1/2-y,1/2+z
loop_
_atom_site_type_symbol
_atom_site_label
_atom_site_fract_x
_atom_site_fract_y
_atom_site_fract_z
Si Si1 0.121283 0.535978 0.652823
Si Si2 0.790108 0.206824 0.000000
Si Si3 0.483565 0.199725 0.500000
Si Si4 0.016918 0.710484 0.500000
Si Si5 0.130178 0.969605 0.847493
Si Si6 0.216290 0.865104 0.758885
Si Si7 0.210958 0.803767 0.500000
Si Si8 0.521448 0.861522 0.241038
O O1 0.120486 0.545883 0.500000
O O2 0.249735 0.505394 0.685240
O O3 0.000000 0.500000 0.680549
O O4 0.105168 0.588719 0.722705
O O5 0.888847 0.252874 0.000000
O O6 0.637666 0.222778 0.000000
O O7 0.811700 0.172652 0.875256
O O8 0.637422 0.213507 0.500000
O O9 0.458998 0.166763 0.373982
O O10 0.043558 0.676846 0.375208
O O11 0.110149 0.758237 0.500000
O O12 0.140698 0.916778 0.776846
O O13 0.138511 0.959097 0.000000
O O14 0.000000 0.000000 0.822493
O O15 0.191995 0.837225 0.626081
O O16 0.369952 0.877003 0.767134
#
# Coordination Sequence:
#
# PCOD9441205 Si02
#       8
#     8   4   4   4   8   8   4   8
#     4  10  18  31  58  82 103 134 180 220 254 309
#     4  10  20  36  60  78 102 145 180 221 263 310
#     4  10  22  38  52  77 116 139 172 222 271 316
#     4  10  20  36  58  79 104 137 190 220 253 316
#     4  10  20  35  54  83 112 135 176 223 265 317
#     4  10  19  36  58  78 108 145 175 211 273 320
#     4  10  22  38  54  78 110 143 176 221 263 318
#     4  10  19  35  57  82 105 140 179 220 263 313
#
# _framework density 16.619102999999999
#
# number of rings (size 3 to 8) (size 9 to 14) (size 15 to 20)
#    0.000    2.000    3.333    1.000    0.000    0.000 
#    6.000    1.667    0.000    0.000    0.000    0.000 
#    0.000    0.000    0.000    0.000    0.000    0.000 
#
# Total GULP energy -267848.111258 kJ/mol
# GULP energy per Si atom -5580.168985 kJ/mol
# Density = 1.658128 g / cm^3
# Si number density = 16.619103 Si / 1000 Ang^3
#
#
#
# Elastic Constant Matrix: (Units=GPa)
#
#
# Indices 1 2 3 4 5 6 
#
# 1 94.1226 80.0651 44.2396 0.0000 0.0000 0.0000
# 2 80.0651 144.8557 66.0258 0.0000 0.0000 0.0000
# 3 44.2396 66.0258 116.8252 0.0000 0.0000 0.0000
# 4 0.0000 0.0000 0.0000 -10.8461 0.0000 0.0000
# 5 0.0000 0.0000 0.0000 0.0000 7.9849 0.0000
# 6 0.0000 0.0000 0.0000 0.0000 0.0000 20.0091
#
#
#
# Elastic Compliance Matrix: (Units=1/GPa)
#
#
# Indices 1 2 3 4 5 6 
#
# 1 0.020335 -0.010412 -0.001816 0.000000 0.000000 0.000000
# 2 -0.010412 0.014630 -0.004326 0.000000 0.000000 0.000000
# 3 -0.001816 -0.004326 0.011692 0.000000 0.000000 0.000000
# 4 0.000000 0.000000 0.000000 -0.092199 0.000000 0.000000
# 5 0.000000 0.000000 0.000000 0.000000 0.125236 0.000000
# 6 0.000000 0.000000 0.000000 0.000000 0.000000 0.049977
#
#
# Mechanical properties :
#
#
# Convention : Reuss Voigt Hill
#
# Bulk Modulus (GPa) = 73.80031 81.82940 77.81485
# Shear Modulus (GPa) = 29.88738 14.46110 22.17424
#
# Velocity S-wave (km/s) = 4.24533 2.95303 3.65672
# Velocity P-wave (km/s) = 8.27851 7.80847 8.04692
#
# Compressibility (1/GPa) = 0.01355008
#
# Stress axis : x y z
#
# Youngs Moduli (GPa) = 49.17699 68.35339 85.52727
#
# Poissons Ratio (x) = 0.71168 0.15532
# Poissons Ratio (y) = 0.51202 0.36996
# Poissons Ratio (z) = 0.08931 0.29567
#
# Static dielectric constant tensor:
#      x y z
#    x 1.552670 0.000000 0.000000 
#    y 0.000000 1.527580 0.000000 
#    z 0.000000 0.000000 1.546230 
# 
# From -- ./inp_files/14544.got.cif
#   From: 2010.05.17/outbox.cif.g08.bks.cpg/sg58_8_cif.got.tgz:14544.got - 2010.06.03 14:20:14.
