data_PCOD9441662
_publ_section_title
;
Structure prediction by ZEFSAII (Michael W. Deem and Ramdas Pophale) SiO2 
 PCOD9441662
Probable space group: P N N M
;
_chemical_formula_sum "Si O2"
_cell_formula_units_Z 32
_cell_length_a 5.022571
_cell_length_b 18.348373
_cell_length_c 14.362359
_cell_angle_alpha 90.000000
_cell_angle_beta 90.000000
_cell_angle_gamma 90.000000
_cell_volume 1323.577644
_symmetry_space_group_name_H-M "P N N M"
_symmetry_group_IT_number 58
_symmetry_cell_setting 'orthorhombic'
loop_
_space_group_symop_operation_xyz
x,y,z
-x,-y,z
1/2+x,1/2-y,1/2-z
1/2-x,1/2+y,1/2-z
-x,-y,-z
x,y,-z
1/2-x,1/2+y,1/2+z
1/2+x,1/2-y,1/2+z
loop_
_atom_site_type_symbol
_atom_site_label
_atom_site_fract_x
_atom_site_fract_y
_atom_site_fract_z
Si Si1 0.024001 0.721995 0.867433
Si Si2 0.513875 0.803992 0.145273
Si Si3 0.738615 0.548959 0.307182
Si Si4 0.790607 0.567179 0.900880
O O1 0.809883 0.785838 0.889171
O O2 0.031009 0.711121 0.755773
O O3 0.940288 0.643856 0.902671
O O4 0.315985 0.744864 0.896647
O O5 0.355208 0.880446 0.139533
O O6 0.500000 0.500000 0.348524
O O7 0.647638 0.568887 0.200581
O O8 0.000000 0.500000 0.297957
O O9 0.000000 0.500000 0.899582
O O10 0.639723 0.564063 0.000000
#
# Coordination Sequence:
#
# PCOD9441662 Si02
#       4
#     8   8   8   8
#     4   9  17  30  47  65  91 128 164 200 239 278
#     4   9  17  30  47  67  91 121 160 204 246 283
#     4  10  19  31  49  73 100 128 159 199 246 294
#     4   9  19  33  48  70 103 140 171 196 230 285
#
# _framework density 24.176894000000001
#
# number of rings (size 3 to 8) (size 9 to 14) (size 15 to 20)
#    0.000    2.750    0.000    1.500    0.000   12.500 
#    0.000    6.250    0.000    0.000    0.000    0.000 
#    0.000   20.000    0.000    7.500    0.000    9.000 
#
# Total GULP energy -178414.301851 kJ/mol
# GULP energy per Si atom -5575.446933 kJ/mol
# Density = 2.412187 g / cm^3
# Si number density = 24.176894 Si / 1000 Ang^3
#
#
#
# Elastic Constant Matrix: (Units=GPa)
#
#
# Indices 1 2 3 4 5 6 
#
# 1 78.7122 -3.5856 -5.6082 0.0000 0.0000 0.0000
# 2 -3.5856 84.1874 11.3447 0.0000 0.0000 0.0000
# 3 -5.6082 11.3447 61.6604 0.0000 0.0000 0.0000
# 4 0.0000 0.0000 0.0000 -23.2966 0.0000 0.0000
# 5 0.0000 0.0000 0.0000 0.0000 -9.6293 0.0000
# 6 0.0000 0.0000 0.0000 0.0000 0.0000 45.6291
#
#
#
# Elastic Compliance Matrix: (Units=1/GPa)
#
#
# Indices 1 2 3 4 5 6 
#
# 1 0.012800 0.000398 0.001091 0.000000 0.000000 0.000000
# 2 0.000398 0.012193 -0.002207 0.000000 0.000000 0.000000
# 3 0.001091 -0.002207 0.016723 0.000000 0.000000 0.000000
# 4 0.000000 0.000000 0.000000 -0.042925 0.000000 0.000000
# 5 0.000000 0.000000 0.000000 0.000000 -0.103849 0.000000
# 6 0.000000 0.000000 0.000000 0.000000 0.000000 0.021916
#
#
# Mechanical properties :
#
#
# Convention : Reuss Voigt Hill
#
# Bulk Modulus (GPa) = 24.82603 25.42910 25.12757
# Shear Modulus (GPa) = -73.22861 17.36790 -27.93035
#
# Velocity S-wave (km/s) = -5.50949 2.68315 -3.40258
# Velocity P-wave (km/s) = 5.49379 4.48774 2.24076
#
# Compressibility (1/GPa) = 0.04028030
#
# Stress axis : x y z
#
# Youngs Moduli (GPa) = 78.12272 82.01672 59.79733
#
# Poissons Ratio (x) = -0.03266 -0.06524
# Poissons Ratio (y) = -0.03111 0.13198
# Poissons Ratio (z) = -0.08523 0.18102
#
# Static dielectric constant tensor:
#      x y z
#    x 1.894860 0.000000 0.000000 
#    y 0.000000 1.937470 0.000000 
#    z 0.000000 0.000000 2.013570 
# 
# From -- ./inp_files/18279.got.cif
#   From: 2010.05.17/outbox.cif.g08.bks.cpg/sg58_10_cif.got.tgz:18279.got - 2010.06.03 14:20:14.
