data_PCOD9441321
_publ_section_title
;
Structure prediction by ZEFSAII (Michael W. Deem and Ramdas Pophale) SiO2 
 PCOD9441321
Probable space group: P N N M
;
_chemical_formula_sum "Si O2"
_cell_formula_units_Z 64
_cell_length_a 12.733504
_cell_length_b 29.555183
_cell_length_c 7.800453
_cell_angle_alpha 90.000000
_cell_angle_beta 90.000000
_cell_angle_gamma 90.000000
_cell_volume 2935.630602
_symmetry_space_group_name_H-M "P N N M"
_symmetry_group_IT_number 58
_symmetry_cell_setting 'orthorhombic'
loop_
_space_group_symop_operation_xyz
x,y,z
-x,-y,z
1/2+x,1/2-y,1/2-z
1/2-x,1/2+y,1/2-z
-x,-y,-z
x,y,-z
1/2-x,1/2+y,1/2+z
1/2+x,1/2-y,1/2+z
loop_
_atom_site_type_symbol
_atom_site_label
_atom_site_fract_x
_atom_site_fract_y
_atom_site_fract_z
Si Si1 0.119014 0.187007 0.791543
Si Si2 0.661060 0.121983 0.289609
Si Si3 0.448517 0.785447 0.291808
Si Si4 0.147444 0.932070 0.697777
Si Si5 0.353951 0.161330 0.200079
Si Si6 0.744817 0.976969 0.797864
Si Si7 0.459674 0.070567 0.694310
Si Si8 0.575888 0.409984 0.299050
O O1 0.083367 0.235942 0.728876
O O2 0.239938 0.177720 0.748116
O O3 0.061981 0.141139 0.730818
O O4 0.110554 0.189593 0.000000
O O5 0.659383 0.120185 0.500000
O O6 0.626437 0.172513 0.239619
O O7 0.775871 0.106847 0.230739
O O8 0.571961 0.085933 0.229243
O O9 0.450093 0.785639 0.500000
O O10 0.562623 0.799081 0.225195
O O11 0.125995 0.922167 0.500000
O O12 0.033530 0.936093 0.781226
O O13 0.215849 0.977408 0.710997
O O14 0.396837 0.118232 0.301298
O O15 0.349779 0.147437 0.000000
O O16 0.622772 0.964434 0.773801
O O17 0.823233 0.937275 0.730747
O O18 0.763940 0.982321 0.000000
O O19 0.478263 0.055970 0.500000
O O20 0.598803 0.404561 0.500000
#
# Coordination Sequence:
#
# PCOD9441321 Si02
#       8
#     8   8   8   8   8   8   8   8
#     4   9  18  34  57  80 107 146 185 222 278 344
#     4   8  18  36  55  78 112 149 181 226 285 332
#     4   9  18  35  57  80 107 147 189 225 275 337
#     4  11  23  38  56  81 114 150 190 234 279 336
#     4  10  18  33  54  80 111 146 182 228 283 332
#     4  11  22  38  59  83 113 148 187 233 288 342
#     4  10  19  35  60  84 108 144 188 232 277 333
#     4  10  21  39  57  78 111 150 185 228 288 342
#
# _framework density 21.801106000000001
#
# number of rings (size 3 to 8) (size 9 to 14) (size 15 to 20)
#    0.000    2.250    1.250    2.625    0.000    4.000 
#    0.000   11.875    0.000    0.000    0.000    0.000 
#    0.000    0.000    0.000    0.000    0.000    0.000 
#
# Total GULP energy -357222.013947 kJ/mol
# GULP energy per Si atom -5581.593968 kJ/mol
# Density = 2.175149 g / cm^3
# Si number density = 21.801106 Si / 1000 Ang^3
#
#
#
# Elastic Constant Matrix: (Units=GPa)
#
#
# Indices 1 2 3 4 5 6 
#
# 1 39.0003 -3.6734 0.0451 0.0000 0.0000 0.0000
# 2 -3.6734 67.6787 0.2529 0.0000 0.0000 0.0000
# 3 0.0451 0.2529 31.2865 0.0000 0.0000 0.0000
# 4 0.0000 0.0000 0.0000 16.4456 0.0000 0.0000
# 5 0.0000 0.0000 0.0000 0.0000 21.1882 0.0000
# 6 0.0000 0.0000 0.0000 0.0000 0.0000 28.4174
#
#
#
# Elastic Compliance Matrix: (Units=1/GPa)
#
#
# Indices 1 2 3 4 5 6 
#
# 1 0.025773 0.001399 -0.000048 0.000000 0.000000 0.000000
# 2 0.001399 0.014852 -0.000122 0.000000 0.000000 0.000000
# 3 -0.000048 -0.000122 0.031964 0.000000 0.000000 0.000000
# 4 0.000000 0.000000 0.000000 0.060807 0.000000 0.000000
# 5 0.000000 0.000000 0.000000 0.000000 0.047196 0.000000
# 6 0.000000 0.000000 0.000000 0.000000 0.000000 0.035190
#
#
# Mechanical properties :
#
#
# Convention : Reuss Voigt Hill
#
# Bulk Modulus (GPa) = 13.32526 14.57943 13.95235
# Shear Modulus (GPa) = 20.97853 22.63297 21.80575
#
# Velocity S-wave (km/s) = 3.10541 3.22554 3.16605
# Velocity P-wave (km/s) = 4.35701 4.53587 4.44734
#
# Compressibility (1/GPa) = 0.07504541
#
# Stress axis : x y z
#
# Youngs Moduli (GPa) = 38.80083 67.33060 31.28551
#
# Poissons Ratio (x) = -0.09420 0.00152
# Poissons Ratio (y) = -0.05428 0.00382
# Poissons Ratio (z) = 0.00188 0.00822
#
# Static dielectric constant tensor:
#      x y z
#    x 1.771560 0.000000 0.000000 
#    y 0.000000 1.812550 0.000000 
#    z 0.000000 0.000000 1.793300 
# 
# From -- ./inp_files/4664.got.cif
#   From: 2010.05.17/outbox.cif.g08.bks.cpg/sg58_3_cif.got.tgz:4664.got - 2010.06.03 14:20:14.
