data_PCOD9441449
_publ_section_title
;
Structure prediction by ZEFSAII (Michael W. Deem and Ramdas Pophale) SiO2 
 PCOD9441449
Probable space group: P N N M
;
_chemical_formula_sum "Si O2"
_cell_formula_units_Z 52
_cell_length_a 18.162443
_cell_length_b 5.101052
_cell_length_c 23.658672
_cell_angle_alpha 90.000000
_cell_angle_beta 90.000000
_cell_angle_gamma 90.000000
_cell_volume 2191.918380
_symmetry_space_group_name_H-M "P N N M"
_symmetry_group_IT_number 58
_symmetry_cell_setting 'orthorhombic'
loop_
_space_group_symop_operation_xyz
x,y,z
-x,-y,z
1/2+x,1/2-y,1/2-z
1/2-x,1/2+y,1/2-z
-x,-y,-z
x,y,-z
1/2-x,1/2+y,1/2+z
1/2+x,1/2-y,1/2+z
loop_
_atom_site_type_symbol
_atom_site_label
_atom_site_fract_x
_atom_site_fract_y
_atom_site_fract_z
Si Si1 0.548029 0.738523 0.064465
Si Si2 0.500000 0.500000 0.682791
Si Si3 0.221930 0.463081 0.064900
Si Si4 0.922720 0.601868 0.265978
Si Si5 0.631363 0.787646 0.656964
Si Si6 0.235572 0.460494 0.715224
Si Si7 0.185071 0.460543 0.565294
O O1 0.500000 0.500000 0.090614
O O2 0.621244 0.857267 0.092596
O O3 0.500000 0.000000 0.060705
O O4 0.566277 0.644630 0.000000
O O5 0.551782 0.342599 0.726951
O O6 0.555895 0.648694 0.642134
O O7 0.158448 0.513001 0.109983
O O8 0.247620 0.163886 0.065637
O O9 0.288300 0.668574 0.080458
O O10 0.202232 0.530364 0.000000
O O11 0.892823 0.408257 0.217239
O O12 0.847623 0.626472 0.301498
O O13 0.000000 0.500000 0.292636
O O14 0.701175 0.605668 0.670804
O O15 0.244992 0.763843 0.732487
O O16 0.159605 0.429128 0.500000
#
# Coordination Sequence:
#
# PCOD9441449 Si02
#       7
#     8   4   8   8   8   8   8
#     4   9  15  24  43  69  92 119 163 225 289 343
#     4  10  18  36  57  86 118 146 187 234 294 342
#     4  10  21  35  53  77 110 153 199 245 285 326
#     4   9  19  34  57  88 118 151 180 232 291 351
#     4  10  21  34  59  85 119 151 197 238 284 344
#     4  10  19  34  56  88 116 145 187 227 282 350
#     4   9  18  32  49  72 102 139 190 245 293 332
#
# _framework density 23.723510999999998
#
# number of rings (size 3 to 8) (size 9 to 14) (size 15 to 20)
#    0.000    2.462    1.538    0.923    2.154    3.692 
#    0.000    0.385    0.000    6.923    0.000    0.000 
#    0.000    0.000    0.000    0.000    0.000    0.000 
#
# Total GULP energy -289802.535441 kJ/mol
# GULP energy per Si atom -5573.125682 kJ/mol
# Density = 2.366952 g / cm^3
# Si number density = 23.723511 Si / 1000 Ang^3
#
#
#
# Elastic Constant Matrix: (Units=GPa)
#
#
# Indices 1 2 3 4 5 6 
#
# 1 129.5829 22.6140 21.7382 0.0000 0.0000 0.0000
# 2 22.6140 99.5028 3.7905 0.0000 0.0000 0.0000
# 3 21.7382 3.7905 49.5227 0.0000 0.0000 0.0000
# 4 0.0000 0.0000 0.0000 25.1959 0.0000 0.0000
# 5 0.0000 0.0000 0.0000 0.0000 -0.7482 0.0000
# 6 0.0000 0.0000 0.0000 0.0000 0.0000 45.4375
#
#
#
# Elastic Compliance Matrix: (Units=1/GPa)
#
#
# Indices 1 2 3 4 5 6 
#
# 1 0.008649 -0.001826 -0.003657 0.000000 0.000000 0.000000
# 2 -0.001826 0.010465 0.000001 0.000000 0.000000 0.000000
# 3 -0.003657 0.000001 0.021798 0.000000 0.000000 0.000000
# 4 0.000000 0.000000 0.000000 0.039689 0.000000 0.000000
# 5 0.000000 0.000000 0.000000 0.000000 -1.336530 0.000000
# 6 0.000000 0.000000 0.000000 0.000000 0.000000 0.022008
#
#
# Mechanical properties :
#
#
# Convention : Reuss Voigt Hill
#
# Bulk Modulus (GPa) = 33.39221 41.65485 37.52353
# Shear Modulus (GPa) = -4.12210 29.34143 12.60966
#
# Velocity S-wave (km/s) = -1.31960 3.52064 2.30799
# Velocity P-wave (km/s) = 3.43283 5.84150 4.79101
#
# Compressibility (1/GPa) = 0.02994711
#
# Stress axis : x y z
#
# Youngs Moduli (GPa) = 115.61689 95.55632 45.87603
#
# Poissons Ratio (x) = 0.17452 0.16776
# Poissons Ratio (y) = 0.21116 -0.00003
# Poissons Ratio (z) = 0.42279 -0.00007
#
# Static dielectric constant tensor:
#      x y z
#    x 2.131280 0.000000 0.000000 
#    y 0.000000 1.953340 0.000000 
#    z 0.000000 0.000000 1.939070 
# 
# From -- ./inp_files/35113.got.cif
#   From: 2010.05.17/outbox.cif.g08.bks.cpg/sg58_18_cif.got.tgz:35113.got - 2010.06.03 14:20:14.
