data_PCOD9441234
_publ_section_title
;
Structure prediction by ZEFSAII (Michael W. Deem and Ramdas Pophale) SiO2 
 PCOD9441234
Probable space group: P N N M
;
_chemical_formula_sum "Si O2"
_cell_formula_units_Z 56
_cell_length_a 22.000486
_cell_length_b 15.249265
_cell_length_c 7.395483
_cell_angle_alpha 90.000000
_cell_angle_beta 90.000000
_cell_angle_gamma 90.000000
_cell_volume 2481.119771
_symmetry_space_group_name_H-M "P N N M"
_symmetry_group_IT_number 58
_symmetry_cell_setting 'orthorhombic'
loop_
_space_group_symop_operation_xyz
x,y,z
-x,-y,z
1/2+x,1/2-y,1/2-z
1/2-x,1/2+y,1/2-z
-x,-y,-z
x,y,-z
1/2-x,1/2+y,1/2+z
1/2+x,1/2-y,1/2+z
loop_
_atom_site_type_symbol
_atom_site_label
_atom_site_fract_x
_atom_site_fract_y
_atom_site_fract_z
Si Si1 0.986473 0.778828 0.220656
Si Si2 0.784374 0.200721 0.785142
Si Si3 0.462501 0.915064 0.279023
Si Si4 0.097154 0.902104 0.779093
Si Si5 0.880093 0.902671 0.218293
Si Si6 0.762489 0.392654 0.212128
Si Si7 0.176705 0.429066 0.217461
O O1 0.990422 0.678043 0.277789
O O2 0.923332 0.823790 0.278267
O O3 0.041826 0.840595 0.278566
O O4 0.986985 0.778771 0.000000
O O5 0.839141 0.139917 0.717539
O O6 0.784038 0.299403 0.711043
O O7 0.720384 0.152374 0.758856
O O8 0.793687 0.207509 0.000000
O O9 0.462821 0.915789 0.500000
O O10 0.392350 0.919268 0.220155
O O11 0.500000 0.000000 0.219999
O O12 0.093666 0.003191 0.722378
O O13 0.096587 0.903208 0.000000
O O14 0.810250 0.896020 0.273699
O O15 0.880522 0.901881 0.000000
O O16 0.792232 0.481302 0.287056
O O17 0.778270 0.392009 0.000000
O O18 0.174475 0.433790 0.000000
#
# Coordination Sequence:
#
# PCOD9441234 Si02
#       7
#     8   8   8   8   8   8   8
#     4   9  17  28  47  74 100 127 164 213 256 291
#     4  10  20  34  52  76 103 138 175 207 250 307
#     4   9  18  30  47  72 102 133 165 205 256 305
#     4   9  17  29  48  73 100 128 165 211 253 296
#     4  10  18  32  53  77 101 129 170 211 253 301
#     4  10  21  33  50  75 106 137 167 205 254 305
#     4  10  20  35  53  77 106 134 167 212 258 300
#
# _framework density 22.570454000000002
#
# number of rings (size 3 to 8) (size 9 to 14) (size 15 to 20)
#    0.000    2.429    1.429    1.286    2.000    3.429 
#    0.000    0.000    0.000    3.000    0.000    0.000 
#    0.000    0.000    0.000    0.000    0.000    0.000 
#
# Total GULP energy -312998.817811 kJ/mol
# GULP energy per Si atom -5589.264604 kJ/mol
# Density = 2.251908 g / cm^3
# Si number density = 22.570454 Si / 1000 Ang^3
#
#
#
# Elastic Constant Matrix: (Units=GPa)
#
#
# Indices 1 2 3 4 5 6 
#
# 1 21.0129 -19.7264 -11.0128 0.0000 0.0000 0.0000
# 2 -19.7264 118.8872 0.4667 0.0000 0.0000 0.0000
# 3 -11.0128 0.4667 76.2014 0.0000 0.0000 0.0000
# 4 0.0000 0.0000 0.0000 -0.6491 0.0000 0.0000
# 5 0.0000 0.0000 0.0000 0.0000 16.9517 0.0000
# 6 0.0000 0.0000 0.0000 0.0000 0.0000 30.5527
#
#
#
# Elastic Compliance Matrix: (Units=1/GPa)
#
#
# Indices 1 2 3 4 5 6 
#
# 1 0.061841 0.010226 0.008875 0.000000 0.000000 0.000000
# 2 0.010226 0.010103 0.001416 0.000000 0.000000 0.000000
# 3 0.008875 0.001416 0.014397 0.000000 0.000000 0.000000
# 4 0.000000 0.000000 0.000000 -1.540633 0.000000 0.000000
# 5 0.000000 0.000000 0.000000 0.000000 0.058991 0.000000
# 6 0.000000 0.000000 0.000000 0.000000 0.000000 0.032730
#
#
# Mechanical properties :
#
#
# Convention : Reuss Voigt Hill
#
# Bulk Modulus (GPa) = 7.85087 17.28406 12.56746
# Shear Modulus (GPa) = -3.67337 25.79600 11.06131
#
# Velocity S-wave (km/s) = -1.27712 3.38436 2.21618
# Velocity P-wave (km/s) = 1.14508 4.79023 3.48264
#
# Compressibility (1/GPa) = 0.12737448
#
# Stress axis : x y z
#
# Youngs Moduli (GPa) = 16.17050 98.98482 69.45870
#
# Poissons Ratio (x) = -1.01224 -0.61643
# Poissons Ratio (y) = -0.16536 -0.09836
# Poissons Ratio (z) = -0.14351 -0.14017
#
# Static dielectric constant tensor:
#      x y z
#    x 1.776430 0.000000 0.000000 
#    y 0.000000 1.813700 0.000000 
#    z 0.000000 0.000000 1.908740 
# 
# From -- ./inp_files/6453.got.cif
#   From: 2010.05.17/outbox.cif.g08.bks.cpg/sg58_4_cif.got.tgz:6453.got - 2010.06.03 14:20:14.
