data_PCOD9441711
_publ_section_title
;
Structure prediction by ZEFSAII (Michael W. Deem and Ramdas Pophale) SiO2 
 PCOD9441711
Probable space group: P N N M
;
_chemical_formula_sum "Si O2"
_cell_formula_units_Z 56
_cell_length_a 9.475758
_cell_length_b 16.960135
_cell_length_c 14.262203
_cell_angle_alpha 90.000000
_cell_angle_beta 90.000000
_cell_angle_gamma 90.000000
_cell_volume 2292.080568
_symmetry_space_group_name_H-M "P N N M"
_symmetry_group_IT_number 58
_symmetry_cell_setting 'orthorhombic'
loop_
_space_group_symop_operation_xyz
x,y,z
-x,-y,z
1/2+x,1/2-y,1/2-z
1/2-x,1/2+y,1/2-z
-x,-y,-z
x,y,-z
1/2-x,1/2+y,1/2+z
1/2+x,1/2-y,1/2+z
loop_
_atom_site_type_symbol
_atom_site_label
_atom_site_fract_x
_atom_site_fract_y
_atom_site_fract_z
Si Si1 0.668239 0.012275 0.605563
Si Si2 0.930672 0.328148 0.386836
Si Si3 0.798663 0.944046 0.791105
Si Si4 0.298319 0.220885 0.392958
Si Si5 0.748937 0.609005 0.389010
Si Si6 0.607912 0.187132 0.394735
Si Si7 0.543430 0.307767 0.763659
O O1 0.715719 0.991283 0.500000
O O2 0.689825 0.106501 0.619741
O O3 0.500000 0.000000 0.609373
O O4 0.741485 0.968510 0.689481
O O5 0.916107 0.316263 0.500000
O O6 0.084895 0.369790 0.371921
O O7 0.935303 0.247047 0.324925
O O8 0.812211 0.386269 0.345035
O O9 0.945637 0.896632 0.777766
O O10 0.794485 0.026354 0.846218
O O11 0.255430 0.231977 0.500000
O O12 0.329869 0.310142 0.355822
O O13 0.439107 0.170175 0.392045
O O14 0.169269 0.186129 0.339637
O O15 0.726529 0.602318 0.500000
O O16 0.636914 0.217230 0.500000
O O17 0.612495 0.251671 0.315550
#
# Coordination Sequence:
#
# PCOD9441711 Si02
#       7
#     8   8   8   8   8   8   8
#     4  10  19  31  51  78 107 138 173 220 274 328
#     4  10  21  37  56  79 111 148 186 233 287 340
#     4  12  22  33  55  84 114 143 185 239 287 329
#     4   9  18  35  58  80 109 148 185 225 275 336
#     4   9  18  33  55  82 109 139 178 228 285 339
#     4  10  21  37  55  79 113 151 188 223 271 338
#     4  11  21  33  52  79 110 148 190 231 273 326
#
# _framework density 24.431950000000001
#
# number of rings (size 3 to 8) (size 9 to 14) (size 15 to 20)
#    0.000    1.857    0.000    7.286    0.000    4.571 
#    0.000    0.714    0.000    2.571    0.000    0.000 
#    0.000   16.000    0.000    0.000    0.000    0.000 
#
# Total GULP energy -312909.056168 kJ/mol
# GULP energy per Si atom -5587.661717 kJ/mol
# Density = 2.437634 g / cm^3
# Si number density = 24.431950 Si / 1000 Ang^3
#
#
#
# Elastic Constant Matrix: (Units=GPa)
#
#
# Indices 1 2 3 4 5 6 
#
# 1 57.0938 36.2752 5.4838 0.0000 0.0000 0.0000
# 2 36.2752 147.7335 61.9742 0.0000 0.0000 0.0000
# 3 5.4838 61.9742 130.5631 0.0000 0.0000 0.0000
# 4 0.0000 0.0000 0.0000 -34.0849 0.0000 0.0000
# 5 0.0000 0.0000 0.0000 0.0000 -0.3231 0.0000
# 6 0.0000 0.0000 0.0000 0.0000 0.0000 42.6474
#
#
#
# Elastic Compliance Matrix: (Units=1/GPa)
#
#
# Indices 1 2 3 4 5 6 
#
# 1 0.021150 -0.006019 0.001969 0.000000 0.000000 0.000000
# 2 -0.006019 0.010165 -0.004572 0.000000 0.000000 0.000000
# 3 0.001969 -0.004572 0.009747 0.000000 0.000000 0.000000
# 4 0.000000 0.000000 0.000000 -0.029339 0.000000 0.000000
# 5 0.000000 0.000000 0.000000 0.000000 -3.095010 0.000000
# 6 0.000000 0.000000 0.000000 0.000000 0.000000 0.023448
#
#
# Mechanical properties :
#
#
# Convention : Reuss Voigt Hill
#
# Bulk Modulus (GPa) = 41.98723 60.31741 51.15232
# Shear Modulus (GPa) = -1.64763 17.09169 7.72203
#
# Velocity S-wave (km/s) = -0.82210 2.64780 1.77974
# Velocity P-wave (km/s) = 4.04000 5.83860 5.02050
#
# Compressibility (1/GPa) = 0.02381677
#
# Stress axis : x y z
#
# Youngs Moduli (GPa) = 47.28057 98.37701 102.59873
#
# Poissons Ratio (x) = 0.59216 -0.20200
# Poissons Ratio (y) = 0.28459 0.46910
# Poissons Ratio (z) = -0.09309 0.44980
#
# Static dielectric constant tensor:
#      x y z
#    x 1.998940 0.000000 0.000000 
#    y 0.000000 2.019540 0.000000 
#    z 0.000000 0.000000 1.955560 
# 
# From -- ./inp_files/21289.got.cif
#   From: 2010.05.17/outbox.cif.g08.bks.cpg/sg58_11_cif.got.tgz:21289.got - 2010.06.03 14:20:14.
