data_PCOD9441502
_publ_section_title
;
Structure prediction by ZEFSAII (Michael W. Deem and Ramdas Pophale) SiO2 
 PCOD9441502
Probable space group: P N N M
;
_chemical_formula_sum "Si O2"
_cell_formula_units_Z 40
_cell_length_a 28.483468
_cell_length_b 6.665217
_cell_length_c 7.336817
_cell_angle_alpha 90.000000
_cell_angle_beta 90.000000
_cell_angle_gamma 90.000000
_cell_volume 1392.883667
_symmetry_space_group_name_H-M "P N N M"
_symmetry_group_IT_number 58
_symmetry_cell_setting 'orthorhombic'
loop_
_space_group_symop_operation_xyz
x,y,z
-x,-y,z
1/2+x,1/2-y,1/2-z
1/2-x,1/2+y,1/2-z
-x,-y,-z
x,y,-z
1/2-x,1/2+y,1/2+z
1/2+x,1/2-y,1/2+z
loop_
_atom_site_type_symbol
_atom_site_label
_atom_site_fract_x
_atom_site_fract_y
_atom_site_fract_z
Si Si1 0.114408 0.859236 0.724506
Si Si2 0.986330 0.236842 0.715947
Si Si3 0.211897 0.966822 0.709277
Si Si4 0.814963 0.583040 0.217229
Si Si5 0.913724 0.689662 0.284859
O O1 0.115983 0.854488 0.500000
O O2 0.066837 0.748636 0.787595
O O3 0.169192 0.830729 0.787168
O O4 0.102060 0.090080 0.781963
O O5 0.981386 0.282708 0.500000
O O6 0.033466 0.346248 0.786226
O O7 0.000000 0.000000 0.729327
O O8 0.217538 0.904370 0.500000
O O9 0.264371 0.996339 0.786527
O O10 0.191382 0.188530 0.715600
O O11 0.869038 0.541217 0.269156
O O12 0.814713 0.574480 0.000000
O O13 0.920499 0.711605 0.500000
#
# Coordination Sequence:
#
# PCOD9441502 Si02
#       5
#     8   8   8   8   8
#     4   7  10  19  36  56  77 101 132 169 204 239
#     4   7   9  15  32  56  76  98 130 164 201 243
#     4   9  18  31  45  62  85 113 143 174 209 247
#     4  10  19  29  43  64  87 112 142 173 207 248
#     4   8  13  22  37  57  81 107 133 164 205 249
#
# _framework density 28.717399
#
# number of rings (size 3 to 8) (size 9 to 14) (size 15 to 20)
#    0.000    3.800    0.000    4.200    0.000    1.600 
#    0.000    0.000    0.000   15.000    0.000    1.400 
#    0.000   11.200    0.000    0.000    0.000    0.000 
#
# Total GULP energy -223144.728083 kJ/mol
# GULP energy per Si atom -5578.618202 kJ/mol
# Density = 2.865204 g / cm^3
# Si number density = 28.717399 Si / 1000 Ang^3
#
#
#
# Elastic Constant Matrix: (Units=GPa)
#
#
# Indices 1 2 3 4 5 6 
#
# 1 409.8524 65.2562 12.0255 0.0000 0.0000 0.0000
# 2 65.2562 55.3840 1.7670 0.0000 0.0000 0.0000
# 3 12.0255 1.7670 127.7411 0.0000 0.0000 0.0000
# 4 0.0000 0.0000 0.0000 6.6803 0.0000 0.0000
# 5 0.0000 0.0000 0.0000 0.0000 19.4531 0.0000
# 6 0.0000 0.0000 0.0000 0.0000 0.0000 80.0829
#
#
#
# Elastic Compliance Matrix: (Units=1/GPa)
#
#
# Indices 1 2 3 4 5 6 
#
# 1 0.003010 -0.003539 -0.000234 0.000000 0.000000 0.000000
# 2 -0.003539 0.022225 0.000026 0.000000 0.000000 0.000000
# 3 -0.000234 0.000026 0.007850 0.000000 0.000000 0.000000
# 4 0.000000 0.000000 0.000000 0.149694 0.000000 0.000000
# 5 0.000000 0.000000 0.000000 0.000000 0.051406 0.000000
# 6 0.000000 0.000000 0.000000 0.000000 0.000000 0.012487
#
#
# Mechanical properties :
#
#
# Convention : Reuss Voigt Hill
#
# Bulk Modulus (GPa) = 39.07860 83.45276 61.26568
# Shear Modulus (GPa) = 19.03324 55.50519 37.26922
#
# Velocity S-wave (km/s) = 2.57724 4.40114 3.60640
# Velocity P-wave (km/s) = 4.74276 7.41281 6.22268
#
# Compressibility (1/GPa) = 0.02558945
#
# Stress axis : x y z
#
# Youngs Moduli (GPa) = 332.19001 44.99384 127.38774
#
# Poissons Ratio (x) = 0.15925 0.02986
# Poissons Ratio (y) = 1.17576 -0.00328
# Poissons Ratio (z) = 0.07788 -0.00116
#
# Static dielectric constant tensor:
#      x y z
#    x 2.376790 0.000000 0.000000 
#    y 0.000000 2.384050 0.000000 
#    z 0.000000 0.000000 2.084010 
# 
# From -- ./inp_files/2737.got.cif
#   From: 2010.05.17/outbox.cif.g08.bks.cpg/sg58_2_cif.got.tgz:2737.got - 2010.06.03 14:20:14.
