data_PCOD9441840
_publ_section_title
;
Structure prediction by ZEFSAII (Michael W. Deem and Ramdas Pophale) SiO2 
 PCOD9441840
Probable space group: P N N M
;
_chemical_formula_sum "Si O2"
_cell_formula_units_Z 64
_cell_length_a 28.911575
_cell_length_b 10.775996
_cell_length_c 7.660269
_cell_angle_alpha 90.000000
_cell_angle_beta 90.000000
_cell_angle_gamma 90.000000
_cell_volume 2386.564594
_symmetry_space_group_name_H-M "P N N M"
_symmetry_group_IT_number 58
_symmetry_cell_setting 'orthorhombic'
loop_
_space_group_symop_operation_xyz
x,y,z
-x,-y,z
1/2+x,1/2-y,1/2-z
1/2-x,1/2+y,1/2-z
-x,-y,-z
x,y,-z
1/2-x,1/2+y,1/2+z
1/2+x,1/2-y,1/2+z
loop_
_atom_site_type_symbol
_atom_site_label
_atom_site_fract_x
_atom_site_fract_y
_atom_site_fract_z
Si Si1 0.550857 0.233788 0.291373
Si Si2 0.201408 0.901259 0.797690
Si Si3 0.052545 0.995247 0.291163
Si Si4 0.282696 0.059230 0.701403
Si Si5 0.135394 0.412213 0.795689
Si Si6 0.113023 0.764138 0.289627
Si Si7 0.465579 0.100431 0.797516
Si Si8 0.308294 0.669124 0.789662
O O1 0.547478 0.225360 0.500000
O O2 0.571215 0.367035 0.244209
O O3 0.585186 0.125166 0.224227
O O4 0.500316 0.218635 0.209274
O O5 0.249295 0.936100 0.702910
O O6 0.336605 0.782370 0.715666
O O7 0.174133 0.031190 0.759318
O O8 0.213312 0.894125 0.000000
O O9 0.050308 0.979440 0.500000
O O10 0.084132 0.883774 0.223745
O O11 0.000000 0.000000 0.220253
O O12 0.291408 0.090449 0.500000
O O13 0.333673 0.290342 0.744803
O O14 0.245687 0.158705 0.771957
O O15 0.330445 0.014776 0.786459
O O16 0.129942 0.439760 0.000000
O O17 0.110604 0.760175 0.500000
O O18 0.083349 0.646048 0.223130
O O19 0.500000 0.000000 0.710693
O O20 0.459138 0.068548 0.000000
O O21 0.308246 0.679423 0.000000
#
# Coordination Sequence:
#
# PCOD9441840 Si02
#       8
#     8   8   8   8   8   8   8   8
#     4  11  23  36  56  88 121 151 185 232 294 346
#     4  10  19  32  52  79 108 137 178 227 276 331
#     4  10  19  34  55  82 115 150 187 231 279 335
#     4   8  18  36  53  74 109 148 183 220 270 327
#     4  10  20  36  57  81 112 150 185 231 283 333
#     4  10  19  34  57  82 110 146 184 229 287 337
#     4  10  22  42  63  80 107 150 199 239 274 334
#     4   9  18  33  54  80 109 146 182 223 276 331
#
# _framework density 26.816789
#
# number of rings (size 3 to 8) (size 9 to 14) (size 15 to 20)
#    0.750    1.500    1.250    2.250    0.000    5.000 
#    0.000    1.250    0.000    3.000    0.000    0.000 
#    0.000    0.000    0.000    0.000    0.000    0.000 
#
# Total GULP energy -357695.589527 kJ/mol
# GULP energy per Si atom -5588.993586 kJ/mol
# Density = 2.675575 g / cm^3
# Si number density = 26.816789 Si / 1000 Ang^3
#
#
#
# Elastic Constant Matrix: (Units=GPa)
#
#
# Indices 1 2 3 4 5 6 
#
# 1 156.5526 23.8906 6.3178 0.0000 0.0000 0.0000
# 2 23.8906 97.2192 10.0336 0.0000 0.0000 0.0000
# 3 6.3178 10.0336 90.7635 0.0000 0.0000 0.0000
# 4 0.0000 0.0000 0.0000 15.3242 0.0000 0.0000
# 5 0.0000 0.0000 0.0000 0.0000 9.0551 0.0000
# 6 0.0000 0.0000 0.0000 0.0000 0.0000 60.2797
#
#
#
# Elastic Compliance Matrix: (Units=1/GPa)
#
#
# Indices 1 2 3 4 5 6 
#
# 1 0.006644 -0.001603 -0.000285 0.000000 0.000000 0.000000
# 2 -0.001603 0.010792 -0.001081 0.000000 0.000000 0.000000
# 3 -0.000285 -0.001081 0.011157 0.000000 0.000000 0.000000
# 4 0.000000 0.000000 0.000000 0.065256 0.000000 0.000000
# 5 0.000000 0.000000 0.000000 0.000000 0.110435 0.000000
# 6 0.000000 0.000000 0.000000 0.000000 0.000000 0.016589
#
#
# Mechanical properties :
#
#
# Convention : Reuss Voigt Hill
#
# Bulk Modulus (GPa) = 44.14460 47.22435 45.68448
# Shear Modulus (GPa) = 21.33441 37.21802 29.27622
#
# Velocity S-wave (km/s) = 2.82363 3.72944 3.30769
# Velocity P-wave (km/s) = 5.20844 6.01608 5.62677
#
# Compressibility (1/GPa) = 0.02265283
#
# Stress axis : x y z
#
# Youngs Moduli (GPa) = 150.51634 92.66459 89.62950
#
# Poissons Ratio (x) = 0.14856 0.02556
# Poissons Ratio (y) = 0.24131 0.09692
# Poissons Ratio (z) = 0.04293 0.10021
#
# Static dielectric constant tensor:
#      x y z
#    x 2.145690 0.000000 0.000000 
#    y 0.000000 2.271760 0.000000 
#    z 0.000000 0.000000 1.946650 
# 
# From -- ./inp_files/11081.got.cif
#   From: 2010.05.17/outbox.cif.g08.bks.cpg/sg58_6_cif.got.tgz:11081.got - 2010.06.03 14:20:14.
