data_PCOD9441934
_publ_section_title
;
Structure prediction by ZEFSAII (Michael W. Deem and Ramdas Pophale) SiO2 
 PCOD9441934
Probable space group: P N N M
;
_chemical_formula_sum "Si O2"
_cell_formula_units_Z 40
_cell_length_a 8.571398
_cell_length_b 16.921095
_cell_length_c 12.847943
_cell_angle_alpha 90.000000
_cell_angle_beta 90.000000
_cell_angle_gamma 90.000000
_cell_volume 1863.432760
_symmetry_space_group_name_H-M "P N N M"
_symmetry_group_IT_number 58
_symmetry_cell_setting 'orthorhombic'
loop_
_space_group_symop_operation_xyz
x,y,z
-x,-y,z
1/2+x,1/2-y,1/2-z
1/2-x,1/2+y,1/2-z
-x,-y,-z
x,y,-z
1/2-x,1/2+y,1/2+z
1/2+x,1/2-y,1/2+z
loop_
_atom_site_type_symbol
_atom_site_label
_atom_site_fract_x
_atom_site_fract_y
_atom_site_fract_z
Si Si1 0.519779 0.160296 0.389366
Si Si2 0.027277 0.189494 0.621622
Si Si3 0.816004 0.045213 0.615408
Si Si4 0.224481 0.205520 0.178357
Si Si5 0.356785 0.055376 0.784884
O O1 0.435849 0.150510 0.500000
O O2 0.677971 0.109361 0.394491
O O3 0.579305 0.249364 0.374984
O O4 0.435304 0.118358 0.294352
O O5 0.060477 0.203602 0.500000
O O6 0.167424 0.206746 0.700752
O O7 0.969156 0.098464 0.632969
O O8 0.879816 0.244044 0.654334
O O9 0.821178 0.006694 0.500000
O O10 0.760349 0.994923 0.713494
O O11 0.260247 0.115690 0.143424
O O12 0.500000 0.000000 0.824218
#
# Coordination Sequence:
#
# PCOD9441934 Si02
#       5
#     8   8   8   8   8
#     4   9  17  32  55  82 113 151 193 239 292 357
#     4  10  22  39  60  91 126 160 202 252 303 363
#     4   8  16  31  52  81 118 148 178 238 309 361
#     4  11  20  37  57  87 122 159 203 240 299 360
#     4  10  19  32  56  87 121 156 191 242 308 374
#
# _framework density 21.465761000000001
#
# number of rings (size 3 to 8) (size 9 to 14) (size 15 to 20)
#    0.000    2.400    2.000    2.400    0.000    4.800 
#    0.000    2.000    0.000    2.400    0.000    5.600 
#    0.000    0.000    0.000    0.000    0.000    0.000 
#
# Total GULP energy -222859.300605 kJ/mol
# GULP energy per Si atom -5571.482515 kJ/mol
# Density = 2.141690 g / cm^3
# Si number density = 21.465761 Si / 1000 Ang^3
#
#
#
# Elastic Constant Matrix: (Units=GPa)
#
#
# Indices 1 2 3 4 5 6 
#
# 1 48.3673 13.4067 30.9496 0.0000 0.0000 0.0000
# 2 13.4067 100.9057 10.0513 0.0000 0.0000 0.0000
# 3 30.9496 10.0513 39.3513 0.0000 0.0000 0.0000
# 4 0.0000 0.0000 0.0000 24.3829 0.0000 0.0000
# 5 0.0000 0.0000 0.0000 0.0000 11.9371 0.0000
# 6 0.0000 0.0000 0.0000 0.0000 0.0000 44.7502
#
#
#
# Elastic Compliance Matrix: (Units=1/GPa)
#
#
# Indices 1 2 3 4 5 6 
#
# 1 0.042162 -0.002359 -0.032558 0.000000 0.000000 0.000000
# 2 -0.002359 0.010301 -0.000776 0.000000 0.000000 0.000000
# 3 -0.032558 -0.000776 0.051217 0.000000 0.000000 0.000000
# 4 0.000000 0.000000 0.000000 0.041012 0.000000 0.000000
# 5 0.000000 0.000000 0.000000 0.000000 0.083772 0.000000
# 6 0.000000 0.000000 0.000000 0.000000 0.000000 0.022346
#
#
# Mechanical properties :
#
#
# Convention : Reuss Voigt Hill
#
# Bulk Modulus (GPa) = 30.96465 33.04883 32.00674
# Shear Modulus (GPa) = 15.01673 25.16184 20.08929
#
# Velocity S-wave (km/s) = 2.64780 3.42743 3.06253
# Velocity P-wave (km/s) = 4.87896 5.57607 5.23912
#
# Compressibility (1/GPa) = 0.03229489
#
# Stress axis : x y z
#
# Youngs Moduli (GPa) = 23.71780 97.07865 19.52471
#
# Poissons Ratio (x) = 0.22898 0.63569
# Poissons Ratio (y) = 0.05594 0.01515
# Poissons Ratio (z) = 0.77221 0.07533
#
# Static dielectric constant tensor:
#      x y z
#    x 1.856980 0.000000 0.000000 
#    y 0.000000 1.852210 0.000000 
#    z 0.000000 0.000000 1.828870 
# 
# From -- ./inp_files/19653.got.cif
#   From: 2010.05.17/outbox.cif.g08.bks.cpg/sg58_10_cif.got.tgz:19653.got - 2010.06.03 14:20:14.
