data_PCOD9441342
_publ_section_title
;
Structure prediction by ZEFSAII (Michael W. Deem and Ramdas Pophale) SiO2 
 PCOD9441342
Probable space group: P N N M
;
_chemical_formula_sum "Si O2"
_cell_formula_units_Z 58
_cell_length_a 18.127520
_cell_length_b 5.045447
_cell_length_c 25.238208
_cell_angle_alpha 90.000000
_cell_angle_beta 90.000000
_cell_angle_gamma 90.000000
_cell_volume 2308.322882
_symmetry_space_group_name_H-M "P N N M"
_symmetry_group_IT_number 58
_symmetry_cell_setting 'orthorhombic'
loop_
_space_group_symop_operation_xyz
x,y,z
-x,-y,z
1/2+x,1/2-y,1/2-z
1/2-x,1/2+y,1/2-z
-x,-y,-z
x,y,-z
1/2-x,1/2+y,1/2+z
1/2+x,1/2-y,1/2+z
loop_
_atom_site_type_symbol
_atom_site_label
_atom_site_fract_x
_atom_site_fract_y
_atom_site_fract_z
Si Si1 0.950350 0.239420 0.439817
Si Si2 0.762883 0.003450 0.285113
Si Si3 0.192276 0.459055 0.435343
Si Si4 0.579758 0.402732 0.767793
Si Si5 0.500000 0.500000 0.500000
Si Si6 0.931005 0.331623 0.922320
Si Si7 0.729471 0.055616 0.437662
Si Si8 0.605298 0.897786 0.305828
O O1 0.930983 0.146325 0.500000
O O2 0.877267 0.369489 0.414924
O O3 0.000000 0.500000 0.443760
O O4 0.000000 0.000000 0.416690
O O5 0.743165 0.804637 0.235868
O O6 0.845137 0.916536 0.302804
O O7 0.690523 0.962585 0.320881
O O8 0.183530 0.440936 0.500000
O O9 0.212020 0.164231 0.417614
O O10 0.259219 0.647612 0.417566
O O11 0.500000 0.500000 0.789672
O O12 0.599966 0.625805 0.725277
O O13 0.577925 0.128456 0.734459
O O14 0.438664 0.441478 0.546894
O O15 0.853085 0.456679 0.934752
O O16 0.937260 0.338689 0.859598
O O17 0.000000 0.500000 0.944992
O O18 0.746778 0.077320 0.500000
#
# Coordination Sequence:
#
# PCOD9441342 Si02
#       8
#     8   8   8   8   2   8   8   8
#     4   9  15  24  42  68  97 117 140 184 250 333
#     4   8  16  32  53  81 120 156 191 234 293 361
#     4   9  18  31  48  70  93 126 167 217 284 351
#     4  10  18  33  56  91 124 158 196 243 297 368
#     4  12  30  44  60  78 116 160 226 290 334 368
#     4  12  27  41  59  79 110 157 215 272 326 369
#     4  10  21  35  51  66  95 134 186 244 294 347
#     4  10  22  36  57  84 120 161 202 249 302 371
#
# _framework density 25.126466000000001
#
# number of rings (size 3 to 8) (size 9 to 14) (size 15 to 20)
#    0.000    2.207    0.690    2.276    4.828    3.310 
#    0.000    0.000    0.000    0.000    0.000    2.897 
#    0.000    4.414    0.000    0.138    0.000    0.276 
#
# Total GULP energy -323124.823190 kJ/mol
# GULP energy per Si atom -5571.117641 kJ/mol
# Density = 2.506928 g / cm^3
# Si number density = 25.126466 Si / 1000 Ang^3
#
#
#
# Elastic Constant Matrix: (Units=GPa)
#
#
# Indices 1 2 3 4 5 6 
#
# 1 135.1301 -5.1443 16.4770 0.0000 0.0000 0.0000
# 2 -5.1443 116.1391 14.8300 0.0000 0.0000 0.0000
# 3 16.4770 14.8300 73.7537 0.0000 0.0000 0.0000
# 4 0.0000 0.0000 0.0000 -22.3968 0.0000 0.0000
# 5 0.0000 0.0000 0.0000 0.0000 33.5356 0.0000
# 6 0.0000 0.0000 0.0000 0.0000 0.0000 49.1385
#
#
#
# Elastic Compliance Matrix: (Units=1/GPa)
#
#
# Indices 1 2 3 4 5 6 
#
# 1 0.007644 0.000571 -0.001823 0.000000 0.000000 0.000000
# 2 0.000571 0.008880 -0.001913 0.000000 0.000000 0.000000
# 3 -0.001823 -0.001913 0.014351 0.000000 0.000000 0.000000
# 4 0.000000 0.000000 0.000000 -0.044649 0.000000 0.000000
# 5 0.000000 0.000000 0.000000 0.000000 0.029819 0.000000
# 6 0.000000 0.000000 0.000000 0.000000 0.000000 0.020351
#
#
# Mechanical properties :
#
#
# Convention : Reuss Voigt Hill
#
# Bulk Modulus (GPa) = 40.74021 41.92759 41.33390
# Shear Modulus (GPa) = 98.22011 31.97949 65.09980
#
# Velocity S-wave (km/s) = 6.25901 3.57142 5.09560
# Velocity P-wave (km/s) = 8.27543 5.80772 7.14886
#
# Compressibility (1/GPa) = 0.02454577
#
# Stress axis : x y z
#
# Youngs Moduli (GPa) = 130.81691 112.61304 69.68389
#
# Poissons Ratio (x) = -0.06434 0.12701
# Poissons Ratio (y) = -0.07474 0.13332
# Poissons Ratio (z) = 0.23843 0.21545
#
# Static dielectric constant tensor:
#      x y z
#    x 1.769680 0.000000 0.000000 
#    y 0.000000 2.064780 0.000000 
#    z 0.000000 0.000000 2.021930 
# 
# From -- ./inp_files/35124.got.cif
#   From: 2010.05.17/outbox.cif.g08.bks.cpg/sg58_18_cif.got.tgz:35124.got - 2010.06.03 14:20:14.
