data_PCOD9441166
_publ_section_title
;
Structure prediction by ZEFSAII (Michael W. Deem and Ramdas Pophale) SiO2 
 PCOD9441166
Probable space group: P N N M
;
_chemical_formula_sum "Si O2"
_cell_formula_units_Z 64
_cell_length_a 21.426631
_cell_length_b 20.351386
_cell_length_c 7.607501
_cell_angle_alpha 90.000000
_cell_angle_beta 90.000000
_cell_angle_gamma 90.000000
_cell_volume 3317.339348
_symmetry_space_group_name_H-M "P N N M"
_symmetry_group_IT_number 58
_symmetry_cell_setting 'orthorhombic'
loop_
_space_group_symop_operation_xyz
x,y,z
-x,-y,z
1/2+x,1/2-y,1/2-z
1/2-x,1/2+y,1/2-z
-x,-y,-z
x,y,-z
1/2-x,1/2+y,1/2+z
1/2+x,1/2-y,1/2+z
loop_
_atom_site_type_symbol
_atom_site_label
_atom_site_fract_x
_atom_site_fract_y
_atom_site_fract_z
Si Si1 0.573531 0.203746 0.207099
Si Si2 0.687586 0.708369 0.284006
Si Si3 0.237316 0.074558 0.210794
Si Si4 0.810033 0.786820 0.710082
Si Si5 0.881132 0.419425 0.286860
Si Si6 0.385613 0.934867 0.213766
Si Si7 0.935794 0.279998 0.795707
Si Si8 0.760884 0.070296 0.213477
O O1 0.628652 0.249771 0.279547
O O2 0.577703 0.129084 0.278233
O O3 0.504529 0.231988 0.223699
O O4 0.586383 0.197148 0.000000
O O5 0.687161 0.709930 0.500000
O O6 0.746411 0.752424 0.225095
O O7 0.622598 0.739132 0.221036
O O8 0.700986 0.633726 0.227543
O O9 0.194309 0.135803 0.255870
O O10 0.308698 0.087483 0.270996
O O11 0.218066 0.001983 0.273872
O O12 0.240639 0.070960 0.000000
O O13 0.809497 0.778761 0.500000
O O14 0.882492 0.418478 0.500000
O O15 0.903532 0.491711 0.227522
O O16 0.919282 0.356837 0.225356
O O17 0.312552 0.923667 0.257870
O O18 0.389851 0.937410 0.000000
O O19 0.938953 0.264076 0.000000
O O20 0.763290 0.071018 0.000000
#
# Coordination Sequence:
#
# PCOD9441166 Si02
#       8
#     8   8   8   8   8   8   8   8
#     4  10  20  34  52  71  94 130 172 207 236 280
#     4   9  16  29  50  73  95 124 163 202 239 283
#     4   9  17  28  49  78 102 121 149 202 252 284
#     4  10  18  31  53  75  96 127 164 201 242 291
#     4   9  17  30  48  71  98 128 161 195 235 286
#     4   8  14  27  48  71  93 122 164 205 232 268
#     4  11  22  33  47  70 102 134 160 199 249 292
#     4   8  13  26  49  75  96 118 159 205 240 277
#
# _framework density 19.292570000000001
#
# number of rings (size 3 to 8) (size 9 to 14) (size 15 to 20)
#    0.000    2.750    2.500    1.875    0.000    1.000 
#    0.000    3.125    0.000    3.750    0.000    5.250 
#    0.000    0.000    0.000    0.000    0.000    0.000 
#
# Total GULP energy -356895.286081 kJ/mol
# GULP energy per Si atom -5576.488845 kJ/mol
# Density = 1.924866 g / cm^3
# Si number density = 19.292570 Si / 1000 Ang^3
#
#
#
# Elastic Constant Matrix: (Units=GPa)
#
#
# Indices 1 2 3 4 5 6 
#
# 1 77.5713 54.9998 -7.4766 0.0000 0.0000 0.0000
# 2 54.9998 116.6694 -5.3272 0.0000 0.0000 0.0000
# 3 -7.4766 -5.3272 32.2069 0.0000 0.0000 0.0000
# 4 0.0000 0.0000 0.0000 7.7896 0.0000 0.0000
# 5 0.0000 0.0000 0.0000 0.0000 14.1896 0.0000
# 6 0.0000 0.0000 0.0000 0.0000 0.0000 22.6493
#
#
#
# Elastic Compliance Matrix: (Units=1/GPa)
#
#
# Indices 1 2 3 4 5 6 
#
# 1 0.019657 -0.009127 0.003054 0.000000 0.000000 0.000000
# 2 -0.009127 0.012874 0.000011 0.000000 0.000000 0.000000
# 3 0.003054 0.000011 0.031760 0.000000 0.000000 0.000000
# 4 0.000000 0.000000 0.000000 0.128376 0.000000 0.000000
# 5 0.000000 0.000000 0.000000 0.000000 0.070474 0.000000
# 6 0.000000 0.000000 0.000000 0.000000 0.000000 0.044151
#
#
# Mechanical properties :
#
#
# Convention : Reuss Voigt Hill
#
# Bulk Modulus (GPa) = 19.16979 34.53773 26.85376
# Shear Modulus (GPa) = 14.84528 21.20917 18.02722
#
# Velocity S-wave (km/s) = 2.77696 3.31923 3.06013
# Velocity P-wave (km/s) = 4.49888 5.71233 5.14153
#
# Compressibility (1/GPa) = 0.05216541
#
# Stress axis : x y z
#
# Youngs Moduli (GPa) = 50.87227 77.67339 31.48630
#
# Poissons Ratio (x) = 0.70894 -0.09615
# Poissons Ratio (y) = 0.46432 -0.00034
# Poissons Ratio (z) = -0.15534 -0.00083
#
# Static dielectric constant tensor:
#      x y z
#    x 1.659830 0.000000 0.000000 
#    y 0.000000 1.697210 0.000000 
#    z 0.000000 0.000000 1.738240 
# 
# From -- ./inp_files/9398.got.cif
#   From: 2010.05.17/outbox.cif.g08.bks.cpg/sg58_5_cif.got.tgz:9398.got - 2010.06.03 14:20:14.
