data_PCOD9441969
_publ_section_title
;
Structure prediction by ZEFSAII (Michael W. Deem and Ramdas Pophale) SiO2 
 PCOD9441969
Probable space group: P N N M
;
_chemical_formula_sum "Si O2"
_cell_formula_units_Z 56
_cell_length_a 19.498666
_cell_length_b 19.790658
_cell_length_c 8.903123
_cell_angle_alpha 90.000000
_cell_angle_beta 90.000000
_cell_angle_gamma 90.000000
_cell_volume 3435.638868
_symmetry_space_group_name_H-M "P N N M"
_symmetry_group_IT_number 58
_symmetry_cell_setting 'orthorhombic'
loop_
_space_group_symop_operation_xyz
x,y,z
-x,-y,z
1/2+x,1/2-y,1/2-z
1/2-x,1/2+y,1/2-z
-x,-y,-z
x,y,-z
1/2-x,1/2+y,1/2+z
1/2+x,1/2-y,1/2+z
loop_
_atom_site_type_symbol
_atom_site_label
_atom_site_fract_x
_atom_site_fract_y
_atom_site_fract_z
Si Si1 0.269759 0.662598 0.179743
Si Si2 0.370823 0.765934 0.320766
Si Si3 0.018043 0.705528 0.679987
Si Si4 0.793111 0.477931 0.818718
Si Si5 0.751619 0.627933 0.180635
Si Si6 0.350605 0.269442 0.321221
Si Si7 0.940888 0.447361 0.681016
O O1 0.332090 0.699092 0.262761
O O2 0.253917 0.585858 0.224731
O O3 0.201690 0.707256 0.211744
O O4 0.281233 0.665460 0.000000
O O5 0.378128 0.764122 0.500000
O O6 0.444006 0.776155 0.244927
O O7 0.319434 0.827998 0.281912
O O8 0.016725 0.709107 0.500000
O O9 0.077486 0.753439 0.743969
O O10 0.037481 0.628566 0.724019
O O11 0.763119 0.550539 0.774119
O O12 0.868423 0.466964 0.751749
O O13 0.798704 0.477148 0.000000
O O14 0.687819 0.664713 0.258338
O O15 0.742979 0.631115 0.000000
O O16 0.358779 0.273672 0.500000
O O17 0.934855 0.449651 0.500000
O O18 0.000000 0.500000 0.726395
#
# Coordination Sequence:
#
# PCOD9441969 Si02
#       7
#     8   8   8   8   8   8   8
#     4   9  18  33  52  74 100 133 173 213 255 304
#     4  10  20  33  51  75 103 135 173 214 255 305
#     4  11  21  33  51  74 104 139 173 213 259 306
#     4  10  19  33  53  76 103 137 173 212 254 305
#     4   9  19  34  52  76 105 136 172 212 257 306
#     4  10  19  33  53  75 101 134 175 216 255 306
#     4  10  21  33  47  73 109 143 172 206 254 310
#
# _framework density 16.299734000000001
#
# number of rings (size 3 to 8) (size 9 to 14) (size 15 to 20)
#    0.000    2.143    1.429    2.143    0.000    3.143 
#    0.000    0.000    0.000    0.857    0.000    6.000 
#    0.000    0.000    0.000    0.000    0.000    0.000 
#
# Total GULP energy -312563.397247 kJ/mol
# GULP energy per Si atom -5581.489237 kJ/mol
# Density = 1.626264 g / cm^3
# Si number density = 16.299734 Si / 1000 Ang^3
#
#
#
# Elastic Constant Matrix: (Units=GPa)
#
#
# Indices 1 2 3 4 5 6 
#
# 1 82.7902 80.9841 36.6237 0.0000 0.0000 0.0000
# 2 80.9841 152.6468 42.9930 0.0000 0.0000 0.0000
# 3 36.6237 42.9930 29.5531 0.0000 0.0000 0.0000
# 4 0.0000 0.0000 0.0000 19.8590 0.0000 0.0000
# 5 0.0000 0.0000 0.0000 0.0000 31.9050 0.0000
# 6 0.0000 0.0000 0.0000 0.0000 0.0000 22.6527
#
#
#
# Elastic Compliance Matrix: (Units=1/GPa)
#
#
# Indices 1 2 3 4 5 6 
#
# 1 0.034620 -0.010645 -0.027416 0.000000 0.000000 0.000000
# 2 -0.010645 0.014372 -0.007716 0.000000 0.000000 0.000000
# 3 -0.027416 -0.007716 0.079038 0.000000 0.000000 0.000000
# 4 0.000000 0.000000 0.000000 0.050355 0.000000 0.000000
# 5 0.000000 0.000000 0.000000 0.000000 0.031343 0.000000
# 6 0.000000 0.000000 0.000000 0.000000 0.000000 0.044145
#
#
# Mechanical properties :
#
#
# Convention : Reuss Voigt Hill
#
# Bulk Modulus (GPa) = 27.41606 65.13242 46.27424
# Shear Modulus (GPa) = 13.98268 21.84261 17.91265
#
# Velocity S-wave (km/s) = 2.93208 3.66465 3.31864
# Velocity P-wave (km/s) = 5.32158 7.61263 6.56778
#
# Compressibility (1/GPa) = 0.03647497
#
# Stress axis : x y z
#
# Youngs Moduli (GPa) = 28.88527 69.58089 12.65215
#
# Poissons Ratio (x) = 0.74069 0.34688
# Poissons Ratio (y) = 0.30749 0.09762
# Poissons Ratio (z) = 0.79193 0.53687
#
# Static dielectric constant tensor:
#      x y z
#    x 1.508530 0.000000 0.000000 
#    y 0.000000 1.545960 0.000000 
#    z 0.000000 0.000000 1.541520 
# 
# From -- ./inp_files/8152.got.cif
#   From: 2010.05.17/outbox.cif.g08.bks.cpg/sg58_5_cif.got.tgz:8152.got - 2010.06.03 14:20:14.
