data_PCOD9441788
_publ_section_title
;
Structure prediction by ZEFSAII (Michael W. Deem and Ramdas Pophale) SiO2 
 PCOD9441788
Probable space group: P N N M
;
_chemical_formula_sum "Si O2"
_cell_formula_units_Z 56
_cell_length_a 8.631782
_cell_length_b 17.310325
_cell_length_c 19.000571
_cell_angle_alpha 90.000000
_cell_angle_beta 90.000000
_cell_angle_gamma 90.000000
_cell_volume 2839.045401
_symmetry_space_group_name_H-M "P N N M"
_symmetry_group_IT_number 58
_symmetry_cell_setting 'orthorhombic'
loop_
_space_group_symop_operation_xyz
x,y,z
-x,-y,z
1/2+x,1/2-y,1/2-z
1/2-x,1/2+y,1/2-z
-x,-y,-z
x,y,-z
1/2-x,1/2+y,1/2+z
1/2+x,1/2-y,1/2+z
loop_
_atom_site_type_symbol
_atom_site_label
_atom_site_fract_x
_atom_site_fract_y
_atom_site_fract_z
Si Si1 0.356347 0.238211 0.351399
Si Si2 0.190910 0.381177 0.419141
Si Si3 0.034227 0.205632 0.725490
Si Si4 0.918937 0.359677 0.678374
Si Si5 0.960971 0.589982 0.165723
Si Si6 0.875184 0.056192 0.668145
Si Si7 0.321341 0.511404 0.682996
O O1 0.286771 0.301716 0.404595
O O2 0.491883 0.279753 0.306533
O O3 0.428705 0.154596 0.371156
O O4 0.207663 0.221478 0.300762
O O5 0.203867 0.402412 0.500000
O O6 0.244548 0.448448 0.366940
O O7 0.015578 0.371815 0.392514
O O8 0.924104 0.268280 0.687495
O O9 0.980009 0.122637 0.701554
O O10 0.760434 0.406362 0.674216
O O11 0.009523 0.390179 0.750126
O O12 0.782013 0.595294 0.139866
O O13 0.000000 0.500000 0.153736
O O14 0.806621 0.008992 0.734627
O O15 0.000000 0.000000 0.629504
O O16 0.500000 0.500000 0.666609
#
# Coordination Sequence:
#
# PCOD9441788 Si02
#       7
#     8   8   8   8   8   8   8
#     4  10  21  33  54  82 108 142 192 232 294 340
#     4  11  22  39  56  74 109 155 203 234 269 336
#     4  10  19  32  50  76 110 147 179 233 291 351
#     4  10  20  35  53  79 112 152 191 230 290 342
#     4  11  18  32  53  79 114 141 173 229 292 357
#     4  11  20  31  50  82 117 145 177 221 286 347
#     4  11  22  33  52  79 114 146 192 235 277 327
#
# _framework density 19.724938999999999
#
# number of rings (size 3 to 8) (size 9 to 14) (size 15 to 20)
#    0.000    1.429    4.286    3.000    6.000    2.571 
#    0.000    0.000    0.000    0.429    0.000    0.000 
#    0.000   14.286    0.000    0.000    0.000    0.000 
#
# Total GULP energy -311838.386285 kJ/mol
# GULP energy per Si atom -5568.542612 kJ/mol
# Density = 1.968004 g / cm^3
# Si number density = 19.724939 Si / 1000 Ang^3
#
#
#
# Elastic Constant Matrix: (Units=GPa)
#
#
# Indices 1 2 3 4 5 6 
#
# 1 101.9323 35.1028 8.8844 0.0000 0.0000 0.0000
# 2 35.1028 105.0666 -11.5639 0.0000 0.0000 0.0000
# 3 8.8844 -11.5639 14.6482 0.0000 0.0000 0.0000
# 4 0.0000 0.0000 0.0000 7.6137 0.0000 0.0000
# 5 0.0000 0.0000 0.0000 0.0000 4.0985 0.0000
# 6 0.0000 0.0000 0.0000 0.0000 0.0000 50.7971
#
#
#
# Elastic Compliance Matrix: (Units=1/GPa)
#
#
# Indices 1 2 3 4 5 6 
#
# 1 0.012812 -0.005624 -0.012210 0.000000 0.000000 0.000000
# 2 -0.005624 0.012892 0.013589 0.000000 0.000000 0.000000
# 3 -0.012210 0.013589 0.086401 0.000000 0.000000 0.000000
# 4 0.000000 0.000000 0.000000 0.131343 0.000000 0.000000
# 5 0.000000 0.000000 0.000000 0.000000 0.243993 0.000000
# 6 0.000000 0.000000 0.000000 0.000000 0.000000 0.019686
#
#
# Mechanical properties :
#
#
# Convention : Reuss Voigt Hill
#
# Bulk Modulus (GPa) = 9.65119 31.83262 20.74191
# Shear Modulus (GPa) = 9.08833 25.11678 17.10255
#
# Velocity S-wave (km/s) = 2.14884 3.57228 2.94777
# Velocity P-wave (km/s) = 3.32569 5.76092 4.70364
#
# Compressibility (1/GPa) = 0.10361414
#
# Stress axis : x y z
#
# Youngs Moduli (GPa) = 78.05481 77.56471 11.57390
#
# Poissons Ratio (x) = 0.43624 0.14132
# Poissons Ratio (y) = 0.43900 -0.15728
# Poissons Ratio (z) = 0.95308 -1.05403
#
# Static dielectric constant tensor:
#      x y z
#    x 1.844990 0.000000 0.000000 
#    y 0.000000 1.771970 0.000000 
#    z 0.000000 0.000000 1.663880 
# 
# From -- ./inp_files/29045.got.cif
#   From: 2010.05.17/outbox.cif.g08.bks.cpg/sg58_15_cif.got.tgz:29045.got - 2010.06.03 14:20:14.
