data_PCOD9441747
_publ_section_title
;
Structure prediction by ZEFSAII (Michael W. Deem and Ramdas Pophale) SiO2 
 PCOD9441747
Probable space group: P N N M
;
_chemical_formula_sum "Si O2"
_cell_formula_units_Z 48
_cell_length_a 21.241620
_cell_length_b 14.934788
_cell_length_c 7.510535
_cell_angle_alpha 90.000000
_cell_angle_beta 90.000000
_cell_angle_gamma 90.000000
_cell_volume 2382.635300
_symmetry_space_group_name_H-M "P N N M"
_symmetry_group_IT_number 58
_symmetry_cell_setting 'orthorhombic'
loop_
_space_group_symop_operation_xyz
x,y,z
-x,-y,z
1/2+x,1/2-y,1/2-z
1/2-x,1/2+y,1/2-z
-x,-y,-z
x,y,-z
1/2-x,1/2+y,1/2+z
1/2+x,1/2-y,1/2+z
loop_
_atom_site_type_symbol
_atom_site_label
_atom_site_fract_x
_atom_site_fract_y
_atom_site_fract_z
Si Si1 0.269985 0.493634 0.713364
Si Si2 0.625426 0.997874 0.217630
Si Si3 0.425398 0.807960 0.217685
Si Si4 0.065399 0.686831 0.711803
Si Si5 0.308743 0.690249 0.212613
Si Si6 0.812645 0.199597 0.785475
O O1 0.266193 0.486206 0.500000
O O2 0.197978 0.502445 0.777833
O O3 0.306356 0.584817 0.753392
O O4 0.300896 0.401560 0.778807
O O5 0.589651 0.909242 0.280909
O O6 0.592954 0.090792 0.268707
O O7 0.625820 0.995856 0.000000
O O8 0.496195 0.787805 0.279051
O O9 0.370831 0.740776 0.280057
O O10 0.424556 0.804824 0.000000
O O11 0.058585 0.675425 0.500000
O O12 0.120231 0.758587 0.740105
O O13 0.244584 0.737226 0.280386
O O14 0.308152 0.702790 0.000000
O O15 0.809174 0.198641 0.000000
#
# Coordination Sequence:
#
# PCOD9441747 Si02
#       6
#     8   8   8   8   8   8
#     4  10  19  33  53  77 102 131 169 208 248 299
#     4   9  15  27  50  79 104 125 159 208 254 299
#     4   9  17  31  51  77 105 133 166 207 259 302
#     4  10  19  31  53  80 103 130 169 214 250 295
#     4  10  19  33  53  75 101 133 168 207 250 298
#     4  10  20  34  52  73 104 139 165 200 254 307
#
# _framework density 20.145759000000002
#
# number of rings (size 3 to 8) (size 9 to 14) (size 15 to 20)
#    0.000    2.333    3.333    0.500    0.000    2.667 
#    0.000    1.667    0.000    9.000    0.000    0.000 
#    0.000    0.000    0.000    0.000    0.000    0.000 
#
# Total GULP energy -268020.372310 kJ/mol
# GULP energy per Si atom -5583.757756 kJ/mol
# Density = 2.009991 g / cm^3
# Si number density = 20.145759 Si / 1000 Ang^3
#
#
#
# Elastic Constant Matrix: (Units=GPa)
#
#
# Indices 1 2 3 4 5 6 
#
# 1 180.1261 90.4691 3.0362 0.0000 0.0000 0.0000
# 2 90.4691 147.9836 -4.8720 0.0000 0.0000 0.0000
# 3 3.0362 -4.8720 48.6988 0.0000 0.0000 0.0000
# 4 0.0000 0.0000 0.0000 18.5171 0.0000 0.0000
# 5 0.0000 0.0000 0.0000 0.0000 13.3156 0.0000
# 6 0.0000 0.0000 0.0000 0.0000 0.0000 16.1567
#
#
#
# Elastic Compliance Matrix: (Units=1/GPa)
#
#
# Indices 1 2 3 4 5 6 
#
# 1 0.008060 -0.004960 -0.000999 0.000000 0.000000 0.000000
# 2 -0.004960 0.009832 0.001293 0.000000 0.000000 0.000000
# 3 -0.000999 0.001293 0.020726 0.000000 0.000000 0.000000
# 4 0.000000 0.000000 0.000000 0.054004 0.000000 0.000000
# 5 0.000000 0.000000 0.000000 0.000000 0.075100 0.000000
# 6 0.000000 0.000000 0.000000 0.000000 0.000000 0.061894
#
#
# Mechanical properties :
#
#
# Convention : Reuss Voigt Hill
#
# Bulk Modulus (GPa) = 34.14569 61.56389 47.85479
# Shear Modulus (GPa) = 20.10371 28.80955 24.45663
#
# Velocity S-wave (km/s) = 3.16240 3.78571 3.48801
# Velocity P-wave (km/s) = 5.50641 7.05226 6.32672
#
# Compressibility (1/GPa) = 0.02928627
#
# Stress axis : x y z
#
# Youngs Moduli (GPa) = 124.07292 101.70394 48.24852
#
# Poissons Ratio (x) = 0.50447 0.04819
# Poissons Ratio (y) = 0.61543 -0.06238
# Poissons Ratio (z) = 0.12392 -0.13150
#
# Static dielectric constant tensor:
#      x y z
#    x 1.699830 0.000000 0.000000 
#    y 0.000000 1.683790 0.000000 
#    z 0.000000 0.000000 1.790140 
# 
# From -- ./inp_files/5752.got.cif
#   From: 2010.05.17/outbox.cif.g08.bks.cpg/sg58_3_cif.got.tgz:5752.got - 2010.06.03 14:20:14.
