data_PCOD9441030
_publ_section_title
;
Structure prediction by ZEFSAII (Michael W. Deem and Ramdas Pophale) SiO2 
 PCOD9441030
Probable space group: P N N M
;
_chemical_formula_sum "Si O2"
_cell_formula_units_Z 64
_cell_length_a 9.586734
_cell_length_b 17.535112
_cell_length_c 19.917199
_cell_angle_alpha 90.000000
_cell_angle_beta 90.000000
_cell_angle_gamma 90.000000
_cell_volume 3348.169871
_symmetry_space_group_name_H-M "P N N M"
_symmetry_group_IT_number 58
_symmetry_cell_setting 'orthorhombic'
loop_
_space_group_symop_operation_xyz
x,y,z
-x,-y,z
1/2+x,1/2-y,1/2-z
1/2-x,1/2+y,1/2-z
-x,-y,-z
x,y,-z
1/2-x,1/2+y,1/2+z
1/2+x,1/2-y,1/2+z
loop_
_atom_site_type_symbol
_atom_site_label
_atom_site_fract_x
_atom_site_fract_y
_atom_site_fract_z
Si Si1 0.265040 0.669246 0.284637
Si Si2 0.658805 0.503043 0.294832
Si Si3 0.961784 0.688854 0.764985
Si Si4 0.744735 0.087860 0.663233
Si Si5 0.154232 0.039752 0.421840
Si Si6 0.521727 0.671081 0.078122
Si Si7 0.913854 0.567976 0.652038
Si Si8 0.388804 0.161228 0.925128
O O1 0.302063 0.581682 0.270197
O O2 0.387538 0.729545 0.271692
O O3 0.219553 0.667247 0.363599
O O4 0.127944 0.693498 0.242503
O O5 0.500000 0.500000 0.315651
O O6 0.685252 0.560516 0.232903
O O7 0.760963 0.533446 0.352978
O O8 0.896688 0.633581 0.822055
O O9 0.915779 0.643170 0.697845
O O10 0.851389 0.143153 0.624256
O O11 0.738734 0.010441 0.620096
O O12 0.191305 0.037383 0.500000
O O13 0.118433 0.126322 0.401197
O O14 0.000000 0.000000 0.413400
O O15 0.520078 0.761457 0.079018
O O16 0.548520 0.647979 0.000000
O O17 0.000000 0.500000 0.688945
O O18 0.007219 0.591137 0.589060
O O19 0.327784 0.157591 0.000000
#
# Coordination Sequence:
#
# PCOD9441030 Si02
#       8
#     8   8   8   8   8   8   8   8
#     4  11  23  41  58  92 121 152 203 242 304 358
#     4  11  23  36  59  83 119 150 195 250 301 362
#     4  10  22  35  57  81 122 155 190 242 297 363
#     4  10  18  29  51  82 112 152 189 228 301 346
#     4   8  14  25  44  74 114 147 186 238 277 333
#     4   9  16  29  49  83 119 150 196 247 283 345
#     4  10  20  39  55  84 118 151 194 249 294 347
#     4  10  20  36  61  85 115 160 209 250 291 356
#
# _framework density 19.114920000000001
#
# number of rings (size 3 to 8) (size 9 to 14) (size 15 to 20)
#    0.000    2.125    3.750    2.250    3.500    2.250 
#    0.000    0.000    0.000    1.500    0.000   15.750 
#    0.000    0.000    0.000    0.000    0.000    0.000 
#
# Total GULP energy -356572.659581 kJ/mol
# GULP energy per Si atom -5571.447806 kJ/mol
# Density = 1.907141 g / cm^3
# Si number density = 19.114920 Si / 1000 Ang^3
#
#
#
# Elastic Constant Matrix: (Units=GPa)
#
#
# Indices 1 2 3 4 5 6 
#
# 1 79.2781 23.5887 10.7493 0.0000 0.0000 0.0000
# 2 23.5887 83.6634 13.0671 0.0000 0.0000 0.0000
# 3 10.7493 13.0671 56.5330 0.0000 0.0000 0.0000
# 4 0.0000 0.0000 0.0000 26.2207 0.0000 0.0000
# 5 0.0000 0.0000 0.0000 0.0000 7.8761 0.0000
# 6 0.0000 0.0000 0.0000 0.0000 0.0000 33.9968
#
#
#
# Elastic Compliance Matrix: (Units=1/GPa)
#
#
# Indices 1 2 3 4 5 6 
#
# 1 0.013945 -0.003649 -0.001808 0.000000 0.000000 0.000000
# 2 -0.003649 0.013355 -0.002393 0.000000 0.000000 0.000000
# 3 -0.001808 -0.002393 0.018586 0.000000 0.000000 0.000000
# 4 0.000000 0.000000 0.000000 0.038138 0.000000 0.000000
# 5 0.000000 0.000000 0.000000 0.000000 0.126967 0.000000
# 6 0.000000 0.000000 0.000000 0.000000 0.000000 0.029414
#
#
# Mechanical properties :
#
#
# Convention : Reuss Voigt Hill
#
# Bulk Modulus (GPa) = 33.12897 34.92052 34.02475
# Shear Modulus (GPa) = 18.78516 25.09001 21.93759
#
# Velocity S-wave (km/s) = 3.13828 3.62690 3.39140
# Velocity P-wave (km/s) = 5.52276 5.98728 5.75971
#
# Compressibility (1/GPa) = 0.03018506
#
# Stress axis : x y z
#
# Youngs Moduli (GPa) = 71.71131 74.87641 53.80485
#
# Poissons Ratio (x) = 0.27325 0.09728
# Poissons Ratio (y) = 0.26170 0.12876
# Poissons Ratio (z) = 0.12965 0.17919
#
# Static dielectric constant tensor:
#      x y z
#    x 1.664920 0.000000 0.000000 
#    y 0.000000 1.723710 0.000000 
#    z 0.000000 0.000000 1.713540 
# 
# From -- ./inp_files/29131.got.cif
#   From: 2010.05.17/outbox.cif.g08.bks.cpg/sg58_15_cif.got.tgz:29131.got - 2010.06.03 14:20:14.
