data_PCOD9441897
_publ_section_title
;
Structure prediction by ZEFSAII (Michael W. Deem and Ramdas Pophale) SiO2 
 PCOD9441897
Probable space group: P N N M
;
_chemical_formula_sum "Si O2"
_cell_formula_units_Z 64
_cell_length_a 25.438703
_cell_length_b 14.840965
_cell_length_c 7.652351
_cell_angle_alpha 90.000000
_cell_angle_beta 90.000000
_cell_angle_gamma 90.000000
_cell_volume 2889.029576
_symmetry_space_group_name_H-M "P N N M"
_symmetry_group_IT_number 58
_symmetry_cell_setting 'orthorhombic'
loop_
_space_group_symop_operation_xyz
x,y,z
-x,-y,z
1/2+x,1/2-y,1/2-z
1/2-x,1/2+y,1/2-z
-x,-y,-z
x,y,-z
1/2-x,1/2+y,1/2+z
1/2+x,1/2-y,1/2+z
loop_
_atom_site_type_symbol
_atom_site_label
_atom_site_fract_x
_atom_site_fract_y
_atom_site_fract_z
Si Si1 0.251642 0.156094 0.205911
Si Si2 0.168461 0.023236 0.793457
Si Si3 0.909146 0.259871 0.711582
Si Si4 0.142032 0.556812 0.200025
Si Si5 0.950388 0.561824 0.210863
Si Si6 0.473611 0.730430 0.207894
Si Si7 0.302582 0.334577 0.210869
Si Si8 0.445249 0.536708 0.701486
O O1 0.201396 0.106003 0.282644
O O2 0.303817 0.093490 0.219385
O O3 0.265432 0.254662 0.277681
O O4 0.242181 0.168320 0.000000
O O5 0.110397 0.007585 0.716928
O O6 0.204328 0.935051 0.774660
O O7 0.160954 0.039575 0.000000
O O8 0.908523 0.269868 0.500000
O O9 0.896845 0.357086 0.791068
O O10 0.861249 0.196169 0.762546
O O11 0.965541 0.224446 0.765084
O O12 0.105520 0.477756 0.276140
O O13 0.154877 0.534394 0.000000
O O14 0.956578 0.667165 0.253366
O O15 0.000000 0.500000 0.273028
O O16 0.949688 0.553059 0.000000
O O17 0.444799 0.645550 0.292253
O O18 0.470819 0.717428 0.000000
O O19 0.300193 0.335459 0.000000
O O20 0.500000 0.500000 0.781185
O O21 0.445702 0.505132 0.500000
#
# Coordination Sequence:
#
# PCOD9441897 Si02
#       8
#     8   8   8   8   8   8   8   8
#     4   9  20  39  58  79 113 148 182 231 289 342
#     4  10  21  39  61  84 112 150 189 233 289 344
#     4   9  18  32  51  78 113 149 184 225 277 332
#     4  10  19  32  54  81 107 144 193 237 275 324
#     4  10  20  35  53  79 117 156 192 234 285 343
#     4  11  22  34  54  84 116 153 191 232 286 341
#     4   9  18  34  57  81 106 141 183 230 280 331
#     4  10  22  40  61  85 115 152 192 238 293 351
#
# _framework density 22.152766
#
# number of rings (size 3 to 8) (size 9 to 14) (size 15 to 20)
#    0.000    2.250    1.250    2.250    0.000    5.000 
#    2.250    0.000    0.000    0.000    0.000    0.000 
#    0.000    0.000    0.000    0.000    0.000    0.000 
#
# Total GULP energy -357160.501171 kJ/mol
# GULP energy per Si atom -5580.632831 kJ/mol
# Density = 2.210235 g / cm^3
# Si number density = 22.152766 Si / 1000 Ang^3
#
#
#
# Elastic Constant Matrix: (Units=GPa)
#
#
# Indices 1 2 3 4 5 6 
#
# 1 85.4389 43.2995 1.7680 0.0000 0.0000 0.0000
# 2 43.2995 105.9365 -6.9065 0.0000 0.0000 0.0000
# 3 1.7680 -6.9065 42.2723 0.0000 0.0000 0.0000
# 4 0.0000 0.0000 0.0000 -16.4197 0.0000 0.0000
# 5 0.0000 0.0000 0.0000 0.0000 1.3441 0.0000
# 6 0.0000 0.0000 0.0000 0.0000 0.0000 30.8881
#
#
#
# Elastic Compliance Matrix: (Units=1/GPa)
#
#
# Indices 1 2 3 4 5 6 
#
# 1 0.014873 -0.006185 -0.001633 0.000000 0.000000 0.000000
# 2 -0.006185 0.012114 0.002238 0.000000 0.000000 0.000000
# 3 -0.001633 0.002238 0.024090 0.000000 0.000000 0.000000
# 4 0.000000 0.000000 0.000000 -0.060902 0.000000 0.000000
# 5 0.000000 0.000000 0.000000 0.000000 0.744004 0.000000
# 6 0.000000 0.000000 0.000000 0.000000 0.000000 0.032375
#
#
# Mechanical properties :
#
#
# Convention : Reuss Voigt Hill
#
# Bulk Modulus (GPa) = 25.05253 34.44108 29.74680
# Shear Modulus (GPa) = 6.32096 16.19494 11.25795
#
# Velocity S-wave (km/s) = 1.69102 2.70674 2.25677
# Velocity P-wave (km/s) = 3.89182 5.03482 4.49976
#
# Compressibility (1/GPa) = 0.03991614
#
# Stress axis : x y z
#
# Youngs Moduli (GPa) = 67.23705 82.55137 41.51094
#
# Poissons Ratio (x) = 0.51061 0.06777
# Poissons Ratio (y) = 0.41589 -0.09290
# Poissons Ratio (z) = 0.10977 -0.18474
#
# Static dielectric constant tensor:
#      x y z
#    x 1.839270 0.000000 0.000000 
#    y 0.000000 1.818320 0.000000 
#    z 0.000000 0.000000 1.813750 
# 
# From -- ./inp_files/10028.got.cif
#   From: 2010.05.17/outbox.cif.g08.bks.cpg/sg58_6_cif.got.tgz:10028.got - 2010.06.03 14:20:14.
