data_PCOD9441252
_publ_section_title
;
Structure prediction by ZEFSAII (Michael W. Deem and Ramdas Pophale) SiO2 
 PCOD9441252
Probable space group: P N N M
;
_chemical_formula_sum "Si O2"
_cell_formula_units_Z 56
_cell_length_a 19.166561
_cell_length_b 14.563360
_cell_length_c 7.851159
_cell_angle_alpha 90.000000
_cell_angle_beta 90.000000
_cell_angle_gamma 90.000000
_cell_volume 2191.490304
_symmetry_space_group_name_H-M "P N N M"
_symmetry_group_IT_number 58
_symmetry_cell_setting 'orthorhombic'
loop_
_space_group_symop_operation_xyz
x,y,z
-x,-y,z
1/2+x,1/2-y,1/2-z
1/2-x,1/2+y,1/2-z
-x,-y,-z
x,y,-z
1/2-x,1/2+y,1/2+z
1/2+x,1/2-y,1/2+z
loop_
_atom_site_type_symbol
_atom_site_label
_atom_site_fract_x
_atom_site_fract_y
_atom_site_fract_z
Si Si1 0.357867 0.042091 0.706575
Si Si2 0.934666 0.633742 0.702394
Si Si3 0.287609 0.782532 0.196192
Si Si4 0.212755 0.946918 0.302269
Si Si5 0.504620 0.604792 0.709305
Si Si6 0.853076 0.884129 0.804546
Si Si7 0.578603 0.776900 0.302610
O O1 0.359419 0.043682 0.500000
O O2 0.370698 0.145390 0.771539
O O3 0.418790 0.973720 0.767670
O O4 0.285334 0.994572 0.758403
O O5 0.942560 0.650338 0.500000
O O6 0.862114 0.680648 0.765416
O O7 0.002569 0.673138 0.794788
O O8 0.225167 0.839077 0.279012
O O9 0.293489 0.673426 0.211037
O O10 0.284227 0.808095 0.000000
O O11 0.202791 0.966513 0.500000
O O12 0.155046 0.006078 0.206672
O O13 0.500000 0.500000 0.766398
O O14 0.506122 0.604912 0.500000
O O15 0.428840 0.642266 0.763868
O O16 0.563260 0.675661 0.771079
O O17 0.848081 0.857668 0.000000
O O18 0.599516 0.763234 0.500000
#
# Coordination Sequence:
#
# PCOD9441252 Si02
#       7
#     8   8   8   8   8   8   8
#     4   9  19  33  51  78 111 148 186 227 274 335
#     4  10  19  30  50  80 112 143 177 223 282 339
#     4  10  20  36  58  83 111 149 194 237 285 349
#     4  10  21  38  57  83 119 154 194 243 292 344
#     4   9  19  36  58  84 111 145 194 243 281 334
#     4  11  21  37  62  88 114 150 192 240 296 347
#     4  10  18  32  54  78 107 145 188 229 275 332
#
# _framework density 25.553387000000001
#
# number of rings (size 3 to 8) (size 9 to 14) (size 15 to 20)
#    0.000    2.143    1.429    2.143    0.000    4.000 
#    2.571    0.000    0.000    3.857    0.000    0.000 
#    0.000    0.000    0.000    0.000    0.000    0.000 
#
# Total GULP energy -313049.226232 kJ/mol
# GULP energy per Si atom -5590.164754 kJ/mol
# Density = 2.549523 g / cm^3
# Si number density = 25.553387 Si / 1000 Ang^3
#
#
#
# Elastic Constant Matrix: (Units=GPa)
#
#
# Indices 1 2 3 4 5 6 
#
# 1 70.7903 1.9575 -4.5027 0.0000 0.0000 0.0000
# 2 1.9575 154.9914 -4.4170 0.0000 0.0000 0.0000
# 3 -4.5027 -4.4170 54.5686 0.0000 0.0000 0.0000
# 4 0.0000 0.0000 0.0000 -13.6929 0.0000 0.0000
# 5 0.0000 0.0000 0.0000 0.0000 7.4482 0.0000
# 6 0.0000 0.0000 0.0000 0.0000 0.0000 42.6635
#
#
#
# Elastic Compliance Matrix: (Units=1/GPa)
#
#
# Indices 1 2 3 4 5 6 
#
# 1 0.014204 -0.000146 0.001160 0.000000 0.000000 0.000000
# 2 -0.000146 0.006468 0.000512 0.000000 0.000000 0.000000
# 3 0.001160 0.000512 0.018463 0.000000 0.000000 0.000000
# 4 0.000000 0.000000 0.000000 -0.073030 0.000000 0.000000
# 5 0.000000 0.000000 0.000000 0.000000 0.134261 0.000000
# 6 0.000000 0.000000 0.000000 0.000000 0.000000 0.023439
#
#
# Mechanical properties :
#
#
# Convention : Reuss Voigt Hill
#
# Bulk Modulus (GPa) = 23.70460 29.60287 26.65373
# Shear Modulus (GPa) = 37.08751 26.43791 31.76271
#
# Velocity S-wave (km/s) = 3.81382 3.22003 3.52944
# Velocity P-wave (km/s) = 5.35633 5.04328 5.20216
#
# Compressibility (1/GPa) = 0.04218591
#
# Stress axis : x y z
#
# Youngs Moduli (GPa) = 70.40234 154.59779 54.16329
#
# Poissons Ratio (x) = 0.02262 -0.06284
# Poissons Ratio (y) = 0.01030 -0.02770
# Poissons Ratio (z) = -0.08168 -0.07908
#
# Static dielectric constant tensor:
#      x y z
#    x 2.038070 0.000000 0.000000 
#    y 0.000000 2.080090 0.000000 
#    z 0.000000 0.000000 1.878070 
# 
# From -- ./inp_files/6313.got.cif
#   From: 2010.05.17/outbox.cif.g08.bks.cpg/sg58_4_cif.got.tgz:6313.got - 2010.06.03 14:20:14.
