data_PCOD9441820
_publ_section_title
;
Structure prediction by ZEFSAII (Michael W. Deem and Ramdas Pophale) SiO2 
 PCOD9441820
Probable space group: P N N M
;
_chemical_formula_sum "Si O2"
_cell_formula_units_Z 64
_cell_length_a 12.561510
_cell_length_b 16.383999
_cell_length_c 17.277903
_cell_angle_alpha 90.000000
_cell_angle_beta 90.000000
_cell_angle_gamma 90.000000
_cell_volume 3555.926640
_symmetry_space_group_name_H-M "P N N M"
_symmetry_group_IT_number 58
_symmetry_cell_setting 'orthorhombic'
loop_
_space_group_symop_operation_xyz
x,y,z
-x,-y,z
1/2+x,1/2-y,1/2-z
1/2-x,1/2+y,1/2-z
-x,-y,-z
x,y,-z
1/2-x,1/2+y,1/2+z
1/2+x,1/2-y,1/2+z
loop_
_atom_site_type_symbol
_atom_site_label
_atom_site_fract_x
_atom_site_fract_y
_atom_site_fract_z
Si Si1 0.100474 0.559495 0.302034
Si Si2 0.585315 0.438126 0.869065
Si Si3 0.743603 0.050309 0.286733
Si Si4 0.314160 0.729151 0.086818
Si Si5 0.536428 0.798339 0.907734
Si Si6 0.566326 0.084306 0.413746
Si Si7 0.428661 0.330592 0.780068
Si Si8 0.907626 0.306215 0.166388
O O1 0.199536 0.500186 0.286169
O O2 0.087316 0.618119 0.376040
O O3 0.101291 0.621199 0.229204
O O4 0.000000 0.500000 0.299117
O O5 0.500000 0.500000 0.907192
O O6 0.683640 0.490215 0.838335
O O7 0.629571 0.360161 0.914229
O O8 0.518678 0.396910 0.798922
O O9 0.649643 0.080775 0.343347
O O10 0.819162 0.124023 0.262523
O O11 0.409337 0.790452 0.111608
O O12 0.209393 0.719555 0.138121
O O13 0.281895 0.751382 0.000000
O O14 0.585366 0.724085 0.857796
O O15 0.547404 0.788882 0.000000
O O16 0.614984 0.090192 0.500000
O O17 0.482830 0.157242 0.399625
O O18 0.500000 0.000000 0.411004
O O19 0.458590 0.269515 0.711756
#
# Coordination Sequence:
#
# PCOD9441820 Si02
#       8
#     8   8   8   8   8   8   8   8
#     4  11  20  34  56  80 108 140 179 234 273 322
#     4   9  18  34  50  76 107 137 183 221 270 324
#     4  11  19  35  54  83 108 141 185 224 275 329
#     4  10  19  32  52  75 108 147 182 223 272 334
#     4   9  21  39  54  78 111 145 186 231 281 329
#     4  11  21  34  52  78 113 142 173 219 270 330
#     4   9  22  33  58  76 106 146 180 234 269 329
#     4  11  19  35  51  82 106 144 183 221 275 326
#
# _framework density 17.998121999999999
#
# number of rings (size 3 to 8) (size 9 to 14) (size 15 to 20)
#    0.000    1.875    3.750    0.375    1.750    3.500 
#    0.000    2.500    0.000    0.000    0.000    0.000 
#    0.000    7.500    0.000    0.000    0.000    0.000 
#
# Total GULP energy -356686.318169 kJ/mol
# GULP energy per Si atom -5573.223721 kJ/mol
# Density = 1.795716 g / cm^3
# Si number density = 17.998122 Si / 1000 Ang^3
#
#
#
# Elastic Constant Matrix: (Units=GPa)
#
#
# Indices 1 2 3 4 5 6 
#
# 1 62.3695 25.9751 14.3487 0.0000 0.0000 0.0000
# 2 25.9751 63.8294 27.3395 0.0000 0.0000 0.0000
# 3 14.3487 27.3395 49.2382 0.0000 0.0000 0.0000
# 4 0.0000 0.0000 0.0000 6.6705 0.0000 0.0000
# 5 0.0000 0.0000 0.0000 0.0000 10.9377 0.0000
# 6 0.0000 0.0000 0.0000 0.0000 0.0000 26.9249
#
#
#
# Elastic Compliance Matrix: (Units=1/GPa)
#
#
# Indices 1 2 3 4 5 6 
#
# 1 0.019409 -0.007184 -0.001667 0.000000 0.000000 0.000000
# 2 -0.007184 0.023215 -0.010796 0.000000 0.000000 0.000000
# 3 -0.001667 -0.010796 0.026790 0.000000 0.000000 0.000000
# 4 0.000000 0.000000 0.000000 0.149915 0.000000 0.000000
# 5 0.000000 0.000000 0.000000 0.000000 0.091427 0.000000
# 6 0.000000 0.000000 0.000000 0.000000 0.000000 0.037140
#
#
# Mechanical properties :
#
#
# Convention : Reuss Voigt Hill
#
# Bulk Modulus (GPa) = 33.20242 34.52929 33.86585
# Shear Modulus (GPa) = 12.58715 16.09154 14.33934
#
# Velocity S-wave (km/s) = 2.64741 2.99334 2.82567
# Velocity P-wave (km/s) = 5.27568 5.58331 5.43167
#
# Compressibility (1/GPa) = 0.03011829
#
# Stress axis : x y z
#
# Youngs Moduli (GPa) = 51.52225 43.07604 37.32764
#
# Poissons Ratio (x) = 0.30948 0.06222
# Poissons Ratio (y) = 0.37016 0.40300
# Poissons Ratio (z) = 0.08588 0.46506
#
# Static dielectric constant tensor:
#      x y z
#    x 1.629390 0.000000 0.000000 
#    y 0.000000 1.626980 0.000000 
#    z 0.000000 0.000000 1.606600 
# 
# From -- ./inp_files/26353.got.cif
#   From: 2010.05.17/outbox.cif.g08.bks.cpg/sg58_14_cif.got.tgz:26353.got - 2010.06.03 14:20:14.
