data_PCOD9441678
_publ_section_title
;
Structure prediction by ZEFSAII (Michael W. Deem and Ramdas Pophale) SiO2 
 PCOD9441678
Probable space group: P N N M
;
_chemical_formula_sum "Si O2"
_cell_formula_units_Z 36
_cell_length_a 15.181400
_cell_length_b 5.287197
_cell_length_c 24.973908
_cell_angle_alpha 90.000000
_cell_angle_beta 90.000000
_cell_angle_gamma 90.000000
_cell_volume 2004.581985
_symmetry_space_group_name_H-M "P N N M"
_symmetry_group_IT_number 58
_symmetry_cell_setting 'orthorhombic'
loop_
_space_group_symop_operation_xyz
x,y,z
-x,-y,z
1/2+x,1/2-y,1/2-z
1/2-x,1/2+y,1/2-z
-x,-y,-z
x,y,-z
1/2-x,1/2+y,1/2+z
1/2+x,1/2-y,1/2+z
loop_
_atom_site_type_symbol
_atom_site_label
_atom_site_fract_x
_atom_site_fract_y
_atom_site_fract_z
Si Si1 0.500000 0.500000 0.599708
Si Si2 0.761390 0.476102 0.128174
Si Si3 0.430801 0.173834 0.307233
Si Si4 0.302564 0.527395 0.562283
Si Si5 0.804535 0.041481 0.735172
O O1 0.517382 0.725269 0.641142
O O2 0.409582 0.532084 0.567553
O O3 0.847284 0.467898 0.166929
O O4 0.767728 0.218580 0.094170
O O5 0.683696 0.490513 0.172006
O O6 0.767308 0.719785 0.090699
O O7 0.390118 0.394044 0.270503
O O8 0.500000 0.000000 0.276376
O O9 0.279181 0.516297 0.500000
O O10 0.746109 0.298145 0.741198
#
# Coordination Sequence:
#
# PCOD9441678 Si02
#       5
#     4   8   8   8   8
#     4  10  19  32  44  72 104 134 163 204 240 296
#     4  10  20  35  47  70  99 131 170 210 242 292
#     4  10  19  31  50  72 103 133 167 201 251 304
#     4  11  21  33  50  68  97 135 176 209 241 278
#     4  10  20  33  51  71  97 136 168 202 254 304
#
# _framework density 17.958856999999998
#
# number of rings (size 3 to 8) (size 9 to 14) (size 15 to 20)
#    0.000    1.778    2.222    5.000    3.111    0.000 
#    0.000    3.333    0.000    0.000    0.000    0.000 
#    0.000    5.333    0.000    0.000    0.000    0.000 
#
# Total GULP energy -200684.303101 kJ/mol
# GULP energy per Si atom -5574.563975 kJ/mol
# Density = 1.791798 g / cm^3
# Si number density = 17.958857 Si / 1000 Ang^3
#
#
#
# Elastic Constant Matrix: (Units=GPa)
#
#
# Indices 1 2 3 4 5 6 
#
# 1 9.3085 18.2434 23.1833 0.0000 0.0000 0.0000
# 2 18.2434 130.4842 51.4109 0.0000 0.0000 0.0000
# 3 23.1833 51.4109 132.7812 0.0000 0.0000 0.0000
# 4 0.0000 0.0000 0.0000 38.5389 0.0000 0.0000
# 5 0.0000 0.0000 0.0000 0.0000 -229.6720 0.0000
# 6 0.0000 0.0000 0.0000 0.0000 0.0000 23.8031
#
#
#
# Elastic Compliance Matrix: (Units=1/GPa)
#
#
# Indices 1 2 3 4 5 6 
#
# 1 0.223009 -0.018690 -0.031701 0.000000 0.000000 0.000000
# 2 -0.018690 0.010610 -0.000845 0.000000 0.000000 0.000000
# 3 -0.031701 -0.000845 0.013393 0.000000 0.000000 0.000000
# 4 0.000000 0.000000 0.000000 0.025948 0.000000 0.000000
# 5 0.000000 0.000000 0.000000 0.000000 -0.004354 0.000000
# 6 0.000000 0.000000 0.000000 0.000000 0.000000 0.042011
#
#
# Mechanical properties :
#
#
# Convention : Reuss Voigt Hill
#
# Bulk Modulus (GPa) = 6.91838 50.91656 28.91747
# Shear Modulus (GPa) = 10.83969 -21.48357 -5.32194
#
# Velocity S-wave (km/s) = 2.45946 -3.46246 -1.72332
# Velocity P-wave (km/s) = 3.45340 3.52541 3.48959
#
# Compressibility (1/GPa) = 0.14454242
#
# Stress axis : x y z
#
# Youngs Moduli (GPa) = 4.48412 94.25403 74.66526
#
# Poissons Ratio (x) = 1.76156 2.36693
# Poissons Ratio (y) = 0.08381 0.06307
# Poissons Ratio (z) = 0.14215 0.07962
#
# Static dielectric constant tensor:
#      x y z
#    x 1.694260 0.000000 0.000000 
#    y 0.000000 1.677770 0.000000 
#    z 0.000000 0.000000 1.618760 
# 
# From -- ./inp_files/30168.got.cif
#   From: 2010.05.17/outbox.cif.g08.bks.cpg/sg58_16_cif.got.tgz:30168.got - 2010.06.03 14:20:14.
