data_PCOD9441725
_publ_section_title
;
Structure prediction by ZEFSAII (Michael W. Deem and Ramdas Pophale) SiO2 
 PCOD9441725
Probable space group: P N N M
;
_chemical_formula_sum "Si O2"
_cell_formula_units_Z 58
_cell_length_a 25.462037
_cell_length_b 14.804584
_cell_length_c 7.497611
_cell_angle_alpha 90.000000
_cell_angle_beta 90.000000
_cell_angle_gamma 90.000000
_cell_volume 2826.260947
_symmetry_space_group_name_H-M "P N N M"
_symmetry_group_IT_number 58
_symmetry_cell_setting 'orthorhombic'
loop_
_space_group_symop_operation_xyz
x,y,z
-x,-y,z
1/2+x,1/2-y,1/2-z
1/2-x,1/2+y,1/2-z
-x,-y,-z
x,y,-z
1/2-x,1/2+y,1/2+z
1/2+x,1/2-y,1/2+z
loop_
_atom_site_type_symbol
_atom_site_label
_atom_site_fract_x
_atom_site_fract_y
_atom_site_fract_z
Si Si1 0.227368 0.916648 0.217346
Si Si2 0.492846 0.849406 0.294483
Si Si3 0.000000 0.500000 0.500000
Si Si4 0.811765 0.891151 0.783759
Si Si5 0.595930 0.269717 0.705466
Si Si6 0.203860 0.715485 0.789144
Si Si7 0.651262 0.081505 0.782884
Si Si8 0.604039 0.897065 0.797629
O O1 0.196571 0.005848 0.275751
O O2 0.288083 0.926019 0.271228
O O3 0.207086 0.818781 0.275008
O O4 0.226735 0.915666 0.000000
O O5 0.477264 0.867900 0.500000
O O6 0.461807 0.759901 0.230947
O O7 0.556057 0.845222 0.290731
O O8 0.479844 0.929118 0.158545
O O9 0.864741 0.843644 0.714335
O O10 0.760126 0.832781 0.736106
O O11 0.813393 0.891013 0.000000
O O12 0.588910 0.296367 0.500000
O O13 0.627506 0.175189 0.718435
O O14 0.157071 0.660366 0.698425
O O15 0.192384 0.715303 0.000000
O O16 0.620692 0.992933 0.718091
O O17 0.650130 0.080826 0.000000
O O18 0.583218 0.916975 0.000000
#
# Coordination Sequence:
#
# PCOD9441725 Si02
#       8
#     8   8   2   8   8   8   8   8
#     4   9  18  34  53  78 111 147 187 231 287 350
#     4  11  24  40  56  86 122 158 206 251 290 363
#     4  12  22  40  60  90 120 166 198 236 320 352
#     4  10  19  37  57  79 110 152 194 237 291 356
#     4  10  22  35  55  82 113 151 192 243 291 340
#     4  11  21  34  54  84 113 148 189 243 296 345
#     4  10  19  31  52  77 111 148 184 222 273 347
#     4  11  22  38  58  81 111 160 200 236 297 355
#
# _framework density 20.521813999999999
#
# number of rings (size 3 to 8) (size 9 to 14) (size 15 to 20)
#    0.000    1.655    3.448    1.862    2.897    2.207 
#    0.000    1.379    0.000    0.828    0.000    5.793 
#    0.000    0.000    0.000    0.000    0.000    0.000 
#
# Total GULP energy -323500.027418 kJ/mol
# GULP energy per Si atom -5577.586680 kJ/mol
# Density = 2.047511 g / cm^3
# Si number density = 20.521814 Si / 1000 Ang^3
#
#
#
# Elastic Constant Matrix: (Units=GPa)
#
#
# Indices 1 2 3 4 5 6 
#
# 1 53.6490 3.7418 -1.4738 0.0000 0.0000 0.0000
# 2 3.7418 88.3613 -5.7118 0.0000 0.0000 0.0000
# 3 -1.4738 -5.7118 83.0140 0.0000 0.0000 0.0000
# 4 0.0000 0.0000 0.0000 -7.5498 0.0000 0.0000
# 5 0.0000 0.0000 0.0000 0.0000 17.9837 0.0000
# 6 0.0000 0.0000 0.0000 0.0000 0.0000 35.2134
#
#
#
# Elastic Compliance Matrix: (Units=1/GPa)
#
#
# Indices 1 2 3 4 5 6 
#
# 1 0.018701 -0.000774 0.000279 0.000000 0.000000 0.000000
# 2 -0.000774 0.011400 0.000771 0.000000 0.000000 0.000000
# 3 0.000279 0.000771 0.012104 0.000000 0.000000 0.000000
# 4 0.000000 0.000000 0.000000 -0.132455 0.000000 0.000000
# 5 0.000000 0.000000 0.000000 0.000000 0.055606 0.000000
# 6 0.000000 0.000000 0.000000 0.000000 0.000000 0.028398
#
#
# Mechanical properties :
#
#
# Convention : Reuss Voigt Hill
#
# Bulk Modulus (GPa) = 23.38843 24.23739 23.81291
# Shear Modulus (GPa) = 670.62126 24.36068 347.49097
#
# Velocity S-wave (km/s) = 18.09680 3.44912 13.02671
# Velocity P-wave (km/s) = 21.16791 5.26289 15.42366
#
# Compressibility (1/GPa) = 0.04275619
#
# Stress axis : x y z
#
# Youngs Moduli (GPa) = 53.47220 87.72117 82.61638
#
# Poissons Ratio (x) = 0.06789 -0.02303
# Poissons Ratio (y) = 0.04138 -0.06367
# Poissons Ratio (z) = -0.01491 -0.06760
#
# Static dielectric constant tensor:
#      x y z
#    x 1.639630 0.000000 0.000000 
#    y 0.000000 1.652330 0.000000 
#    z 0.000000 0.000000 1.783140 
# 
# From -- ./inp_files/7078.got.cif
#   From: 2010.05.17/outbox.cif.g08.bks.cpg/sg58_4_cif.got.tgz:7078.got - 2010.06.03 14:20:14.
