data_PCOD9441477
_publ_section_title
;
Structure prediction by ZEFSAII (Michael W. Deem and Ramdas Pophale) SiO2 
 PCOD9441477
Probable space group: P N N M
;
_chemical_formula_sum "Si O2"
_cell_formula_units_Z 58
_cell_length_a 22.759072
_cell_length_b 14.560896
_cell_length_c 7.682173
_cell_angle_alpha 90.000000
_cell_angle_beta 90.000000
_cell_angle_gamma 90.000000
_cell_volume 2545.814366
_symmetry_space_group_name_H-M "P N N M"
_symmetry_group_IT_number 58
_symmetry_cell_setting 'orthorhombic'
loop_
_space_group_symop_operation_xyz
x,y,z
-x,-y,z
1/2+x,1/2-y,1/2-z
1/2-x,1/2+y,1/2-z
-x,-y,-z
x,y,-z
1/2-x,1/2+y,1/2+z
1/2+x,1/2-y,1/2+z
loop_
_atom_site_type_symbol
_atom_site_label
_atom_site_fract_x
_atom_site_fract_y
_atom_site_fract_z
Si Si1 0.220757 0.281253 0.209370
Si Si2 0.086476 0.537165 0.791705
Si Si3 0.902456 0.819614 0.788308
Si Si4 0.581968 0.531040 0.810245
Si Si5 0.785379 0.392083 0.708723
Si Si6 0.206828 0.949149 0.799219
Si Si7 0.000000 0.000000 0.000000
Si Si8 0.474081 0.852209 0.712678
O O1 0.158426 0.234058 0.248921
O O2 0.271175 0.210133 0.266431
O O3 0.240127 0.377008 0.289007
O O4 0.221299 0.293648 0.000000
O O5 0.151136 0.569785 0.750022
O O6 0.070423 0.434100 0.731916
O O7 0.037377 0.609865 0.729993
O O8 0.080554 0.533976 0.000000
O O9 0.906218 0.920757 0.709288
O O10 0.952710 0.747900 0.731814
O O11 0.906549 0.834631 0.000000
O O12 0.646096 0.577180 0.790558
O O13 0.538332 0.552270 0.653573
O O14 0.558031 0.552878 0.000000
O O15 0.779025 0.392396 0.500000
O O16 0.734502 0.458478 0.778063
O O17 0.190736 0.965698 0.000000
O O18 0.473106 0.849174 0.500000
#
# Coordination Sequence:
#
# PCOD9441477 Si02
#       8
#     8   8   8   8   8   8   2   8
#     4  10  21  37  61  92 127 168 216 267 337 407
#     4   9  17  33  54  85 118 159 210 259 311 388
#     4  10  18  38  64  91 129 175 218 278 335 393
#     4  12  25  45  73  98 131 175 228 279 340 406
#     4  10  21  37  57  84 126 165 200 257 334 390
#     4  11  22  42  65  92 131 173 215 281 340 400
#     4  12  26  52  72  98 132 178 222 282 336 390
#     4   8  16  31  57  84 117 161 212 257 314 384
#
# _framework density 22.782495000000001
#
# number of rings (size 3 to 8) (size 9 to 14) (size 15 to 20)
#    0.000    1.931    2.759    2.276    0.000    3.310 
#    2.483    2.759    0.000    0.000    0.000    0.000 
#    0.000    0.000    0.000    0.000    0.000    0.000 
#
# Total GULP energy -323559.852284 kJ/mol
# GULP energy per Si atom -5578.618143 kJ/mol
# Density = 2.273064 g / cm^3
# Si number density = 22.782495 Si / 1000 Ang^3
#
#
#
# Elastic Constant Matrix: (Units=GPa)
#
#
# Indices 1 2 3 4 5 6 
#
# 1 58.7874 -16.1538 12.5489 0.0000 0.0000 0.0000
# 2 -16.1538 44.8716 -1.8720 0.0000 0.0000 0.0000
# 3 12.5489 -1.8720 86.8549 0.0000 0.0000 0.0000
# 4 0.0000 0.0000 0.0000 12.8187 0.0000 0.0000
# 5 0.0000 0.0000 0.0000 0.0000 14.6039 0.0000
# 6 0.0000 0.0000 0.0000 0.0000 0.0000 26.3543
#
#
#
# Elastic Compliance Matrix: (Units=1/GPa)
#
#
# Indices 1 2 3 4 5 6 
#
# 1 0.019475 0.006900 -0.002665 0.000000 0.000000 0.000000
# 2 0.006900 0.024750 -0.000463 0.000000 0.000000 0.000000
# 3 -0.002665 -0.000463 0.011889 0.000000 0.000000 0.000000
# 4 0.000000 0.000000 0.000000 0.078011 0.000000 0.000000
# 5 0.000000 0.000000 0.000000 0.000000 0.068475 0.000000
# 6 0.000000 0.000000 0.000000 0.000000 0.000000 0.037944
#
#
# Mechanical properties :
#
#
# Convention : Reuss Voigt Hill
#
# Bulk Modulus (GPa) = 15.70916 19.95111 17.83014
# Shear Modulus (GPa) = 19.66791 23.82143 21.74467
#
# Velocity S-wave (km/s) = 2.94137 3.23709 3.09276
# Velocity P-wave (km/s) = 4.29485 4.76947 4.53837
#
# Compressibility (1/GPa) = 0.06365713
#
# Stress axis : x y z
#
# Youngs Moduli (GPa) = 51.34694 40.40328 84.11471
#
# Poissons Ratio (x) = -0.27878 0.22417
# Poissons Ratio (y) = -0.35429 0.03898
# Poissons Ratio (z) = 0.13685 0.01873
#
# Static dielectric constant tensor:
#      x y z
#    x 1.867420 0.000000 0.000000 
#    y 0.000000 1.840880 0.000000 
#    z 0.000000 0.000000 1.852120 
# 
# From -- ./inp_files/9850.got.cif
#   From: 2010.05.17/outbox.cif.g08.bks.cpg/sg58_5_cif.got.tgz:9850.got - 2010.06.03 14:20:14.
