data_PCOD9441709
_publ_section_title
;
Structure prediction by ZEFSAII (Michael W. Deem and Ramdas Pophale) SiO2 
 PCOD9441709
Probable space group: P N N M
;
_chemical_formula_sum "Si O2"
_cell_formula_units_Z 32
_cell_length_a 14.867627
_cell_length_b 12.949249
_cell_length_c 8.699605
_cell_angle_alpha 90.000000
_cell_angle_beta 90.000000
_cell_angle_gamma 90.000000
_cell_volume 1674.888008
_symmetry_space_group_name_H-M "P N N M"
_symmetry_group_IT_number 58
_symmetry_cell_setting 'orthorhombic'
loop_
_space_group_symop_operation_xyz
x,y,z
-x,-y,z
1/2+x,1/2-y,1/2-z
1/2-x,1/2+y,1/2-z
-x,-y,-z
x,y,-z
1/2-x,1/2+y,1/2+z
1/2+x,1/2-y,1/2+z
loop_
_atom_site_type_symbol
_atom_site_label
_atom_site_fract_x
_atom_site_fract_y
_atom_site_fract_z
Si Si1 0.903548 0.458868 0.812316
Si Si2 0.938078 0.896596 0.676056
Si Si3 0.404957 0.276844 0.682864
Si Si4 0.284591 0.458956 0.813919
O O1 0.890423 0.340224 0.764636
O O2 0.818098 0.526971 0.764689
O O3 0.000000 0.500000 0.759705
O O4 0.904481 0.459807 0.000000
O O5 0.928622 0.860571 0.500000
O O6 0.994818 0.814573 0.771467
O O7 0.843067 0.940154 0.734518
O O8 0.000000 0.000000 0.673641
O O9 0.396274 0.280871 0.500000
O O10 0.334212 0.357371 0.753596
O O11 0.289270 0.457125 0.000000
#
# Coordination Sequence:
#
# PCOD9441709 Si02
#       4
#     8   8   8   8
#     4   9  19  35  52  72 101 135 167 200 246 302
#     4   8  15  29  49  72  98 130 164 196 240 298
#     4  10  19  31  51  78 102 126 164 212 250 284
#     4   9  18  34  54  73  98 135 171 200 242 303
#
# _framework density 19.105754999999998
#
# number of rings (size 3 to 8) (size 9 to 14) (size 15 to 20)
#    0.000    3.000    0.000    2.250    0.000    6.500 
#    0.000    2.500    0.000    5.250    0.000    0.000 
#    0.000    0.000    0.000    0.000    0.000    0.000 
#
# Total GULP energy -178346.883146 kJ/mol
# GULP energy per Si atom -5573.340098 kJ/mol
# Density = 1.906227 g / cm^3
# Si number density = 19.105755 Si / 1000 Ang^3
#
#
#
# Elastic Constant Matrix: (Units=GPa)
#
#
# Indices 1 2 3 4 5 6 
#
# 1 165.1051 61.5972 19.9705 0.0000 0.0000 0.0000
# 2 61.5972 97.8050 20.7286 0.0000 0.0000 0.0000
# 3 19.9705 20.7286 15.1442 0.0000 0.0000 0.0000
# 4 0.0000 0.0000 0.0000 15.3604 0.0000 0.0000
# 5 0.0000 0.0000 0.0000 0.0000 14.1695 0.0000
# 6 0.0000 0.0000 0.0000 0.0000 0.0000 20.8430
#
#
#
# Elastic Compliance Matrix: (Units=1/GPa)
#
#
# Indices 1 2 3 4 5 6 
#
# 1 0.008206 -0.004049 -0.005279 0.000000 0.000000 0.000000
# 2 -0.004049 0.016401 -0.017108 0.000000 0.000000 0.000000
# 3 -0.005279 -0.017108 0.096410 0.000000 0.000000 0.000000
# 4 0.000000 0.000000 0.000000 0.065102 0.000000 0.000000
# 5 0.000000 0.000000 0.000000 0.000000 0.070574 0.000000
# 6 0.000000 0.000000 0.000000 0.000000 0.000000 0.047978
#
#
# Mechanical properties :
#
#
# Convention : Reuss Voigt Hill
#
# Bulk Modulus (GPa) = 14.67491 53.62746 34.15118
# Shear Modulus (GPa) = 13.14898 21.79180 17.47039
#
# Velocity S-wave (km/s) = 2.62624 3.38092 3.02719
# Velocity P-wave (km/s) = 4.11020 6.58563 5.48928
#
# Compressibility (1/GPa) = 0.06814352
#
# Stress axis : x y z
#
# Youngs Moduli (GPa) = 121.86280 60.97330 10.37240
#
# Poissons Ratio (x) = 0.24690 0.05475
# Poissons Ratio (y) = 0.49346 0.17746
# Poissons Ratio (z) = 0.64326 1.04316
#
# Static dielectric constant tensor:
#      x y z
#    x 1.699470 0.000000 0.000000 
#    y 0.000000 1.658380 0.000000 
#    z 0.000000 0.000000 1.650150 
# 
# From -- ./inp_files/3490.got.cif
#   From: 2010.05.17/outbox.cif.g08.bks.cpg/sg58_2_cif.got.tgz:3490.got - 2010.06.03 14:20:14.
