data_PCOD9441180
_publ_section_title
;
Structure prediction by ZEFSAII (Michael W. Deem and Ramdas Pophale) SiO2 
 PCOD9441180
Probable space group: P N N M
;
_chemical_formula_sum "Si O2"
_cell_formula_units_Z 40
_cell_length_a 12.583400
_cell_length_b 7.624972
_cell_length_c 20.356571
_cell_angle_alpha 90.000000
_cell_angle_beta 90.000000
_cell_angle_gamma 90.000000
_cell_volume 1953.173754
_symmetry_space_group_name_H-M "P N N M"
_symmetry_group_IT_number 58
_symmetry_cell_setting 'orthorhombic'
loop_
_space_group_symop_operation_xyz
x,y,z
-x,-y,z
1/2+x,1/2-y,1/2-z
1/2-x,1/2+y,1/2-z
-x,-y,-z
x,y,-z
1/2-x,1/2+y,1/2+z
1/2+x,1/2-y,1/2+z
loop_
_atom_site_type_symbol
_atom_site_label
_atom_site_fract_x
_atom_site_fract_y
_atom_site_fract_z
Si Si1 0.238220 0.608442 0.190322
Si Si2 0.031836 0.185521 0.686126
Si Si3 0.489664 0.196025 0.674841
Si Si4 0.211487 0.193041 0.160099
Si Si5 0.407526 0.148097 0.075799
O O1 0.347473 0.686122 0.163194
O O2 0.136370 0.725686 0.171426
O O3 0.226897 0.405702 0.168320
O O4 0.254644 0.614242 0.269305
O O5 0.015588 0.314569 0.746862
O O6 0.954237 0.209404 0.625591
O O7 0.000000 0.000000 0.717201
O O8 0.584263 0.318669 0.648305
O O9 0.500000 0.000000 0.646127
O O10 0.290566 0.114881 0.105724
O O11 0.500000 0.000000 0.080767
O O12 0.399331 0.198929 0.000000
#
# Coordination Sequence:
#
# PCOD9441180 Si02
#       5
#     8   8   8   8   8
#     4  10  18  31  53  84 118 144 175 241 299 338
#     4  11  19  32  52  83 115 140 191 237 285 339
#     4   9  18  31  53  81 117 146 173 229 301 349
#     4  10  20  33  55  84 111 149 188 233 289 350
#     4  11  24  40  56  75 111 161 199 233 280 346
#
# _framework density 20.479489999999998
#
# number of rings (size 3 to 8) (size 9 to 14) (size 15 to 20)
#    0.000    1.800    4.000    0.600    5.600    0.400 
#    0.000    0.000    0.000    6.600    0.000    2.800 
#    0.000    0.000    0.000    0.000    0.000    0.200 
#
# Total GULP energy -222886.243568 kJ/mol
# GULP energy per Si atom -5572.156089 kJ/mol
# Density = 2.043288 g / cm^3
# Si number density = 20.479490 Si / 1000 Ang^3
#
#
#
# Elastic Constant Matrix: (Units=GPa)
#
#
# Indices 1 2 3 4 5 6 
#
# 1 199.2695 7.2921 20.9015 0.0000 0.0000 0.0000
# 2 7.2921 41.5676 -3.8664 0.0000 0.0000 0.0000
# 3 20.9015 -3.8664 56.9051 0.0000 0.0000 0.0000
# 4 0.0000 0.0000 0.0000 7.6278 0.0000 0.0000
# 5 0.0000 0.0000 0.0000 0.0000 21.4554 0.0000
# 6 0.0000 0.0000 0.0000 0.0000 0.0000 25.7228
#
#
#
# Elastic Compliance Matrix: (Units=1/GPa)
#
#
# Indices 1 2 3 4 5 6 
#
# 1 0.005270 -0.001112 -0.002011 0.000000 0.000000 0.000000
# 2 -0.001112 0.024445 0.002069 0.000000 0.000000 0.000000
# 3 -0.002011 0.002069 0.018452 0.000000 0.000000 0.000000
# 4 0.000000 0.000000 0.000000 0.131100 0.000000 0.000000
# 5 0.000000 0.000000 0.000000 0.000000 0.046608 0.000000
# 6 0.000000 0.000000 0.000000 0.000000 0.000000 0.038876
#
#
# Mechanical properties :
#
#
# Convention : Reuss Voigt Hill
#
# Bulk Modulus (GPa) = 21.71088 38.48850 30.09969
# Shear Modulus (GPa) = 17.71718 29.18886 23.45302
#
# Velocity S-wave (km/s) = 2.94448 3.77937 3.38774
# Velocity P-wave (km/s) = 4.71002 6.15462 5.48013
#
# Compressibility (1/GPa) = 0.04605985
#
# Stress axis : x y z
#
# Youngs Moduli (GPa) = 189.75470 40.90876 54.19337
#
# Poissons Ratio (x) = 0.04547 0.10899
# Poissons Ratio (y) = 0.21093 -0.11214
# Poissons Ratio (z) = 0.38164 -0.08465
#
# Static dielectric constant tensor:
#      x y z
#    x 1.822670 0.000000 0.000000 
#    y 0.000000 1.828460 0.000000 
#    z 0.000000 0.000000 1.654680 
# 
# From -- ./inp_files/29416.got.cif
#   From: 2010.05.17/outbox.cif.g08.bks.cpg/sg58_15_cif.got.tgz:29416.got - 2010.06.03 14:20:14.
