data_PCOD9441210
_publ_section_title
;
Structure prediction by ZEFSAII (Michael W. Deem and Ramdas Pophale) SiO2 
 PCOD9441210
Probable space group: P N N M
;
_chemical_formula_sum "Si O2"
_cell_formula_units_Z 52
_cell_length_a 5.127647
_cell_length_b 14.116911
_cell_length_c 28.068091
_cell_angle_alpha 90.000000
_cell_angle_beta 90.000000
_cell_angle_gamma 90.000000
_cell_volume 2031.751889
_symmetry_space_group_name_H-M "P N N M"
_symmetry_group_IT_number 58
_symmetry_cell_setting 'orthorhombic'
loop_
_space_group_symop_operation_xyz
x,y,z
-x,-y,z
1/2+x,1/2-y,1/2-z
1/2-x,1/2+y,1/2-z
-x,-y,-z
x,y,-z
1/2-x,1/2+y,1/2+z
1/2+x,1/2-y,1/2+z
loop_
_atom_site_type_symbol
_atom_site_label
_atom_site_fract_x
_atom_site_fract_y
_atom_site_fract_z
Si Si1 0.122690 0.133186 0.782266
Si Si2 0.304586 0.156460 0.360482
Si Si3 0.122649 0.362893 0.229035
Si Si4 0.320977 0.848128 0.448716
Si Si5 0.000000 0.000000 0.406969
Si Si6 0.131416 0.647321 0.555849
Si Si7 0.851113 0.137179 0.879780
O O1 0.134265 0.248226 0.777267
O O2 0.909304 0.104174 0.742703
O O3 0.009088 0.101759 0.833010
O O4 0.416420 0.106004 0.769418
O O5 0.483972 0.111345 0.320049
O O6 0.477450 0.165452 0.407254
O O7 0.077383 0.085985 0.373103
O O8 0.234372 0.266094 0.353974
O O9 0.447055 0.836572 0.500000
O O10 0.108785 0.763291 0.445042
O O11 0.209374 0.952337 0.441206
O O12 0.124516 0.617113 0.500000
O O13 0.414115 0.634593 0.580871
O O14 0.900805 0.606080 0.589187
#
# Coordination Sequence:
#
# PCOD9441210 Si02
#       7
#     8   8   8   8   4   8   8
#     4   9  17  29  49  68  85 107 135 180 234 281
#     4  10  22  32  47  60  88 109 150 195 246 282
#     4   9  18  30  47  68  86 105 135 181 241 287
#     4  10  22  35  46  61  83 117 161 202 244 279
#     4  12  21  34  46  62  80 120 156 206 239 284
#     4  10  19  31  47  66  92 122 151 189 230 271
#     4  10  18  32  48  67  89 114 150 188 228 280
#
# _framework density 25.593674
#
# number of rings (size 3 to 8) (size 9 to 14) (size 15 to 20)
#    0.000    2.154    1.538    2.077    2.154    6.154 
#    0.000    0.000    0.000    0.000    0.000    0.000 
#    0.000    0.000    0.000    0.000    0.000    0.000 
#
# Total GULP energy -290239.624725 kJ/mol
# GULP energy per Si atom -5581.531245 kJ/mol
# Density = 2.553542 g / cm^3
# Si number density = 25.593674 Si / 1000 Ang^3
#
#
#
# Elastic Constant Matrix: (Units=GPa)
#
#
# Indices 1 2 3 4 5 6 
#
# 1 100.2014 16.1058 11.9226 0.0000 0.0000 0.0000
# 2 16.1058 72.2305 4.4289 0.0000 0.0000 0.0000
# 3 11.9226 4.4289 123.7485 0.0000 0.0000 0.0000
# 4 0.0000 0.0000 0.0000 15.4778 0.0000 0.0000
# 5 0.0000 0.0000 0.0000 0.0000 34.0384 0.0000
# 6 0.0000 0.0000 0.0000 0.0000 0.0000 3.8917
#
#
#
# Elastic Compliance Matrix: (Units=1/GPa)
#
#
# Indices 1 2 3 4 5 6 
#
# 1 0.010456 -0.002275 -0.000926 0.000000 0.000000 0.000000
# 2 -0.002275 0.014370 -0.000295 0.000000 0.000000 0.000000
# 3 -0.000926 -0.000295 0.008181 0.000000 0.000000 0.000000
# 4 0.000000 0.000000 0.000000 0.064609 0.000000 0.000000
# 5 0.000000 0.000000 0.000000 0.000000 0.029379 0.000000
# 6 0.000000 0.000000 0.000000 0.000000 0.000000 0.256959
#
#
# Mechanical properties :
#
#
# Convention : Reuss Voigt Hill
#
# Bulk Modulus (GPa) = 38.43965 40.12167 39.28066
# Shear Modulus (GPa) = 12.51203 28.26311 20.38757
#
# Velocity S-wave (km/s) = 2.21344 3.32671 2.82545
# Velocity P-wave (km/s) = 4.64588 5.51964 5.10150
#
# Compressibility (1/GPa) = 0.02601481
#
# Stress axis : x y z
#
# Youngs Moduli (GPa) = 95.64178 69.59016 122.23918
#
# Poissons Ratio (x) = 0.15829 0.11319
# Poissons Ratio (y) = 0.21755 0.03608
# Poissons Ratio (z) = 0.08856 0.02054
#
# Static dielectric constant tensor:
#      x y z
#    x 1.974230 0.000000 0.000000 
#    y 0.000000 2.509790 0.000000 
#    z 0.000000 0.000000 2.017860 
# 
# From -- ./inp_files/32910.got.cif
#   From: 2010.05.17/outbox.cif.g08.bks.cpg/sg58_17_cif.got.tgz:32910.got - 2010.06.03 14:20:14.
