data_PCOD9441100
_publ_section_title
;
Structure prediction by ZEFSAII (Michael W. Deem and Ramdas Pophale) SiO2 
 PCOD9441100
Probable space group: P N N M
;
_chemical_formula_sum "Si O2"
_cell_formula_units_Z 64
_cell_length_a 19.786872
_cell_length_b 19.846844
_cell_length_c 7.822443
_cell_angle_alpha 90.000000
_cell_angle_beta 90.000000
_cell_angle_gamma 90.000000
_cell_volume 3071.927825
_symmetry_space_group_name_H-M "P N N M"
_symmetry_group_IT_number 58
_symmetry_cell_setting 'orthorhombic'
loop_
_space_group_symop_operation_xyz
x,y,z
-x,-y,z
1/2+x,1/2-y,1/2-z
1/2-x,1/2+y,1/2-z
-x,-y,-z
x,y,-z
1/2-x,1/2+y,1/2+z
1/2+x,1/2-y,1/2+z
loop_
_atom_site_type_symbol
_atom_site_label
_atom_site_fract_x
_atom_site_fract_y
_atom_site_fract_z
Si Si1 0.396432 0.531664 0.293153
Si Si2 0.349786 0.753049 0.209356
Si Si3 0.994031 0.248174 0.701803
Si Si4 0.856039 0.452043 0.200863
Si Si5 0.228035 0.123458 0.703381
Si Si6 0.963685 0.102491 0.793949
Si Si7 0.991756 0.393685 0.197548
Si Si8 0.644565 0.098990 0.803719
O O1 0.394902 0.532791 0.500000
O O2 0.329379 0.567030 0.228277
O O3 0.462507 0.574627 0.238637
O O4 0.410277 0.454566 0.238845
O O5 0.427617 0.738203 0.258680
O O6 0.301387 0.693763 0.271588
O O7 0.332191 0.828706 0.267385
O O8 0.348885 0.753644 0.000000
O O9 0.994433 0.261914 0.500000
O O10 0.955332 0.178751 0.734412
O O11 0.968557 0.315676 0.792594
O O12 0.798428 0.403941 0.275612
O O13 0.931153 0.438637 0.270366
O O14 0.834911 0.529557 0.217411
O O15 0.862554 0.436411 0.000000
O O16 0.236876 0.132532 0.500000
O O17 0.963774 0.102892 0.000000
O O18 0.062832 0.397791 0.293253
O O19 0.006274 0.412219 0.000000
O O20 0.666006 0.094727 0.000000
#
# Coordination Sequence:
#
# PCOD9441100 Si02
#       8
#     8   8   8   8   8   8   8   8
#     4   9  18  31  48  74 105 138 178 219 261 310
#     4   8  16  31  51  76 100 128 166 210 257 306
#     4  10  18  30  51  80 107 133 175 221 264 313
#     4  10  22  37  54  77 106 142 178 213 264 327
#     4  10  19  35  55  74 103 140 179 217 258 317
#     4   9  17  30  48  73 108 142 174 216 264 314
#     4  10  20  35  54  77 106 139 176 220 273 324
#     4  10  20  35  57  82 106 132 174 226 270 312
#
# _framework density 20.833822999999999
#
# number of rings (size 3 to 8) (size 9 to 14) (size 15 to 20)
#    0.000    2.500    1.250    3.000    0.000    3.500 
#    0.000    3.125    0.000    3.000    0.000    0.000 
#    0.000    0.000    0.000    0.000    0.000    0.000 
#
# Total GULP energy -357081.146751 kJ/mol
# GULP energy per Si atom -5579.392918 kJ/mol
# Density = 2.078640 g / cm^3
# Si number density = 20.833823 Si / 1000 Ang^3
#
#
#
# Elastic Constant Matrix: (Units=GPa)
#
#
# Indices 1 2 3 4 5 6 
#
# 1 35.2483 17.4502 -3.5733 0.0000 0.0000 0.0000
# 2 17.4502 124.0514 -5.5397 0.0000 0.0000 0.0000
# 3 -3.5733 -5.5397 28.9848 0.0000 0.0000 0.0000
# 4 0.0000 0.0000 0.0000 18.1661 0.0000 0.0000
# 5 0.0000 0.0000 0.0000 0.0000 11.9443 0.0000
# 6 0.0000 0.0000 0.0000 0.0000 0.0000 24.3947
#
#
#
# Elastic Compliance Matrix: (Units=1/GPa)
#
#
# Indices 1 2 3 4 5 6 
#
# 1 0.030748 -0.004192 0.002990 0.000000 0.000000 0.000000
# 2 -0.004192 0.008702 0.001146 0.000000 0.000000 0.000000
# 3 0.002990 0.001146 0.035088 0.000000 0.000000 0.000000
# 4 0.000000 0.000000 0.000000 0.055048 0.000000 0.000000
# 5 0.000000 0.000000 0.000000 0.000000 0.083722 0.000000
# 6 0.000000 0.000000 0.000000 0.000000 0.000000 0.040992
#
#
# Mechanical properties :
#
#
# Convention : Reuss Voigt Hill
#
# Bulk Modulus (GPa) = 13.43596 22.77321 18.10458
# Shear Modulus (GPa) = 17.90693 22.89753 20.40223
#
# Velocity S-wave (km/s) = 2.93492 3.31880 3.13275
# Velocity P-wave (km/s) = 4.23653 5.06364 4.66844
#
# Compressibility (1/GPa) = 0.07442716
#
# Stress axis : x y z
#
# Youngs Moduli (GPa) = 32.52193 114.91572 28.49939
#
# Poissons Ratio (x) = 0.48171 -0.08520
# Poissons Ratio (y) = 0.13633 -0.03267
# Poissons Ratio (z) = -0.09723 -0.13174
#
# Static dielectric constant tensor:
#      x y z
#    x 1.736610 0.000000 0.000000 
#    y 0.000000 1.777040 0.000000 
#    z 0.000000 0.000000 1.753920 
# 
# From -- ./inp_files/9281.got.cif
#   From: 2010.05.17/outbox.cif.g08.bks.cpg/sg58_5_cif.got.tgz:9281.got - 2010.06.03 14:20:14.
