data_PCOD9441129
_publ_section_title
;
Structure prediction by ZEFSAII (Michael W. Deem and Ramdas Pophale) SiO2 
 PCOD9441129
Probable space group: P N N M
;
_chemical_formula_sum "Si O2"
_cell_formula_units_Z 64
_cell_length_a 17.686219
_cell_length_b 11.896181
_cell_length_c 15.740553
_cell_angle_alpha 90.000000
_cell_angle_beta 90.000000
_cell_angle_gamma 90.000000
_cell_volume 3311.788149
_symmetry_space_group_name_H-M "P N N M"
_symmetry_group_IT_number 58
_symmetry_cell_setting 'orthorhombic'
loop_
_space_group_symop_operation_xyz
x,y,z
-x,-y,z
1/2+x,1/2-y,1/2-z
1/2-x,1/2+y,1/2-z
-x,-y,-z
x,y,-z
1/2-x,1/2+y,1/2+z
1/2+x,1/2-y,1/2+z
loop_
_atom_site_type_symbol
_atom_site_label
_atom_site_fract_x
_atom_site_fract_y
_atom_site_fract_z
Si Si1 0.418109 0.518832 0.401795
Si Si2 0.212887 0.884869 0.325605
Si Si3 0.661008 0.008151 0.905337
Si Si4 0.544045 0.614713 0.897455
Si Si5 0.222323 0.166850 0.102916
Si Si6 0.724279 0.380406 0.098213
Si Si7 0.416561 0.780200 0.896359
Si Si8 0.198390 0.837135 0.872429
O O1 0.500000 0.500000 0.360471
O O2 0.430248 0.554403 0.500000
O O3 0.354546 0.605171 0.366090
O O4 0.377159 0.398647 0.400069
O O5 0.128034 0.879415 0.362341
O O6 0.267098 0.794562 0.370340
O O7 0.209216 0.854223 0.227428
O O8 0.237446 0.011970 0.344285
O O9 0.600186 0.093126 0.864717
O O10 0.732638 0.092690 0.913059
O O11 0.702145 0.900074 0.865669
O O12 0.633647 0.975496 0.000000
O O13 0.500000 0.500000 0.873018
O O14 0.494213 0.721881 0.870515
O O15 0.547831 0.614450 0.000000
O O16 0.223003 0.156601 0.000000
O O17 0.650601 0.307601 0.125847
O O18 0.791850 0.291304 0.102866
O O19 0.711590 0.415733 0.000000
O O20 0.415235 0.787132 0.000000
#
# Coordination Sequence:
#
# PCOD9441129 Si02
#       8
#     8   8   8   8   8   8   8   8
#     4   9  18  37  63  83 102 135 184 239 287 334
#     4  12  23  31  50  81 118 146 177 225 283 328
#     4   8  15  32  55  73  97 135 178 222 265 319
#     4  10  18  31  49  75 112 147 185 223 260 321
#     4   9  18  33  53  78 108 135 174 225 278 336
#     4  10  19  35  56  77 105 147 192 223 263 333
#     4   8  14  28  52  76  97 136 187 221 249 305
#     4  10  21  32  51  80 109 140 179 230 273 329
#
# _framework density 19.324908000000001
#
# number of rings (size 3 to 8) (size 9 to 14) (size 15 to 20)
#    0.000    2.500    1.250    3.750    3.500    0.500 
#    0.000    0.625    0.000    3.750    3.250    3.500 
#    0.000    0.000    0.000    0.000    0.000    0.000 
#
# Total GULP energy -356678.545091 kJ/mol
# GULP energy per Si atom -5573.102267 kJ/mol
# Density = 1.928092 g / cm^3
# Si number density = 19.324908 Si / 1000 Ang^3
#
#
#
# Elastic Constant Matrix: (Units=GPa)
#
#
# Indices 1 2 3 4 5 6 
#
# 1 65.9486 11.8691 0.9216 0.0000 0.0000 0.0000
# 2 11.8691 67.0827 2.0178 0.0000 0.0000 0.0000
# 3 0.9216 2.0178 42.5829 0.0000 0.0000 0.0000
# 4 0.0000 0.0000 0.0000 24.3248 0.0000 0.0000
# 5 0.0000 0.0000 0.0000 0.0000 3.2923 0.0000
# 6 0.0000 0.0000 0.0000 0.0000 0.0000 21.7309
#
#
#
# Elastic Compliance Matrix: (Units=1/GPa)
#
#
# Indices 1 2 3 4 5 6 
#
# 1 0.015664 -0.002765 -0.000208 0.000000 0.000000 0.000000
# 2 -0.002765 0.015416 -0.000671 0.000000 0.000000 0.000000
# 3 -0.000208 -0.000671 0.023520 0.000000 0.000000 0.000000
# 4 0.000000 0.000000 0.000000 0.041110 0.000000 0.000000
# 5 0.000000 0.000000 0.000000 0.000000 0.303737 0.000000
# 6 0.000000 0.000000 0.000000 0.000000 0.000000 0.046017
#
#
# Mechanical properties :
#
#
# Convention : Reuss Voigt Hill
#
# Bulk Modulus (GPa) = 21.13605 22.80347 21.96976
# Shear Modulus (GPa) = 10.67182 20.58999 15.63090
#
# Velocity S-wave (km/s) = 2.35251 3.26769 2.84711
# Velocity P-wave (km/s) = 4.28252 5.10516 4.71183
#
# Compressibility (1/GPa) = 0.04731253
#
# Stress axis : x y z
#
# Youngs Moduli (GPa) = 63.84111 64.86599 42.51722
#
# Poissons Ratio (x) = 0.17937 0.00884
# Poissons Ratio (y) = 0.17653 0.02851
# Poissons Ratio (z) = 0.01328 0.04350
#
# Static dielectric constant tensor:
#      x y z
#    x 1.698510 0.000000 0.000000 
#    y 0.000000 1.718130 0.000000 
#    z 0.000000 0.000000 1.712220 
# 
# From -- ./inp_files/22940.got.cif
#   From: 2010.05.17/outbox.cif.g08.bks.cpg/sg58_12_cif.got.tgz:22940.got - 2010.06.03 14:20:14.
