data_PCOD9441024
_publ_section_title
;
Structure prediction by ZEFSAII (Michael W. Deem and Ramdas Pophale) SiO2 
 PCOD9441024
Probable space group: P N N M
;
_chemical_formula_sum "Si O2"
_cell_formula_units_Z 56
_cell_length_a 9.617476
_cell_length_b 19.595814
_cell_length_c 15.761143
_cell_angle_alpha 90.000000
_cell_angle_beta 90.000000
_cell_angle_gamma 90.000000
_cell_volume 2970.380801
_symmetry_space_group_name_H-M "P N N M"
_symmetry_group_IT_number 58
_symmetry_cell_setting 'orthorhombic'
loop_
_space_group_symop_operation_xyz
x,y,z
-x,-y,z
1/2+x,1/2-y,1/2-z
1/2-x,1/2+y,1/2-z
-x,-y,-z
x,y,-z
1/2-x,1/2+y,1/2+z
1/2+x,1/2-y,1/2+z
loop_
_atom_site_type_symbol
_atom_site_label
_atom_site_fract_x
_atom_site_fract_y
_atom_site_fract_z
Si Si1 0.022626 0.715946 0.094286
Si Si2 0.872281 0.142105 0.282257
Si Si3 0.338989 0.481632 0.903423
Si Si4 0.705845 0.219313 0.852970
Si Si5 0.851257 0.821200 0.793350
Si Si6 0.607597 0.779509 0.100599
Si Si7 0.413217 0.066006 0.397598
O O1 0.169486 0.755262 0.087988
O O2 0.040183 0.640144 0.132171
O O3 0.930257 0.762174 0.154010
O O4 0.961777 0.710550 0.000000
O O5 0.821738 0.079680 0.338651
O O6 0.765408 0.160596 0.207837
O O7 0.880759 0.208245 0.345491
O O8 0.022804 0.129404 0.236592
O O9 0.500000 0.500000 0.905254
O O10 0.245966 0.546711 0.879292
O O11 0.703074 0.538524 0.000000
O O12 0.693099 0.285524 0.793018
O O13 0.555875 0.202246 0.890682
O O14 0.713761 0.831912 0.851376
O O15 0.639437 0.772348 0.000000
O O16 0.425788 0.069950 0.500000
O O17 0.500000 0.000000 0.368872
#
# Coordination Sequence:
#
# PCOD9441024 Si02
#       7
#     8   8   8   8   8   8   8
#     4  10  19  33  51  70 101 140 171 202 247 300
#     4   9  19  34  48  67 106 145 164 206 254 305
#     4  10  21  35  51  75 104 141 181 205 231 288
#     4   9  19  32  47  71  99 137 165 211 260 297
#     4   9  19  32  47  71  99 137 166 210 258 299
#     4  10  18  29  50  76  99 128 170 211 256 303
#     4   9  20  33  46  70 102 136 172 204 235 283
#
# _framework density 18.852802000000001
#
# number of rings (size 3 to 8) (size 9 to 14) (size 15 to 20)
#    0.000    2.571    0.000    2.143    8.000    0.000 
#    0.000    0.000    0.000    0.000    0.000    0.000 
#    0.000   21.714    0.000    0.000    0.000    0.000 
#
# Total GULP energy -311854.362214 kJ/mol
# GULP energy per Si atom -5568.827897 kJ/mol
# Density = 1.880989 g / cm^3
# Si number density = 18.852802 Si / 1000 Ang^3
#
#
#
# Elastic Constant Matrix: (Units=GPa)
#
#
# Indices 1 2 3 4 5 6 
#
# 1 92.0760 -1.8699 15.3292 0.0000 0.0000 0.0000
# 2 -1.8699 41.1863 8.6874 0.0000 0.0000 0.0000
# 3 15.3292 8.6874 72.9550 0.0000 0.0000 0.0000
# 4 0.0000 0.0000 0.0000 -7.1840 0.0000 0.0000
# 5 0.0000 0.0000 0.0000 0.0000 -69.3532 0.0000
# 6 0.0000 0.0000 0.0000 0.0000 0.0000 11.1487
#
#
#
# Elastic Compliance Matrix: (Units=1/GPa)
#
#
# Indices 1 2 3 4 5 6 
#
# 1 0.011298 0.001040 -0.002498 0.000000 0.000000 0.000000
# 2 0.001040 0.025001 -0.003196 0.000000 0.000000 0.000000
# 3 -0.002498 -0.003196 0.014612 0.000000 0.000000 0.000000
# 4 0.000000 0.000000 0.000000 -0.139198 0.000000 0.000000
# 5 0.000000 0.000000 0.000000 0.000000 -0.014419 0.000000
# 6 0.000000 0.000000 0.000000 0.000000 0.000000 0.089696
#
#
# Mechanical properties :
#
#
# Convention : Reuss Voigt Hill
#
# Bulk Modulus (GPa) = 24.03606 27.83452 25.93529
# Shear Modulus (GPa) = 491.86107 -0.80633 245.52737
#
# Velocity S-wave (km/s) = 16.16978 -0.65469 11.42439
# Velocity P-wave (km/s) = 19.01033 3.77156 13.70433
#
# Compressibility (1/GPa) = 0.04160416
#
# Stress axis : x y z
#
# Youngs Moduli (GPa) = 88.51500 39.99813 68.43500
#
# Poissons Ratio (x) = -0.04159 0.17093
# Poissons Ratio (y) = -0.09203 0.21869
# Poissons Ratio (z) = 0.22108 0.12782
#
# Static dielectric constant tensor:
#      x y z
#    x 1.759570 0.000000 0.000000 
#    y 0.000000 1.639460 0.000000 
#    z 0.000000 0.000000 1.756200 
# 
# From -- ./inp_files/20098.got.cif
#   From: 2010.05.17/outbox.cif.g08.bks.cpg/sg58_11_cif.got.tgz:20098.got - 2010.06.03 14:20:14.
