data_PCOD9441698
_publ_section_title
;
Structure prediction by ZEFSAII (Michael W. Deem and Ramdas Pophale) SiO2 
 PCOD9441698
Probable space group: P N N M
;
_chemical_formula_sum "Si O2"
_cell_formula_units_Z 64
_cell_length_a 30.378932
_cell_length_b 12.016575
_cell_length_c 7.666797
_cell_angle_alpha 90.000000
_cell_angle_beta 90.000000
_cell_angle_gamma 90.000000
_cell_volume 2798.769725
_symmetry_space_group_name_H-M "P N N M"
_symmetry_group_IT_number 58
_symmetry_cell_setting 'orthorhombic'
loop_
_space_group_symop_operation_xyz
x,y,z
-x,-y,z
1/2+x,1/2-y,1/2-z
1/2-x,1/2+y,1/2-z
-x,-y,-z
x,y,-z
1/2-x,1/2+y,1/2+z
1/2+x,1/2-y,1/2+z
loop_
_atom_site_type_symbol
_atom_site_label
_atom_site_fract_x
_atom_site_fract_y
_atom_site_fract_z
Si Si1 0.436442 0.565188 0.792642
Si Si2 0.339723 0.313623 0.704204
Si Si3 0.844151 0.841123 0.289749
Si Si4 0.320530 0.066868 0.787428
Si Si5 0.061471 0.815467 0.789734
Si Si6 0.478632 0.795761 0.302960
Si Si7 0.112792 0.388284 0.293554
Si Si8 0.772884 0.006449 0.796658
O O1 0.384561 0.575331 0.747092
O O2 0.452720 0.442365 0.749454
O O3 0.459233 0.669671 0.701425
O O4 0.440796 0.584632 0.000000
O O5 0.345502 0.343708 0.500000
O O6 0.320234 0.191170 0.718440
O O7 0.388973 0.307153 0.780287
O O8 0.305742 0.402206 0.783142
O O9 0.840177 0.837241 0.500000
O O10 0.861112 0.720980 0.226107
O O11 0.799141 0.890108 0.217232
O O12 0.363744 0.999320 0.727994
O O13 0.276256 0.004596 0.727034
O O14 0.320067 0.072887 0.000000
O O15 0.026586 0.724915 0.719850
O O16 0.061752 0.802726 0.000000
O O17 0.484996 0.833820 0.500000
O O18 0.439252 0.870903 0.230728
O O19 0.120076 0.386779 0.500000
O O20 0.767473 0.035961 0.000000
#
# Coordination Sequence:
#
# PCOD9441698 Si02
#       8
#     8   8   8   8   8   8   8   8
#     4  10  19  31  50  80 117 152 186 228 278 335
#     4  10  22  40  61  84 114 150 189 232 285 342
#     4   9  18  32  54  82 111 145 183 225 274 329
#     4  10  23  41  60  83 113 148 190 239 286 334
#     4  10  20  35  54  80 114 151 190 237 286 334
#     4  10  20  33  54  82 113 149 192 237 283 336
#     4   9  20  39  58  79 113 151 189 235 282 332
#     4  10  21  37  59  84 112 146 183 229 283 340
#
# _framework density 22.867191999999999
#
# number of rings (size 3 to 8) (size 9 to 14) (size 15 to 20)
#    0.000    2.250    1.250    1.875    1.750    6.500 
#    0.000    0.625    0.000    3.750    0.000    0.000 
#    0.000    0.000    0.000    0.000    0.000    0.000 
#
# Total GULP energy -357272.411857 kJ/mol
# GULP energy per Si atom -5582.381435 kJ/mol
# Density = 2.281514 g / cm^3
# Si number density = 22.867192 Si / 1000 Ang^3
#
#
#
# Elastic Constant Matrix: (Units=GPa)
#
#
# Indices 1 2 3 4 5 6 
#
# 1 97.9735 8.5010 -1.3404 0.0000 0.0000 0.0000
# 2 8.5010 35.6049 -6.3992 0.0000 0.0000 0.0000
# 3 -1.3404 -6.3992 41.7867 0.0000 0.0000 0.0000
# 4 0.0000 0.0000 0.0000 12.2242 0.0000 0.0000
# 5 0.0000 0.0000 0.0000 0.0000 16.6268 0.0000
# 6 0.0000 0.0000 0.0000 0.0000 0.0000 19.4676
#
#
#
# Elastic Compliance Matrix: (Units=1/GPa)
#
#
# Indices 1 2 3 4 5 6 
#
# 1 0.010423 -0.002497 -0.000048 0.000000 0.000000 0.000000
# 2 -0.002497 0.029479 0.004434 0.000000 0.000000 0.000000
# 3 -0.000048 0.004434 0.024609 0.000000 0.000000 0.000000
# 4 0.000000 0.000000 0.000000 0.081805 0.000000 0.000000
# 5 0.000000 0.000000 0.000000 0.000000 0.060144 0.000000
# 6 0.000000 0.000000 0.000000 0.000000 0.000000 0.051367
#
#
# Mechanical properties :
#
#
# Convention : Reuss Voigt Hill
#
# Bulk Modulus (GPa) = 14.64367 19.65419 17.14893
# Shear Modulus (GPa) = 18.06283 21.30397 19.68340
#
# Velocity S-wave (km/s) = 2.81357 3.05559 2.93707
# Velocity P-wave (km/s) = 4.11978 4.58938 4.36091
#
# Compressibility (1/GPa) = 0.06828888
#
# Stress axis : x y z
#
# Youngs Moduli (GPa) = 95.94294 33.92216 40.63620
#
# Poissons Ratio (x) = 0.08471 0.00195
# Poissons Ratio (y) = 0.23959 -0.18020
# Poissons Ratio (z) = 0.00461 -0.15042
#
# Static dielectric constant tensor:
#      x y z
#    x 1.907440 0.000000 0.000000 
#    y 0.000000 1.823270 0.000000 
#    z 0.000000 0.000000 1.868850 
# 
# From -- ./inp_files/10961.got.cif
#   From: 2010.05.17/outbox.cif.g08.bks.cpg/sg58_6_cif.got.tgz:10961.got - 2010.06.03 14:20:14.
