data_PCOD9441785
_publ_section_title
;
Structure prediction by ZEFSAII (Michael W. Deem and Ramdas Pophale) SiO2 
 PCOD9441785
Probable space group: P N N M
;
_chemical_formula_sum "Si O2"
_cell_formula_units_Z 64
_cell_length_a 31.261135
_cell_length_b 14.754256
_cell_length_c 8.632398
_cell_angle_alpha 90.000000
_cell_angle_beta 90.000000
_cell_angle_gamma 90.000000
_cell_volume 3981.562267
_symmetry_space_group_name_H-M "P N N M"
_symmetry_group_IT_number 58
_symmetry_cell_setting 'orthorhombic'
loop_
_space_group_symop_operation_xyz
x,y,z
-x,-y,z
1/2+x,1/2-y,1/2-z
1/2-x,1/2+y,1/2-z
-x,-y,-z
x,y,-z
1/2-x,1/2+y,1/2+z
1/2+x,1/2-y,1/2+z
loop_
_atom_site_type_symbol
_atom_site_label
_atom_site_fract_x
_atom_site_fract_y
_atom_site_fract_z
Si Si1 0.293101 0.191132 0.815424
Si Si2 0.323984 0.517922 0.678753
Si Si3 0.045006 0.104628 0.313145
Si Si4 0.631289 0.313354 0.818483
Si Si5 0.864487 0.181419 0.818799
Si Si6 0.770208 0.495700 0.185594
Si Si7 0.207701 0.301364 0.814256
Si Si8 0.452028 0.401440 0.686701
O O1 0.334321 0.251249 0.774910
O O2 0.295912 0.093424 0.735069
O O3 0.249726 0.244243 0.760817
O O4 0.289621 0.179435 0.000000
O O5 0.327628 0.548892 0.500000
O O6 0.348162 0.588308 0.787080
O O7 0.343506 0.418253 0.690200
O O8 0.275165 0.514204 0.730179
O O9 0.043876 0.100899 0.500000
O O10 0.082375 0.173880 0.263843
O O11 0.998300 0.128058 0.248229
O O12 0.055188 0.003288 0.251071
O O13 0.663704 0.243780 0.739578
O O14 0.630585 0.293496 0.000000
O O15 0.913322 0.164855 0.766947
O O16 0.864425 0.208709 0.000000
O O17 0.788823 0.593481 0.232789
O O18 0.764248 0.496278 0.000000
O O19 0.209131 0.298690 0.000000
O O20 0.452248 0.407172 0.500000
#
# Coordination Sequence:
#
# PCOD9441785 Si02
#       8
#     8   8   8   8   8   8   8   8
#     4  11  22  35  52  76 102 133 173 210 251 303
#     4  11  20  31  49  72 102 136 172 211 248 293
#     4  10  20  32  47  73 104 134 168 208 256 304
#     4  11  22  33  50  74 102 138 174 208 253 303
#     4  10  21  34  50  74 102 137 175 210 250 299
#     4  11  22  37  52  71 101 135 172 214 253 294
#     4  10  22  36  51  73 101 133 173 212 249 298
#     4  10  19  32  50  73 100 135 173 207 251 302
#
# _framework density 16.074093999999999
#
# number of rings (size 3 to 8) (size 9 to 14) (size 15 to 20)
#    0.000    1.500    3.750    3.000    0.000    4.500 
#    0.000    0.000    0.000    0.000    0.000    0.875 
#    0.000    7.000    0.000    0.000    0.000    0.000 
#
# Total GULP energy -357150.481981 kJ/mol
# GULP energy per Si atom -5580.476281 kJ/mol
# Density = 1.603751 g / cm^3
# Si number density = 16.074094 Si / 1000 Ang^3
#
#
#
# Elastic Constant Matrix: (Units=GPa)
#
#
# Indices 1 2 3 4 5 6 
#
# 1 111.6265 37.6705 9.3503 0.0000 0.0000 0.0000
# 2 37.6705 75.5075 10.5543 0.0000 0.0000 0.0000
# 3 9.3503 10.5543 16.2910 0.0000 0.0000 0.0000
# 4 0.0000 0.0000 0.0000 22.0731 0.0000 0.0000
# 5 0.0000 0.0000 0.0000 0.0000 7.1160 0.0000
# 6 0.0000 0.0000 0.0000 0.0000 0.0000 19.1418
#
#
#
# Elastic Compliance Matrix: (Units=1/GPa)
#
#
# Indices 1 2 3 4 5 6 
#
# 1 0.010904 -0.005020 -0.003006 0.000000 0.000000 0.000000
# 2 -0.005020 0.016873 -0.008050 0.000000 0.000000 0.000000
# 3 -0.003006 -0.008050 0.068325 0.000000 0.000000 0.000000
# 4 0.000000 0.000000 0.000000 0.045304 0.000000 0.000000
# 5 0.000000 0.000000 0.000000 0.000000 0.140529 0.000000
# 6 0.000000 0.000000 0.000000 0.000000 0.000000 0.052242
#
#
# Mechanical properties :
#
#
# Convention : Reuss Voigt Hill
#
# Bulk Modulus (GPa) = 15.63746 35.39724 25.51735
# Shear Modulus (GPa) = 12.89833 19.38950 16.14391
#
# Velocity S-wave (km/s) = 2.83579 3.47689 3.17258
# Velocity P-wave (km/s) = 4.52457 6.17960 5.41568
#
# Compressibility (1/GPa) = 0.06394900
#
# Stress axis : x y z
#
# Youngs Moduli (GPa) = 91.70650 59.26481 14.63601
#
# Poissons Ratio (x) = 0.29751 0.04400
# Poissons Ratio (y) = 0.46036 0.11783
# Poissons Ratio (z) = 0.27571 0.47710
#
# Static dielectric constant tensor:
#      x y z
#    x 1.557300 0.000000 0.000000 
#    y 0.000000 1.530200 0.000000 
#    z 0.000000 0.000000 1.544700 
# 
# From -- ./inp_files/11128.got.cif
#   From: 2010.05.17/outbox.cif.g08.bks.cpg/sg58_6_cif.got.tgz:11128.got - 2010.06.03 14:20:14.
