data_PCOD9441347
_publ_section_title
;
Structure prediction by ZEFSAII (Michael W. Deem and Ramdas Pophale) SiO2 
 PCOD9441347
Probable space group: P N N M
;
_chemical_formula_sum "Si O2"
_cell_formula_units_Z 64
_cell_length_a 18.292603
_cell_length_b 9.119448
_cell_length_c 21.676739
_cell_angle_alpha 90.000000
_cell_angle_beta 90.000000
_cell_angle_gamma 90.000000
_cell_volume 3616.079824
_symmetry_space_group_name_H-M "P N N M"
_symmetry_group_IT_number 58
_symmetry_cell_setting 'orthorhombic'
loop_
_space_group_symop_operation_xyz
x,y,z
-x,-y,z
1/2+x,1/2-y,1/2-z
1/2-x,1/2+y,1/2-z
-x,-y,-z
x,y,-z
1/2-x,1/2+y,1/2+z
1/2+x,1/2-y,1/2+z
loop_
_atom_site_type_symbol
_atom_site_label
_atom_site_fract_x
_atom_site_fract_y
_atom_site_fract_z
Si Si1 0.734481 0.739631 0.643191
Si Si2 0.591145 0.208000 0.430936
Si Si3 0.711136 0.458460 0.429768
Si Si4 0.018018 0.173389 0.811589
Si Si5 0.652846 0.196912 0.249147
Si Si6 0.267161 0.986604 0.570443
Si Si7 0.712043 0.739024 0.155143
Si Si8 0.882848 0.356973 0.239687
O O1 0.701333 0.589603 0.617879
O O2 0.808331 0.714332 0.682616
O O3 0.678898 0.818594 0.689341
O O4 0.739655 0.843388 0.584034
O O5 0.560332 0.183800 0.500000
O O6 0.640621 0.354503 0.432501
O O7 0.535750 0.242278 0.376106
O O8 0.650748 0.079056 0.417896
O O9 0.728585 0.502235 0.500000
O O10 0.772123 0.357870 0.397689
O O11 0.089965 0.189979 0.768665
O O12 0.954579 0.270415 0.780777
O O13 0.000000 0.000000 0.820042
O O14 0.718361 0.223208 0.298537
O O15 0.618605 0.033522 0.254952
O O16 0.251345 0.947007 0.500000
O O17 0.211891 0.912091 0.618378
O O18 0.644962 0.787516 0.196306
#
# Coordination Sequence:
#
# PCOD9441347 Si02
#       8
#     8   8   8   8   8   8   8   8
#     4  11  21  34  57  86 115 141 189 241 293 334
#     4   9  19  38  57  78 118 159 188 226 277 336
#     4  10  18  33  58  84 113 143 184 232 281 344
#     4  12  24  36  56  82 112 155 204 231 278 337
#     4  11  22  38  55  77 117 155 182 241 293 333
#     4  10  19  34  59  85 114 147 183 230 283 342
#     4  10  19  36  58  82 108 148 190 228 298 334
#     4  11  23  35  57  80 115 152 190 241 280 339
#
# _framework density 17.698723999999999
#
# number of rings (size 3 to 8) (size 9 to 14) (size 15 to 20)
#    0.000    1.500    5.000    2.625    1.750    0.250 
#    0.000    1.250    0.000    2.250    0.000    5.250 
#    0.000    0.000    0.000    0.000    0.000    0.000 
#
# Total GULP energy -356727.386294 kJ/mol
# GULP energy per Si atom -5573.865411 kJ/mol
# Density = 1.765844 g / cm^3
# Si number density = 17.698724 Si / 1000 Ang^3
#
#
#
# Elastic Constant Matrix: (Units=GPa)
#
#
# Indices 1 2 3 4 5 6 
#
# 1 54.3088 14.3625 41.4588 0.0000 0.0000 0.0000
# 2 14.3625 65.6285 5.3738 0.0000 0.0000 0.0000
# 3 41.4588 5.3738 72.7539 0.0000 0.0000 0.0000
# 4 0.0000 0.0000 0.0000 21.2889 0.0000 0.0000
# 5 0.0000 0.0000 0.0000 0.0000 20.5750 0.0000
# 6 0.0000 0.0000 0.0000 0.0000 0.0000 7.7533
#
#
#
# Elastic Compliance Matrix: (Units=1/GPa)
#
#
# Indices 1 2 3 4 5 6 
#
# 1 0.034812 -0.006031 -0.019392 0.000000 0.000000 0.000000
# 2 -0.006031 0.016375 0.002227 0.000000 0.000000 0.000000
# 3 -0.019392 0.002227 0.024631 0.000000 0.000000 0.000000
# 4 0.000000 0.000000 0.000000 0.046973 0.000000 0.000000
# 5 0.000000 0.000000 0.000000 0.000000 0.048603 0.000000
# 6 0.000000 0.000000 0.000000 0.000000 0.000000 0.128978
#
#
# Mechanical properties :
#
#
# Convention : Reuss Voigt Hill
#
# Bulk Modulus (GPa) = 33.98312 35.00903 34.49608
# Shear Modulus (GPa) = 14.02247 18.68984 16.35616
#
# Velocity S-wave (km/s) = 2.81781 3.25314 3.04327
# Velocity P-wave (km/s) = 5.46162 5.82529 5.64639
#
# Compressibility (1/GPa) = 0.02942637
#
# Stress axis : x y z
#
# Youngs Moduli (GPa) = 28.72593 61.06988 40.59916
#
# Poissons Ratio (x) = 0.36828 0.78730
# Poissons Ratio (y) = 0.17323 -0.09042
# Poissons Ratio (z) = 0.55705 -0.13600
#
# Static dielectric constant tensor:
#      x y z
#    x 1.604450 0.000000 0.000000 
#    y 0.000000 1.685650 0.000000 
#    z 0.000000 0.000000 1.622960 
# 
# From -- ./inp_files/30274.got.cif
#   From: 2010.05.17/outbox.cif.g08.bks.cpg/sg58_16_cif.got.tgz:30274.got - 2010.06.03 14:20:14.
