data_PCOD9441126
_publ_section_title
;
Structure prediction by ZEFSAII (Michael W. Deem and Ramdas Pophale) SiO2 
 PCOD9441126
Probable space group: P N N M
;
_chemical_formula_sum "Si O2"
_cell_formula_units_Z 64
_cell_length_a 6.652079
_cell_length_b 16.299073
_cell_length_c 22.816187
_cell_angle_alpha 90.000000
_cell_angle_beta 90.000000
_cell_angle_gamma 90.000000
_cell_volume 2473.793082
_symmetry_space_group_name_H-M "P N N M"
_symmetry_group_IT_number 58
_symmetry_cell_setting 'orthorhombic'
loop_
_space_group_symop_operation_xyz
x,y,z
-x,-y,z
1/2+x,1/2-y,1/2-z
1/2-x,1/2+y,1/2-z
-x,-y,-z
x,y,-z
1/2-x,1/2+y,1/2+z
1/2+x,1/2-y,1/2+z
loop_
_atom_site_type_symbol
_atom_site_label
_atom_site_fract_x
_atom_site_fract_y
_atom_site_fract_z
Si Si1 0.823078 0.568535 0.061975
Si Si2 0.733335 0.523763 0.562911
Si Si3 0.835732 0.839852 0.190619
Si Si4 0.824420 0.568766 0.185942
Si Si5 0.610811 0.773057 0.562604
Si Si6 0.234838 0.475610 0.689317
Si Si7 0.235365 0.665343 0.565510
Si Si8 0.643954 0.789813 0.686940
O O1 0.710635 0.562166 0.123987
O O2 0.941284 0.655160 0.061975
O O3 0.000000 0.500000 0.061662
O O4 0.711193 0.561444 0.000000
O O5 0.500000 0.500000 0.560638
O O6 0.783495 0.562543 0.500000
O O7 0.765892 0.566084 0.625325
O O8 0.824200 0.430944 0.564999
O O9 0.701122 0.809293 0.134339
O O10 0.754431 0.816965 0.254713
O O11 0.054248 0.800276 0.190169
O O12 0.846107 0.937160 0.182754
O O13 0.711550 0.559322 0.246827
O O14 0.944956 0.653552 0.186835
O O15 0.000000 0.500000 0.183240
O O16 0.718405 0.776404 0.500000
O O17 0.474926 0.690202 0.564370
O O18 0.735743 0.792102 0.621427
O O19 0.000000 0.500000 0.696686
O O20 0.168235 0.696311 0.500000
#
# Coordination Sequence:
#
# PCOD9441126 Si02
#       8
#     8   8   8   8   8   8   8   8
#     4   8  13  20  36  63  88 110 145 189 230 271
#     4   9  18  32  49  71  98 125 161 210 254 290
#     4  10  19  32  49  73  95 128 163 202 247 290
#     4   9  15  28  47  64  94 131 156 195 244 289
#     4   8  14  25  42  64  88 116 150 189 232 278
#     4  10  18  33  51  68  97 135 167 201 248 301
#     4   8  15  29  48  66  89 123 162 197 234 288
#     4  10  18  31  49  71  99 126 162 202 245 293
#
# _framework density 25.871203000000001
#
# number of rings (size 3 to 8) (size 9 to 14) (size 15 to 20)
#    0.000    3.000    2.500    0.000    0.000    0.250 
#    6.750    0.000    0.000    0.750    0.000    0.000 
#    0.000    0.500    0.000    0.500    0.000    0.250 
#
# Total GULP energy -356475.373106 kJ/mol
# GULP energy per Si atom -5569.927705 kJ/mol
# Density = 2.581232 g / cm^3
# Si number density = 25.871203 Si / 1000 Ang^3
#
#
#
# Elastic Constant Matrix: (Units=GPa)
#
#
# Indices 1 2 3 4 5 6 
#
# 1 26.3550 3.5473 31.2601 0.0000 0.0000 0.0000
# 2 3.5473 98.7518 16.2679 0.0000 0.0000 0.0000
# 3 31.2601 16.2679 387.9957 0.0000 0.0000 0.0000
# 4 0.0000 0.0000 0.0000 24.2590 0.0000 0.0000
# 5 0.0000 0.0000 0.0000 0.0000 2.4787 0.0000
# 6 0.0000 0.0000 0.0000 0.0000 0.0000 24.9923
#
#
#
# Elastic Compliance Matrix: (Units=1/GPa)
#
#
# Indices 1 2 3 4 5 6 
#
# 1 0.042043 -0.000959 -0.003347 0.000000 0.000000 0.000000
# 2 -0.000959 0.010219 -0.000351 0.000000 0.000000 0.000000
# 3 -0.003347 -0.000351 0.002862 0.000000 0.000000 0.000000
# 4 0.000000 0.000000 0.000000 0.041222 0.000000 0.000000
# 5 0.000000 0.000000 0.000000 0.000000 0.403435 0.000000
# 6 0.000000 0.000000 0.000000 0.000000 0.000000 0.040012
#
#
# Mechanical properties :
#
#
# Convention : Reuss Voigt Hill
#
# Bulk Modulus (GPa) = 21.82991 68.36147 45.09569
# Shear Modulus (GPa) = 8.85934 41.14781 25.00357
#
# Velocity S-wave (km/s) = 1.85252 3.99242 3.11217
# Velocity P-wave (km/s) = 3.60999 6.90896 5.51206
#
# Compressibility (1/GPa) = 0.04580870
#
# Stress axis : x y z
#
# Youngs Moduli (GPa) = 23.78545 97.85990 349.43750
#
# Poissons Ratio (x) = 0.09383 1.16960
# Poissons Ratio (y) = 0.02281 0.12272
# Poissons Ratio (z) = 0.07961 0.03437
#
# Static dielectric constant tensor:
#      x y z
#    x 2.125960 0.000000 0.000000 
#    y 0.000000 2.003540 0.000000 
#    z 0.000000 0.000000 2.114860 
# 
# From -- ./inp_files/31679.got.cif
#   From: 2010.05.17/outbox.cif.g08.bks.cpg/sg58_16_cif.got.tgz:31679.got - 2010.06.03 14:20:14.
