data_PCOD9441016
_publ_section_title
;
Structure prediction by ZEFSAII (Michael W. Deem and Ramdas Pophale) SiO2 
 PCOD9441016
Probable space group: P N N M
;
_chemical_formula_sum "Si O2"
_cell_formula_units_Z 64
_cell_length_a 18.847740
_cell_length_b 21.727895
_cell_length_c 9.300909
_cell_angle_alpha 90.000000
_cell_angle_beta 90.000000
_cell_angle_gamma 90.000000
_cell_volume 3808.924211
_symmetry_space_group_name_H-M "P N N M"
_symmetry_group_IT_number 58
_symmetry_cell_setting 'orthorhombic'
loop_
_space_group_symop_operation_xyz
x,y,z
-x,-y,z
1/2+x,1/2-y,1/2-z
1/2-x,1/2+y,1/2-z
-x,-y,-z
x,y,-z
1/2-x,1/2+y,1/2+z
1/2+x,1/2-y,1/2+z
loop_
_atom_site_type_symbol
_atom_site_label
_atom_site_fract_x
_atom_site_fract_y
_atom_site_fract_z
Si Si1 0.333081 0.108099 0.328506
Si Si2 0.376753 0.239999 0.663430
Si Si3 0.963744 0.683006 0.165422
Si Si4 0.172936 0.083081 0.672123
Si Si5 0.581957 0.519922 0.330898
Si Si6 0.975840 0.429902 0.670922
Si Si7 0.916717 0.798905 0.669878
Si Si8 0.424244 0.352583 0.168825
O O1 0.348569 0.102570 0.500000
O O2 0.329073 0.181398 0.298621
O O3 0.256616 0.079583 0.298818
O O4 0.398040 0.080460 0.239309
O O5 0.361538 0.260106 0.500000
O O6 0.456505 0.211705 0.664572
O O7 0.377179 0.296691 0.770887
O O8 0.917055 0.735641 0.241376
O O9 0.972378 0.619675 0.252921
O O10 0.943095 0.672403 0.000000
O O11 0.161780 0.076277 0.500000
O O12 0.141587 0.150320 0.710688
O O13 0.130239 0.031070 0.755435
O O14 0.500000 0.500000 0.313861
O O15 0.597538 0.523856 0.500000
O O16 0.590434 0.585678 0.255723
O O17 0.973912 0.417875 0.500000
O O18 0.000000 0.500000 0.694697
O O19 0.910153 0.785049 0.500000
O O20 0.993582 0.831744 0.690469
O O21 0.413563 0.362163 0.000000
#
# Coordination Sequence:
#
# PCOD9441016 Si02
#       8
#     8   8   8   8   8   8   8   8
#     4   9  19  35  56  80 105 136 173 216 268 322
#     4   8  15  29  48  72  99 125 159 204 254 303
#     4   9  17  29  49  76 103 129 163 208 255 303
#     4  10  20  35  54  76 105 141 178 216 264 321
#     4  11  22  33  48  74 107 143 183 222 260 306
#     4  10  20  34  55  81 107 136 175 220 266 318
#     4   9  17  29  48  74 103 134 168 209 258 306
#     4  10  18  29  49  74  99 132 173 214 256 299
#
# _framework density 16.802644999999998
#
# number of rings (size 3 to 8) (size 9 to 14) (size 15 to 20)
#    0.000    2.500    1.250    2.250    0.000    6.000 
#    0.000    0.000    2.750    0.000    0.000    0.000 
#    0.000    0.000    0.000    0.000    0.000    0.000 
#
# Total GULP energy -356805.529442 kJ/mol
# GULP energy per Si atom -5575.086398 kJ/mol
# Density = 1.676440 g / cm^3
# Si number density = 16.802645 Si / 1000 Ang^3
#
#
#
# Elastic Constant Matrix: (Units=GPa)
#
#
# Indices 1 2 3 4 5 6 
#
# 1 49.7554 40.7054 47.0873 0.0000 0.0000 0.0000
# 2 40.7054 128.3357 87.5620 0.0000 0.0000 0.0000
# 3 47.0873 87.5620 97.7484 0.0000 0.0000 0.0000
# 4 0.0000 0.0000 0.0000 32.9531 0.0000 0.0000
# 5 0.0000 0.0000 0.0000 0.0000 13.1913 0.0000
# 6 0.0000 0.0000 0.0000 0.0000 0.0000 21.2816
#
#
#
# Elastic Compliance Matrix: (Units=1/GPa)
#
#
# Indices 1 2 3 4 5 6 
#
# 1 0.036997 0.001094 -0.018802 0.000000 0.000000 0.000000
# 2 0.001094 0.020073 -0.018508 0.000000 0.000000 0.000000
# 3 -0.018802 -0.018508 0.035867 0.000000 0.000000 0.000000
# 4 0.000000 0.000000 0.000000 0.030346 0.000000 0.000000
# 5 0.000000 0.000000 0.000000 0.000000 0.075808 0.000000
# 6 0.000000 0.000000 0.000000 0.000000 0.000000 0.046989
#
#
# Mechanical properties :
#
#
# Convention : Reuss Voigt Hill
#
# Bulk Modulus (GPa) = 48.76981 69.61655 59.19318
# Shear Modulus (GPa) = 15.36820 20.18418 17.77619
#
# Velocity S-wave (km/s) = 3.02757 3.46967 3.25613
# Velocity P-wave (km/s) = 6.42726 7.58771 7.03146
#
# Compressibility (1/GPa) = 0.02050449
#
# Stress axis : x y z
#
# Youngs Moduli (GPa) = 27.02902 49.81820 27.88096
#
# Poissons Ratio (x) = -0.05448 0.52421
# Poissons Ratio (y) = -0.02956 0.51602
# Poissons Ratio (z) = 0.50820 0.92203
#
# Static dielectric constant tensor:
#      x y z
#    x 1.559510 0.000000 0.000000 
#    y 0.000000 1.559610 0.000000 
#    z 0.000000 0.000000 1.563500 
# 
# From -- ./inp_files/9407.got.cif
#   From: 2010.05.17/outbox.cif.g08.bks.cpg/sg58_5_cif.got.tgz:9407.got - 2010.06.03 14:20:14.
