data_PCOD9441733
_publ_section_title
;
Structure prediction by ZEFSAII (Michael W. Deem and Ramdas Pophale) SiO2 
 PCOD9441733
Probable space group: P N N M
;
_chemical_formula_sum "Si O2"
_cell_formula_units_Z 58
_cell_length_a 13.476812
_cell_length_b 24.263717
_cell_length_c 10.132664
_cell_angle_alpha 90.000000
_cell_angle_beta 90.000000
_cell_angle_gamma 90.000000
_cell_volume 3313.356328
_symmetry_space_group_name_H-M "P N N M"
_symmetry_group_IT_number 58
_symmetry_cell_setting 'orthorhombic'
loop_
_space_group_symop_operation_xyz
x,y,z
-x,-y,z
1/2+x,1/2-y,1/2-z
1/2-x,1/2+y,1/2-z
-x,-y,-z
x,y,-z
1/2-x,1/2+y,1/2+z
1/2+x,1/2-y,1/2+z
loop_
_atom_site_type_symbol
_atom_site_label
_atom_site_fract_x
_atom_site_fract_y
_atom_site_fract_z
Si Si1 0.776081 0.950434 0.658821
Si Si2 0.546388 0.370824 0.847053
Si Si3 0.000000 0.000000 0.000000
Si Si4 0.624367 0.559629 0.268453
Si Si5 0.755024 0.167586 0.152990
Si Si6 0.537434 0.719535 0.652667
Si Si7 0.070698 0.334075 0.155481
Si Si8 0.450044 0.057193 0.339495
O O1 0.775973 0.951192 0.500000
O O2 0.855597 0.903847 0.698103
O O3 0.664083 0.939222 0.705036
O O4 0.813838 0.009508 0.707736
O O5 0.453275 0.412510 0.832644
O O6 0.521618 0.319941 0.752128
O O7 0.557614 0.354447 0.000000
O O8 0.941353 0.035352 0.885677
O O9 0.696235 0.607842 0.319681
O O10 0.845626 0.210157 0.175611
O O11 0.665703 0.175827 0.253713
O O12 0.723869 0.171532 0.000000
O O13 0.518830 0.702302 0.500000
O O14 0.502683 0.782109 0.666771
O O15 0.015093 0.389981 0.197636
O O16 0.098374 0.339344 0.000000
O O17 0.448271 0.056539 0.500000
O O18 0.500000 0.000000 0.295901
#
# Coordination Sequence:
#
# PCOD9441733 Si02
#       8
#     8   8   2   8   8   8   8   8
#     4  10  19  31  52  81 109 139 178 229 280 320
#     4  10  20  32  52  84 114 142 179 235 282 324
#     4  12  20  32  54  80 114 164 190 224 270 352
#     4  11  20  33  54  80 116 151 192 222 276 338
#     4  10  21  36  57  81 109 145 185 225 277 331
#     4   9  21  38  57  79 108 144 184 224 272 336
#     4  10  21  39  60  82 108 143 189 234 276 334
#     4   9  18  33  54  78 104 136 176 221 273 328
#
# _framework density 17.504908
#
# number of rings (size 3 to 8) (size 9 to 14) (size 15 to 20)
#    0.000    2.069    2.069    1.241    0.966    6.621 
#    0.000    2.759    1.517    1.241    0.000    0.000 
#    0.000    0.000    0.000    0.000    0.000    0.000 
#
# Total GULP energy -323037.219399 kJ/mol
# GULP energy per Si atom -5569.607231 kJ/mol
# Density = 1.746507 g / cm^3
# Si number density = 17.504908 Si / 1000 Ang^3
#
#
#
# Elastic Constant Matrix: (Units=GPa)
#
#
# Indices 1 2 3 4 5 6 
#
# 1 111.6773 66.7808 53.8033 0.0000 0.0000 0.0000
# 2 66.7808 99.2708 47.5385 0.0000 0.0000 0.0000
# 3 53.8033 47.5385 59.3048 0.0000 0.0000 0.0000
# 4 0.0000 0.0000 0.0000 6.4616 0.0000 0.0000
# 5 0.0000 0.0000 0.0000 0.0000 33.6189 0.0000
# 6 0.0000 0.0000 0.0000 0.0000 0.0000 14.5239
#
#
#
# Elastic Compliance Matrix: (Units=1/GPa)
#
#
# Indices 1 2 3 4 5 6 
#
# 1 0.018615 -0.007199 -0.011118 0.000000 0.000000 0.000000
# 2 -0.007199 0.019133 -0.008806 0.000000 0.000000 0.000000
# 3 -0.011118 -0.008806 0.034008 0.000000 0.000000 0.000000
# 4 0.000000 0.000000 0.000000 0.154761 0.000000 0.000000
# 5 0.000000 0.000000 0.000000 0.000000 0.029745 0.000000
# 6 0.000000 0.000000 0.000000 0.000000 0.000000 0.068852
#
#
# Mechanical properties :
#
#
# Convention : Reuss Voigt Hill
#
# Bulk Modulus (GPa) = 57.10888 67.38867 62.24877
# Shear Modulus (GPa) = 12.98035 17.72957 15.35496
#
# Velocity S-wave (km/s) = 2.72605 3.18596 2.96494
# Velocity P-wave (km/s) = 6.52716 7.21903 6.88179
#
# Compressibility (1/GPa) = 0.01751041
#
# Stress axis : x y z
#
# Youngs Moduli (GPa) = 53.71871 52.26525 29.40500
#
# Poissons Ratio (x) = 0.37624 0.32693
# Poissons Ratio (y) = 0.38670 0.25895
# Poissons Ratio (z) = 0.59725 0.46026
#
# Static dielectric constant tensor:
#      x y z
#    x 1.591830 0.000000 0.000000 
#    y 0.000000 1.586420 0.000000 
#    z 0.000000 0.000000 1.579460 
# 
# From -- ./inp_files/6712.got.cif
#   From: 2010.05.17/outbox.cif.g08.bks.cpg/sg58_4_cif.got.tgz:6712.got - 2010.06.03 14:20:14.
