data_PCOD9441517
_publ_section_title
;
Structure prediction by ZEFSAII (Michael W. Deem and Ramdas Pophale) SiO2 
 PCOD9441517
Probable space group: P N N M
;
_chemical_formula_sum "Si O2"
_cell_formula_units_Z 56
_cell_length_a 12.591936
_cell_length_b 24.338577
_cell_length_c 7.302948
_cell_angle_alpha 90.000000
_cell_angle_beta 90.000000
_cell_angle_gamma 90.000000
_cell_volume 2238.133042
_symmetry_space_group_name_H-M "P N N M"
_symmetry_group_IT_number 58
_symmetry_cell_setting 'orthorhombic'
loop_
_space_group_symop_operation_xyz
x,y,z
-x,-y,z
1/2+x,1/2-y,1/2-z
1/2-x,1/2+y,1/2-z
-x,-y,-z
x,y,-z
1/2-x,1/2+y,1/2+z
1/2+x,1/2-y,1/2+z
loop_
_atom_site_type_symbol
_atom_site_label
_atom_site_fract_x
_atom_site_fract_y
_atom_site_fract_z
Si Si1 0.240097 0.352405 0.223825
Si Si2 0.185552 0.971717 0.295143
Si Si3 0.475521 0.795838 0.285241
Si Si4 0.114017 0.085283 0.276153
Si Si5 0.536811 0.679080 0.780818
Si Si6 0.397272 0.033995 0.220474
Si Si7 0.175184 0.648414 0.794401
O O1 0.276672 0.413432 0.284237
O O2 0.126651 0.328937 0.287485
O O3 0.341089 0.315491 0.278751
O O4 0.234385 0.353737 0.000000
O O5 0.142605 0.959805 0.500000
O O6 0.296504 0.004211 0.303610
O O7 0.116450 0.021909 0.213118
O O8 0.483028 0.809469 0.500000
O O9 0.463921 0.730319 0.272377
O O10 0.593354 0.808694 0.206261
O O11 0.119789 0.082605 0.500000
O O12 0.012825 0.120953 0.221049
O O13 0.216640 0.121808 0.216009
O O14 0.536782 0.677600 0.000000
O O15 0.500000 0.000000 0.266745
O O16 0.400804 0.095024 0.295366
O O17 0.386297 0.035943 0.000000
O O18 0.203563 0.666944 0.000000
#
# Coordination Sequence:
#
# PCOD9441517 Si02
#       7
#     8   8   8   8   8   8   8
#     4   9  19  35  55  81 108 138 180 225 269 320
#     4   9  17  33  56  77 102 139 179 220 265 314
#     4  10  21  36  54  77 107 141 182 226 266 320
#     4   8  16  31  53  81 105 131 173 219 262 310
#     4  10  21  36  54  78 109 141 178 223 271 323
#     4  10  19  29  45  75 111 138 167 212 265 318
#     4   9  18  33  53  74  99 136 181 219 255 308
#
# _framework density 25.020852999999999
#
# number of rings (size 3 to 8) (size 9 to 14) (size 15 to 20)
#    0.000    2.714    0.000    2.143    2.000    3.429 
#    0.000    7.143    0.000    0.000    0.000    5.000 
#    0.000    0.000    0.000    0.000    0.000    0.000 
#
# Total GULP energy -312402.205687 kJ/mol
# GULP energy per Si atom -5578.610816 kJ/mol
# Density = 2.496390 g / cm^3
# Si number density = 25.020853 Si / 1000 Ang^3
#
#
#
# Elastic Constant Matrix: (Units=GPa)
#
#
# Indices 1 2 3 4 5 6 
#
# 1 107.6043 35.3269 6.9521 0.0000 0.0000 0.0000
# 2 35.3269 132.3705 -5.0347 0.0000 0.0000 0.0000
# 3 6.9521 -5.0347 106.3472 0.0000 0.0000 0.0000
# 4 0.0000 0.0000 0.0000 14.1446 0.0000 0.0000
# 5 0.0000 0.0000 0.0000 0.0000 -13.5455 0.0000
# 6 0.0000 0.0000 0.0000 0.0000 0.0000 43.0150
#
#
#
# Elastic Compliance Matrix: (Units=1/GPa)
#
#
# Indices 1 2 3 4 5 6 
#
# 1 0.010253 -0.002767 -0.000801 0.000000 0.000000 0.000000
# 2 -0.002767 0.008315 0.000575 0.000000 0.000000 0.000000
# 3 -0.000801 0.000575 0.009483 0.000000 0.000000 0.000000
# 4 0.000000 0.000000 0.000000 0.070698 0.000000 0.000000
# 5 0.000000 0.000000 0.000000 0.000000 -0.073826 0.000000
# 6 0.000000 0.000000 0.000000 0.000000 0.000000 0.023248
#
#
# Mechanical properties :
#
#
# Convention : Reuss Voigt Hill
#
# Bulk Modulus (GPa) = 45.32331 46.75674 46.04003
# Shear Modulus (GPa) = 81.28304 29.32801 55.30553
#
# Velocity S-wave (km/s) = 5.70584 3.42737 4.70657
# Velocity P-wave (km/s) = 7.84617 5.86431 6.92649
#
# Compressibility (1/GPa) = 0.02206370
#
# Stress axis : x y z
#
# Youngs Moduli (GPa) = 97.52798 120.26697 105.45475
#
# Poissons Ratio (x) = 0.33277 0.08450
# Poissons Ratio (y) = 0.26985 -0.06059
# Poissons Ratio (z) = 0.07815 -0.06910
#
# Static dielectric constant tensor:
#      x y z
#    x 2.007970 0.000000 0.000000 
#    y 0.000000 2.010140 0.000000 
#    z 0.000000 0.000000 2.016130 
# 
# From -- ./inp_files/6262.got.cif
#   From: 2010.05.17/outbox.cif.g08.bks.cpg/sg58_4_cif.got.tgz:6262.got - 2010.06.03 14:20:14.
