data_PCOD9441792
_publ_section_title
;
Structure prediction by ZEFSAII (Michael W. Deem and Ramdas Pophale) SiO2 
 PCOD9441792
Probable space group: P N N M
;
_chemical_formula_sum "Si O2"
_cell_formula_units_Z 64
_cell_length_a 17.670555
_cell_length_b 21.133304
_cell_length_c 7.412522
_cell_angle_alpha 90.000000
_cell_angle_beta 90.000000
_cell_angle_gamma 90.000000
_cell_volume 2768.111540
_symmetry_space_group_name_H-M "P N N M"
_symmetry_group_IT_number 58
_symmetry_cell_setting 'orthorhombic'
loop_
_space_group_symop_operation_xyz
x,y,z
-x,-y,z
1/2+x,1/2-y,1/2-z
1/2-x,1/2+y,1/2-z
-x,-y,-z
x,y,-z
1/2-x,1/2+y,1/2+z
1/2+x,1/2-y,1/2+z
loop_
_atom_site_type_symbol
_atom_site_label
_atom_site_fract_x
_atom_site_fract_y
_atom_site_fract_z
Si Si1 0.873619 0.513178 0.215506
Si Si2 0.198219 0.855633 0.779479
Si Si3 0.778607 0.871595 0.220099
Si Si4 0.197110 0.991484 0.204721
Si Si5 0.413817 0.711555 0.703174
Si Si6 0.372605 0.848348 0.213846
Si Si7 0.429229 0.260084 0.722283
Si Si8 0.398392 0.122631 0.706808
O O1 0.788974 0.514756 0.296573
O O2 0.907307 0.582484 0.249710
O O3 0.911357 0.448065 0.282548
O O4 0.865655 0.506577 0.000000
O O5 0.285160 0.848756 0.723158
O O6 0.145704 0.797892 0.723656
O O7 0.170259 0.924892 0.716103
O O8 0.198454 0.857532 0.000000
O O9 0.814169 0.938757 0.281328
O O10 0.836555 0.817150 0.280093
O O11 0.693144 0.867826 0.290817
O O12 0.771092 0.871805 0.000000
O O13 0.168687 0.993992 0.000000
O O14 0.416514 0.685583 0.500000
O O15 0.408628 0.787309 0.698290
O O16 0.496599 0.701750 0.784062
O O17 0.373895 0.838398 0.000000
O O18 0.429730 0.258483 0.500000
O O19 0.429301 0.187588 0.788362
O O20 0.425047 0.120758 0.500000
#
# Coordination Sequence:
#
# PCOD9441792 Si02
#       8
#     8   8   8   8   8   8   8   8
#     4   9  16  27  46  72  95 114 147 194 238 278
#     4   8  14  26  47  70  89 116 153 189 224 266
#     4   9  17  29  46  70  98 124 152 191 236 275
#     4   8  14  26  44  68  97 124 151 185 228 276
#     4  10  20  32  46  66  94 126 157 193 234 272
#     4  10  19  32  51  71  92 120 153 191 235 283
#     4   9  17  30  46  66  93 122 156 195 230 268
#     4   9  17  30  50  72  92 121 159 195 231 275
#
# _framework density 23.120456999999998
#
# number of rings (size 3 to 8) (size 9 to 14) (size 15 to 20)
#    0.000    3.000    0.000    2.250    0.000    2.000 
#    0.000    1.875    0.000   11.250    0.000    0.000 
#    0.000   14.000    0.000    0.000    0.000    0.000 
#
# Total GULP energy -356901.061735 kJ/mol
# GULP energy per Si atom -5576.579090 kJ/mol
# Density = 2.306783 g / cm^3
# Si number density = 23.120457 Si / 1000 Ang^3
#
#
#
# Elastic Constant Matrix: (Units=GPa)
#
#
# Indices 1 2 3 4 5 6 
#
# 1 45.0395 4.2181 -8.7255 0.0000 0.0000 0.0000
# 2 4.2181 95.2326 -9.4275 0.0000 0.0000 0.0000
# 3 -8.7255 -9.4275 89.8525 0.0000 0.0000 0.0000
# 4 0.0000 0.0000 0.0000 7.0082 0.0000 0.0000
# 5 0.0000 0.0000 0.0000 0.0000 2.0621 0.0000
# 6 0.0000 0.0000 0.0000 0.0000 0.0000 -17.3311
#
#
#
# Elastic Compliance Matrix: (Units=1/GPa)
#
#
# Indices 1 2 3 4 5 6 
#
# 1 0.022688 -0.000795 0.002120 0.000000 0.000000 0.000000
# 2 -0.000795 0.010639 0.001039 0.000000 0.000000 0.000000
# 3 0.002120 0.001039 0.011444 0.000000 0.000000 0.000000
# 4 0.000000 0.000000 0.000000 0.142691 0.000000 0.000000
# 5 0.000000 0.000000 0.000000 0.000000 0.484933 0.000000
# 6 0.000000 0.000000 0.000000 0.000000 0.000000 -0.057700
#
#
# Mechanical properties :
#
#
# Convention : Reuss Voigt Hill
#
# Bulk Modulus (GPa) = 20.20274 22.47276 21.33775
# Shear Modulus (GPa) = 7.98126 14.61848 11.29987
#
# Velocity S-wave (km/s) = 1.85998 2.51724 2.21314
# Velocity P-wave (km/s) = 3.65646 4.26493 3.97236
#
# Compressibility (1/GPa) = 0.04949824
#
# Stress axis : x y z
#
# Youngs Moduli (GPa) = 44.07647 93.99669 87.38041
#
# Poissons Ratio (x) = 0.07473 -0.18523
# Poissons Ratio (y) = 0.03504 -0.09079
# Poissons Ratio (z) = -0.09343 -0.09766
#
# Static dielectric constant tensor:
#      x y z
#    x 1.830660 0.000000 0.000000 
#    y 0.000000 1.906450 0.000000 
#    z 0.000000 0.000000 1.875250 
# 
# From -- ./inp_files/8344.got.cif
#   From: 2010.05.17/outbox.cif.g08.bks.cpg/sg58_5_cif.got.tgz:8344.got - 2010.06.03 14:20:14.
