data_PCOD9441999
_publ_section_title
;
Structure prediction by ZEFSAII (Michael W. Deem and Ramdas Pophale) SiO2 
 PCOD9441999
Probable space group: P N N M
;
_chemical_formula_sum "Si O2"
_cell_formula_units_Z 64
_cell_length_a 17.434874
_cell_length_b 21.025592
_cell_length_c 7.731054
_cell_angle_alpha 90.000000
_cell_angle_beta 90.000000
_cell_angle_gamma 90.000000
_cell_volume 2834.038544
_symmetry_space_group_name_H-M "P N N M"
_symmetry_group_IT_number 58
_symmetry_cell_setting 'orthorhombic'
loop_
_space_group_symop_operation_xyz
x,y,z
-x,-y,z
1/2+x,1/2-y,1/2-z
1/2-x,1/2+y,1/2-z
-x,-y,-z
x,y,-z
1/2-x,1/2+y,1/2+z
1/2+x,1/2-y,1/2+z
loop_
_atom_site_type_symbol
_atom_site_label
_atom_site_fract_x
_atom_site_fract_y
_atom_site_fract_z
Si Si1 0.820222 0.786650 0.208554
Si Si2 0.618238 0.152310 0.296927
Si Si3 0.338589 0.514133 0.204633
Si Si4 0.044159 0.114532 0.206871
Si Si5 0.552108 0.841131 0.287679
Si Si6 0.771130 0.115154 0.199113
Si Si7 0.792252 0.390357 0.201813
Si Si8 0.596719 0.697518 0.287745
O O1 0.845223 0.717687 0.273445
O O2 0.890685 0.833549 0.250955
O O3 0.745434 0.820231 0.284582
O O4 0.811644 0.785441 0.000000
O O5 0.606495 0.163947 0.500000
O O6 0.533162 0.139594 0.228497
O O7 0.687720 0.102986 0.279538
O O8 0.420055 0.548056 0.233545
O O9 0.325052 0.446135 0.287228
O O10 0.271067 0.561101 0.275107
O O11 0.328824 0.506686 0.000000
O O12 0.965140 0.144718 0.270992
O O13 0.038520 0.110960 0.000000
O O14 0.554611 0.842949 0.500000
O O15 0.622327 0.884840 0.224813
O O16 0.569568 0.767884 0.237715
O O17 0.820098 0.173948 0.274772
O O18 0.756303 0.128311 0.000000
O O19 0.798974 0.406586 0.000000
O O20 0.597876 0.696823 0.500000
#
# Coordination Sequence:
#
# PCOD9441999 Si02
#       8
#     8   8   8   8   8   8   8   8
#     4   9  16  28  50  78 106 134 162 199 260 320
#     4  10  19  33  54  78 106 136 166 209 266 318
#     4  10  21  37  53  74 106 142 181 222 265 309
#     4   9  16  31  55  80 104 135 172 211 253 307
#     4   9  16  31  55  82 106 131 168 214 260 312
#     4  11  23  37  54  76 103 141 183 222 260 306
#     4   9  18  32  54  78 101 135 179 222 257 299
#     4   9  17  31  54  82 108 134 172 215 256 311
#
# _framework density 22.582616000000002
#
# number of rings (size 3 to 8) (size 9 to 14) (size 15 to 20)
#    0.000    2.500    1.250    1.500    0.000    2.500 
#    0.000    5.000    0.000    6.000    0.000    0.000 
#    0.000    0.000    0.000    0.000    0.000    0.000 
#
# Total GULP energy -357157.885738 kJ/mol
# GULP energy per Si atom -5580.591965 kJ/mol
# Density = 2.253122 g / cm^3
# Si number density = 22.582616 Si / 1000 Ang^3
#
#
#
# Elastic Constant Matrix: (Units=GPa)
#
#
# Indices 1 2 3 4 5 6 
#
# 1 118.6041 -2.0003 11.3117 0.0000 0.0000 0.0000
# 2 -2.0003 31.9760 -1.8168 0.0000 0.0000 0.0000
# 3 11.3117 -1.8168 27.4175 0.0000 0.0000 0.0000
# 4 0.0000 0.0000 0.0000 16.7724 0.0000 0.0000
# 5 0.0000 0.0000 0.0000 0.0000 12.7060 0.0000
# 6 0.0000 0.0000 0.0000 0.0000 0.0000 27.4639
#
#
#
# Elastic Compliance Matrix: (Units=1/GPa)
#
#
# Indices 1 2 3 4 5 6 
#
# 1 0.008781 0.000345 -0.003600 0.000000 0.000000 0.000000
# 2 0.000345 0.031405 0.001939 0.000000 0.000000 0.000000
# 3 -0.003600 0.001939 0.038087 0.000000 0.000000 0.000000
# 4 0.000000 0.000000 0.000000 0.059622 0.000000 0.000000
# 5 0.000000 0.000000 0.000000 0.000000 0.078703 0.000000
# 6 0.000000 0.000000 0.000000 0.000000 0.000000 0.036411
#
#
# Mechanical properties :
#
#
# Convention : Reuss Voigt Hill
#
# Bulk Modulus (GPa) = 13.22052 21.44297 17.33174
# Shear Modulus (GPa) = 17.80283 22.75533 20.27908
#
# Velocity S-wave (km/s) = 2.81079 3.17779 2.99991
# Velocity P-wave (km/s) = 4.04982 4.79379 4.43742
#
# Compressibility (1/GPa) = 0.07564000
#
# Stress axis : x y z
#
# Youngs Moduli (GPa) = 113.88809 31.84192 26.25592
#
# Poissons Ratio (x) = -0.01098 0.09451
# Poissons Ratio (y) = -0.03926 -0.05091
# Poissons Ratio (z) = 0.40997 -0.06174
#
# Static dielectric constant tensor:
#      x y z
#    x 1.881530 0.000000 0.000000 
#    y 0.000000 1.849390 0.000000 
#    z 0.000000 0.000000 1.842020 
# 
# From -- ./inp_files/8324.got.cif
#   From: 2010.05.17/outbox.cif.g08.bks.cpg/sg58_5_cif.got.tgz:8324.got - 2010.06.03 14:20:14.
