data_PCOD9441425
_publ_section_title
;
Structure prediction by ZEFSAII (Michael W. Deem and Ramdas Pophale) SiO2 
 PCOD9441425
Probable space group: P N N M
;
_chemical_formula_sum "Si O2"
_cell_formula_units_Z 56
_cell_length_a 22.103375
_cell_length_b 15.293730
_cell_length_c 7.498328
_cell_angle_alpha 90.000000
_cell_angle_beta 90.000000
_cell_angle_gamma 90.000000
_cell_volume 2534.757662
_symmetry_space_group_name_H-M "P N N M"
_symmetry_group_IT_number 58
_symmetry_cell_setting 'orthorhombic'
loop_
_space_group_symop_operation_xyz
x,y,z
-x,-y,z
1/2+x,1/2-y,1/2-z
1/2-x,1/2+y,1/2-z
-x,-y,-z
x,y,-z
1/2-x,1/2+y,1/2+z
1/2+x,1/2-y,1/2+z
loop_
_atom_site_type_symbol
_atom_site_label
_atom_site_fract_x
_atom_site_fract_y
_atom_site_fract_z
Si Si1 0.979656 0.638541 0.215494
Si Si2 0.593163 0.966433 0.717224
Si Si3 0.735156 0.225363 0.216626
Si Si4 0.435431 0.528429 0.792322
Si Si5 0.392199 0.712379 0.793119
Si Si6 0.680523 0.569884 0.294967
Si Si7 0.273588 0.079625 0.284594
O O1 0.936314 0.558213 0.271905
O O2 0.951278 0.727662 0.282980
O O3 0.046946 0.610374 0.271343
O O4 0.979022 0.641799 0.000000
O O5 0.593753 0.966441 0.500000
O O6 0.661152 0.953139 0.778487
O O7 0.665515 0.233815 0.280673
O O8 0.763511 0.319388 0.260485
O O9 0.777223 0.146635 0.283785
O O10 0.733911 0.214625 0.000000
O O11 0.500000 0.500000 0.714444
O O12 0.407092 0.617641 0.713111
O O13 0.384402 0.453776 0.785559
O O14 0.447232 0.549398 0.000000
O O15 0.375525 0.696642 0.000000
O O16 0.668193 0.592385 0.500000
O O17 0.721047 0.482643 0.284660
O O18 0.271598 0.073773 0.500000
#
# Coordination Sequence:
#
# PCOD9441425 Si02
#       7
#     8   8   8   8   8   8   8
#     4   9  17  31  50  78 109 138 177 226 270 320
#     4   8  16  30  51  77 107 141 181 223 266 321
#     4   9  19  34  54  78 107 144 184 224 280 341
#     4  10  22  41  62  80 106 151 197 229 271 342
#     4  10  19  35  55  77 106 144 185 226 275 334
#     4  11  22  36  56  86 117 142 181 241 292 328
#     4  10  18  35  58  76 103 150 188 215 267 340
#
# _framework density 22.092841
#
# number of rings (size 3 to 8) (size 9 to 14) (size 15 to 20)
#    0.000    2.429    1.429    2.143    0.000    2.000 
#    0.000    5.714    0.000    0.000    0.000    0.000 
#    0.000    0.000    0.000    0.000    0.000    0.000 
#
# Total GULP energy -312646.989224 kJ/mol
# GULP energy per Si atom -5582.981950 kJ/mol
# Density = 2.204256 g / cm^3
# Si number density = 22.092841 Si / 1000 Ang^3
#
#
#
# Elastic Constant Matrix: (Units=GPa)
#
#
# Indices 1 2 3 4 5 6 
#
# 1 152.3371 38.3353 0.4107 0.0000 0.0000 0.0000
# 2 38.3353 83.7768 1.6875 0.0000 0.0000 0.0000
# 3 0.4107 1.6875 52.7747 0.0000 0.0000 0.0000
# 4 0.0000 0.0000 0.0000 2.3796 0.0000 0.0000
# 5 0.0000 0.0000 0.0000 0.0000 10.6784 0.0000
# 6 0.0000 0.0000 0.0000 0.0000 0.0000 28.6599
#
#
#
# Elastic Compliance Matrix: (Units=1/GPa)
#
#
# Indices 1 2 3 4 5 6 
#
# 1 0.007419 -0.003396 0.000051 0.000000 0.000000 0.000000
# 2 -0.003396 0.013499 -0.000405 0.000000 0.000000 0.000000
# 3 0.000051 -0.000405 0.018961 0.000000 0.000000 0.000000
# 4 0.000000 0.000000 0.000000 0.420246 0.000000 0.000000
# 5 0.000000 0.000000 0.000000 0.000000 0.093647 0.000000
# 6 0.000000 0.000000 0.000000 0.000000 0.000000 0.034892
#
#
# Mechanical properties :
#
#
# Convention : Reuss Voigt Hill
#
# Bulk Modulus (GPa) = 30.88508 41.08394 35.98451
# Shear Modulus (GPa) = 8.23783 24.90724 16.57253
#
# Velocity S-wave (km/s) = 1.93309 3.36130 2.74182
# Velocity P-wave (km/s) = 4.35803 5.80525 5.13290
#
# Compressibility (1/GPa) = 0.03237809
#
# Stress axis : x y z
#
# Youngs Moduli (GPa) = 134.79280 74.08222 52.73976
#
# Poissons Ratio (x) = 0.25157 -0.00268
# Poissons Ratio (y) = 0.45773 0.02137
# Poissons Ratio (z) = -0.00685 0.03002
#
# Static dielectric constant tensor:
#      x y z
#    x 1.800900 0.000000 0.000000 
#    y 0.000000 1.787950 0.000000 
#    z 0.000000 0.000000 1.837510 
# 
# From -- ./inp_files/9036.got.cif
#   From: 2010.05.17/outbox.cif.g08.bks.cpg/sg58_5_cif.got.tgz:9036.got - 2010.06.03 14:20:14.
