data_PCOD9441961
_publ_section_title
;
Structure prediction by ZEFSAII (Michael W. Deem and Ramdas Pophale) SiO2 
 PCOD9441961
Probable space group: P N N M
;
_chemical_formula_sum "Si O2"
_cell_formula_units_Z 64
_cell_length_a 23.522601
_cell_length_b 19.475406
_cell_length_c 8.972405
_cell_angle_alpha 90.000000
_cell_angle_beta 90.000000
_cell_angle_gamma 90.000000
_cell_volume 4110.368236
_symmetry_space_group_name_H-M "P N N M"
_symmetry_group_IT_number 58
_symmetry_cell_setting 'orthorhombic'
loop_
_space_group_symop_operation_xyz
x,y,z
-x,-y,z
1/2+x,1/2-y,1/2-z
1/2-x,1/2+y,1/2-z
-x,-y,-z
x,y,-z
1/2-x,1/2+y,1/2+z
1/2+x,1/2-y,1/2+z
loop_
_atom_site_type_symbol
_atom_site_label
_atom_site_fract_x
_atom_site_fract_y
_atom_site_fract_z
Si Si1 0.662225 0.713814 0.823851
Si Si2 0.839247 0.758314 0.321744
Si Si3 0.755268 0.995483 0.177884
Si Si4 0.435590 0.370943 0.676764
Si Si5 0.943954 0.851708 0.677401
Si Si6 0.119708 0.003828 0.677612
Si Si7 0.780605 0.632333 0.823445
Si Si8 0.236227 0.659752 0.678023
O O1 0.610617 0.685026 0.728913
O O2 0.717988 0.666225 0.799602
O O3 0.683346 0.790610 0.786837
O O4 0.648210 0.710159 0.000000
O O5 0.835097 0.753208 0.500000
O O6 0.900082 0.791064 0.283818
O O7 0.824897 0.685510 0.247862
O O8 0.790777 0.810503 0.263428
O O9 0.729269 0.920433 0.209723
O O10 0.818549 0.996424 0.246701
O O11 0.720723 0.058151 0.248353
O O12 0.759104 0.004138 0.000000
O O13 0.434121 0.379671 0.500000
O O14 0.497960 0.350618 0.732386
O O15 0.417069 0.441879 0.755857
O O16 0.956125 0.848197 0.500000
O O17 0.911477 0.923803 0.703869
O O18 0.126390 0.994240 0.500000
O O19 0.789252 0.627442 0.000000
O O20 0.246855 0.667853 0.500000
#
# Coordination Sequence:
#
# PCOD9441961 Si02
#       8
#     8   8   8   8   8   8   8   8
#     4   9  18  34  51  68  97 134 167 202 247 302
#     4  10  19  33  52  74  98 129 170 211 249 296
#     4  11  20  31  51  78 104 132 168 208 248 298
#     4  12  24  34  49  73  99 133 175 217 250 287
#     4  10  22  37  52  70  97 137 175 208 252 302
#     4  11  21  35  50  69 100 138 174 206 246 298
#     4  10  20  33  51  73 101 136 166 202 255 302
#     4   9  19  33  51  74 101 131 163 205 256 302
#
# _framework density 15.570380999999999
#
# number of rings (size 3 to 8) (size 9 to 14) (size 15 to 20)
#    0.000    1.750    2.500    3.750    0.000    6.000 
#    0.000    0.000    0.000    0.000    0.000    0.875 
#    0.000    7.000    0.000    0.000    0.000    0.000 
#
# Total GULP energy -357330.195807 kJ/mol
# GULP energy per Si atom -5583.284309 kJ/mol
# Density = 1.553494 g / cm^3
# Si number density = 15.570381 Si / 1000 Ang^3
#
#
#
# Elastic Constant Matrix: (Units=GPa)
#
#
# Indices 1 2 3 4 5 6 
#
# 1 50.2333 31.0288 34.6846 0.0000 0.0000 0.0000
# 2 31.0288 94.3447 48.8316 0.0000 0.0000 0.0000
# 3 34.6846 48.8316 61.9675 0.0000 0.0000 0.0000
# 4 0.0000 0.0000 0.0000 27.5440 0.0000 0.0000
# 5 0.0000 0.0000 0.0000 0.0000 25.1402 0.0000
# 6 0.0000 0.0000 0.0000 0.0000 0.0000 16.1967
#
#
#
# Elastic Compliance Matrix: (Units=1/GPa)
#
#
# Indices 1 2 3 4 5 6 
#
# 1 0.032707 -0.002164 -0.016601 0.000000 0.000000 0.000000
# 2 -0.002164 0.018044 -0.013007 0.000000 0.000000 0.000000
# 3 -0.016601 -0.013007 0.035680 0.000000 0.000000 0.000000
# 4 0.000000 0.000000 0.000000 0.036306 0.000000 0.000000
# 5 0.000000 0.000000 0.000000 0.000000 0.039777 0.000000
# 6 0.000000 0.000000 0.000000 0.000000 0.000000 0.061741
#
#
# Mechanical properties :
#
#
# Convention : Reuss Voigt Hill
#
# Bulk Modulus (GPa) = 43.69812 48.40398 46.05105
# Shear Modulus (GPa) = 16.92465 19.90954 18.41709
#
# Velocity S-wave (km/s) = 3.30051 3.57974 3.44296
# Velocity P-wave (km/s) = 6.53072 6.94556 6.74133
#
# Compressibility (1/GPa) = 0.02288428
#
# Stress axis : x y z
#
# Youngs Moduli (GPa) = 30.57489 55.42103 28.02720
#
# Poissons Ratio (x) = 0.11995 0.46528
# Poissons Ratio (y) = 0.06617 0.36456
# Poissons Ratio (z) = 0.50758 0.72088
#
# Static dielectric constant tensor:
#      x y z
#    x 1.489680 0.000000 0.000000 
#    y 0.000000 1.526650 0.000000 
#    z 0.000000 0.000000 1.516340 
# 
# From -- ./inp_files/8498.got.cif
#   From: 2010.05.17/outbox.cif.g08.bks.cpg/sg58_5_cif.got.tgz:8498.got - 2010.06.03 14:20:14.
