data_PCOD9441040
_publ_section_title
;
Structure prediction by ZEFSAII (Michael W. Deem and Ramdas Pophale) SiO2 
 PCOD9441040
Probable space group: P N N M
;
_chemical_formula_sum "Si O2"
_cell_formula_units_Z 58
_cell_length_a 14.100228
_cell_length_b 17.567129
_cell_length_c 10.365643
_cell_angle_alpha 90.000000
_cell_angle_beta 90.000000
_cell_angle_gamma 90.000000
_cell_volume 2567.575205
_symmetry_space_group_name_H-M "P N N M"
_symmetry_group_IT_number 58
_symmetry_cell_setting 'orthorhombic'
loop_
_space_group_symop_operation_xyz
x,y,z
-x,-y,z
1/2+x,1/2-y,1/2-z
1/2-x,1/2+y,1/2-z
-x,-y,-z
x,y,-z
1/2-x,1/2+y,1/2+z
1/2+x,1/2-y,1/2+z
loop_
_atom_site_type_symbol
_atom_site_label
_atom_site_fract_x
_atom_site_fract_y
_atom_site_fract_z
Si Si1 0.789806 0.418361 0.854395
Si Si2 0.130205 0.409729 0.857337
Si Si3 0.388033 0.486699 0.144959
Si Si4 0.551987 0.291705 0.855488
Si Si5 0.500000 0.000000 0.000000
Si Si6 0.955031 0.368214 0.708500
Si Si7 0.726533 0.194979 0.855024
Si Si8 0.922305 0.136255 0.150001
O O1 0.841984 0.501731 0.847857
O O2 0.679858 0.440896 0.835494
O O3 0.845727 0.368962 0.750629
O O4 0.800961 0.388493 0.000000
O O5 0.186503 0.363056 0.749699
O O6 0.020637 0.390206 0.831299
O O7 0.155954 0.383133 0.000000
O O8 0.500000 0.500000 0.140212
O O9 0.376741 0.432864 0.268739
O O10 0.361432 0.456996 0.000000
O O11 0.495053 0.211186 0.846158
O O12 0.662354 0.269688 0.843094
O O13 0.510867 0.338371 0.735989
O O14 0.535385 0.324257 0.000000
O O15 0.475142 0.064011 0.110276
O O16 0.839435 0.199737 0.846480
O O17 0.706432 0.164215 0.000000
O O18 0.443158 0.380740 0.500000
#
# Coordination Sequence:
#
# PCOD9441040 Si02
#       8
#     8   8   8   8   2   8   8   8
#     4  10  19  33  55  86 117 154 193 244 300 354
#     4  10  18  29  53  85 118 150 190 238 294 355
#     4  10  22  43  68  92 119 161 215 261 308 369
#     4  10  22  40  61  88 124 164 209 248 305 377
#     4  12  20  32  54  84 130 168 192 236 292 370
#     4  11  21  34  55  89 128 159 195 245 304 371
#     4   9  20  37  60  86 114 155 204 247 296 365
#     4  11  23  42  66  91 122 162 207 261 316 364
#
# _framework density 22.589407000000001
#
# number of rings (size 3 to 8) (size 9 to 14) (size 15 to 20)
#    0.000    1.793    3.448    0.828    0.966    4.690 
#    3.724    0.000    0.000    0.000    0.000    0.000 
#    0.000    0.000    0.000    0.000    0.000    0.000 
#
# Total GULP energy -323471.206077 kJ/mol
# GULP energy per Si atom -5577.089760 kJ/mol
# Density = 2.253799 g / cm^3
# Si number density = 22.589407 Si / 1000 Ang^3
#
#
#
# Elastic Constant Matrix: (Units=GPa)
#
#
# Indices 1 2 3 4 5 6 
#
# 1 111.4640 -5.9705 38.1449 0.0000 0.0000 0.0000
# 2 -5.9705 57.7638 41.5141 0.0000 0.0000 0.0000
# 3 38.1449 41.5141 169.7034 0.0000 0.0000 0.0000
# 4 0.0000 0.0000 0.0000 24.6654 0.0000 0.0000
# 5 0.0000 0.0000 0.0000 0.0000 6.8411 0.0000
# 6 0.0000 0.0000 0.0000 0.0000 0.0000 24.1362
#
#
#
# Elastic Compliance Matrix: (Units=1/GPa)
#
#
# Indices 1 2 3 4 5 6 
#
# 1 0.010207 0.003281 -0.003097 0.000000 0.000000 0.000000
# 2 0.003281 0.022059 -0.006134 0.000000 0.000000 0.000000
# 3 -0.003097 -0.006134 0.008089 0.000000 0.000000 0.000000
# 4 0.000000 0.000000 0.000000 0.040543 0.000000 0.000000
# 5 0.000000 0.000000 0.000000 0.000000 0.146175 0.000000
# 6 0.000000 0.000000 0.000000 0.000000 0.000000 0.041432
#
#
# Mechanical properties :
#
#
# Convention : Reuss Voigt Hill
#
# Bulk Modulus (GPa) = 35.14237 54.03423 44.58830
# Shear Modulus (GPa) = 17.24793 28.81139 23.02966
#
# Velocity S-wave (km/s) = 2.76622 3.57520 3.19641
# Velocity P-wave (km/s) = 5.07872 6.40428 5.77963
#
# Compressibility (1/GPa) = 0.02845568
#
# Stress axis : x y z
#
# Youngs Moduli (GPa) = 97.97185 45.33262 123.62188
#
# Poissons Ratio (x) = -0.14872 0.38283
# Poissons Ratio (y) = -0.32141 0.75826
# Poissons Ratio (z) = 0.30340 0.27806
#
# Static dielectric constant tensor:
#      x y z
#    x 1.892950 0.000000 0.000000 
#    y 0.000000 1.896430 0.000000 
#    z 0.000000 0.000000 1.782600 
# 
# From -- ./inp_files/6723.got.cif
#   From: 2010.05.17/outbox.cif.g08.bks.cpg/sg58_4_cif.got.tgz:6723.got - 2010.06.03 14:20:14.
