data_PCOD9441243
_publ_section_title
;
Structure prediction by ZEFSAII (Michael W. Deem and Ramdas Pophale) SiO2 
 PCOD9441243
Probable space group: P N N M
;
_chemical_formula_sum "Si O2"
_cell_formula_units_Z 48
_cell_length_a 8.143486
_cell_length_b 7.461187
_cell_length_c 32.304025
_cell_angle_alpha 90.000000
_cell_angle_beta 90.000000
_cell_angle_gamma 90.000000
_cell_volume 1962.794881
_symmetry_space_group_name_H-M "P N N M"
_symmetry_group_IT_number 58
_symmetry_cell_setting 'orthorhombic'
loop_
_space_group_symop_operation_xyz
x,y,z
-x,-y,z
1/2+x,1/2-y,1/2-z
1/2-x,1/2+y,1/2-z
-x,-y,-z
x,y,-z
1/2-x,1/2+y,1/2+z
1/2+x,1/2-y,1/2+z
loop_
_atom_site_type_symbol
_atom_site_label
_atom_site_fract_x
_atom_site_fract_y
_atom_site_fract_z
Si Si1 0.306021 0.329087 0.681866
Si Si2 0.541548 0.704657 0.836325
Si Si3 0.831308 0.801200 0.451520
Si Si4 0.820138 0.219633 0.422856
Si Si5 0.830489 0.390063 0.738224
Si Si6 0.977328 0.280814 0.100929
O O1 0.125001 0.320297 0.661220
O O2 0.304344 0.501926 0.711759
O O3 0.294196 0.169997 0.715704
O O4 0.442752 0.294969 0.647200
O O5 0.500000 0.500000 0.843848
O O6 0.658780 0.751339 0.873897
O O7 0.625131 0.726614 0.792024
O O8 0.797519 0.794679 0.500000
O O9 0.684915 0.725951 0.424102
O O10 0.009920 0.715142 0.442955
O O11 0.827877 0.010609 0.436961
O O12 0.632593 0.279999 0.426859
O O13 0.000000 0.500000 0.740074
O O14 0.000000 0.500000 0.105086
#
# Coordination Sequence:
#
# PCOD9441243 Si02
#       6
#     8   8   8   8   8   8
#     4  11  21  40  55  83 124 164 218 266 328 383
#     4  11  19  36  59  82 119 162 206 253 325 378
#     4  10  19  33  54  89 127 160 202 259 331 394
#     4  10  18  32  53  85 119 161 197 255 319 381
#     4  10  24  37  60  90 121 173 220 277 324 391
#     4  10  20  33  58  84 121 167 206 263 328 392
#
# _framework density 24.454926
#
# number of rings (size 3 to 8) (size 9 to 14) (size 15 to 20)
#    0.000    1.667    3.333    3.500    0.000    6.333 
#    0.000    4.167    0.000    0.000    0.000    3.500 
#    0.000   13.333    0.000    0.000    0.000    0.000 
#
# Total GULP energy -268024.699842 kJ/mol
# GULP energy per Si atom -5583.847913 kJ/mol
# Density = 2.439927 g / cm^3
# Si number density = 24.454926 Si / 1000 Ang^3
#
#
#
# Elastic Constant Matrix: (Units=GPa)
#
#
# Indices 1 2 3 4 5 6 
#
# 1 129.8623 20.5230 53.1666 0.0000 0.0000 0.0000
# 2 20.5230 48.9541 10.4041 0.0000 0.0000 0.0000
# 3 53.1666 10.4041 146.3275 0.0000 0.0000 0.0000
# 4 0.0000 0.0000 0.0000 12.7887 0.0000 0.0000
# 5 0.0000 0.0000 0.0000 0.0000 21.3810 0.0000
# 6 0.0000 0.0000 0.0000 0.0000 0.0000 8.5840
#
#
#
# Elastic Compliance Matrix: (Units=1/GPa)
#
#
# Indices 1 2 3 4 5 6 
#
# 1 0.009548 -0.003316 -0.003234 0.000000 0.000000 0.000000
# 2 -0.003316 0.021892 -0.000352 0.000000 0.000000 0.000000
# 3 -0.003234 -0.000352 0.008034 0.000000 0.000000 0.000000
# 4 0.000000 0.000000 0.000000 0.078194 0.000000 0.000000
# 5 0.000000 0.000000 0.000000 0.000000 0.046770 0.000000
# 6 0.000000 0.000000 0.000000 0.000000 0.000000 0.116496
#
#
# Mechanical properties :
#
#
# Convention : Reuss Voigt Hill
#
# Bulk Modulus (GPa) = 38.95276 54.81462 46.88369
# Shear Modulus (GPa) = 16.48562 24.62074 20.55318
#
# Velocity S-wave (km/s) = 2.59920 3.17642 2.90220
# Velocity P-wave (km/s) = 4.99708 5.99300 5.51756
#
# Compressibility (1/GPa) = 0.02567212
#
# Stress axis : x y z
#
# Youngs Moduli (GPa) = 104.73064 45.67855 124.47302
#
# Poissons Ratio (x) = 0.15146 0.40249
# Poissons Ratio (y) = 0.34726 0.04379
# Poissons Ratio (z) = 0.33865 0.01607
#
# Static dielectric constant tensor:
#      x y z
#    x 2.432300 0.000000 0.000000 
#    y 0.000000 2.022040 0.000000 
#    z 0.000000 0.000000 1.879310 
# 
# From -- ./inp_files/34589.got.cif
#   From: 2010.05.17/outbox.cif.g08.bks.cpg/sg58_18_cif.got.tgz:34589.got - 2010.06.03 14:20:14.
