data_PCOD9441143
_publ_section_title
;
Structure prediction by ZEFSAII (Michael W. Deem and Ramdas Pophale) SiO2 
 PCOD9441143
Probable space group: P N N M
;
_chemical_formula_sum "Si O2"
_cell_formula_units_Z 40
_cell_length_a 7.344225
_cell_length_b 30.011938
_cell_length_c 8.024187
_cell_angle_alpha 90.000000
_cell_angle_beta 90.000000
_cell_angle_gamma 90.000000
_cell_volume 1768.646567
_symmetry_space_group_name_H-M "P N N M"
_symmetry_group_IT_number 58
_symmetry_cell_setting 'orthorhombic'
loop_
_space_group_symop_operation_xyz
x,y,z
-x,-y,z
1/2+x,1/2-y,1/2-z
1/2-x,1/2+y,1/2-z
-x,-y,-z
x,y,-z
1/2-x,1/2+y,1/2+z
1/2+x,1/2-y,1/2+z
loop_
_atom_site_type_symbol
_atom_site_label
_atom_site_fract_x
_atom_site_fract_y
_atom_site_fract_z
Si Si1 0.447288 0.306058 0.811086
Si Si2 0.492021 0.602962 0.321906
Si Si3 0.953186 0.387204 0.689589
Si Si4 0.468371 0.551655 0.000000
Si Si5 0.656405 0.793694 0.201575
Si Si6 0.534894 0.946690 0.500000
O O1 0.413044 0.348980 0.698391
O O2 0.395043 0.256671 0.753919
O O3 0.666123 0.304178 0.807418
O O4 0.382113 0.313181 0.000000
O O5 0.536997 0.582804 0.500000
O O6 0.270316 0.608542 0.316802
O O7 0.544917 0.573912 0.165073
O O8 0.015644 0.396457 0.500000
O O9 0.981978 0.334598 0.730849
O O10 0.023997 0.420446 0.831957
O O11 0.500000 0.500000 0.000000
O O12 0.252688 0.559022 0.000000
O O13 0.693129 0.794557 0.000000
O O14 0.500000 0.000000 0.500000
#
# Coordination Sequence:
#
# PCOD9441143 Si02
#       6
#     8   8   8   4   8   4
#     4  10  18  31  51  75 105 138 173 215 256 303
#     4   9  17  32  53  75 101 136 173 207 252 310
#     4   8  16  32  51  71 100 133 168 207 246 303
#     4  10  20  36  56  76 102 132 172 220 257 304
#     4   9  19  32  48  75 105 135 175 214 252 306
#     4  10  20  34  54  78  96 128 174 210 257 308
#
# _framework density 22.616161999999999
#
# number of rings (size 3 to 8) (size 9 to 14) (size 15 to 20)
#    0.000    2.800    1.000    1.800    4.200    2.400 
#    0.000    2.000    0.000    2.400    0.000    0.000 
#    0.000    0.000    0.000    0.000    0.000    0.000 
#
# Total GULP energy -223153.680555 kJ/mol
# GULP energy per Si atom -5578.842014 kJ/mol
# Density = 2.256469 g / cm^3
# Si number density = 22.616162 Si / 1000 Ang^3
#
#
#
# Elastic Constant Matrix: (Units=GPa)
#
#
# Indices 1 2 3 4 5 6 
#
# 1 38.0741 -25.9527 -10.4566 0.0000 0.0000 0.0000
# 2 -25.9527 138.0525 87.6822 0.0000 0.0000 0.0000
# 3 -10.4566 87.6822 151.9242 0.0000 0.0000 0.0000
# 4 0.0000 0.0000 0.0000 6.8962 0.0000 0.0000
# 5 0.0000 0.0000 0.0000 0.0000 -3.5339 0.0000
# 6 0.0000 0.0000 0.0000 0.0000 0.0000 25.1330
#
#
#
# Elastic Compliance Matrix: (Units=1/GPa)
#
#
# Indices 1 2 3 4 5 6 
#
# 1 0.030471 0.006940 -0.001908 0.000000 0.000000 0.000000
# 2 0.006940 0.013016 -0.007035 0.000000 0.000000 0.000000
# 3 -0.001908 -0.007035 0.010511 0.000000 0.000000 0.000000
# 4 0.000000 0.000000 0.000000 0.145007 0.000000 0.000000
# 5 0.000000 0.000000 0.000000 0.000000 -0.282976 0.000000
# 6 0.000000 0.000000 0.000000 0.000000 0.000000 0.039788
#
#
# Mechanical properties :
#
#
# Convention : Reuss Voigt Hill
#
# Bulk Modulus (GPa) = 20.00265 47.84408 33.92336
# Shear Modulus (GPa) = -212.64784 24.15093 -94.24846
#
# Velocity S-wave (km/s) = -9.70715 3.27136 -6.46247
# Velocity P-wave (km/s) = 10.80624 5.95565 6.37593
#
# Compressibility (1/GPa) = 0.04999337
#
# Stress axis : x y z
#
# Youngs Moduli (GPa) = 32.81778 76.82690 95.13977
#
# Poissons Ratio (x) = -0.53321 0.18156
# Poissons Ratio (y) = -0.22777 0.66927
# Poissons Ratio (z) = 0.06263 0.54044
#
# Static dielectric constant tensor:
#      x y z
#    x 1.906050 0.000000 0.000000 
#    y 0.000000 1.843690 0.000000 
#    z 0.000000 0.000000 1.789520 
# 
# From -- ./inp_files/2660.got.cif
#   From: 2010.05.17/outbox.cif.g08.bks.cpg/sg58_2_cif.got.tgz:2660.got - 2010.06.03 14:20:14.
