data_PCOD9441008
_publ_section_title
;
Structure prediction by ZEFSAII (Michael W. Deem and Ramdas Pophale) SiO2 
 PCOD9441008
Probable space group: P N N M
;
_chemical_formula_sum "Si O2"
_cell_formula_units_Z 56
_cell_length_a 18.618575
_cell_length_b 19.820900
_cell_length_c 7.536818
_cell_angle_alpha 90.000000
_cell_angle_beta 90.000000
_cell_angle_gamma 90.000000
_cell_volume 2781.364050
_symmetry_space_group_name_H-M "P N N M"
_symmetry_group_IT_number 58
_symmetry_cell_setting 'orthorhombic'
loop_
_space_group_symop_operation_xyz
x,y,z
-x,-y,z
1/2+x,1/2-y,1/2-z
1/2-x,1/2+y,1/2-z
-x,-y,-z
x,y,-z
1/2-x,1/2+y,1/2+z
1/2+x,1/2-y,1/2+z
loop_
_atom_site_type_symbol
_atom_site_label
_atom_site_fract_x
_atom_site_fract_y
_atom_site_fract_z
Si Si1 0.238954 0.185006 0.284070
Si Si2 0.785512 0.104402 0.786764
Si Si3 0.927702 0.468480 0.797677
Si Si4 0.123164 0.774041 0.213908
Si Si5 0.011469 0.669047 0.293577
Si Si6 0.148627 0.308935 0.283191
Si Si7 0.269571 0.036378 0.289032
O O1 0.237225 0.184512 0.500000
O O2 0.312331 0.223343 0.233084
O O3 0.174356 0.234201 0.228237
O O4 0.241283 0.108172 0.220680
O O5 0.850982 0.151989 0.725904
O O6 0.711229 0.139812 0.725907
O O7 0.782601 0.026528 0.737464
O O8 0.785186 0.108172 0.000000
O O9 0.941140 0.388222 0.799131
O O10 0.849381 0.480644 0.715539
O O11 0.000000 0.500000 0.715128
O O12 0.925122 0.494890 0.000000
O O13 0.049825 0.741259 0.278644
O O14 0.120270 0.774325 0.000000
O O15 0.009124 0.650045 0.500000
O O16 0.930528 0.671436 0.222571
O O17 0.147116 0.309826 0.500000
O O18 0.279915 0.045366 0.500000
#
# Coordination Sequence:
#
# PCOD9441008 Si02
#       7
#     8   8   8   8   8   8   8
#     4   8  14  29  50  66  86 123 166 196 224 279
#     4   9  18  32  51  70  93 127 161 197 237 283
#     4  10  20  32  46  68 101 137 164 185 228 298
#     4   9  17  33  52  67  90 128 167 193 231 292
#     4  11  20  29  47  74  99 122 154 203 248 280
#     4   8  16  30  47  68  93 123 159 195 236 281
#     4  10  18  29  48  71  94 124 158 196 236 278
#
# _framework density 20.134005999999999
#
# number of rings (size 3 to 8) (size 9 to 14) (size 15 to 20)
#    0.000    2.714    1.429    3.000    0.000    1.429 
#    0.000    0.714    0.000    4.286    0.000    6.000 
#    0.000    0.000    0.000    0.000    0.000    0.000 
#
# Total GULP energy -312375.693035 kJ/mol
# GULP energy per Si atom -5578.137376 kJ/mol
# Density = 2.008818 g / cm^3
# Si number density = 20.134006 Si / 1000 Ang^3
#
#
#
# Elastic Constant Matrix: (Units=GPa)
#
#
# Indices 1 2 3 4 5 6 
#
# 1 14.5045 -12.8091 0.0744 0.0000 0.0000 0.0000
# 2 -12.8091 95.1649 -1.7116 0.0000 0.0000 0.0000
# 3 0.0744 -1.7116 51.3224 0.0000 0.0000 0.0000
# 4 0.0000 0.0000 0.0000 17.2159 0.0000 0.0000
# 5 0.0000 0.0000 0.0000 0.0000 0.9255 0.0000
# 6 0.0000 0.0000 0.0000 0.0000 0.0000 31.5582
#
#
#
# Elastic Compliance Matrix: (Units=1/GPa)
#
#
# Indices 1 2 3 4 5 6 
#
# 1 0.078248 0.010536 0.000238 0.000000 0.000000 0.000000
# 2 0.010536 0.011933 0.000383 0.000000 0.000000 0.000000
# 3 0.000238 0.000383 0.019497 0.000000 0.000000 0.000000
# 4 0.000000 0.000000 0.000000 0.058086 0.000000 0.000000
# 5 0.000000 0.000000 0.000000 0.000000 1.080467 0.000000
# 6 0.000000 0.000000 0.000000 0.000000 0.000000 0.031688
#
#
# Mechanical properties :
#
#
# Convention : Reuss Voigt Hill
#
# Bulk Modulus (GPa) = 7.57622 14.67768 11.12695
# Shear Modulus (GPa) = 3.84142 21.63579 12.73860
#
# Velocity S-wave (km/s) = 1.38278 3.28165 2.51806
# Velocity P-wave (km/s) = 2.51406 4.65454 3.74067
#
# Compressibility (1/GPa) = 0.13199201
#
# Stress axis : x y z
#
# Youngs Moduli (GPa) = 12.77991 83.80016 51.28971
#
# Poissons Ratio (x) = -0.88295 -0.01220
# Poissons Ratio (y) = -0.13465 -0.01963
# Poissons Ratio (z) = -0.00304 -0.03207
#
# Static dielectric constant tensor:
#      x y z
#    x 1.707330 0.000000 0.000000 
#    y 0.000000 1.739140 0.000000 
#    z 0.000000 0.000000 1.766720 
# 
# From -- ./inp_files/8123.got.cif
#   From: 2010.05.17/outbox.cif.g08.bks.cpg/sg58_5_cif.got.tgz:8123.got - 2010.06.03 14:20:14.
