data_PCOD9441080
_publ_section_title
;
Structure prediction by ZEFSAII (Michael W. Deem and Ramdas Pophale) SiO2 
 PCOD9441080
Probable space group: P N N M
;
_chemical_formula_sum "Si O2"
_cell_formula_units_Z 48
_cell_length_a 15.850518
_cell_length_b 9.291475
_cell_length_c 13.843493
_cell_angle_alpha 90.000000
_cell_angle_beta 90.000000
_cell_angle_gamma 90.000000
_cell_volume 2038.796164
_symmetry_space_group_name_H-M "P N N M"
_symmetry_group_IT_number 58
_symmetry_cell_setting 'orthorhombic'
loop_
_space_group_symop_operation_xyz
x,y,z
-x,-y,z
1/2+x,1/2-y,1/2-z
1/2-x,1/2+y,1/2-z
-x,-y,-z
x,y,-z
1/2-x,1/2+y,1/2+z
1/2+x,1/2-y,1/2+z
loop_
_atom_site_type_symbol
_atom_site_label
_atom_site_fract_x
_atom_site_fract_y
_atom_site_fract_z
Si Si1 0.686017 0.836447 0.605863
Si Si2 0.306957 0.179918 0.841571
Si Si3 0.415952 0.911232 0.161316
Si Si4 0.642157 0.166026 0.632877
Si Si5 0.475423 0.341822 0.137496
Si Si6 0.481120 0.338064 0.369725
O O1 0.733174 0.812112 0.500000
O O2 0.708267 0.824119 0.723114
O O3 0.608204 0.726361 0.602118
O O4 0.659081 0.003537 0.601540
O O5 0.219100 0.227105 0.886693
O O6 0.378188 0.295681 0.873975
O O7 0.349577 0.029752 0.875509
O O8 0.368350 0.844672 0.251688
O O9 0.459151 0.781333 0.103550
O O10 0.500000 0.000000 0.194975
O O11 0.554625 0.231100 0.599175
O O12 0.500000 0.500000 0.104038
O O13 0.483864 0.340008 0.253432
O O14 0.500000 0.500000 0.399924
#
# Coordination Sequence:
#
# PCOD9441080 Si02
#       6
#     8   8   8   8   8   8
#     4  10  21  36  53  75 111 154 188 221 274 343
#     4   9  18  30  47  72 102 137 181 232 273 315
#     4   8  15  28  43  64 100 131 163 216 269 321
#     4  10  18  30  50  75 104 142 191 232 268 320
#     4   8  14  26  43  65  96 130 169 217 268 326
#     4   9  18  31  48  73 107 144 186 224 265 326
#
# _framework density 23.543306000000001
#
# number of rings (size 3 to 8) (size 9 to 14) (size 15 to 20)
#    0.000    3.000    0.000    3.500    0.000   12.333 
#    0.000    0.000    0.000    0.000    0.000    0.000 
#    0.000   78.667    0.000    0.000    0.000    0.000 
#
# Total GULP energy -267233.464548 kJ/mol
# GULP energy per Si atom -5567.363845 kJ/mol
# Density = 2.348972 g / cm^3
# Si number density = 23.543306 Si / 1000 Ang^3
#
#
#
# Elastic Constant Matrix: (Units=GPa)
#
#
# Indices 1 2 3 4 5 6 
#
# 1 12.1392 9.8542 -2.4738 0.0000 0.0000 0.0000
# 2 9.8542 84.4072 -3.5076 0.0000 0.0000 0.0000
# 3 -2.4738 -3.5076 132.4687 0.0000 0.0000 0.0000
# 4 0.0000 0.0000 0.0000 -44.7096 0.0000 0.0000
# 5 0.0000 0.0000 0.0000 0.0000 67.6455 0.0000
# 6 0.0000 0.0000 0.0000 0.0000 0.0000 15.6518
#
#
#
# Elastic Compliance Matrix: (Units=1/GPa)
#
#
# Indices 1 2 3 4 5 6 
#
# 1 0.091270 -0.010596 0.001424 0.000000 0.000000 0.000000
# 2 -0.010596 0.013091 0.000149 0.000000 0.000000 0.000000
# 3 0.001424 0.000149 0.007579 0.000000 0.000000 0.000000
# 4 0.000000 0.000000 0.000000 -0.022367 0.000000 0.000000
# 5 0.000000 0.000000 0.000000 0.000000 0.014783 0.000000
# 6 0.000000 0.000000 0.000000 0.000000 0.000000 0.063890
#
#
# Mechanical properties :
#
#
# Convention : Reuss Voigt Hill
#
# Bulk Modulus (GPa) = 10.65048 26.30676 18.47862
# Shear Modulus (GPa) = 22.97885 22.72703 22.85294
#
# Velocity S-wave (km/s) = 3.12753 3.11034 3.11895
# Velocity P-wave (km/s) = 4.19232 4.90887 4.56468
#
# Compressibility (1/GPa) = 0.09389252
#
# Stress axis : x y z
#
# Youngs Moduli (GPa) = 10.95653 76.39082 131.93514
#
# Poissons Ratio (x) = 0.80946 -0.18785
# Poissons Ratio (y) = 0.11610 -0.01962
# Poissons Ratio (z) = -0.01560 -0.01136
#
# Static dielectric constant tensor:
#      x y z
#    x 1.841470 0.000000 0.000000 
#    y 0.000000 1.864060 0.000000 
#    z 0.000000 0.000000 1.991130 
# 
# From -- ./inp_files/22773.got.cif
#   From: 2010.05.17/outbox.cif.g08.bks.cpg/sg58_12_cif.got.tgz:22773.got - 2010.06.03 14:20:14.
