data_PCOD9441735
_publ_section_title
;
Structure prediction by ZEFSAII (Michael W. Deem and Ramdas Pophale) SiO2 
 PCOD9441735
Probable space group: P N N M
;
_chemical_formula_sum "Si O2"
_cell_formula_units_Z 56
_cell_length_a 17.867267
_cell_length_b 10.894107
_cell_length_c 14.380017
_cell_angle_alpha 90.000000
_cell_angle_beta 90.000000
_cell_angle_gamma 90.000000
_cell_volume 2799.040377
_symmetry_space_group_name_H-M "P N N M"
_symmetry_group_IT_number 58
_symmetry_cell_setting 'orthorhombic'
loop_
_space_group_symop_operation_xyz
x,y,z
-x,-y,z
1/2+x,1/2-y,1/2-z
1/2-x,1/2+y,1/2-z
-x,-y,-z
x,y,-z
1/2-x,1/2+y,1/2+z
1/2+x,1/2-y,1/2+z
loop_
_atom_site_type_symbol
_atom_site_label
_atom_site_fract_x
_atom_site_fract_y
_atom_site_fract_z
Si Si1 0.600055 0.394538 0.892492
Si Si2 0.639051 0.820786 0.610600
Si Si3 0.507461 0.136945 0.298597
Si Si4 0.714139 0.164509 0.105492
Si Si5 0.829009 0.583127 0.205611
Si Si6 0.818364 0.133360 0.390797
Si Si7 0.532978 0.773780 0.108220
O O1 0.657026 0.280156 0.889801
O O2 0.641059 0.511475 0.849773
O O3 0.519229 0.343524 0.864085
O O4 0.588610 0.431206 0.000000
O O5 0.634016 0.841238 0.500000
O O6 0.557739 0.786150 0.652037
O O7 0.703615 0.719950 0.625273
O O8 0.662977 0.949130 0.659214
O O9 0.595196 0.161738 0.308635
O O10 0.487561 0.133355 0.189287
O O11 0.500000 0.000000 0.338833
O O12 0.687028 0.072599 0.184687
O O13 0.711785 0.116596 0.000000
O O14 0.758578 0.652091 0.161708
O O15 0.800639 0.112455 0.500000
O O16 0.880473 0.238360 0.385679
O O17 0.515088 0.804782 0.000000
#
# Coordination Sequence:
#
# PCOD9441735 Si02
#       7
#     8   8   8   8   8   8   8
#     4   9  16  30  52  76 100 128 163 208 267 317
#     4  10  21  38  56  76 105 140 178 218 256 305
#     4  10  22  34  48  74 104 142 180 211 249 307
#     4  10  19  34  56  77 102 136 173 213 261 315
#     4  11  20  32  54  78 105 137 176 217 259 308
#     4  10  19  31  52  82 106 128 166 222 272 309
#     4  10  19  33  52  76 108 136 168 215 267 319
#
# _framework density 20.006858000000001
#
# number of rings (size 3 to 8) (size 9 to 14) (size 15 to 20)
#    0.000    2.000    2.857    1.714    0.000    5.143 
#    0.000    2.143    0.000    1.714    0.000    1.000 
#    0.000    7.429    0.000    0.000    0.000    0.000 
#
# Total GULP energy -312190.551839 kJ/mol
# GULP energy per Si atom -5574.831283 kJ/mol
# Density = 1.996132 g / cm^3
# Si number density = 20.006858 Si / 1000 Ang^3
#
#
#
# Elastic Constant Matrix: (Units=GPa)
#
#
# Indices 1 2 3 4 5 6 
#
# 1 161.0482 6.2873 48.8101 0.0000 0.0000 0.0000
# 2 6.2873 15.9611 23.1407 0.0000 0.0000 0.0000
# 3 48.8101 23.1407 85.3659 0.0000 0.0000 0.0000
# 4 0.0000 0.0000 0.0000 20.5584 0.0000 0.0000
# 5 0.0000 0.0000 0.0000 0.0000 28.2468 0.0000
# 6 0.0000 0.0000 0.0000 0.0000 0.0000 12.7626
#
#
#
# Elastic Compliance Matrix: (Units=1/GPa)
#
#
# Indices 1 2 3 4 5 6 
#
# 1 0.007803 0.005592 -0.005977 0.000000 0.000000 0.000000
# 2 0.005592 0.107227 -0.032264 0.000000 0.000000 0.000000
# 3 -0.005977 -0.032264 0.023878 0.000000 0.000000 0.000000
# 4 0.000000 0.000000 0.000000 0.048642 0.000000 0.000000
# 5 0.000000 0.000000 0.000000 0.000000 0.035402 0.000000
# 6 0.000000 0.000000 0.000000 0.000000 0.000000 0.078354
#
#
# Mechanical properties :
#
#
# Convention : Reuss Voigt Hill
#
# Bulk Modulus (GPa) = 13.58525 46.53902 30.06214
# Shear Modulus (GPa) = 12.78313 24.58936 18.68625
#
# Velocity S-wave (km/s) = 2.53046 3.50958 3.05944
# Velocity P-wave (km/s) = 3.91698 6.30356 5.24774
#
# Compressibility (1/GPa) = 0.07360924
#
# Stress axis : x y z
#
# Youngs Moduli (GPa) = 128.16273 9.32601 41.87942
#
# Poissons Ratio (x) = -0.05216 0.25033
# Poissons Ratio (y) = -0.71675 1.35121
# Poissons Ratio (z) = 0.76607 0.30090
#
# Static dielectric constant tensor:
#      x y z
#    x 1.759150 0.000000 0.000000 
#    y 0.000000 1.750020 0.000000 
#    z 0.000000 0.000000 1.724920 
# 
# From -- ./inp_files/22982.got.cif
#   From: 2010.05.17/outbox.cif.g08.bks.cpg/sg58_12_cif.got.tgz:22982.got - 2010.06.03 14:20:14.
