data_PCOD9441378
_publ_section_title
;
Structure prediction by ZEFSAII (Michael W. Deem and Ramdas Pophale) SiO2 
 PCOD9441378
Probable space group: P N N M
;
_chemical_formula_sum "Si O2"
_cell_formula_units_Z 56
_cell_length_a 21.528354
_cell_length_b 14.699292
_cell_length_c 7.461032
_cell_angle_alpha 90.000000
_cell_angle_beta 90.000000
_cell_angle_gamma 90.000000
_cell_volume 2361.055228
_symmetry_space_group_name_H-M "P N N M"
_symmetry_group_IT_number 58
_symmetry_cell_setting 'orthorhombic'
loop_
_space_group_symop_operation_xyz
x,y,z
-x,-y,z
1/2+x,1/2-y,1/2-z
1/2-x,1/2+y,1/2-z
-x,-y,-z
x,y,-z
1/2-x,1/2+y,1/2+z
1/2+x,1/2-y,1/2+z
loop_
_atom_site_type_symbol
_atom_site_label
_atom_site_fract_x
_atom_site_fract_y
_atom_site_fract_z
Si Si1 0.493889 0.148185 0.282986
Si Si2 0.429681 0.499534 0.215542
Si Si3 0.263850 0.280219 0.280081
Si Si4 0.899521 0.207466 0.213932
Si Si5 0.260419 0.984496 0.205578
Si Si6 0.902680 0.520076 0.783960
Si Si7 0.169428 0.137590 0.701389
O O1 0.498862 0.153940 0.500000
O O2 0.460573 0.239868 0.216972
O O3 0.560740 0.110896 0.221093
O O4 0.445778 0.066572 0.241897
O O5 0.500000 0.500000 0.282804
O O6 0.401714 0.400171 0.252997
O O7 0.388313 0.583446 0.284870
O O8 0.430604 0.508832 0.000000
O O9 0.262439 0.275407 0.500000
O O10 0.333373 0.252267 0.222399
O O11 0.255376 0.384317 0.226820
O O12 0.205832 0.221544 0.212811
O O13 0.899549 0.220172 0.000000
O O14 0.334216 0.993145 0.212062
O O15 0.223637 0.061781 0.308042
O O16 0.239076 0.990907 0.000000
O O17 0.898079 0.523643 0.000000
O O18 0.150707 0.165331 0.500000
#
# Coordination Sequence:
#
# PCOD9441378 Si02
#       7
#     8   8   8   8   8   8   8
#     4   8  16  31  55  80 103 140 188 225 256 318
#     4  10  22  38  56  80 110 144 185 230 276 331
#     4   9  19  34  55  79 105 142 185 226 274 331
#     4  10  18  34  57  79 105 141 186 229 276 327
#     4  11  21  34  53  82 113 138 172 228 284 324
#     4   9  17  33  54  78 108 143 183 222 265 324
#     4  10  20  38  60  78 105 150 194 226 271 336
#
# _framework density 23.718211
#
# number of rings (size 3 to 8) (size 9 to 14) (size 15 to 20)
#    0.000    2.429    1.429    2.143    0.000    3.714 
#    0.000    7.857    0.000    0.000    0.000    0.000 
#    0.000    0.000    0.000    0.000    0.000    0.000 
#
# Total GULP energy -312777.419323 kJ/mol
# GULP energy per Si atom -5585.311059 kJ/mol
# Density = 2.366423 g / cm^3
# Si number density = 23.718211 Si / 1000 Ang^3
#
#
#
# Elastic Constant Matrix: (Units=GPa)
#
#
# Indices 1 2 3 4 5 6 
#
# 1 93.7726 -22.6297 -6.8839 0.0000 0.0000 0.0000
# 2 -22.6297 25.3210 -5.7375 0.0000 0.0000 0.0000
# 3 -6.8839 -5.7375 72.9295 0.0000 0.0000 0.0000
# 4 0.0000 0.0000 0.0000 10.6585 0.0000 0.0000
# 5 0.0000 0.0000 0.0000 0.0000 -0.7434 0.0000
# 6 0.0000 0.0000 0.0000 0.0000 0.0000 39.8633
#
#
#
# Elastic Compliance Matrix: (Units=1/GPa)
#
#
# Indices 1 2 3 4 5 6 
#
# 1 0.013979 0.013025 0.002344 0.000000 0.000000 0.000000
# 2 0.013025 0.052345 0.005347 0.000000 0.000000 0.000000
# 3 0.002344 0.005347 0.014354 0.000000 0.000000 0.000000
# 4 0.000000 0.000000 0.000000 0.093822 0.000000 0.000000
# 5 0.000000 0.000000 0.000000 0.000000 -1.345253 0.000000
# 6 0.000000 0.000000 0.000000 0.000000 0.000000 0.025086
#
#
# Mechanical properties :
#
#
# Convention : Reuss Voigt Hill
#
# Bulk Modulus (GPa) = 8.18930 13.50234 10.84582
# Shear Modulus (GPa) = -4.36149 25.10731 10.37291
#
# Velocity S-wave (km/s) = -1.35752 3.25709 2.09353
# Velocity P-wave (km/s) = 1.00154 4.45534 3.22902
#
# Compressibility (1/GPa) = 0.12211056
#
# Stress axis : x y z
#
# Youngs Moduli (GPa) = 71.53407 19.10411 69.66776
#
# Poissons Ratio (x) = -0.24882 -0.16332
# Poissons Ratio (y) = -0.93171 -0.37254
# Poissons Ratio (z) = -0.16769 -0.10216
#
# Static dielectric constant tensor:
#      x y z
#    x 1.907290 0.000000 0.000000 
#    y 0.000000 1.874710 0.000000 
#    z 0.000000 0.000000 1.910560 
# 
# From -- ./inp_files/9086.got.cif
#   From: 2010.05.17/outbox.cif.g08.bks.cpg/sg58_5_cif.got.tgz:9086.got - 2010.06.03 14:20:14.
