data_PCOD9441960
_publ_section_title
;
Structure prediction by ZEFSAII (Michael W. Deem and Ramdas Pophale) SiO2 
 PCOD9441960
Probable space group: P N N M
;
_chemical_formula_sum "Si O2"
_cell_formula_units_Z 24
_cell_length_a 15.228781
_cell_length_b 5.012424
_cell_length_c 13.308994
_cell_angle_alpha 90.000000
_cell_angle_beta 90.000000
_cell_angle_gamma 90.000000
_cell_volume 1015.916868
_symmetry_space_group_name_H-M "P N N M"
_symmetry_group_IT_number 58
_symmetry_cell_setting 'orthorhombic'
loop_
_space_group_symop_operation_xyz
x,y,z
-x,-y,z
1/2+x,1/2-y,1/2-z
1/2-x,1/2+y,1/2-z
-x,-y,-z
x,y,-z
1/2-x,1/2+y,1/2+z
1/2+x,1/2-y,1/2+z
loop_
_atom_site_type_symbol
_atom_site_label
_atom_site_fract_x
_atom_site_fract_y
_atom_site_fract_z
Si Si1 0.059177 0.763657 0.832830
Si Si2 0.587858 0.828991 0.105211
Si Si3 0.745929 0.613250 0.680085
O O1 0.078483 0.810084 0.713153
O O2 0.158631 0.773781 0.873397
O O3 0.000000 0.500000 0.843379
O O4 0.000000 0.000000 0.873147
O O5 0.500000 0.000000 0.099854
O O6 0.671541 0.023790 0.114541
O O7 0.596224 0.671594 0.000000
O O8 0.724608 0.340645 0.741160
#
# Coordination Sequence:
#
# PCOD9441960 Si02
#       3
#     8   8   8
#     4  10  19  33  53  75 101 135 174 211 248 298
#     4   9  18  32  51  77 106 131 161 208 262 307
#     4  10  19  33  52  74 102 136 172 206 248 305
#
# _framework density 23.623981000000001
#
# number of rings (size 3 to 8) (size 9 to 14) (size 15 to 20)
#    0.000    2.333    0.000    6.000    0.000    0.667 
#    0.000   16.667    0.000    2.000    0.000    0.000 
#    0.000   21.333    0.000    0.000    0.000    0.000 
#
# Total GULP energy -133841.256921 kJ/mol
# GULP energy per Si atom -5576.719038 kJ/mol
# Density = 2.357021 g / cm^3
# Si number density = 23.623981 Si / 1000 Ang^3
#
#
#
# Elastic Constant Matrix: (Units=GPa)
#
#
# Indices 1 2 3 4 5 6 
#
# 1 225.8754 37.5037 9.9123 0.0000 0.0000 0.0000
# 2 37.5037 97.8110 9.4185 0.0000 0.0000 0.0000
# 3 9.9123 9.4185 68.1756 0.0000 0.0000 0.0000
# 4 0.0000 0.0000 0.0000 2.4348 0.0000 0.0000
# 5 0.0000 0.0000 0.0000 0.0000 361.3296 0.0000
# 6 0.0000 0.0000 0.0000 0.0000 0.0000 49.2478
#
#
#
# Elastic Compliance Matrix: (Units=1/GPa)
#
#
# Indices 1 2 3 4 5 6 
#
# 1 0.004741 -0.001775 -0.000444 0.000000 0.000000 0.000000
# 2 -0.001775 0.011026 -0.001265 0.000000 0.000000 0.000000
# 3 -0.000444 -0.001265 0.014907 0.000000 0.000000 0.000000
# 4 0.000000 0.000000 0.000000 0.410714 0.000000 0.000000
# 5 0.000000 0.000000 0.000000 0.000000 0.002768 0.000000
# 6 0.000000 0.000000 0.000000 0.000000 0.000000 0.020305
#
#
# Mechanical properties :
#
#
# Convention : Reuss Voigt Hill
#
# Bulk Modulus (GPa) = 42.18340 56.17012 49.17676
# Shear Modulus (GPa) = 10.43116 104.93761 57.68439
#
# Velocity S-wave (km/s) = 2.10359 6.67206 4.94679
# Velocity P-wave (km/s) = 4.87802 9.12050 7.31364
#
# Compressibility (1/GPa) = 0.02370601
#
# Stress axis : x y z
#
# Youngs Moduli (GPa) = 210.90520 90.69212 67.08097
#
# Poissons Ratio (x) = 0.16100 0.02979
# Poissons Ratio (y) = 0.37441 0.08487
# Poissons Ratio (z) = 0.09367 0.11474
#
# Static dielectric constant tensor:
#      x y z
#    x 1.948670 0.000000 0.000000 
#    y 0.000000 1.829950 0.000000 
#    z 0.000000 0.000000 1.967910 
# 
# From -- ./inp_files/15010.got.cif
#   From: 2010.05.17/outbox.cif.g08.bks.cpg/sg58_8_cif.got.tgz:15010.got - 2010.06.03 14:20:14.
