data_PCOD9441762
_publ_section_title
;
Structure prediction by ZEFSAII (Michael W. Deem and Ramdas Pophale) SiO2 
 PCOD9441762
Probable space group: P N N M
;
_chemical_formula_sum "Si O2"
_cell_formula_units_Z 58
_cell_length_a 16.846927
_cell_length_b 18.438752
_cell_length_c 7.538787
_cell_angle_alpha 90.000000
_cell_angle_beta 90.000000
_cell_angle_gamma 90.000000
_cell_volume 2341.820967
_symmetry_space_group_name_H-M "P N N M"
_symmetry_group_IT_number 58
_symmetry_cell_setting 'orthorhombic'
loop_
_space_group_symop_operation_xyz
x,y,z
-x,-y,z
1/2+x,1/2-y,1/2-z
1/2-x,1/2+y,1/2-z
-x,-y,-z
x,y,-z
1/2-x,1/2+y,1/2+z
1/2+x,1/2-y,1/2+z
loop_
_atom_site_type_symbol
_atom_site_label
_atom_site_fract_x
_atom_site_fract_y
_atom_site_fract_z
Si Si1 0.838562 0.600408 0.710856
Si Si2 0.903755 0.923563 0.283443
Si Si3 0.879681 0.231788 0.799711
Si Si4 0.260649 0.670799 0.797750
Si Si5 0.011093 0.332429 0.293678
Si Si6 0.000000 0.000000 0.000000
Si Si7 0.338238 0.421195 0.197266
Si Si8 0.874037 0.437087 0.287276
O O1 0.820285 0.609084 0.500000
O O2 0.755149 0.593535 0.804000
O O3 0.880028 0.522429 0.738614
O O4 0.900011 0.661054 0.776931
O O5 0.916278 0.920889 0.500000
O O6 0.855132 0.998139 0.237065
O O7 0.845992 0.856823 0.230415
O O8 0.978303 0.939174 0.158349
O O9 0.799761 0.268993 0.718002
O O10 0.961273 0.259004 0.715333
O O11 0.871884 0.146638 0.800435
O O12 0.882771 0.259620 0.000000
O O13 0.204297 0.599276 0.794634
O O14 0.276609 0.694473 0.000000
O O15 0.021791 0.351334 0.500000
O O16 0.950194 0.392751 0.221482
O O17 0.371730 0.416936 0.000000
O O18 0.867047 0.425191 0.500000
#
# Coordination Sequence:
#
# PCOD9441762 Si02
#       8
#     8   8   8   8   8   2   8   8
#     4  10  19  31  54  85 119 153 195 240 290 358
#     4  10  23  43  66  96 130 158 211 273 324 381
#     4  10  21  37  60  85 117 160 209 247 307 384
#     4   9  18  35  58  86 119 156 193 253 312 362
#     4   9  18  33  51  81 121 158 190 240 298 354
#     4  12  26  40  72  98 120 170 214 266 344 378
#     4  11  23  39  61  87 120 162 203 258 312 369
#     4   9  16  27  51  84 118 151 190 230 282 353
#
# _framework density 24.767050999999999
#
# number of rings (size 3 to 8) (size 9 to 14) (size 15 to 20)
#    0.000    2.207    1.379    1.448    2.897    2.759 
#    0.000    1.379    0.000    7.448    0.000    0.000 
#    0.000    0.000    0.000    0.000    0.000    0.000 
#
# Total GULP energy -323253.599113 kJ/mol
# GULP energy per Si atom -5573.337916 kJ/mol
# Density = 2.471068 g / cm^3
# Si number density = 24.767051 Si / 1000 Ang^3
#
#
#
# Elastic Constant Matrix: (Units=GPa)
#
#
# Indices 1 2 3 4 5 6 
#
# 1 77.9176 22.4996 1.3517 0.0000 0.0000 0.0000
# 2 22.4996 65.9544 15.9801 0.0000 0.0000 0.0000
# 3 1.3517 15.9801 71.2292 0.0000 0.0000 0.0000
# 4 0.0000 0.0000 0.0000 5.9047 0.0000 0.0000
# 5 0.0000 0.0000 0.0000 0.0000 18.9604 0.0000
# 6 0.0000 0.0000 0.0000 0.0000 0.0000 -2.3323
#
#
#
# Elastic Compliance Matrix: (Units=1/GPa)
#
#
# Indices 1 2 3 4 5 6 
#
# 1 0.014287 -0.005085 0.000870 0.000000 0.000000 0.000000
# 2 -0.005085 0.017843 -0.003907 0.000000 0.000000 0.000000
# 3 0.000870 -0.003907 0.014899 0.000000 0.000000 0.000000
# 4 0.000000 0.000000 0.000000 0.169357 0.000000 0.000000
# 5 0.000000 0.000000 0.000000 0.000000 0.052742 0.000000
# 6 0.000000 0.000000 0.000000 0.000000 0.000000 -0.428756
#
#
# Mechanical properties :
#
#
# Convention : Reuss Voigt Hill
#
# Bulk Modulus (GPa) = 32.48203 32.75154 32.61679
# Shear Modulus (GPa) = -37.55949 16.19119 -10.68415
#
# Velocity S-wave (km/s) = -3.89846 2.55961 -2.07924
# Velocity P-wave (km/s) = 2.66844 4.68914 2.72649
#
# Compressibility (1/GPa) = 0.03078625
#
# Stress axis : x y z
#
# Youngs Moduli (GPa) = 69.99258 56.04414 67.11811
#
# Poissons Ratio (x) = 0.28496 -0.05837
# Poissons Ratio (y) = 0.35589 0.26220
# Poissons Ratio (z) = -0.06087 0.21894
#
# Static dielectric constant tensor:
#      x y z
#    x 2.046550 0.000000 0.000000 
#    y 0.000000 1.939740 0.000000 
#    z 0.000000 0.000000 1.970980 
# 
# From -- ./inp_files/8048.got.cif
#   From: 2010.05.17/outbox.cif.g08.bks.cpg/sg58_5_cif.got.tgz:8048.got - 2010.06.03 14:20:14.
