data_PCOD9441187
_publ_section_title
;
Structure prediction by ZEFSAII (Michael W. Deem and Ramdas Pophale) SiO2 
 PCOD9441187
Probable space group: P N N M
;
_chemical_formula_sum "Si O2"
_cell_formula_units_Z 64
_cell_length_a 17.037631
_cell_length_b 22.967723
_cell_length_c 7.543838
_cell_angle_alpha 90.000000
_cell_angle_beta 90.000000
_cell_angle_gamma 90.000000
_cell_volume 2952.021413
_symmetry_space_group_name_H-M "P N N M"
_symmetry_group_IT_number 58
_symmetry_cell_setting 'orthorhombic'
loop_
_space_group_symop_operation_xyz
x,y,z
-x,-y,z
1/2+x,1/2-y,1/2-z
1/2-x,1/2+y,1/2-z
-x,-y,-z
x,y,-z
1/2-x,1/2+y,1/2+z
1/2+x,1/2-y,1/2+z
loop_
_atom_site_type_symbol
_atom_site_label
_atom_site_fract_x
_atom_site_fract_y
_atom_site_fract_z
Si Si1 0.528342 0.722767 0.292654
Si Si2 0.249881 0.452612 0.708746
Si Si3 0.623505 0.358584 0.704877
Si Si4 0.913142 0.986316 0.300124
Si Si5 0.441837 0.830832 0.715205
Si Si6 0.705178 0.250288 0.715523
Si Si7 0.923905 0.533942 0.706623
Si Si8 0.172017 0.838923 0.203120
O O1 0.550656 0.730313 0.500000
O O2 0.447839 0.687042 0.293309
O O3 0.511730 0.787552 0.223036
O O4 0.590556 0.678715 0.209253
O O5 0.233488 0.445283 0.500000
O O6 0.331006 0.488797 0.724340
O O7 0.165466 0.474762 0.781366
O O8 0.274722 0.389507 0.784607
O O9 0.639377 0.374840 0.500000
O O10 0.599377 0.417162 0.799490
O O11 0.692088 0.316738 0.774284
O O12 0.916791 0.009946 0.500000
O O13 0.000000 0.000000 0.218808
O O14 0.443562 0.832678 0.500000
O O15 0.364012 0.794703 0.767673
O O16 0.439858 0.896630 0.781231
O O17 0.707012 0.251089 0.500000
O O18 0.781753 0.221168 0.791404
O O19 0.920666 0.515982 0.500000
O O20 0.000000 0.500000 0.783799
O O21 0.156435 0.858245 0.000000
#
# Coordination Sequence:
#
# PCOD9441187 Si02
#       8
#     8   8   8   8   8   8   8   8
#     4   8  16  31  53  81 107 135 175 223 269 329
#     4  10  21  37  59  84 110 154 201 233 278 342
#     4   9  18  36  58  76 103 146 186 217 265 336
#     4  11  24  39  56  84 119 150 185 239 294 334
#     4   9  17  33  55  77 105 139 176 220 277 338
#     4   9  18  32  53  79 106 137 173 220 274 326
#     4  10  21  38  58  81 110 145 191 246 288 325
#     4  10  18  31  54  81 107 137 182 229 271 330
#
# _framework density 21.680060000000001
#
# number of rings (size 3 to 8) (size 9 to 14) (size 15 to 20)
#    0.000    2.500    1.250    2.625    0.000    3.750 
#    2.250    3.125    0.000    0.000    0.000    0.000 
#    0.000    0.000    0.000    0.000    0.000    0.000 
#
# Total GULP energy -356291.855298 kJ/mol
# GULP energy per Si atom -5567.060239 kJ/mol
# Density = 2.163072 g / cm^3
# Si number density = 21.680060 Si / 1000 Ang^3
#
#
#
# Elastic Constant Matrix: (Units=GPa)
#
#
# Indices 1 2 3 4 5 6 
#
# 1 109.7693 36.4093 1.1015 0.0000 0.0000 0.0000
# 2 36.4093 95.5915 -7.9859 0.0000 0.0000 0.0000
# 3 1.1015 -7.9859 51.2227 0.0000 0.0000 0.0000
# 4 0.0000 0.0000 0.0000 18.1415 0.0000 0.0000
# 5 0.0000 0.0000 0.0000 0.0000 6.2773 0.0000
# 6 0.0000 0.0000 0.0000 0.0000 0.0000 29.7329
#
#
#
# Elastic Compliance Matrix: (Units=1/GPa)
#
#
# Indices 1 2 3 4 5 6 
#
# 1 0.010464 -0.004057 -0.000858 0.000000 0.000000 0.000000
# 2 -0.004057 0.012172 0.001985 0.000000 0.000000 0.000000
# 3 -0.000858 0.001985 0.019851 0.000000 0.000000 0.000000
# 4 0.000000 0.000000 0.000000 0.055122 0.000000 0.000000
# 5 0.000000 0.000000 0.000000 0.000000 0.159304 0.000000
# 6 0.000000 0.000000 0.000000 0.000000 0.000000 0.033633
#
#
# Mechanical properties :
#
#
# Convention : Reuss Voigt Hill
#
# Bulk Modulus (GPa) = 27.30198 35.07036 31.18617
# Shear Modulus (GPa) = 16.20138 25.96758 21.08448
#
# Velocity S-wave (km/s) = 2.73663 3.46463 3.12192
# Velocity P-wave (km/s) = 4.75458 5.67594 5.23557
#
# Compressibility (1/GPa) = 0.03662738
#
# Stress axis : x y z
#
# Youngs Moduli (GPa) = 95.56198 82.15306 50.37651
#
# Poissons Ratio (x) = 0.33333 0.04320
# Poissons Ratio (y) = 0.38773 -0.10000
# Poissons Ratio (z) = 0.08195 -0.16307
#
# Static dielectric constant tensor:
#      x y z
#    x 1.866540 0.000000 0.000000 
#    y 0.000000 1.788130 0.000000 
#    z 0.000000 0.000000 1.824120 
# 
# From -- ./inp_files/8266.got.cif
#   From: 2010.05.17/outbox.cif.g08.bks.cpg/sg58_5_cif.got.tgz:8266.got - 2010.06.03 14:20:14.
