data_PCOD9441765
_publ_section_title
;
Structure prediction by ZEFSAII (Michael W. Deem and Ramdas Pophale) SiO2 
 PCOD9441765
Probable space group: P N N M
;
_chemical_formula_sum "Si O2"
_cell_formula_units_Z 64
_cell_length_a 19.105547
_cell_length_b 27.164680
_cell_length_c 8.695950
_cell_angle_alpha 90.000000
_cell_angle_beta 90.000000
_cell_angle_gamma 90.000000
_cell_volume 4513.163879
_symmetry_space_group_name_H-M "P N N M"
_symmetry_group_IT_number 58
_symmetry_cell_setting 'orthorhombic'
loop_
_space_group_symop_operation_xyz
x,y,z
-x,-y,z
1/2+x,1/2-y,1/2-z
1/2-x,1/2+y,1/2-z
-x,-y,-z
x,y,-z
1/2-x,1/2+y,1/2+z
1/2+x,1/2-y,1/2+z
loop_
_atom_site_type_symbol
_atom_site_label
_atom_site_fract_x
_atom_site_fract_y
_atom_site_fract_z
Si Si1 0.924138 0.945165 0.316313
Si Si2 0.417516 0.255312 0.315160
Si Si3 0.421131 0.447824 0.685554
Si Si4 0.206827 0.700607 0.678062
Si Si5 0.835198 0.147057 0.815342
Si Si6 0.658573 0.353985 0.686707
Si Si7 0.206481 0.303393 0.821842
Si Si8 0.423227 0.745702 0.687853
O O1 0.929599 0.945885 0.500000
O O2 0.871733 0.903104 0.259659
O O3 0.000789 0.935252 0.243803
O O4 0.902906 0.999117 0.255332
O O5 0.419532 0.257167 0.500000
O O6 0.364324 0.212410 0.266069
O O7 0.383931 0.307256 0.261028
O O8 0.496993 0.249375 0.259949
O O9 0.422387 0.451015 0.500000
O O10 0.368457 0.404545 0.733911
O O11 0.190550 0.690672 0.500000
O O12 0.262039 0.659817 0.734103
O O13 0.251659 0.751374 0.683153
O O14 0.756419 0.158170 0.762321
O O15 0.836712 0.147953 0.000000
O O16 0.657494 0.357333 0.500000
O O17 0.609232 0.307444 0.729722
O O18 0.130015 0.288580 0.759747
O O19 0.200248 0.317918 0.000000
O O20 0.421935 0.747159 0.500000
#
# Coordination Sequence:
#
# PCOD9441765 Si02
#       8
#     8   8   8   8   8   8   8   8
#     4  11  21  30  41  61  84 101 129 174 210 230
#     4   9  15  24  39  58  81 105 132 166 197 227
#     4  10  19  32  46  57  76 109 141 163 194 241
#     4   8  15  26  39  56  77 103 135 165 193 231
#     4   9  17  27  41  59  77 103 137 167 194 229
#     4   9  16  29  45  56  75 110 143 164 191 238
#     4   8  14  25  40  56  77 104 132 164 198 231
#     4   8  14  25  41  59  78 107 142 165 189 235
#
# _framework density 14.180739000000001
#
# number of rings (size 3 to 8) (size 9 to 14) (size 15 to 20)
#    0.000    3.000    0.000    4.500    0.000    3.500 
#    0.000    5.625    0.000    0.000    0.000    0.000 
#    0.000    1.000    0.000   11.250    0.000    5.000 
#
# Total GULP energy -356273.536550 kJ/mol
# GULP energy per Si atom -5566.774009 kJ/mol
# Density = 1.414846 g / cm^3
# Si number density = 14.180739 Si / 1000 Ang^3
#
#
#
# Elastic Constant Matrix: (Units=GPa)
#
#
# Indices 1 2 3 4 5 6 
#
# 1 115.2661 57.5255 21.2975 0.0000 0.0000 0.0000
# 2 57.5255 84.0715 20.7983 0.0000 0.0000 0.0000
# 3 21.2975 20.7983 23.2157 0.0000 0.0000 0.0000
# 4 0.0000 0.0000 0.0000 16.4002 0.0000 0.0000
# 5 0.0000 0.0000 0.0000 0.0000 20.0775 0.0000
# 6 0.0000 0.0000 0.0000 0.0000 0.0000 28.0477
#
#
#
# Elastic Compliance Matrix: (Units=1/GPa)
#
#
# Indices 1 2 3 4 5 6 
#
# 1 0.013672 -0.008032 -0.005346 0.000000 0.000000 0.000000
# 2 -0.008032 0.020001 -0.010549 0.000000 0.000000 0.000000
# 3 -0.005346 -0.010549 0.057430 0.000000 0.000000 0.000000
# 4 0.000000 0.000000 0.000000 0.060975 0.000000 0.000000
# 5 0.000000 0.000000 0.000000 0.000000 0.049807 0.000000
# 6 0.000000 0.000000 0.000000 0.000000 0.000000 0.035654
#
#
# Mechanical properties :
#
#
# Convention : Reuss Voigt Hill
#
# Bulk Modulus (GPa) = 23.12334 46.86620 34.99477
# Shear Modulus (GPa) = 16.67726 21.10056 18.88891
#
# Velocity S-wave (km/s) = 3.43308 3.86161 3.65363
# Velocity P-wave (km/s) = 5.66183 7.28036 6.52150
#
# Compressibility (1/GPa) = 0.04324635
#
# Stress axis : x y z
#
# Youngs Moduli (GPa) = 73.14130 49.99852 17.41255
#
# Poissons Ratio (x) = 0.40161 0.09309
# Poissons Ratio (y) = 0.58751 0.18369
# Poissons Ratio (z) = 0.39104 0.52745
#
# Static dielectric constant tensor:
#      x y z
#    x 1.478150 0.000000 0.000000 
#    y 0.000000 1.454320 0.000000 
#    z 0.000000 0.000000 1.483620 
# 
# From -- ./inp_files/8523.got.cif
#   From: 2010.05.17/outbox.cif.g08.bks.cpg/sg58_5_cif.got.tgz:8523.got - 2010.06.03 14:20:14.
