data_PCOD9441647
_publ_section_title
;
Structure prediction by ZEFSAII (Michael W. Deem and Ramdas Pophale) SiO2 
 PCOD9441647
Probable space group: P N N M
;
_chemical_formula_sum "Si O2"
_cell_formula_units_Z 64
_cell_length_a 19.121915
_cell_length_b 22.468854
_cell_length_c 8.432796
_cell_angle_alpha 90.000000
_cell_angle_beta 90.000000
_cell_angle_gamma 90.000000
_cell_volume 3623.129857
_symmetry_space_group_name_H-M "P N N M"
_symmetry_group_IT_number 58
_symmetry_cell_setting 'orthorhombic'
loop_
_space_group_symop_operation_xyz
x,y,z
-x,-y,z
1/2+x,1/2-y,1/2-z
1/2-x,1/2+y,1/2-z
-x,-y,-z
x,y,-z
1/2-x,1/2+y,1/2+z
1/2+x,1/2-y,1/2+z
loop_
_atom_site_type_symbol
_atom_site_label
_atom_site_fract_x
_atom_site_fract_y
_atom_site_fract_z
Si Si1 0.325306 0.407592 0.688470
Si Si2 0.421654 0.516088 0.691194
Si Si3 0.522580 0.809775 0.310558
Si Si4 0.523469 0.064566 0.307457
Si Si5 0.426081 0.646547 0.808883
Si Si6 0.578610 0.695069 0.810786
Si Si7 0.324366 0.888252 0.687386
Si Si8 0.373436 0.768629 0.813390
O O1 0.334205 0.403162 0.500000
O O2 0.368698 0.465023 0.746176
O O3 0.358961 0.348455 0.763319
O O4 0.244172 0.413127 0.729844
O O5 0.500000 0.500000 0.746157
O O6 0.421724 0.515968 0.500000
O O7 0.405109 0.582250 0.747961
O O8 0.509490 0.806005 0.500000
O O9 0.527821 0.879801 0.269879
O O10 0.580245 0.761025 0.264641
O O11 0.453739 0.788188 0.216811
O O12 0.525521 0.061508 0.500000
O O13 0.602030 0.083081 0.256780
O O14 0.500000 0.000000 0.247972
O O15 0.505479 0.663439 0.756325
O O16 0.374450 0.700101 0.759382
O O17 0.427155 0.646351 0.000000
O O18 0.575713 0.701179 0.000000
O O19 0.319161 0.897768 0.500000
O O20 0.328942 0.817628 0.722252
O O21 0.357362 0.771931 0.000000
#
# Coordination Sequence:
#
# PCOD9441647 Si02
#       8
#     8   8   8   8   8   8   8   8
#     4  11  22  35  52  73 103 141 177 218 267 320
#     4  10  20  33  49  74 104 139 181 220 259 308
#     4   9  16  27  48  77 103 129 164 207 258 306
#     4   8  15  30  54  81 105 131 170 215 258 311
#     4   9  18  30  49  75 101 131 168 214 257 300
#     4  10  19  31  48  73 103 134 171 215 262 307
#     4  10  20  34  54  79 103 133 173 217 268 321
#     4   9  17  31  50  74 101 129 165 209 256 304
#
# _framework density 17.664287000000002
#
# number of rings (size 3 to 8) (size 9 to 14) (size 15 to 20)
#    0.000    2.500    1.250    3.375    0.000    3.750 
#    0.000    0.000    2.750   13.500    0.000    0.000 
#    0.000    0.000    0.000    0.000    0.000    0.000 
#
# Total GULP energy -356580.457658 kJ/mol
# GULP energy per Si atom -5571.569651 kJ/mol
# Density = 1.762408 g / cm^3
# Si number density = 17.664287 Si / 1000 Ang^3
#
#
#
# Elastic Constant Matrix: (Units=GPa)
#
#
# Indices 1 2 3 4 5 6 
#
# 1 56.9016 49.1862 8.0869 0.0000 0.0000 0.0000
# 2 49.1862 165.7311 15.8131 0.0000 0.0000 0.0000
# 3 8.0869 15.8131 19.3942 0.0000 0.0000 0.0000
# 4 0.0000 0.0000 0.0000 5.7204 0.0000 0.0000
# 5 0.0000 0.0000 0.0000 0.0000 20.3463 0.0000
# 6 0.0000 0.0000 0.0000 0.0000 0.0000 21.6503
#
#
#
# Elastic Compliance Matrix: (Units=1/GPa)
#
#
# Indices 1 2 3 4 5 6 
#
# 1 0.024004 -0.006689 -0.004555 0.000000 0.000000 0.000000
# 2 -0.006689 0.008407 -0.004065 0.000000 0.000000 0.000000
# 3 -0.004555 -0.004065 0.056776 0.000000 0.000000 0.000000
# 4 0.000000 0.000000 0.000000 0.174812 0.000000 0.000000
# 5 0.000000 0.000000 0.000000 0.000000 0.049149 0.000000
# 6 0.000000 0.000000 0.000000 0.000000 0.000000 0.046189
#
#
# Mechanical properties :
#
#
# Convention : Reuss Voigt Hill
#
# Bulk Modulus (GPa) = 17.07429 43.13325 30.10377
# Shear Modulus (GPa) = 12.21065 20.80611 16.50838
#
# Velocity S-wave (km/s) = 2.63204 3.43572 3.06038
# Velocity P-wave (km/s) = 4.35015 6.34116 5.43756
#
# Compressibility (1/GPa) = 0.05856758
#
# Stress axis : x y z
#
# Youngs Moduli (GPa) = 41.65992 118.94768 17.61312
#
# Poissons Ratio (x) = 0.79568 0.08022
# Poissons Ratio (y) = 0.27868 0.07160
# Poissons Ratio (z) = 0.18975 0.48357
#
# Static dielectric constant tensor:
#      x y z
#    x 1.595430 0.000000 0.000000 
#    y 0.000000 1.636300 0.000000 
#    z 0.000000 0.000000 1.600120 
# 
# From -- ./inp_files/8383.got.cif
#   From: 2010.05.17/outbox.cif.g08.bks.cpg/sg58_5_cif.got.tgz:8383.got - 2010.06.03 14:20:14.
