data_PCOD9441650
_publ_section_title
;
Structure prediction by ZEFSAII (Michael W. Deem and Ramdas Pophale) SiO2 
 PCOD9441650
Probable space group: P N N M
;
_chemical_formula_sum "Si O2"
_cell_formula_units_Z 64
_cell_length_a 12.580755
_cell_length_b 28.665727
_cell_length_c 9.192980
_cell_angle_alpha 90.000000
_cell_angle_beta 90.000000
_cell_angle_gamma 90.000000
_cell_volume 3315.324024
_symmetry_space_group_name_H-M "P N N M"
_symmetry_group_IT_number 58
_symmetry_cell_setting 'orthorhombic'
loop_
_space_group_symop_operation_xyz
x,y,z
-x,-y,z
1/2+x,1/2-y,1/2-z
1/2-x,1/2+y,1/2-z
-x,-y,-z
x,y,-z
1/2-x,1/2+y,1/2+z
1/2+x,1/2-y,1/2+z
loop_
_atom_site_type_symbol
_atom_site_label
_atom_site_fract_x
_atom_site_fract_y
_atom_site_fract_z
Si Si1 0.673599 0.316035 0.824982
Si Si2 0.388935 0.786672 0.175847
Si Si3 0.888726 0.906997 0.170897
Si Si4 0.717632 0.120962 0.831347
Si Si5 0.894523 0.052049 0.831858
Si Si6 0.395182 0.161643 0.174861
Si Si7 0.309990 0.969866 0.328520
Si Si8 0.355116 0.058880 0.831341
O O1 0.631970 0.265610 0.773266
O O2 0.607601 0.359694 0.763100
O O3 0.791676 0.322496 0.761308
O O4 0.674664 0.317757 0.000000
O O5 0.306032 0.827093 0.221730
O O6 0.504200 0.806984 0.212849
O O7 0.382936 0.784443 0.000000
O O8 0.769866 0.927078 0.183935
O O9 0.983421 0.942523 0.210313
O O10 0.885419 0.035037 0.000000
O O11 0.840238 0.103944 0.828886
O O12 0.660207 0.079994 0.741499
O O13 0.682359 0.117749 0.000000
O O14 0.812693 0.025169 0.728665
O O15 0.095007 0.103631 0.000000
O O16 0.414401 0.106873 0.206200
O O17 0.375586 0.164384 0.000000
O O18 0.314556 0.968350 0.500000
O O19 0.373086 0.013654 0.265291
O O20 0.374700 0.047227 0.000000
#
# Coordination Sequence:
#
# PCOD9441650 Si02
#       8
#     8   8   8   8   8   8   8   8
#     4  10  20  33  52  80 110 133 162 211 266 307
#     4   9  18  35  58  79 101 134 174 215 254 299
#     4   9  18  33  52  74 102 139 179 214 250 305
#     4   8  16  33  53  71  97 132 172 214 250 296
#     4   8  16  31  51  72  98 134 174 213 249 298
#     4   9  19  37  57  77 102 136 177 211 246 302
#     4  10  19  31  48  73 105 136 167 212 268 313
#     4   9  17  31  51  71  97 135 176 215 252 301
#
# _framework density 19.304299
#
# number of rings (size 3 to 8) (size 9 to 14) (size 15 to 20)
#    0.750    2.250    0.000    1.875    0.000    4.000 
#    0.000    7.500    0.000    3.750    0.000    0.000 
#    0.000    0.000    0.000    0.000    0.000    0.000 
#
# Total GULP energy -356500.405076 kJ/mol
# GULP energy per Si atom -5570.318829 kJ/mol
# Density = 1.926036 g / cm^3
# Si number density = 19.304299 Si / 1000 Ang^3
#
#
#
# Elastic Constant Matrix: (Units=GPa)
#
#
# Indices 1 2 3 4 5 6 
#
# 1 50.1818 8.9901 14.5241 0.0000 0.0000 0.0000
# 2 8.9901 60.9687 25.8321 0.0000 0.0000 0.0000
# 3 14.5241 25.8321 43.9475 0.0000 0.0000 0.0000
# 4 0.0000 0.0000 0.0000 24.0265 0.0000 0.0000
# 5 0.0000 0.0000 0.0000 0.0000 11.3261 0.0000
# 6 0.0000 0.0000 0.0000 0.0000 0.0000 11.1159
#
#
#
# Elastic Compliance Matrix: (Units=1/GPa)
#
#
# Indices 1 2 3 4 5 6 
#
# 1 0.022037 -0.000218 -0.007155 0.000000 0.000000 0.000000
# 2 -0.000218 0.021843 -0.012767 0.000000 0.000000 0.000000
# 3 -0.007155 -0.012767 0.032624 0.000000 0.000000 0.000000
# 4 0.000000 0.000000 0.000000 0.041621 0.000000 0.000000
# 5 0.000000 0.000000 0.000000 0.000000 0.088292 0.000000
# 6 0.000000 0.000000 0.000000 0.000000 0.000000 0.089961
#
#
# Mechanical properties :
#
#
# Convention : Reuss Voigt Hill
#
# Bulk Modulus (GPa) = 27.60615 28.19897 27.90256
# Shear Modulus (GPa) = 14.33759 16.34381 15.34070
#
# Velocity S-wave (km/s) = 2.72824 2.91287 2.82206
# Velocity P-wave (km/s) = 4.92503 5.09435 5.01040
#
# Compressibility (1/GPa) = 0.03622381
#
# Stress axis : x y z
#
# Youngs Moduli (GPa) = 45.37725 45.78030 30.65262
#
# Poissons Ratio (x) = 0.00998 0.21932
# Poissons Ratio (y) = 0.00989 0.39135
# Poissons Ratio (z) = 0.32467 0.58450
#
# Static dielectric constant tensor:
#      x y z
#    x 1.702710 0.000000 0.000000 
#    y 0.000000 1.703170 0.000000 
#    z 0.000000 0.000000 1.642420 
# 
# From -- ./inp_files/7182.got.cif
#   From: 2010.05.17/outbox.cif.g08.bks.cpg/sg58_4_cif.got.tgz:7182.got - 2010.06.03 14:20:14.
