data_PCOD9441780
_publ_section_title
;
Structure prediction by ZEFSAII (Michael W. Deem and Ramdas Pophale) SiO2 
 PCOD9441780
Probable space group: P N N M
;
_chemical_formula_sum "Si O2"
_cell_formula_units_Z 40
_cell_length_a 20.404412
_cell_length_b 6.589684
_cell_length_c 12.830786
_cell_angle_alpha 90.000000
_cell_angle_beta 90.000000
_cell_angle_gamma 90.000000
_cell_volume 1725.209873
_symmetry_space_group_name_H-M "P N N M"
_symmetry_group_IT_number 58
_symmetry_cell_setting 'orthorhombic'
loop_
_space_group_symop_operation_xyz
x,y,z
-x,-y,z
1/2+x,1/2-y,1/2-z
1/2-x,1/2+y,1/2-z
-x,-y,-z
x,y,-z
1/2-x,1/2+y,1/2+z
1/2+x,1/2-y,1/2+z
loop_
_atom_site_type_symbol
_atom_site_label
_atom_site_fract_x
_atom_site_fract_y
_atom_site_fract_z
Si Si1 0.551563 0.789397 0.160614
Si Si2 0.178434 0.037264 0.209886
Si Si3 0.556702 0.668905 0.386349
Si Si4 0.192341 0.698466 0.383725
Si Si5 0.092865 0.187002 0.381912
O O1 0.550535 0.809332 0.285581
O O2 0.618659 0.894620 0.120889
O O3 0.569316 0.551509 0.132533
O O4 0.476243 0.808310 0.125219
O O5 0.244218 0.071322 0.145884
O O6 0.142820 0.207385 0.283661
O O7 0.123874 0.952269 0.131809
O O8 0.194502 0.868694 0.295721
O O9 0.500000 0.500000 0.379958
O O10 0.554762 0.767109 0.500000
O O11 0.200591 0.779407 0.500000
O O12 0.119479 0.204577 0.500000
#
# Coordination Sequence:
#
# PCOD9441780 Si02
#       5
#     8   8   8   8   8
#     4   9  14  26  44  72  96 121 165 210 258 304
#     4  10  19  32  49  78 104 135 173 211 257 320
#     4   9  14  24  42  69 100 124 161 213 256 290
#     4  10  20  34  52  76 108 141 168 213 267 310
#     4   9  14  25  45  70  94 122 162 216 255 289
#
# _framework density 23.185583999999999
#
# number of rings (size 3 to 8) (size 9 to 14) (size 15 to 20)
#    0.000    3.000    4.000    4.800    0.000    0.000 
#    0.000   10.000    0.000    1.200    0.000    4.200 
#    0.000    0.000    0.000    0.000    0.000    0.000 
#
# Total GULP energy -223015.597380 kJ/mol
# GULP energy per Si atom -5575.389934 kJ/mol
# Density = 2.313281 g / cm^3
# Si number density = 23.185584 Si / 1000 Ang^3
#
#
#
# Elastic Constant Matrix: (Units=GPa)
#
#
# Indices 1 2 3 4 5 6 
#
# 1 183.0129 20.0479 20.4272 0.0000 0.0000 0.0000
# 2 20.0479 22.0088 -10.0720 0.0000 0.0000 0.0000
# 3 20.4272 -10.0720 160.2754 0.0000 0.0000 0.0000
# 4 0.0000 0.0000 0.0000 17.2717 0.0000 0.0000
# 5 0.0000 0.0000 0.0000 0.0000 22.1270 0.0000
# 6 0.0000 0.0000 0.0000 0.0000 0.0000 38.9454
#
#
#
# Elastic Compliance Matrix: (Units=1/GPa)
#
#
# Indices 1 2 3 4 5 6 
#
# 1 0.006284 -0.006271 -0.001195 0.000000 0.000000 0.000000
# 2 -0.006271 0.053040 0.004132 0.000000 0.000000 0.000000
# 3 -0.001195 0.004132 0.006651 0.000000 0.000000 0.000000
# 4 0.000000 0.000000 0.000000 0.057898 0.000000 0.000000
# 5 0.000000 0.000000 0.000000 0.000000 0.045194 0.000000
# 6 0.000000 0.000000 0.000000 0.000000 0.000000 0.025677
#
#
# Mechanical properties :
#
#
# Convention : Reuss Voigt Hill
#
# Bulk Modulus (GPa) = 16.86120 47.34481 32.10301
# Shear Modulus (GPa) = 22.60579 37.99508 30.30044
#
# Velocity S-wave (km/s) = 3.12588 4.05252 3.61898
# Velocity P-wave (km/s) = 4.50735 6.50857 5.59811
#
# Compressibility (1/GPa) = 0.05930775
#
# Stress axis : x y z
#
# Youngs Moduli (GPa) = 159.12200 18.85362 150.34740
#
# Poissons Ratio (x) = 0.11824 0.17968
# Poissons Ratio (y) = 0.99793 -0.62130
# Poissons Ratio (z) = 0.19016 -0.07791
#
# Static dielectric constant tensor:
#      x y z
#    x 1.940110 0.000000 0.000000 
#    y 0.000000 2.135200 0.000000 
#    z 0.000000 0.000000 1.815820 
# 
# From -- ./inp_files/16881.got.cif
#   From: 2010.05.17/outbox.cif.g08.bks.cpg/sg58_9_cif.got.tgz:16881.got - 2010.06.03 14:20:14.
