data_PCOD9441685
_publ_section_title
;
Structure prediction by ZEFSAII (Michael W. Deem and Ramdas Pophale) SiO2 
 PCOD9441685
Probable space group: P N N M
;
_chemical_formula_sum "Si O2"
_cell_formula_units_Z 64
_cell_length_a 20.346726
_cell_length_b 17.568535
_cell_length_c 9.797048
_cell_angle_alpha 90.000000
_cell_angle_beta 90.000000
_cell_angle_gamma 90.000000
_cell_volume 3502.074017
_symmetry_space_group_name_H-M "P N N M"
_symmetry_group_IT_number 58
_symmetry_cell_setting 'orthorhombic'
loop_
_space_group_symop_operation_xyz
x,y,z
-x,-y,z
1/2+x,1/2-y,1/2-z
1/2-x,1/2+y,1/2-z
-x,-y,-z
x,y,-z
1/2-x,1/2+y,1/2+z
1/2+x,1/2-y,1/2+z
loop_
_atom_site_type_symbol
_atom_site_label
_atom_site_fract_x
_atom_site_fract_y
_atom_site_fract_z
Si Si1 0.977401 0.243281 0.162193
Si Si2 0.282235 0.062911 0.655939
Si Si3 0.339542 0.320404 0.334864
Si Si4 0.670124 0.505196 0.337685
Si Si5 0.395748 0.022739 0.153159
Si Si6 0.785469 0.772053 0.657898
Si Si7 0.103652 0.153499 0.839023
Si Si8 0.472667 0.876394 0.152875
O O1 0.027361 0.172899 0.183334
O O2 0.903423 0.226720 0.212905
O O3 0.012316 0.312445 0.238293
O O4 0.973915 0.257858 0.000000
O O5 0.285039 0.036941 0.500000
O O6 0.255335 0.148890 0.656588
O O7 0.233270 0.013292 0.747241
O O8 0.351214 0.057602 0.730709
O O9 0.338111 0.312482 0.500000
O O10 0.351637 0.409176 0.304857
O O11 0.267879 0.289806 0.289766
O O12 0.684888 0.503125 0.500000
O O13 0.620782 0.434815 0.310009
O O14 0.413344 0.934627 0.181529
O O15 0.462883 0.070266 0.149171
O O16 0.366357 0.027457 0.000000
O O17 0.803935 0.754383 0.500000
O O18 0.848865 0.791869 0.749595
O O19 0.117728 0.166611 0.000000
O O20 0.463443 0.844510 0.000000
#
# Coordination Sequence:
#
# PCOD9441685 Si02
#       8
#     8   8   8   8   8   8   8   8
#     4  10  20  34  52  76 105 132 166 214 261 303
#     4  10  19  31  50  75 101 129 162 203 253 302
#     4   9  18  33  54  77  99 129 170 212 252 296
#     4   9  18  34  53  72  97 131 171 208 246 297
#     4   9  18  33  51  71  99 133 167 204 244 296
#     4   9  18  33  52  73  99 132 167 204 250 305
#     4   9  19  34  52  75 102 133 167 208 256 300
#     4   9  19  34  50  71  99 132 169 203 243 300
#
# _framework density 18.274885999999999
#
# number of rings (size 3 to 8) (size 9 to 14) (size 15 to 20)
#    0.000    2.750    0.000    1.875    0.000    4.500 
#    0.000    9.375    0.000    0.000    0.000    4.375 
#    0.000    0.000    0.000    0.000    0.000    0.000 
#
# Total GULP energy -356545.034193 kJ/mol
# GULP energy per Si atom -5571.016159 kJ/mol
# Density = 1.823329 g / cm^3
# Si number density = 18.274886 Si / 1000 Ang^3
#
#
#
# Elastic Constant Matrix: (Units=GPa)
#
#
# Indices 1 2 3 4 5 6 
#
# 1 30.1366 4.9809 7.2107 0.0000 0.0000 0.0000
# 2 4.9809 50.0085 16.8632 0.0000 0.0000 0.0000
# 3 7.2107 16.8632 35.5081 0.0000 0.0000 0.0000
# 4 0.0000 0.0000 0.0000 19.6837 0.0000 0.0000
# 5 0.0000 0.0000 0.0000 0.0000 21.5314 0.0000
# 6 0.0000 0.0000 0.0000 0.0000 0.0000 -12.8558
#
#
#
# Elastic Compliance Matrix: (Units=1/GPa)
#
#
# Indices 1 2 3 4 5 6 
#
# 1 0.034947 -0.001295 -0.006482 0.000000 0.000000 0.000000
# 2 -0.001295 0.023858 -0.011067 0.000000 0.000000 0.000000
# 3 -0.006482 -0.011067 0.034735 0.000000 0.000000 0.000000
# 4 0.000000 0.000000 0.000000 0.050803 0.000000 0.000000
# 5 0.000000 0.000000 0.000000 0.000000 0.046444 0.000000
# 6 0.000000 0.000000 0.000000 0.000000 0.000000 -0.077786
#
#
# Mechanical properties :
#
#
# Convention : Reuss Voigt Hill
#
# Bulk Modulus (GPa) = 17.90463 19.30696 18.60580
# Shear Modulus (GPa) = 29.53229 11.44509 20.48869
#
# Velocity S-wave (km/s) = 4.02432 2.50526 3.35197
# Velocity P-wave (km/s) = 5.60466 4.35386 5.01838
#
# Compressibility (1/GPa) = 0.05585147
#
# Stress axis : x y z
#
# Youngs Moduli (GPa) = 28.61460 41.91544 28.78956
#
# Poissons Ratio (x) = 0.05429 0.18661
# Poissons Ratio (y) = 0.03706 0.31862
# Poissons Ratio (z) = 0.18547 0.46389
#
# Static dielectric constant tensor:
#      x y z
#    x 1.650000 0.000000 0.000000 
#    y 0.000000 1.641550 0.000000 
#    z 0.000000 0.000000 1.612910 
# 
# From -- ./inp_files/9233.got.cif
#   From: 2010.05.17/outbox.cif.g08.bks.cpg/sg58_5_cif.got.tgz:9233.got - 2010.06.03 14:20:14.
