data_PCOD9441825
_publ_section_title
;
Structure prediction by ZEFSAII (Michael W. Deem and Ramdas Pophale) SiO2 
 PCOD9441825
Probable space group: P N N M
;
_chemical_formula_sum "Si O2"
_cell_formula_units_Z 40
_cell_length_a 13.797779
_cell_length_b 11.001455
_cell_length_c 13.901340
_cell_angle_alpha 90.000000
_cell_angle_beta 90.000000
_cell_angle_gamma 90.000000
_cell_volume 2110.162868
_symmetry_space_group_name_H-M "P N N M"
_symmetry_group_IT_number 58
_symmetry_cell_setting 'orthorhombic'
loop_
_space_group_symop_operation_xyz
x,y,z
-x,-y,z
1/2+x,1/2-y,1/2-z
1/2-x,1/2+y,1/2-z
-x,-y,-z
x,y,-z
1/2-x,1/2+y,1/2+z
1/2+x,1/2-y,1/2+z
loop_
_atom_site_type_symbol
_atom_site_label
_atom_site_fract_x
_atom_site_fract_y
_atom_site_fract_z
Si Si1 0.685519 0.705046 0.390256
Si Si2 0.092386 0.701576 0.612494
Si Si3 0.605232 0.945313 0.298132
Si Si4 0.307466 0.430352 0.198411
Si Si5 0.393124 0.667331 0.111284
O O1 0.666062 0.669183 0.500000
O O2 0.622436 0.822111 0.358838
O O3 0.673738 0.603977 0.309077
O O4 0.796692 0.751447 0.382933
O O5 0.094178 0.668955 0.500000
O O6 0.112969 0.592919 0.685752
O O7 0.164759 0.812407 0.636054
O O8 0.986575 0.755301 0.639178
O O9 0.500000 0.000000 0.316944
O O10 0.695945 0.032750 0.318740
O O11 0.372880 0.545147 0.169475
O O12 0.407165 0.631172 0.000000
#
# Coordination Sequence:
#
# PCOD9441825 Si02
#       5
#     8   8   8   8   8
#     4   9  19  34  51  74 104 138 173 204 241 295
#     4  10  20  34  55  81 102 124 164 215 262 303
#     4  10  21  35  53  76 104 136 169 205 248 299
#     4  10  19  32  52  76 103 134 166 206 255 300
#     4   9  17  32  55  78 100 128 165 213 261 299
#
# _framework density 18.955881000000002
#
# number of rings (size 3 to 8) (size 9 to 14) (size 15 to 20)
#    0.000    2.400    0.000    2.400    0.000    4.000 
#    0.000    0.000    0.000    9.600    0.000    0.000 
#    0.000    0.000    0.000    0.000    0.000    0.000 
#
# Total GULP energy -223355.199839 kJ/mol
# GULP energy per Si atom -5583.879996 kJ/mol
# Density = 1.891274 g / cm^3
# Si number density = 18.955881 Si / 1000 Ang^3
#
#
#
# Elastic Constant Matrix: (Units=GPa)
#
#
# Indices 1 2 3 4 5 6 
#
# 1 88.9623 16.1625 2.2676 0.0000 0.0000 0.0000
# 2 16.1625 21.9853 -3.3272 0.0000 0.0000 0.0000
# 3 2.2676 -3.3272 44.4636 0.0000 0.0000 0.0000
# 4 0.0000 0.0000 0.0000 7.4564 0.0000 0.0000
# 5 0.0000 0.0000 0.0000 0.0000 19.3507 0.0000
# 6 0.0000 0.0000 0.0000 0.0000 0.0000 8.3368
#
#
#
# Elastic Compliance Matrix: (Units=1/GPa)
#
#
# Indices 1 2 3 4 5 6 
#
# 1 0.013059 -0.009812 -0.001400 0.000000 0.000000 0.000000
# 2 -0.009812 0.053379 0.004495 0.000000 0.000000 0.000000
# 3 -0.001400 0.004495 0.022898 0.000000 0.000000 0.000000
# 4 0.000000 0.000000 0.000000 0.134113 0.000000 0.000000
# 5 0.000000 0.000000 0.000000 0.000000 0.051678 0.000000
# 6 0.000000 0.000000 0.000000 0.000000 0.000000 0.119951
#
#
# Mechanical properties :
#
#
# Convention : Reuss Voigt Hill
#
# Bulk Modulus (GPa) = 13.17520 20.62410 16.89965
# Shear Modulus (GPa) = 11.52572 16.38266 13.95419
#
# Velocity S-wave (km/s) = 2.46850 2.94301 2.71613
# Velocity P-wave (km/s) = 3.88461 4.73836 4.33257
#
# Compressibility (1/GPa) = 0.07590015
#
# Stress axis : x y z
#
# Youngs Moduli (GPa) = 76.57503 18.73411 43.67179
#
# Poissons Ratio (x) = 0.18382 0.06115
# Poissons Ratio (y) = 0.75138 -0.19629
# Poissons Ratio (z) = 0.10722 -0.08421
#
# Static dielectric constant tensor:
#      x y z
#    x 1.658870 0.000000 0.000000 
#    y 0.000000 1.645040 0.000000 
#    z 0.000000 0.000000 1.662230 
# 
# From -- ./inp_files/14104.got.cif
#   From: 2010.05.17/outbox.cif.g08.bks.cpg/sg58_8_cif.got.tgz:14104.got - 2010.06.03 14:20:14.
