data_PCOD9441371
_publ_section_title
;
Structure prediction by ZEFSAII (Michael W. Deem and Ramdas Pophale) SiO2 
 PCOD9441371
Probable space group: P N N M
;
_chemical_formula_sum "Si O2"
_cell_formula_units_Z 58
_cell_length_a 14.913282
_cell_length_b 9.386360
_cell_length_c 17.811386
_cell_angle_alpha 90.000000
_cell_angle_beta 90.000000
_cell_angle_gamma 90.000000
_cell_volume 2493.263347
_symmetry_space_group_name_H-M "P N N M"
_symmetry_group_IT_number 58
_symmetry_cell_setting 'orthorhombic'
loop_
_space_group_symop_operation_xyz
x,y,z
-x,-y,z
1/2+x,1/2-y,1/2-z
1/2-x,1/2+y,1/2-z
-x,-y,-z
x,y,-z
1/2-x,1/2+y,1/2+z
1/2+x,1/2-y,1/2+z
loop_
_atom_site_type_symbol
_atom_site_label
_atom_site_fract_x
_atom_site_fract_y
_atom_site_fract_z
Si Si1 0.225585 0.598554 0.198971
Si Si2 0.310337 0.814242 0.084324
Si Si3 0.504769 0.837882 0.872421
Si Si4 0.542601 0.821959 0.698472
Si Si5 0.395295 0.685026 0.620319
Si Si6 0.000000 0.000000 0.000000
Si Si7 0.598320 0.522637 0.760058
Si Si8 0.798065 0.350233 0.376145
O O1 0.258107 0.728449 0.147648
O O2 0.122265 0.569598 0.177875
O O3 0.307434 0.485194 0.195813
O O4 0.209862 0.636548 0.286273
O O5 0.414665 0.770946 0.096093
O O6 0.299556 0.984635 0.096132
O O7 0.280894 0.779625 0.000000
O O8 0.500881 0.846837 0.781414
O O9 0.604222 0.783771 0.892873
O O10 0.500000 0.000000 0.900745
O O11 0.469777 0.804591 0.633782
O O12 0.588071 0.666217 0.712044
O O13 0.435405 0.570594 0.564298
O O14 0.392957 0.607470 0.701723
O O15 0.293838 0.722477 0.598112
O O16 0.500000 0.500000 0.798882
#
# Coordination Sequence:
#
# PCOD9441371 Si02
#       8
#     8   8   8   8   8   2   8   8
#     4  10  19  32  53  79 107 150 194 228 283 348
#     4  11  22  34  55  85 121 150 185 245 307 346
#     4   9  19  35  54  79 108 145 191 230 290 347
#     4  10  18  34  55  78 114 144 193 245 283 339
#     4  10  19  30  46  75 110 144 182 233 294 348
#     4  12  20  28  48  76 116 148 176 232 314 360
#     4   9  16  31  50  72 106 141 185 237 278 328
#     4   9  20  34  51  77 111 151 193 236 285 352
#
# _framework density 23.262684
#
# number of rings (size 3 to 8) (size 9 to 14) (size 15 to 20)
#    0.000    2.207    2.069    4.138    0.966    2.483 
#    0.000    0.000    0.000    3.724    0.000    7.241 
#   35.172    0.138    0.000    0.000    0.000    0.000 
#
# Total GULP energy -322924.624705 kJ/mol
# GULP energy per Si atom -5567.665943 kJ/mol
# Density = 2.320974 g / cm^3
# Si number density = 23.262684 Si / 1000 Ang^3
#
#
#
# Elastic Constant Matrix: (Units=GPa)
#
#
# Indices 1 2 3 4 5 6 
#
# 1 174.2443 27.4611 31.7065 0.0000 0.0000 0.0000
# 2 27.4611 37.3929 3.2433 0.0000 0.0000 0.0000
# 3 31.7065 3.2433 47.9863 0.0000 0.0000 0.0000
# 4 0.0000 0.0000 0.0000 -13.5293 0.0000 0.0000
# 5 0.0000 0.0000 0.0000 0.0000 -9.7151 0.0000
# 6 0.0000 0.0000 0.0000 0.0000 0.0000 39.4370
#
#
#
# Elastic Compliance Matrix: (Units=1/GPa)
#
#
# Indices 1 2 3 4 5 6 
#
# 1 0.007350 -0.005006 -0.004518 0.000000 0.000000 0.000000
# 2 -0.005006 0.030310 0.001259 0.000000 0.000000 0.000000
# 3 -0.004518 0.001259 0.023740 0.000000 0.000000 0.000000
# 4 0.000000 0.000000 0.000000 -0.073914 0.000000 0.000000
# 5 0.000000 0.000000 0.000000 0.000000 -0.102932 0.000000
# 6 0.000000 0.000000 0.000000 0.000000 0.000000 0.025357
#
#
# Mechanical properties :
#
#
# Convention : Reuss Voigt Hill
#
# Bulk Modulus (GPa) = 22.28677 42.71615 32.50146
# Shear Modulus (GPa) = -85.32111 16.38603 -34.46754
#
# Velocity S-wave (km/s) = -6.06274 2.65692 -3.85342
# Velocity P-wave (km/s) = 6.27757 5.27396 2.40761
#
# Compressibility (1/GPa) = 0.04486967
#
# Stress axis : x y z
#
# Youngs Moduli (GPa) = 136.05093 32.99211 42.12381
#
# Poissons Ratio (x) = 0.16516 0.19032
# Poissons Ratio (y) = 0.68108 -0.05304
# Poissons Ratio (z) = 0.61471 -0.04154
#
# Static dielectric constant tensor:
#      x y z
#    x 2.045150 0.000000 0.000000 
#    y 0.000000 1.937450 0.000000 
#    z 0.000000 0.000000 1.829070 
# 
# From -- ./inp_files/26985.got.cif
#   From: 2010.05.17/outbox.cif.g08.bks.cpg/sg58_14_cif.got.tgz:26985.got - 2010.06.03 14:20:14.
