data_PCOD9441034
_publ_section_title
;
Structure prediction by ZEFSAII (Michael W. Deem and Ramdas Pophale) SiO2 
 PCOD9441034
Probable space group: P N N M
;
_chemical_formula_sum "Si O2"
_cell_formula_units_Z 48
_cell_length_a 9.933963
_cell_length_b 16.495575
_cell_length_c 13.951268
_cell_angle_alpha 90.000000
_cell_angle_beta 90.000000
_cell_angle_gamma 90.000000
_cell_volume 2286.144505
_symmetry_space_group_name_H-M "P N N M"
_symmetry_group_IT_number 58
_symmetry_cell_setting 'orthorhombic'
loop_
_space_group_symop_operation_xyz
x,y,z
-x,-y,z
1/2+x,1/2-y,1/2-z
1/2-x,1/2+y,1/2-z
-x,-y,-z
x,y,-z
1/2-x,1/2+y,1/2+z
1/2+x,1/2-y,1/2+z
loop_
_atom_site_type_symbol
_atom_site_label
_atom_site_fract_x
_atom_site_fract_y
_atom_site_fract_z
Si Si1 0.265835 0.376950 0.884823
Si Si2 0.468800 0.169178 0.384413
Si Si3 0.231692 0.811281 0.884240
Si Si4 0.161547 0.994127 0.887915
Si Si5 0.749080 0.942864 0.300755
Si Si6 0.951844 0.810940 0.383997
O O1 0.125793 0.333236 0.862058
O O2 0.266729 0.466942 0.841771
O O3 0.394882 0.324794 0.853995
O O4 0.272392 0.385790 0.000000
O O5 0.453572 0.159013 0.500000
O O6 0.390362 0.251257 0.357445
O O7 0.391336 0.095628 0.333615
O O8 0.207077 0.903755 0.858088
O O9 0.371809 0.769865 0.853514
O O10 0.232338 0.811818 0.000000
O O11 0.231406 0.054100 0.813422
O O12 0.193593 0.008306 0.000000
O O13 0.000000 0.000000 0.877661
O O14 0.863802 0.885632 0.345521
O O15 0.947858 0.812998 0.500000
#
# Coordination Sequence:
#
# PCOD9441034 Si02
#       6
#     8   8   8   8   8   8
#     4  10  18  29  51  86 121 147 175 219 284 358
#     4   9  18  33  56  85 116 147 178 224 288 352
#     4   8  16  34  56  78 108 147 191 237 284 334
#     4  10  21  37  58  81 108 151 206 252 287 333
#     4  11  19  31  52  80 113 148 190 236 285 339
#     4   9  17  30  54  87 118 146 177 223 286 351
#
# _framework density 20.996048999999999
#
# number of rings (size 3 to 8) (size 9 to 14) (size 15 to 20)
#    0.000    2.500    0.000    4.500    0.000    2.667 
#    0.000    5.000    0.000    6.000    0.000   16.333 
#    0.000    0.000    0.000    0.000    0.000    0.000 
#
# Total GULP energy -268232.231959 kJ/mol
# GULP energy per Si atom -5588.171499 kJ/mol
# Density = 2.094826 g / cm^3
# Si number density = 20.996049 Si / 1000 Ang^3
#
#
#
# Elastic Constant Matrix: (Units=GPa)
#
#
# Indices 1 2 3 4 5 6 
#
# 1 155.6208 37.6645 30.8337 0.0000 0.0000 0.0000
# 2 37.6645 46.7976 37.0567 0.0000 0.0000 0.0000
# 3 30.8337 37.0567 98.4910 0.0000 0.0000 0.0000
# 4 0.0000 0.0000 0.0000 27.1519 0.0000 0.0000
# 5 0.0000 0.0000 0.0000 0.0000 -13.1759 0.0000
# 6 0.0000 0.0000 0.0000 0.0000 0.0000 -7.4354
#
#
#
# Elastic Compliance Matrix: (Units=1/GPa)
#
#
# Indices 1 2 3 4 5 6 
#
# 1 0.007981 -0.006331 -0.000116 0.000000 0.000000 0.000000
# 2 -0.006331 0.035459 -0.011359 0.000000 0.000000 0.000000
# 3 -0.000116 -0.011359 0.014464 0.000000 0.000000 0.000000
# 4 0.000000 0.000000 0.000000 0.036830 0.000000 0.000000
# 5 0.000000 0.000000 0.000000 0.000000 -0.075896 0.000000
# 6 0.000000 0.000000 0.000000 0.000000 0.000000 -0.134492
#
#
# Mechanical properties :
#
#
# Convention : Reuss Voigt Hill
#
# Bulk Modulus (GPa) = 44.86354 56.89099 50.87727
# Shear Modulus (GPa) = -68.86105 14.33176 -27.26464
#
# Velocity S-wave (km/s) = -5.73309 2.61548 -3.60746
# Velocity P-wave (km/s) = 4.73397 6.02295 2.63300
#
# Compressibility (1/GPa) = 0.02228982
#
# Stress axis : x y z
#
# Youngs Moduli (GPa) = 125.29225 28.20141 69.13950
#
# Poissons Ratio (x) = 0.17856 0.00805
# Poissons Ratio (y) = 0.79328 0.78537
# Poissons Ratio (z) = 0.01459 0.32035
#
# Static dielectric constant tensor:
#      x y z
#    x 1.739850 0.000000 0.000000 
#    y 0.000000 1.716830 0.000000 
#    z 0.000000 0.000000 1.762140 
# 
# From -- ./inp_files/19808.got.cif
#   From: 2010.05.17/outbox.cif.g08.bks.cpg/sg58_10_cif.got.tgz:19808.got - 2010.06.03 14:20:14.
