data_PCOD9441408
_publ_section_title
;
Structure prediction by ZEFSAII (Michael W. Deem and Ramdas Pophale) SiO2 
 PCOD9441408
Probable space group: P N N M
;
_chemical_formula_sum "Si O2"
_cell_formula_units_Z 64
_cell_length_a 8.041523
_cell_length_b 24.294282
_cell_length_c 15.165158
_cell_angle_alpha 90.000000
_cell_angle_beta 90.000000
_cell_angle_gamma 90.000000
_cell_volume 2962.711179
_symmetry_space_group_name_H-M "P N N M"
_symmetry_group_IT_number 58
_symmetry_cell_setting 'orthorhombic'
loop_
_space_group_symop_operation_xyz
x,y,z
-x,-y,z
1/2+x,1/2-y,1/2-z
1/2-x,1/2+y,1/2-z
-x,-y,-z
x,y,-z
1/2-x,1/2+y,1/2+z
1/2+x,1/2-y,1/2+z
loop_
_atom_site_type_symbol
_atom_site_label
_atom_site_fract_x
_atom_site_fract_y
_atom_site_fract_z
Si Si1 0.737925 0.367829 0.400901
Si Si2 0.341361 0.180385 0.405359
Si Si3 0.661206 0.752046 0.860105
Si Si4 0.824814 0.512791 0.276723
Si Si5 0.779228 0.715111 0.670369
Si Si6 0.904777 0.102195 0.202927
Si Si7 0.070823 0.595408 0.763692
Si Si8 0.460697 0.363788 0.903907
O O1 0.752475 0.389484 0.500000
O O2 0.740497 0.301666 0.403659
O O3 0.572987 0.387217 0.350685
O O4 0.886922 0.385669 0.335323
O O5 0.415940 0.166540 0.500000
O O6 0.330023 0.245734 0.392755
O O7 0.423301 0.147634 0.325736
O O8 0.151549 0.157831 0.403186
O O9 0.742510 0.741860 0.765274
O O10 0.470783 0.773756 0.852500
O O11 0.649397 0.691924 0.902151
O O12 0.671382 0.542403 0.320469
O O13 0.799191 0.456083 0.224423
O O14 0.000000 0.500000 0.329046
O O15 0.899264 0.563329 0.219799
O O16 0.718705 0.652328 0.674732
O O17 0.935844 0.107369 0.308835
O O18 0.434242 0.391832 0.000000
#
# Coordination Sequence:
#
# PCOD9441408 Si02
#       8
#     8   8   8   8   8   8   8   8
#     4  12  23  37  60  88 118 154 202 255 312 371
#     4  10  18  34  60  91 124 160 201 243 294 365
#     4  10  18  35  55  88 125 165 203 239 294 363
#     4   8  22  42  69  84 115 164 205 256 320 369
#     4  10  20  32  62  87 125 165 200 246 304 361
#     4  11  21  39  59  88 122 159 203 259 306 368
#     4   9  19  43  61  86 116 156 201 253 310 362
#     4   9  18  32  55  87 123 161 197 235 292 359
#
# _framework density 21.601835000000001
#
# number of rings (size 3 to 8) (size 9 to 14) (size 15 to 20)
#    0.750    1.250    2.500    2.625    0.000    1.500 
#    0.000    6.875    0.000    1.500    0.000    0.000 
#    0.000    0.000    0.000    0.000    0.000    0.000 
#
# Total GULP energy -356275.767532 kJ/mol
# GULP energy per Si atom -5566.808868 kJ/mol
# Density = 2.155267 g / cm^3
# Si number density = 21.601835 Si / 1000 Ang^3
#
#
#
# Elastic Constant Matrix: (Units=GPa)
#
#
# Indices 1 2 3 4 5 6 
#
# 1 45.0348 10.0306 13.7009 0.0000 0.0000 0.0000
# 2 10.0306 64.4568 7.6329 0.0000 0.0000 0.0000
# 3 13.7009 7.6329 126.1419 0.0000 0.0000 0.0000
# 4 0.0000 0.0000 0.0000 -3.9185 0.0000 0.0000
# 5 0.0000 0.0000 0.0000 0.0000 9.4577 0.0000
# 6 0.0000 0.0000 0.0000 0.0000 0.0000 37.4248
#
#
#
# Elastic Compliance Matrix: (Units=1/GPa)
#
#
# Indices 1 2 3 4 5 6 
#
# 1 0.023683 -0.003405 -0.002366 0.000000 0.000000 0.000000
# 2 -0.003405 0.016116 -0.000605 0.000000 0.000000 0.000000
# 3 -0.002366 -0.000605 0.008221 0.000000 0.000000 0.000000
# 4 0.000000 0.000000 0.000000 -0.255203 0.000000 0.000000
# 5 0.000000 0.000000 0.000000 0.000000 0.105734 0.000000
# 6 0.000000 0.000000 0.000000 0.000000 0.000000 0.026720
#
#
# Mechanical properties :
#
#
# Convention : Reuss Voigt Hill
#
# Bulk Modulus (GPa) = 28.35546 33.15138 30.75342
# Shear Modulus (GPa) = -99.56623 22.21074 -38.67774
#
# Velocity S-wave (km/s) = -6.79644 3.21002 -4.23600
# Velocity P-wave (km/s) = 6.95945 5.39618 3.10766
#
# Compressibility (1/GPa) = 0.03526658
#
# Stress axis : x y z
#
# Youngs Moduli (GPa) = 42.22363 62.05057 121.63632
#
# Poissons Ratio (x) = 0.21130 0.28783
# Poissons Ratio (y) = 0.14379 0.07363
# Poissons Ratio (z) = 0.09991 0.03756
#
# Static dielectric constant tensor:
#      x y z
#    x 1.886590 0.000000 0.000000 
#    y 0.000000 1.834390 0.000000 
#    z 0.000000 0.000000 1.800670 
# 
# From -- ./inp_files/20327.got.cif
#   From: 2010.05.17/outbox.cif.g08.bks.cpg/sg58_11_cif.got.tgz:20327.got - 2010.06.03 14:20:14.
