data_PCOD9441866
_publ_section_title
;
Structure prediction by ZEFSAII (Michael W. Deem and Ramdas Pophale) SiO2 
 PCOD9441866
Probable space group: P N N M
;
_chemical_formula_sum "Si O2"
_cell_formula_units_Z 64
_cell_length_a 21.082035
_cell_length_b 20.163583
_cell_length_c 8.898278
_cell_angle_alpha 90.000000
_cell_angle_beta 90.000000
_cell_angle_gamma 90.000000
_cell_volume 3782.563323
_symmetry_space_group_name_H-M "P N N M"
_symmetry_group_IT_number 58
_symmetry_cell_setting 'orthorhombic'
loop_
_space_group_symop_operation_xyz
x,y,z
-x,-y,z
1/2+x,1/2-y,1/2-z
1/2-x,1/2+y,1/2-z
-x,-y,-z
x,y,-z
1/2-x,1/2+y,1/2+z
1/2+x,1/2-y,1/2+z
loop_
_atom_site_type_symbol
_atom_site_label
_atom_site_fract_x
_atom_site_fract_y
_atom_site_fract_z
Si Si1 0.431903 0.218809 0.321413
Si Si2 0.740719 0.562176 0.179530
Si Si3 0.116638 0.585411 0.323283
Si Si4 0.269121 0.575439 0.322441
Si Si5 0.819528 0.199893 0.680822
Si Si6 0.194331 0.219248 0.183053
Si Si7 0.380813 0.936457 0.180464
Si Si8 0.927494 0.695745 0.181412
O O1 0.426451 0.223721 0.500000
O O2 0.412822 0.144858 0.269684
O O3 0.383111 0.269783 0.247591
O O4 0.505390 0.228325 0.278932
O O5 0.715281 0.491235 0.233541
O O6 0.696089 0.623965 0.220478
O O7 0.809454 0.571592 0.256042
O O8 0.749668 0.562937 0.000000
O O9 0.101914 0.594964 0.500000
O O10 0.193233 0.587316 0.308243
O O11 0.096881 0.510863 0.278366
O O12 0.281433 0.565183 0.500000
O O13 0.303185 0.642566 0.270088
O O14 0.822786 0.204748 0.500000
O O15 0.758692 0.243565 0.730523
O O16 0.132558 0.260114 0.230424
O O17 0.194893 0.219055 0.000000
O O18 0.421611 0.876876 0.246708
O O19 0.378944 0.933546 0.000000
O O20 0.924476 0.688948 0.000000
#
# Coordination Sequence:
#
# PCOD9441866 Si02
#       8
#     8   8   8   8   8   8   8   8
#     4  11  23  34  50  78 108 136 172 223 262 296
#     4  10  19  32  53  79 106 136 167 209 264 312
#     4   9  18  33  50  71 104 141 177 206 247 314
#     4   9  17  31  53  78 101 130 170 215 254 300
#     4  10  19  35  57  75  99 141 177 205 254 315
#     4   9  16  33  57  75  97 136 177 208 251 313
#     4  10  20  33  51  76 103 137 178 215 249 298
#     4  10  21  37  53  74 106 141 175 212 264 313
#
# _framework density 16.919741999999999
#
# number of rings (size 3 to 8) (size 9 to 14) (size 15 to 20)
#    0.000    2.250    2.500    1.875    0.000    5.000 
#    0.000    3.125    0.000    0.750    0.000    5.250 
#    0.000    0.000    0.000    0.000    0.000    0.000 
#
# Total GULP energy -357045.631608 kJ/mol
# GULP energy per Si atom -5578.837994 kJ/mol
# Density = 1.688123 g / cm^3
# Si number density = 16.919742 Si / 1000 Ang^3
#
#
#
# Elastic Constant Matrix: (Units=GPa)
#
#
# Indices 1 2 3 4 5 6 
#
# 1 38.8685 17.1518 12.1961 0.0000 0.0000 0.0000
# 2 17.1518 85.3272 18.0744 0.0000 0.0000 0.0000
# 3 12.1961 18.0744 18.0626 0.0000 0.0000 0.0000
# 4 0.0000 0.0000 0.0000 20.5031 0.0000 0.0000
# 5 0.0000 0.0000 0.0000 0.0000 12.5970 0.0000
# 6 0.0000 0.0000 0.0000 0.0000 0.0000 17.5957
#
#
#
# Elastic Compliance Matrix: (Units=1/GPa)
#
#
# Indices 1 2 3 4 5 6 
#
# 1 0.033037 -0.002431 -0.019874 0.000000 0.000000 0.000000
# 2 -0.002431 0.015051 -0.013419 0.000000 0.000000 0.000000
# 3 -0.019874 -0.013419 0.082211 0.000000 0.000000 0.000000
# 4 0.000000 0.000000 0.000000 0.048773 0.000000 0.000000
# 5 0.000000 0.000000 0.000000 0.000000 0.079384 0.000000
# 6 0.000000 0.000000 0.000000 0.000000 0.000000 0.056832
#
#
# Mechanical properties :
#
#
# Convention : Reuss Voigt Hill
#
# Bulk Modulus (GPa) = 16.99262 26.34477 21.66870
# Shear Modulus (GPa) = 12.30459 16.46155 14.38307
#
# Velocity S-wave (km/s) = 2.69965 3.12255 2.91877
# Velocity P-wave (km/s) = 4.44774 5.34833 4.91869
#
# Compressibility (1/GPa) = 0.05884907
#
# Stress axis : x y z
#
# Youngs Moduli (GPa) = 30.26949 66.44177 12.16387
#
# Poissons Ratio (x) = 0.16151 0.24175
# Poissons Ratio (y) = 0.07358 0.16323
# Poissons Ratio (z) = 0.60158 0.89160
#
# Static dielectric constant tensor:
#      x y z
#    x 1.564250 0.000000 0.000000 
#    y 0.000000 1.577930 0.000000 
#    z 0.000000 0.000000 1.567630 
# 
# From -- ./inp_files/9471.got.cif
#   From: 2010.05.17/outbox.cif.g08.bks.cpg/sg58_5_cif.got.tgz:9471.got - 2010.06.03 14:20:14.
