data_PCOD9441069
_publ_section_title
;
Structure prediction by ZEFSAII (Michael W. Deem and Ramdas Pophale) SiO2 
 PCOD9441069
Probable space group: P N N M
;
_chemical_formula_sum "Si O2"
_cell_formula_units_Z 64
_cell_length_a 24.265934
_cell_length_b 11.527241
_cell_length_c 13.592840
_cell_angle_alpha 90.000000
_cell_angle_beta 90.000000
_cell_angle_gamma 90.000000
_cell_volume 3802.179273
_symmetry_space_group_name_H-M "P N N M"
_symmetry_group_IT_number 58
_symmetry_cell_setting 'orthorhombic'
loop_
_space_group_symop_operation_xyz
x,y,z
-x,-y,z
1/2+x,1/2-y,1/2-z
1/2-x,1/2+y,1/2-z
-x,-y,-z
x,y,-z
1/2-x,1/2+y,1/2+z
1/2+x,1/2-y,1/2+z
loop_
_atom_site_type_symbol
_atom_site_label
_atom_site_fract_x
_atom_site_fract_y
_atom_site_fract_z
Si Si1 0.029069 0.118501 0.618574
Si Si2 0.718916 0.238413 0.615632
Si Si3 0.165219 0.366872 0.706934
Si Si4 0.064114 0.487791 0.385343
Si Si5 0.654846 0.374079 0.117365
Si Si6 0.421921 0.254837 0.114398
Si Si7 0.323085 0.383374 0.210168
Si Si8 0.767662 0.012028 0.883803
O O1 0.033396 0.112904 0.500000
O O2 0.091200 0.129056 0.654206
O O3 0.985639 0.219685 0.639976
O O4 0.000000 0.000000 0.651895
O O5 0.716524 0.212559 0.500000
O O6 0.674671 0.166899 0.679733
O O7 0.777153 0.197802 0.660752
O O8 0.715006 0.377469 0.627718
O O9 0.104202 0.407107 0.677430
O O10 0.180144 0.247358 0.650645
O O11 0.208920 0.461945 0.668276
O O12 0.065105 0.447425 0.500000
O O13 0.088084 0.618208 0.381591
O O14 0.000000 0.500000 0.356782
O O15 0.681332 0.489410 0.161255
O O16 0.655685 0.381856 0.000000
O O17 0.381500 0.328077 0.182485
O O18 0.413735 0.293306 0.000000
O O19 0.309774 0.405702 0.324290
O O20 0.763755 0.036228 0.000000
#
# Coordination Sequence:
#
# PCOD9441069 Si02
#       8
#     8   8   8   8   8   8   8   8
#     4   9  16  26  42  68 105 137 162 198 249 303
#     4  10  21  37  54  72  99 135 177 217 255 307
#     4  11  21  34  54  77 103 137 175 210 263 312
#     4  10  20  34  53  79 111 143 171 205 254 319
#     4  11  19  29  46  76 109 133 163 212 258 304
#     4  10  18  30  49  74 106 141 169 201 250 307
#     4  11  20  31  51  77  99 133 175 212 257 307
#     4  10  21  38  54  72 102 139 177 217 261 311
#
# _framework density 16.832453000000001
#
# number of rings (size 3 to 8) (size 9 to 14) (size 15 to 20)
#    0.000    1.750    2.500    3.750    0.000    4.000 
#    0.000    0.000    0.000    0.375    0.000    4.375 
#    0.000    0.000    0.000    0.000    0.000    0.000 
#
# Total GULP energy -356962.416047 kJ/mol
# GULP energy per Si atom -5577.537751 kJ/mol
# Density = 1.679414 g / cm^3
# Si number density = 16.832453 Si / 1000 Ang^3
#
#
#
# Elastic Constant Matrix: (Units=GPa)
#
#
# Indices 1 2 3 4 5 6 
#
# 1 52.0210 7.4467 25.9804 0.0000 0.0000 0.0000
# 2 7.4467 54.6264 26.7308 0.0000 0.0000 0.0000
# 3 25.9804 26.7308 95.3199 0.0000 0.0000 0.0000
# 4 0.0000 0.0000 0.0000 23.2407 0.0000 0.0000
# 5 0.0000 0.0000 0.0000 0.0000 21.2161 0.0000
# 6 0.0000 0.0000 0.0000 0.0000 0.0000 28.1278
#
#
#
# Elastic Compliance Matrix: (Units=1/GPa)
#
#
# Indices 1 2 3 4 5 6 
#
# 1 0.022252 -0.000076 -0.006044 0.000000 0.000000 0.000000
# 2 -0.000076 0.021218 -0.005930 0.000000 0.000000 0.000000
# 3 -0.006044 -0.005930 0.013801 0.000000 0.000000 0.000000
# 4 0.000000 0.000000 0.000000 0.043028 0.000000 0.000000
# 5 0.000000 0.000000 0.000000 0.000000 0.047134 0.000000
# 6 0.000000 0.000000 0.000000 0.000000 0.000000 0.035552
#
#
# Mechanical properties :
#
#
# Convention : Reuss Voigt Hill
#
# Bulk Modulus (GPa) = 30.14509 35.80922 32.97716
# Shear Modulus (GPa) = 22.92088 23.97087 23.44587
#
# Velocity S-wave (km/s) = 3.69414 3.77780 3.73620
# Velocity P-wave (km/s) = 6.01193 6.35210 6.18435
#
# Compressibility (1/GPa) = 0.03317290
#
# Stress axis : x y z
#
# Youngs Moduli (GPa) = 44.93922 47.12965 72.45801
#
# Poissons Ratio (x) = 0.00358 0.43792
# Poissons Ratio (y) = 0.00342 0.42964
# Poissons Ratio (z) = 0.27160 0.27946
#
# Static dielectric constant tensor:
#      x y z
#    x 1.589500 0.000000 0.000000 
#    y 0.000000 1.604090 0.000000 
#    z 0.000000 0.000000 1.556400 
# 
# From -- ./inp_files/14845.got.cif
#   From: 2010.05.17/outbox.cif.g08.bks.cpg/sg58_8_cif.got.tgz:14845.got - 2010.06.03 14:20:14.
