data_PCOD9441271
_publ_section_title
;
Structure prediction by ZEFSAII (Michael W. Deem and Ramdas Pophale) SiO2 
 PCOD9441271
Probable space group: P N N M
;
_chemical_formula_sum "Si O2"
_cell_formula_units_Z 64
_cell_length_a 15.881182
_cell_length_b 24.620955
_cell_length_c 7.513401
_cell_angle_alpha 90.000000
_cell_angle_beta 90.000000
_cell_angle_gamma 90.000000
_cell_volume 2937.813928
_symmetry_space_group_name_H-M "P N N M"
_symmetry_group_IT_number 58
_symmetry_cell_setting 'orthorhombic'
loop_
_space_group_symop_operation_xyz
x,y,z
-x,-y,z
1/2+x,1/2-y,1/2-z
1/2-x,1/2+y,1/2-z
-x,-y,-z
x,y,-z
1/2-x,1/2+y,1/2+z
1/2+x,1/2-y,1/2+z
loop_
_atom_site_type_symbol
_atom_site_label
_atom_site_fract_x
_atom_site_fract_y
_atom_site_fract_z
Si Si1 0.090735 0.638975 0.782181
Si Si2 0.243657 0.451104 0.792238
Si Si3 0.646919 0.245259 0.785369
Si Si4 0.419661 0.641177 0.214707
Si Si5 0.892029 0.128099 0.791700
Si Si6 0.841604 0.246947 0.216865
Si Si7 0.743036 0.426532 0.218067
Si Si8 0.907014 0.622829 0.209909
O O1 0.104415 0.701354 0.724952
O O2 0.171949 0.604461 0.728544
O O3 0.001362 0.616410 0.718078
O O4 0.089435 0.638971 0.000000
O O5 0.328919 0.416289 0.784302
O O6 0.255184 0.511409 0.718284
O O7 0.167102 0.415097 0.715059
O O8 0.223977 0.459305 0.000000
O O9 0.592006 0.296478 0.722619
O O10 0.744063 0.254293 0.731993
O O11 0.617552 0.186075 0.726775
O O12 0.645127 0.245117 0.000000
O O13 0.509490 0.617415 0.267740
O O14 0.340093 0.605882 0.275940
O O15 0.417354 0.642238 0.000000
O O16 0.873105 0.188492 0.718836
O O17 0.872404 0.129688 0.000000
O O18 0.844353 0.246699 0.000000
O O19 0.740928 0.425776 0.000000
O O20 0.911886 0.611151 0.000000
#
# Coordination Sequence:
#
# PCOD9441271 Si02
#       8
#     8   8   8   8   8   8   8   8
#     4   9  16  30  53  80 106 134 172 214 262 316
#     4  10  21  36  53  78 108 139 180 225 264 302
#     4  10  18  32  55  79 105 139 176 211 258 324
#     4  10  20  35  57  81 104 135 178 224 263 309
#     4  11  22  36  56  79 108 144 175 213 268 325
#     4   9  16  29  51  77 103 135 171 205 252 318
#     4   9  18  34  55  76 103 140 179 220 264 311
#     4  10  20  32  52  82 113 139 169 218 266 310
#
# _framework density 21.784907
#
# number of rings (size 3 to 8) (size 9 to 14) (size 15 to 20)
#    0.000    2.250    2.500    1.125    0.000    2.500 
#    0.000    5.625    0.000    1.500    0.000    1.750 
#    0.000    0.000    0.000    0.000    0.000    0.000 
#
# Total GULP energy -357566.604230 kJ/mol
# GULP energy per Si atom -5586.978191 kJ/mol
# Density = 2.173532 g / cm^3
# Si number density = 21.784907 Si / 1000 Ang^3
#
#
#
# Elastic Constant Matrix: (Units=GPa)
#
#
# Indices 1 2 3 4 5 6 
#
# 1 96.5665 30.9034 -13.5562 0.0000 0.0000 0.0000
# 2 30.9034 131.6147 -5.3911 0.0000 0.0000 0.0000
# 3 -13.5562 -5.3911 54.6490 0.0000 0.0000 0.0000
# 4 0.0000 0.0000 0.0000 12.5015 0.0000 0.0000
# 5 0.0000 0.0000 0.0000 0.0000 0.2177 0.0000
# 6 0.0000 0.0000 0.0000 0.0000 0.0000 2.1375
#
#
#
# Elastic Compliance Matrix: (Units=1/GPa)
#
#
# Indices 1 2 3 4 5 6 
#
# 1 0.011556 -0.002606 0.002609 0.000000 0.000000 0.000000
# 2 -0.002606 0.008217 0.000164 0.000000 0.000000 0.000000
# 3 0.002609 0.000164 0.018962 0.000000 0.000000 0.000000
# 4 0.000000 0.000000 0.000000 0.079991 0.000000 0.000000
# 5 0.000000 0.000000 0.000000 0.000000 4.592894 0.000000
# 6 0.000000 0.000000 0.000000 0.000000 0.000000 0.467843
#
#
# Mechanical properties :
#
#
# Convention : Reuss Voigt Hill
#
# Bulk Modulus (GPa) = 25.59593 34.08248 29.83921
# Shear Modulus (GPa) = 0.96299 21.02961 10.99630
#
# Velocity S-wave (km/s) = 0.66559 3.11035 2.24914
# Velocity P-wave (km/s) = 3.51647 5.34584 4.52457
#
# Compressibility (1/GPa) = 0.03906871
#
# Stress axis : x y z
#
# Youngs Moduli (GPa) = 86.53509 121.70396 52.73679
#
# Poissons Ratio (x) = 0.31722 -0.13761
# Poissons Ratio (y) = 0.22555 -0.00865
# Poissons Ratio (z) = -0.22581 -0.01996
#
# Static dielectric constant tensor:
#      x y z
#    x 1.771730 0.000000 0.000000 
#    y 0.000000 1.767470 0.000000 
#    z 0.000000 0.000000 1.837410 
# 
# From -- ./inp_files/6819.got.cif
#   From: 2010.05.17/outbox.cif.g08.bks.cpg/sg58_4_cif.got.tgz:6819.got - 2010.06.03 14:20:14.
