data_PCOD9441265
_publ_section_title
;
Structure prediction by ZEFSAII (Michael W. Deem and Ramdas Pophale) SiO2 
 PCOD9441265
Probable space group: P N N M
;
_chemical_formula_sum "Si O2"
_cell_formula_units_Z 56
_cell_length_a 15.518277
_cell_length_b 11.364370
_cell_length_c 15.475686
_cell_angle_alpha 90.000000
_cell_angle_beta 90.000000
_cell_angle_gamma 90.000000
_cell_volume 2729.221438
_symmetry_space_group_name_H-M "P N N M"
_symmetry_group_IT_number 58
_symmetry_cell_setting 'orthorhombic'
loop_
_space_group_symop_operation_xyz
x,y,z
-x,-y,z
1/2+x,1/2-y,1/2-z
1/2-x,1/2+y,1/2-z
-x,-y,-z
x,y,-z
1/2-x,1/2+y,1/2+z
1/2+x,1/2-y,1/2+z
loop_
_atom_site_type_symbol
_atom_site_label
_atom_site_fract_x
_atom_site_fract_y
_atom_site_fract_z
Si Si1 0.406229 0.619763 0.370397
Si Si2 0.761471 0.127412 0.223029
Si Si3 0.613413 0.310544 0.184118
Si Si4 0.669579 0.537082 0.096928
Si Si5 0.553855 0.754702 0.099016
Si Si6 0.907751 0.154982 0.906061
Si Si7 0.279465 0.092411 0.900312
O O1 0.410698 0.611376 0.267120
O O2 0.491808 0.689101 0.397419
O O3 0.409413 0.487674 0.406772
O O4 0.311164 0.663547 0.395925
O O5 0.689032 0.225320 0.214106
O O6 0.776323 0.080910 0.320027
O O7 0.847447 0.179918 0.176167
O O8 0.733117 0.016550 0.163796
O O9 0.644868 0.401495 0.111676
O O10 0.531100 0.236041 0.155192
O O11 0.584900 0.619372 0.101042
O O12 0.706171 0.555270 0.000000
O O13 0.637653 0.830643 0.124224
O O14 0.533450 0.786038 0.000000
O O15 0.873928 0.195092 0.000000
O O16 0.290195 0.053800 0.000000
#
# Coordination Sequence:
#
# PCOD9441265 Si02
#       7
#     8   8   8   8   8   8   8
#     4  10  18  32  54  88 116 151 194 249 308 364
#     4  11  23  39  61  93 126 164 212 258 316 374
#     4  12  23  37  62  90 126 166 209 256 308 379
#     4  11  23  41  64  91 128 167 211 265 317 370
#     4  10  23  39  61  92 125 164 210 256 315 379
#     4  10  19  34  59  89 119 150 196 258 311 359
#     4  10  20  39  63  89 124 162 205 262 317 374
#
# _framework density 20.518671999999999
#
# number of rings (size 3 to 8) (size 9 to 14) (size 15 to 20)
#    0.000    1.429    2.857    5.571    2.000    4.000 
#    0.000    2.857    0.000    0.000    0.000    2.000 
#    0.000    0.429    0.000    0.000    0.000    0.000 
#
# Total GULP energy -312454.869237 kJ/mol
# GULP energy per Si atom -5579.551236 kJ/mol
# Density = 2.047197 g / cm^3
# Si number density = 20.518672 Si / 1000 Ang^3
#
#
#
# Elastic Constant Matrix: (Units=GPa)
#
#
# Indices 1 2 3 4 5 6 
#
# 1 90.2164 15.3459 35.0759 0.0000 0.0000 0.0000
# 2 15.3459 25.3256 19.1072 0.0000 0.0000 0.0000
# 3 35.0759 19.1072 142.0092 0.0000 0.0000 0.0000
# 4 0.0000 0.0000 0.0000 15.3261 0.0000 0.0000
# 5 0.0000 0.0000 0.0000 0.0000 19.2439 0.0000
# 6 0.0000 0.0000 0.0000 0.0000 0.0000 24.2684
#
#
#
# Elastic Compliance Matrix: (Units=1/GPa)
#
#
# Indices 1 2 3 4 5 6 
#
# 1 0.013056 -0.006097 -0.002405 0.000000 0.000000 0.000000
# 2 -0.006097 0.046794 -0.004790 0.000000 0.000000 0.000000
# 3 -0.002405 -0.004790 0.008280 0.000000 0.000000 0.000000
# 4 0.000000 0.000000 0.000000 0.065248 0.000000 0.000000
# 5 0.000000 0.000000 0.000000 0.000000 0.051964 0.000000
# 6 0.000000 0.000000 0.000000 0.000000 0.000000 0.041206
#
#
# Mechanical properties :
#
#
# Convention : Reuss Voigt Hill
#
# Bulk Modulus (GPa) = 24.06906 44.06768 34.06837
# Shear Modulus (GPa) = 18.72779 24.30249 21.51514
#
# Velocity S-wave (km/s) = 3.02440 3.44526 3.24167
# Velocity P-wave (km/s) = 4.89406 6.11146 5.53632
#
# Compressibility (1/GPa) = 0.04154712
#
# Stress axis : x y z
#
# Youngs Moduli (GPa) = 76.59023 21.37006 120.76992
#
# Poissons Ratio (x) = 0.13030 0.29039
# Poissons Ratio (y) = 0.46700 0.57850
# Poissons Ratio (z) = 0.18416 0.10236
#
# Static dielectric constant tensor:
#      x y z
#    x 1.782990 0.000000 0.000000 
#    y 0.000000 1.719030 0.000000 
#    z 0.000000 0.000000 1.786510 
# 
# From -- ./inp_files/22214.got.cif
#   From: 2010.05.17/outbox.cif.g08.bks.cpg/sg58_12_cif.got.tgz:22214.got - 2010.06.03 14:20:14.
