data_PCOD9441689
_publ_section_title
;
Structure prediction by ZEFSAII (Michael W. Deem and Ramdas Pophale) SiO2 
 PCOD9441689
Probable space group: P N N M
;
_chemical_formula_sum "Si O2"
_cell_formula_units_Z 64
_cell_length_a 9.706274
_cell_length_b 18.570434
_cell_length_c 22.194435
_cell_angle_alpha 90.000000
_cell_angle_beta 90.000000
_cell_angle_gamma 90.000000
_cell_volume 4000.540710
_symmetry_space_group_name_H-M "P N N M"
_symmetry_group_IT_number 58
_symmetry_cell_setting 'orthorhombic'
loop_
_space_group_symop_operation_xyz
x,y,z
-x,-y,z
1/2+x,1/2-y,1/2-z
1/2-x,1/2+y,1/2-z
-x,-y,-z
x,y,-z
1/2-x,1/2+y,1/2+z
1/2+x,1/2-y,1/2+z
loop_
_atom_site_type_symbol
_atom_site_label
_atom_site_fract_x
_atom_site_fract_y
_atom_site_fract_z
Si Si1 0.689273 0.057135 0.929741
Si Si2 0.601091 0.434464 0.238867
Si Si3 0.314078 0.589373 0.624907
Si Si4 0.476959 0.135681 0.842503
Si Si5 0.061366 0.829385 0.067412
Si Si6 0.418972 0.223075 0.677580
Si Si7 0.082886 0.568494 0.212057
Si Si8 0.605509 0.272304 0.215353
O O1 0.565209 0.089009 0.889702
O O2 0.811004 0.115862 0.927580
O O3 0.751111 0.984460 0.901119
O O4 0.348786 0.953855 0.000000
O O5 0.500000 0.500000 0.224564
O O6 0.609330 0.423956 0.311370
O O7 0.757489 0.451067 0.220061
O O8 0.566808 0.356739 0.209381
O O9 0.181627 0.639381 0.637361
O O10 0.423382 0.625517 0.580952
O O11 0.472541 0.094598 0.777897
O O12 0.542194 0.214344 0.831155
O O13 0.078365 0.768325 0.117188
O O14 0.057951 0.799969 0.000000
O O15 0.431505 0.137716 0.669830
O O16 0.541574 0.249376 0.720733
O O17 0.271215 0.233406 0.711138
O O18 0.000000 0.500000 0.191333
#
# Coordination Sequence:
#
# PCOD9441689 Si02
#       8
#     8   8   8   8   8   8   8   8
#     4  11  22  35  53  73 102 148 187 215 256 308
#     4  10  19  31  50  76 106 134 170 209 265 315
#     4  11  21  33  48  77 106 142 180 218 254 301
#     4  10  20  35  52  72 111 141 176 220 259 307
#     4  11  22  36  52  74 106 143 181 220 259 306
#     4  10  20  35  55  76 104 136 176 218 262 316
#     4   9  19  33  50  78 103 132 165 214 269 314
#     4  10  20  34  53  78 104 138 177 216 262 318
#
# _framework density 15.997837000000001
#
# number of rings (size 3 to 8) (size 9 to 14) (size 15 to 20)
#    0.000    1.750    2.500    4.125    0.000    4.500 
#    0.000    0.000    0.000    0.375    0.000    0.000 
#    0.000    3.000    0.000    0.000    0.000    0.000 
#
# Total GULP energy -357096.909120 kJ/mol
# GULP energy per Si atom -5579.639205 kJ/mol
# Density = 1.596143 g / cm^3
# Si number density = 15.997837 Si / 1000 Ang^3
#
#
#
# Elastic Constant Matrix: (Units=GPa)
#
#
# Indices 1 2 3 4 5 6 
#
# 1 68.4396 53.4406 23.9292 0.0000 0.0000 0.0000
# 2 53.4406 113.7083 38.7534 0.0000 0.0000 0.0000
# 3 23.9292 38.7534 61.5949 0.0000 0.0000 0.0000
# 4 0.0000 0.0000 0.0000 16.0914 0.0000 0.0000
# 5 0.0000 0.0000 0.0000 0.0000 15.7796 0.0000
# 6 0.0000 0.0000 0.0000 0.0000 0.0000 30.1340
#
#
#
# Elastic Compliance Matrix: (Units=1/GPa)
#
#
# Indices 1 2 3 4 5 6 
#
# 1 0.023448 -0.010076 -0.002770 0.000000 0.000000 0.000000
# 2 -0.010076 0.015525 -0.005853 0.000000 0.000000 0.000000
# 3 -0.002770 -0.005853 0.020994 0.000000 0.000000 0.000000
# 4 0.000000 0.000000 0.000000 0.062145 0.000000 0.000000
# 5 0.000000 0.000000 0.000000 0.000000 0.063373 0.000000
# 6 0.000000 0.000000 0.000000 0.000000 0.000000 0.033185
#
#
# Mechanical properties :
#
#
# Convention : Reuss Voigt Hill
#
# Bulk Modulus (GPa) = 44.30999 52.88769 48.59884
# Shear Modulus (GPa) = 18.96884 20.90896 19.93890
#
# Velocity S-wave (km/s) = 3.44715 3.61915 3.53420
# Velocity P-wave (km/s) = 6.60314 7.11304 6.86283
#
# Compressibility (1/GPa) = 0.02256828
#
# Stress axis : x y z
#
# Youngs Moduli (GPa) = 42.64840 64.41311 47.63304
#
# Poissons Ratio (x) = 0.64902 0.13193
# Poissons Ratio (y) = 0.42972 0.27881
# Poissons Ratio (z) = 0.11813 0.37703
#
# Static dielectric constant tensor:
#      x y z
#    x 1.543550 0.000000 0.000000 
#    y 0.000000 1.539010 0.000000 
#    z 0.000000 0.000000 1.525850 
# 
# From -- ./inp_files/29107.got.cif
#   From: 2010.05.17/outbox.cif.g08.bks.cpg/sg58_15_cif.got.tgz:29107.got - 2010.06.03 14:20:14.
