data_PCOD9441130
_publ_section_title
;
Structure prediction by ZEFSAII (Michael W. Deem and Ramdas Pophale) SiO2 
 PCOD9441130
Probable space group: P N N M
;
_chemical_formula_sum "Si O2"
_cell_formula_units_Z 64
_cell_length_a 27.308108
_cell_length_b 13.892500
_cell_length_c 10.275098
_cell_angle_alpha 90.000000
_cell_angle_beta 90.000000
_cell_angle_gamma 90.000000
_cell_volume 3898.145003
_symmetry_space_group_name_H-M "P N N M"
_symmetry_group_IT_number 58
_symmetry_cell_setting 'orthorhombic'
loop_
_space_group_symop_operation_xyz
x,y,z
-x,-y,z
1/2+x,1/2-y,1/2-z
1/2-x,1/2+y,1/2-z
-x,-y,-z
x,y,-z
1/2-x,1/2+y,1/2+z
1/2+x,1/2-y,1/2+z
loop_
_atom_site_type_symbol
_atom_site_label
_atom_site_fract_x
_atom_site_fract_y
_atom_site_fract_z
Si Si1 0.142816 0.519131 0.642510
Si Si2 0.678622 0.278233 0.350490
Si Si3 0.085493 0.644873 0.154724
Si Si4 0.761083 0.409951 0.241322
Si Si5 0.500076 0.883302 0.151582
Si Si6 0.762926 0.118088 0.355440
Si Si7 0.679250 0.729194 0.644905
Si Si8 0.109672 0.305468 0.646501
O O1 0.121980 0.547405 0.500000
O O2 0.112812 0.559763 0.765158
O O3 0.197264 0.560206 0.655279
O O4 0.140720 0.404530 0.647011
O O5 0.663402 0.288223 0.500000
O O6 0.712802 0.366384 0.306034
O O7 0.714738 0.185095 0.341983
O O8 0.633483 0.262182 0.253966
O O9 0.036515 0.658070 0.239196
O O10 0.123973 0.732927 0.164008
O O11 0.078059 0.624947 0.000000
O O12 0.750204 0.506835 0.163116
O O13 0.786417 0.324248 0.159469
O O14 0.445791 0.840439 0.170744
O O15 0.500000 0.000000 0.165127
O O16 0.513632 0.863049 0.000000
O O17 0.782388 0.135629 0.500000
O O18 0.801606 0.154556 0.250155
O O19 0.684649 0.690067 0.500000
O O20 0.112534 0.264684 0.500000
#
# Coordination Sequence:
#
# PCOD9441130 Si02
#       8
#     8   8   8   8   8   8   8   8
#     4  10  18  31  50  69  95 134 172 204 242 294
#     4  10  21  34  48  73 104 134 172 214 250 294
#     4  10  20  32  48  72  99 130 165 207 253 297
#     4  10  19  33  51  75  99 138 175 211 250 295
#     4  10  19  33  50  71  98 131 171 208 248 309
#     4  10  20  33  51  74 101 133 173 214 252 293
#     4   9  20  34  49  72 103 134 169 207 251 303
#     4  10  20  33  49  71  98 134 169 204 250 297
#
# _framework density 16.418066
#
# number of rings (size 3 to 8) (size 9 to 14) (size 15 to 20)
#    0.000    2.125    2.500    1.125    0.000    8.750 
#    0.000    0.000    0.000    0.000    0.000    0.875 
#    0.000    6.000    0.000    0.000    0.000    0.000 
#
# Total GULP energy -356634.316381 kJ/mol
# GULP energy per Si atom -5572.411193 kJ/mol
# Density = 1.638070 g / cm^3
# Si number density = 16.418066 Si / 1000 Ang^3
#
#
#
# Elastic Constant Matrix: (Units=GPa)
#
#
# Indices 1 2 3 4 5 6 
#
# 1 58.2639 11.5069 57.9973 0.0000 0.0000 0.0000
# 2 11.5069 34.8572 16.3721 0.0000 0.0000 0.0000
# 3 57.9973 16.3721 135.1327 0.0000 0.0000 0.0000
# 4 0.0000 0.0000 0.0000 14.3851 0.0000 0.0000
# 5 0.0000 0.0000 0.0000 0.0000 23.7856 0.0000
# 6 0.0000 0.0000 0.0000 0.0000 0.0000 20.8230
#
#
#
# Elastic Compliance Matrix: (Units=1/GPa)
#
#
# Indices 1 2 3 4 5 6 
#
# 1 0.030524 -0.004160 -0.012596 0.000000 0.000000 0.000000
# 2 -0.004160 0.030986 -0.001969 0.000000 0.000000 0.000000
# 3 -0.012596 -0.001969 0.013045 0.000000 0.000000 0.000000
# 4 0.000000 0.000000 0.000000 0.069516 0.000000 0.000000
# 5 0.000000 0.000000 0.000000 0.000000 0.042042 0.000000
# 6 0.000000 0.000000 0.000000 0.000000 0.000000 0.048024
#
#
# Mechanical properties :
#
#
# Convention : Reuss Voigt Hill
#
# Bulk Modulus (GPa) = 26.95073 44.44517 35.69795
# Shear Modulus (GPa) = 17.60837 21.29057 19.44947
#
# Velocity S-wave (km/s) = 3.27846 3.60499 3.44559
# Velocity P-wave (km/s) = 5.54815 6.66765 6.13349
#
# Compressibility (1/GPa) = 0.03710474
#
# Stress axis : x y z
#
# Youngs Moduli (GPa) = 32.76157 32.27213 76.65860
#
# Poissons Ratio (x) = 0.13425 0.96562
# Poissons Ratio (y) = 0.13629 0.15092
# Poissons Ratio (z) = 0.41268 0.06354
#
# Static dielectric constant tensor:
#      x y z
#    x 1.565720 0.000000 0.000000 
#    y 0.000000 1.532590 0.000000 
#    z 0.000000 0.000000 1.572770 
# 
# From -- ./inp_files/11155.got.cif
#   From: 2010.05.17/outbox.cif.g08.bks.cpg/sg58_6_cif.got.tgz:11155.got - 2010.06.03 14:20:14.
