data_PCOD9441113
_publ_section_title
;
Structure prediction by ZEFSAII (Michael W. Deem and Ramdas Pophale) SiO2 
 PCOD9441113
Probable space group: P N N M
;
_chemical_formula_sum "Si O2"
_cell_formula_units_Z 40
_cell_length_a 18.204984
_cell_length_b 11.399586
_cell_length_c 7.647249
_cell_angle_alpha 90.000000
_cell_angle_beta 90.000000
_cell_angle_gamma 90.000000
_cell_volume 1587.028085
_symmetry_space_group_name_H-M "P N N M"
_symmetry_group_IT_number 58
_symmetry_cell_setting 'orthorhombic'
loop_
_space_group_symop_operation_xyz
x,y,z
-x,-y,z
1/2+x,1/2-y,1/2-z
1/2-x,1/2+y,1/2-z
-x,-y,-z
x,y,-z
1/2-x,1/2+y,1/2+z
1/2+x,1/2-y,1/2+z
loop_
_atom_site_type_symbol
_atom_site_label
_atom_site_fract_x
_atom_site_fract_y
_atom_site_fract_z
Si Si1 0.191529 0.400623 0.710253
Si Si2 0.597361 0.423155 0.300052
Si Si3 0.246083 0.657389 0.710236
Si Si4 0.974221 0.627985 0.286530
Si Si5 0.443180 0.337194 0.804559
O O1 0.188714 0.405966 0.500000
O O2 0.202799 0.537720 0.769098
O O3 0.252749 0.298684 0.750650
O O4 0.110248 0.357830 0.772450
O O5 0.585860 0.385460 0.500000
O O6 0.672376 0.376127 0.227632
O O7 0.598908 0.563731 0.298129
O O8 0.527682 0.383106 0.190869
O O9 0.241787 0.652131 0.500000
O O10 0.974725 0.640310 0.500000
O O11 0.000000 0.500000 0.242031
O O12 0.039903 0.712405 0.222777
O O13 0.412875 0.327625 0.000000
#
# Coordination Sequence:
#
# PCOD9441113 Si02
#       5
#     8   8   8   8   8
#     4  10  21  39  60  82 112 151 191 236 286 336
#     4  10  19  32  51  76 109 142 172 219 275 326
#     4  10  22  38  58  84 115 152 193 234 286 346
#     4   9  18  33  54  80 109 139 177 229 281 325
#     4  10  18  30  53  82 104 135 182 222 263 322
#
# _framework density 25.204342
#
# number of rings (size 3 to 8) (size 9 to 14) (size 15 to 20)
#    0.000    2.200    2.000    2.400    0.000    3.200 
#    0.000    2.000    0.000    5.400    0.000    0.000 
#    0.000    0.000    0.000    0.000    0.000    0.000 
#
# Total GULP energy -222871.309334 kJ/mol
# GULP energy per Si atom -5571.782733 kJ/mol
# Density = 2.514698 g / cm^3
# Si number density = 25.204342 Si / 1000 Ang^3
#
#
#
# Elastic Constant Matrix: (Units=GPa)
#
#
# Indices 1 2 3 4 5 6 
#
# 1 17.2633 14.4015 -1.4278 0.0000 0.0000 0.0000
# 2 14.4015 170.2035 5.0530 0.0000 0.0000 0.0000
# 3 -1.4278 5.0530 59.7485 0.0000 0.0000 0.0000
# 4 0.0000 0.0000 0.0000 25.1071 0.0000 0.0000
# 5 0.0000 0.0000 0.0000 0.0000 11.9049 0.0000
# 6 0.0000 0.0000 0.0000 0.0000 0.0000 45.4548
#
#
#
# Elastic Compliance Matrix: (Units=1/GPa)
#
#
# Indices 1 2 3 4 5 6 
#
# 1 0.062551 -0.005350 0.001947 0.000000 0.000000 0.000000
# 2 -0.005350 0.006348 -0.000665 0.000000 0.000000 0.000000
# 3 0.001947 -0.000665 0.016840 0.000000 0.000000 0.000000
# 4 0.000000 0.000000 0.000000 0.039829 0.000000 0.000000
# 5 0.000000 0.000000 0.000000 0.000000 0.083999 0.000000
# 6 0.000000 0.000000 0.000000 0.000000 0.000000 0.022000
#
#
# Mechanical properties :
#
#
# Convention : Reuss Voigt Hill
#
# Bulk Modulus (GPa) = 12.88621 31.47430 22.18026
# Shear Modulus (GPa) = 18.82745 31.77259 25.30002
#
# Velocity S-wave (km/s) = 2.73608 3.55434 3.17171
# Velocity P-wave (km/s) = 3.88656 5.41842 4.71511
#
# Compressibility (1/GPa) = 0.07760233
#
# Stress axis : x y z
#
# Youngs Moduli (GPa) = 15.98701 157.53557 59.38393
#
# Poissons Ratio (x) = 0.84289 -0.11564
# Poissons Ratio (y) = 0.08554 0.03947
# Poissons Ratio (z) = -0.03113 0.10471
#
# Static dielectric constant tensor:
#      x y z
#    x 2.003660 0.000000 0.000000 
#    y 0.000000 2.197750 0.000000 
#    z 0.000000 0.000000 1.898040 
# 
# From -- ./inp_files/8788.got.cif
#   From: 2010.05.17/outbox.cif.g08.bks.cpg/sg58_5_cif.got.tgz:8788.got - 2010.06.03 14:20:14.
