data_PCOD9441413
_publ_section_title
;
Structure prediction by ZEFSAII (Michael W. Deem and Ramdas Pophale) SiO2 
 PCOD9441413
Probable space group: P N N M
;
_chemical_formula_sum "Si O2"
_cell_formula_units_Z 54
_cell_length_a 11.343062
_cell_length_b 13.928099
_cell_length_c 15.520112
_cell_angle_alpha 90.000000
_cell_angle_beta 90.000000
_cell_angle_gamma 90.000000
_cell_volume 2451.980443
_symmetry_space_group_name_H-M "P N N M"
_symmetry_group_IT_number 58
_symmetry_cell_setting 'orthorhombic'
loop_
_space_group_symop_operation_xyz
x,y,z
-x,-y,z
1/2+x,1/2-y,1/2-z
1/2-x,1/2+y,1/2-z
-x,-y,-z
x,y,-z
1/2-x,1/2+y,1/2+z
1/2+x,1/2-y,1/2+z
loop_
_atom_site_type_symbol
_atom_site_label
_atom_site_fract_x
_atom_site_fract_y
_atom_site_fract_z
Si Si1 0.000000 0.500000 0.854618
Si Si2 0.811281 0.580879 0.267010
Si Si3 0.921357 0.124441 0.338973
Si Si4 0.984873 0.137246 0.844937
Si Si5 0.355861 0.179276 0.403458
Si Si6 0.500000 0.500000 0.000000
Si Si7 0.193195 0.029805 0.903140
Si Si8 0.110130 0.259114 0.600634
O O1 0.080994 0.435861 0.794591
O O2 0.086530 0.574704 0.900944
O O3 0.705123 0.618537 0.206865
O O4 0.778460 0.485126 0.321643
O O5 0.846113 0.656048 0.339936
O O6 0.001988 0.104791 0.254073
O O7 0.981779 0.221780 0.373211
O O8 0.928373 0.056861 0.422174
O O9 0.926478 0.242333 0.847146
O O10 0.893681 0.062952 0.889963
O O11 0.109463 0.122156 0.891121
O O12 0.369975 0.218720 0.500000
O O13 0.214653 0.179082 0.387626
O O14 0.242770 0.027566 0.000000
O O15 0.109314 0.283987 0.500000
#
# Coordination Sequence:
#
# PCOD9441413 Si02
#       8
#     4   8   8   8   8   2   8   8
#     4  12  29  46  61  98 144 194 230 285 362 429
#     4  11  25  45  70  97 144 184 236 287 360 431
#     4  11  23  40  66 102 133 185 229 297 347 431
#     4  10  19  36  66  99 136 176 233 287 352 412
#     4  11  23  43  69  99 138 186 233 291 354 428
#     4  12  24  40  64 110 150 170 246 306 370 422
#     4  10  18  34  63 103 132 172 230 292 343 406
#     4  11  23  44  73 104 134 185 240 297 356 427
#
# _framework density 22.023015000000001
#
# number of rings (size 3 to 8) (size 9 to 14) (size 15 to 20)
#    0.000    1.185    3.704    5.111    4.148    0.000 
#    1.333    1.481    0.000    0.000    0.000    0.000 
#    0.000    0.000    0.000    0.000    0.000    0.000 
#
# Total GULP energy -300652.458915 kJ/mol
# GULP energy per Si atom -5567.638128 kJ/mol
# Density = 2.197289 g / cm^3
# Si number density = 22.023015 Si / 1000 Ang^3
#
#
#
# Elastic Constant Matrix: (Units=GPa)
#
#
# Indices 1 2 3 4 5 6 
#
# 1 64.0003 7.6922 40.0612 0.0000 0.0000 0.0000
# 2 7.6922 38.8062 19.9195 0.0000 0.0000 0.0000
# 3 40.0612 19.9195 165.6539 0.0000 0.0000 0.0000
# 4 0.0000 0.0000 0.0000 -10.8019 0.0000 0.0000
# 5 0.0000 0.0000 0.0000 0.0000 -47.6252 0.0000
# 6 0.0000 0.0000 0.0000 0.0000 0.0000 13.8172
#
#
#
# Elastic Compliance Matrix: (Units=1/GPa)
#
#
# Indices 1 2 3 4 5 6 
#
# 1 0.018489 -0.001460 -0.004296 0.000000 0.000000 0.000000
# 2 -0.001460 0.027580 -0.002963 0.000000 0.000000 0.000000
# 3 -0.004296 -0.002963 0.007432 0.000000 0.000000 0.000000
# 4 0.000000 0.000000 0.000000 -0.092576 0.000000 0.000000
# 5 0.000000 0.000000 0.000000 0.000000 -0.020997 0.000000
# 6 0.000000 0.000000 0.000000 0.000000 0.000000 0.072374
#
#
# Mechanical properties :
#
#
# Convention : Reuss Voigt Hill
#
# Bulk Modulus (GPa) = 27.72946 44.86735 36.29841
# Shear Modulus (GPa) = 119.73092 4.46385 62.09738
#
# Velocity S-wave (km/s) = 7.38135 1.42524 5.31581
# Velocity P-wave (km/s) = 9.23386 4.80890 7.36172
#
# Compressibility (1/GPa) = 0.03606273
#
# Stress axis : x y z
#
# Youngs Moduli (GPa) = 54.08501 36.25875 134.55480
#
# Poissons Ratio (x) = 0.05293 0.57803
# Poissons Ratio (y) = 0.07896 0.39873
# Poissons Ratio (z) = 0.23234 0.10745
#
# Static dielectric constant tensor:
#      x y z
#    x 1.838990 0.000000 0.000000 
#    y 0.000000 1.847660 0.000000 
#    z 0.000000 0.000000 1.783440 
# 
# From -- ./inp_files/21307.got.cif
#   From: 2010.05.17/outbox.cif.g08.bks.cpg/sg58_11_cif.got.tgz:21307.got - 2010.06.03 14:20:14.
