data_PCOD9441058
_publ_section_title
;
Structure prediction by ZEFSAII (Michael W. Deem and Ramdas Pophale) SiO2 
 PCOD9441058
Probable space group: P N N M
;
_chemical_formula_sum "Si O2"
_cell_formula_units_Z 48
_cell_length_a 9.665174
_cell_length_b 10.153705
_cell_length_c 25.059588
_cell_angle_alpha 90.000000
_cell_angle_beta 90.000000
_cell_angle_gamma 90.000000
_cell_volume 2459.280946
_symmetry_space_group_name_H-M "P N N M"
_symmetry_group_IT_number 58
_symmetry_cell_setting 'orthorhombic'
loop_
_space_group_symop_operation_xyz
x,y,z
-x,-y,z
1/2+x,1/2-y,1/2-z
1/2-x,1/2+y,1/2-z
-x,-y,-z
x,y,-z
1/2-x,1/2+y,1/2+z
1/2+x,1/2-y,1/2+z
loop_
_atom_site_type_symbol
_atom_site_label
_atom_site_fract_x
_atom_site_fract_y
_atom_site_fract_z
Si Si1 0.720988 0.484184 0.828269
Si Si2 0.585507 0.114425 0.749173
Si Si3 0.326853 0.799609 0.147299
Si Si4 0.667470 0.986943 0.060208
Si Si5 0.597198 0.388314 0.716314
Si Si6 0.341262 0.229035 0.140826
O O1 0.859717 0.540567 0.802820
O O2 0.726654 0.348514 0.860356
O O3 0.639012 0.445706 0.774125
O O4 0.665404 0.612603 0.858300
O O5 0.703862 0.152489 0.792249
O O6 0.518919 0.251077 0.730357
O O7 0.500000 0.000000 0.776990
O O8 0.283437 0.901458 0.101903
O O9 0.495298 0.796592 0.149129
O O10 0.500000 0.000000 0.058373
O O11 0.697753 0.845243 0.086274
O O12 0.719512 0.002102 0.000000
O O13 0.500000 0.500000 0.690163
O O14 0.733680 0.335791 0.684075
#
# Coordination Sequence:
#
# PCOD9441058 Si02
#       6
#     8   8   8   8   8   8
#     4  10  19  30  46  70 100 132 161 190 232 287
#     4  10  19  30  45  70 102 134 162 192 234 284
#     4  10  18  30  48  69  98 129 160 196 237 286
#     4   9  18  32  50  70  90 117 156 200 244 288
#     4  10  20  30  46  71 100 130 163 197 232 287
#     4  10  19  32  48  68  96 129 160 197 243 284
#
# _framework density 19.517900999999998
#
# number of rings (size 3 to 8) (size 9 to 14) (size 15 to 20)
#    0.000    2.167    0.000    6.000    0.000    4.000 
#    0.000    0.833    0.000    4.500    0.000    0.000 
#    0.000    6.000    0.000    0.000    0.000    0.000 
#
# Total GULP energy -267315.661651 kJ/mol
# GULP energy per Si atom -5569.076284 kJ/mol
# Density = 1.947348 g / cm^3
# Si number density = 19.517901 Si / 1000 Ang^3
#
#
#
# Elastic Constant Matrix: (Units=GPa)
#
#
# Indices 1 2 3 4 5 6 
#
# 1 34.8239 28.6987 5.7716 0.0000 0.0000 0.0000
# 2 28.6987 198.7294 54.7634 0.0000 0.0000 0.0000
# 3 5.7716 54.7634 86.9330 0.0000 0.0000 0.0000
# 4 0.0000 0.0000 0.0000 14.3850 0.0000 0.0000
# 5 0.0000 0.0000 0.0000 0.0000 12.5352 0.0000
# 6 0.0000 0.0000 0.0000 0.0000 0.0000 25.0190
#
#
#
# Elastic Compliance Matrix: (Units=1/GPa)
#
#
# Indices 1 2 3 4 5 6 
#
# 1 0.032663 -0.004985 0.000972 0.000000 0.000000 0.000000
# 2 -0.004985 0.006850 -0.003984 0.000000 0.000000 0.000000
# 3 0.000972 -0.003984 0.013948 0.000000 0.000000 0.000000
# 4 0.000000 0.000000 0.000000 0.069517 0.000000 0.000000
# 5 0.000000 0.000000 0.000000 0.000000 0.079775 0.000000
# 6 0.000000 0.000000 0.000000 0.000000 0.000000 0.039970
#
#
# Mechanical properties :
#
#
# Convention : Reuss Voigt Hill
#
# Bulk Modulus (GPa) = 26.69048 55.43932 41.06490
# Shear Modulus (GPa) = 18.43619 25.80468 22.12043
#
# Velocity S-wave (km/s) = 3.07673 3.64002 3.37017
# Velocity P-wave (km/s) = 5.13091 6.79208 6.01908
#
# Compressibility (1/GPa) = 0.03746655
#
# Stress axis : x y z
#
# Youngs Moduli (GPa) = 30.61595 145.99272 71.69320
#
# Poissons Ratio (x) = 0.72771 -0.06965
# Poissons Ratio (y) = 0.15261 0.28563
# Poissons Ratio (z) = -0.02974 0.58164
#
# Static dielectric constant tensor:
#      x y z
#    x 1.839960 0.000000 0.000000 
#    y 0.000000 1.790420 0.000000 
#    z 0.000000 0.000000 1.688420 
# 
# From -- ./inp_files/31885.got.cif
#   From: 2010.05.17/outbox.cif.g08.bks.cpg/sg58_16_cif.got.tgz:31885.got - 2010.06.03 14:20:14.
