data_PCOD9441890
_publ_section_title
;
Structure prediction by ZEFSAII (Michael W. Deem and Ramdas Pophale) SiO2 
 PCOD9441890
Probable space group: P N N M
;
_chemical_formula_sum "Si O2"
_cell_formula_units_Z 64
_cell_length_a 11.171072
_cell_length_b 35.334992
_cell_length_c 9.385997
_cell_angle_alpha 90.000000
_cell_angle_beta 90.000000
_cell_angle_gamma 90.000000
_cell_volume 3704.932153
_symmetry_space_group_name_H-M "P N N M"
_symmetry_group_IT_number 58
_symmetry_cell_setting 'orthorhombic'
loop_
_space_group_symop_operation_xyz
x,y,z
-x,-y,z
1/2+x,1/2-y,1/2-z
1/2-x,1/2+y,1/2-z
-x,-y,-z
x,y,-z
1/2-x,1/2+y,1/2+z
1/2+x,1/2-y,1/2+z
loop_
_atom_site_type_symbol
_atom_site_label
_atom_site_fract_x
_atom_site_fract_y
_atom_site_fract_z
Si Si1 0.729329 0.066156 0.828185
Si Si2 0.344803 0.644341 0.331955
Si Si3 0.384090 0.362606 0.672676
Si Si4 0.246436 0.078885 0.337174
Si Si5 0.138555 0.010931 0.165686
Si Si6 0.129615 0.234075 0.169642
Si Si7 0.508772 0.043494 0.336248
Si Si8 0.850255 0.224491 0.172922
O O1 0.803302 0.102685 0.778022
O O2 0.598369 0.066086 0.763101
O O3 0.788922 0.026178 0.784930
O O4 0.727624 0.066692 0.000000
O O5 0.328834 0.636852 0.500000
O O6 0.478067 0.631381 0.287804
O O7 0.256282 0.619106 0.240796
O O8 0.342870 0.689355 0.311923
O O9 0.381560 0.362670 0.500000
O O10 0.347463 0.320088 0.714129
O O11 0.207061 0.082852 0.500000
O O12 0.166677 0.048107 0.254964
O O13 0.378989 0.061795 0.334600
O O14 0.169850 0.018310 0.000000
O O15 0.000000 0.000000 0.171864
O O16 0.235084 0.255736 0.254493
O O17 0.987009 0.238997 0.209641
O O18 0.138015 0.242558 0.000000
O O19 0.553294 0.042914 0.500000
O O20 0.500000 0.000000 0.287256
O O21 0.841335 0.227276 0.000000
#
# Coordination Sequence:
#
# PCOD9441890 Si02
#       8
#     8   8   8   8   8   8   8   8
#     4  10  19  32  54  78  98 127 176 221 251 302
#     4   9  18  36  59  78 105 139 172 216 264 312
#     4   8  16  34  57  80 105 135 171 214 266 310
#     4  11  22  35  52  74 102 137 176 215 260 315
#     4  10  20  33  52  77 102 131 168 214 263 307
#     4   9  19  36  58  85 113 146 184 221 271 328
#     4  10  21  38  52  65 100 146 174 206 264 314
#     4   9  18  35  59  83 113 149 180 219 270 327
#
# _framework density 17.274270999999999
#
# number of rings (size 3 to 8) (size 9 to 14) (size 15 to 20)
#    0.000    2.500    1.250    2.625    0.000    4.500 
#    2.250    4.375    0.000    0.000    0.000    0.000 
#    0.000    0.000    0.000    0.000    0.000    0.000 
#
# Total GULP energy -356590.226473 kJ/mol
# GULP energy per Si atom -5571.722289 kJ/mol
# Density = 1.723495 g / cm^3
# Si number density = 17.274271 Si / 1000 Ang^3
#
#
#
# Elastic Constant Matrix: (Units=GPa)
#
#
# Indices 1 2 3 4 5 6 
#
# 1 50.4484 25.9595 20.0920 0.0000 0.0000 0.0000
# 2 25.9595 55.2631 26.9822 0.0000 0.0000 0.0000
# 3 20.0920 26.9822 32.7501 0.0000 0.0000 0.0000
# 4 0.0000 0.0000 0.0000 21.8730 0.0000 0.0000
# 5 0.0000 0.0000 0.0000 0.0000 350.5287 0.0000
# 6 0.0000 0.0000 0.0000 0.0000 0.0000 31.9870
#
#
#
# Elastic Compliance Matrix: (Units=1/GPa)
#
#
# Indices 1 2 3 4 5 6 
#
# 1 0.028214 -0.008034 -0.010690 0.000000 0.000000 0.000000
# 2 -0.008034 0.032560 -0.021897 0.000000 0.000000 0.000000
# 3 -0.010690 -0.021897 0.055134 0.000000 0.000000 0.000000
# 4 0.000000 0.000000 0.000000 0.045719 0.000000 0.000000
# 5 0.000000 0.000000 0.000000 0.000000 0.002853 0.000000
# 6 0.000000 0.000000 0.000000 0.000000 0.000000 0.031263
#
#
# Mechanical properties :
#
#
# Convention : Reuss Voigt Hill
#
# Bulk Modulus (GPa) = 28.84735 31.61434 30.23084
# Shear Modulus (GPa) = 17.32865 85.23959 51.28412
#
# Velocity S-wave (km/s) = 3.17069 7.03221 5.45459
# Velocity P-wave (km/s) = 5.49001 9.18025 7.56364
#
# Compressibility (1/GPa) = 0.03466523
#
# Stress axis : x y z
#
# Youngs Moduli (GPa) = 35.44365 30.71210 18.13777
#
# Poissons Ratio (x) = 0.24673 0.19390
# Poissons Ratio (y) = 0.28475 0.39717
# Poissons Ratio (z) = 0.37890 0.67251
#
# Static dielectric constant tensor:
#      x y z
#    x 1.590650 0.000000 0.000000 
#    y 0.000000 1.581070 0.000000 
#    z 0.000000 0.000000 1.588640 
# 
# From -- ./inp_files/4702.got.cif
#   From: 2010.05.17/outbox.cif.g08.bks.cpg/sg58_3_cif.got.tgz:4702.got - 2010.06.03 14:20:14.
