data_PCOD9441623
_publ_section_title
;
Structure prediction by ZEFSAII (Michael W. Deem and Ramdas Pophale) SiO2 
 PCOD9441623
Probable space group: P N N M
;
_chemical_formula_sum "Si O2"
_cell_formula_units_Z 48
_cell_length_a 24.498411
_cell_length_b 14.172519
_cell_length_c 8.482377
_cell_angle_alpha 90.000000
_cell_angle_beta 90.000000
_cell_angle_gamma 90.000000
_cell_volume 2945.116881
_symmetry_space_group_name_H-M "P N N M"
_symmetry_group_IT_number 58
_symmetry_cell_setting 'orthorhombic'
loop_
_space_group_symop_operation_xyz
x,y,z
-x,-y,z
1/2+x,1/2-y,1/2-z
1/2-x,1/2+y,1/2-z
-x,-y,-z
x,y,-z
1/2-x,1/2+y,1/2+z
1/2+x,1/2-y,1/2+z
loop_
_atom_site_type_symbol
_atom_site_label
_atom_site_fract_x
_atom_site_fract_y
_atom_site_fract_z
Si Si1 0.664693 0.293935 0.311001
Si Si2 0.061777 0.098628 0.685890
Si Si3 0.773201 0.608613 0.809818
Si Si4 0.272008 0.104208 0.309027
Si Si5 0.943284 0.110791 0.188114
Si Si6 0.833722 0.210312 0.809733
O O1 0.660150 0.295467 0.500000
O O2 0.608642 0.329578 0.237236
O O3 0.684079 0.189353 0.259301
O O4 0.713855 0.362827 0.258702
O O5 0.064253 0.081691 0.500000
O O6 0.001206 0.132362 0.732350
O O7 0.070137 0.998174 0.772177
O O8 0.785365 0.502080 0.758360
O O9 0.713848 0.641429 0.750978
O O10 0.772316 0.609866 0.000000
O O11 0.268299 0.105555 0.500000
O O12 0.315680 0.184226 0.261616
O O13 0.893005 0.175377 0.242928
O O14 0.949429 0.119954 0.000000
O O15 0.833348 0.206691 0.000000
#
# Coordination Sequence:
#
# PCOD9441623 Si02
#       6
#     8   8   8   8   8   8
#     4  10  19  31  46  68  94 122 153 187 225 268
#     4  11  21  32  47  68  92 122 154 188 227 271
#     4   9  18  30  47  68  93 122 152 184 222 266
#     4   9  17  31  48  69  94 121 151 186 225 270
#     4  10  19  32  49  70  94 121 150 187 229 273
#     4   9  18  30  47  69  94 120 149 184 226 270
#
# _framework density 16.298165000000001
#
# number of rings (size 3 to 8) (size 9 to 14) (size 15 to 20)
#    0.000    2.333    0.000    4.500    0.000    5.333 
#    0.000    0.000    0.000    1.000    0.000    7.000 
#    0.000    0.000    0.000    0.000    0.000    0.000 
#
# Total GULP energy -267726.799875 kJ/mol
# GULP energy per Si atom -5577.641664 kJ/mol
# Density = 1.626107 g / cm^3
# Si number density = 16.298165 Si / 1000 Ang^3
#
#
#
# Elastic Constant Matrix: (Units=GPa)
#
#
# Indices 1 2 3 4 5 6 
#
# 1 114.6410 65.9050 3.1791 0.0000 0.0000 0.0000
# 2 65.9050 109.1587 3.5884 0.0000 0.0000 0.0000
# 3 3.1791 3.5884 12.7241 0.0000 0.0000 0.0000
# 4 0.0000 0.0000 0.0000 -50.0399 0.0000 0.0000
# 5 0.0000 0.0000 0.0000 0.0000 26.3062 0.0000
# 6 0.0000 0.0000 0.0000 0.0000 0.0000 20.6933
#
#
#
# Elastic Compliance Matrix: (Units=1/GPa)
#
#
# Indices 1 2 3 4 5 6 
#
# 1 0.013374 -0.008040 -0.001074 0.000000 0.000000 0.000000
# 2 -0.008040 0.014079 -0.001962 0.000000 0.000000 0.000000
# 3 -0.001074 -0.001962 0.079413 0.000000 0.000000 0.000000
# 4 0.000000 0.000000 0.000000 -0.019984 0.000000 0.000000
# 5 0.000000 0.000000 0.000000 0.000000 0.038014 0.000000
# 6 0.000000 0.000000 0.000000 0.000000 0.000000 0.048325
#
#
# Mechanical properties :
#
#
# Convention : Reuss Voigt Hill
#
# Bulk Modulus (GPa) = 11.80432 42.42988 27.11710
# Shear Modulus (GPa) = 22.36026 10.31533 16.33779
#
# Velocity S-wave (km/s) = 3.70800 2.51851 3.16955
# Velocity P-wave (km/s) = 5.05874 5.87769 5.48352
#
# Compressibility (1/GPa) = 0.08471476
#
# Stress axis : x y z
#
# Youngs Moduli (GPa) = 74.76922 71.02575 12.59247
#
# Poissons Ratio (x) = 0.57102 0.01353
# Poissons Ratio (y) = 0.60111 0.02471
# Poissons Ratio (z) = 0.08033 0.13935
#
# Static dielectric constant tensor:
#      x y z
#    x 1.527020 0.000000 0.000000 
#    y 0.000000 1.554730 0.000000 
#    z 0.000000 0.000000 1.557040 
# 
# From -- ./inp_files/6042.got.cif
#   From: 2010.05.17/outbox.cif.g08.bks.cpg/sg58_4_cif.got.tgz:6042.got - 2010.06.03 14:20:14.
