data_PCOD9441007
_publ_section_title
;
Structure prediction by ZEFSAII (Michael W. Deem and Ramdas Pophale) SiO2 
 PCOD9441007
Probable space group: P N N M
;
_chemical_formula_sum "Si O2"
_cell_formula_units_Z 48
_cell_length_a 18.376502
_cell_length_b 7.177444
_cell_length_c 14.461218
_cell_angle_alpha 90.000000
_cell_angle_beta 90.000000
_cell_angle_gamma 90.000000
_cell_volume 1907.381350
_symmetry_space_group_name_H-M "P N N M"
_symmetry_group_IT_number 58
_symmetry_cell_setting 'orthorhombic'
loop_
_space_group_symop_operation_xyz
x,y,z
-x,-y,z
1/2+x,1/2-y,1/2-z
1/2-x,1/2+y,1/2-z
-x,-y,-z
x,y,-z
1/2-x,1/2+y,1/2+z
1/2+x,1/2-y,1/2+z
loop_
_atom_site_type_symbol
_atom_site_label
_atom_site_fract_x
_atom_site_fract_y
_atom_site_fract_z
Si Si1 0.835960 0.379667 0.692353
Si Si2 0.180529 0.099119 0.859855
Si Si3 0.640802 0.319925 0.844558
Si Si4 0.025930 0.214600 0.099943
Si Si5 0.297555 0.169498 0.596699
Si Si6 0.010340 0.712842 0.313314
O O1 0.761001 0.314474 0.645254
O O2 0.848355 0.594946 0.665539
O O3 0.827492 0.389851 0.803643
O O4 0.905027 0.254333 0.666816
O O5 0.157155 0.084218 0.753276
O O6 0.113648 0.212042 0.900942
O O7 0.188293 0.893117 0.900635
O O8 0.711087 0.371081 0.903555
O O9 0.554039 0.333141 0.858916
O O10 0.000830 0.286291 0.200809
O O11 0.999850 0.289991 0.000000
O O12 0.000000 0.000000 0.101845
O O13 0.329038 0.098273 0.500000
O O14 0.000000 0.500000 0.344166
#
# Coordination Sequence:
#
# PCOD9441007 Si02
#       6
#     8   8   8   8   8   8
#     4   9  17  30  48  67  90 121 156 188 222 269
#     4   9  17  30  46  65  93 124 152 182 222 270
#     4   8  17  32  47  64  91 124 154 183 222 273
#     4  10  19  29  43  67  96 119 143 182 229 271
#     4  10  18  29  48  71  93 116 148 192 232 266
#     4   9  17  30  46  63  86 118 152 184 217 265
#
# _framework density 25.165391
#
# number of rings (size 3 to 8) (size 9 to 14) (size 15 to 20)
#    0.000    2.833    0.000    1.500    0.000    2.333 
#    0.000    7.500    0.000   13.500    0.000    0.000 
#    0.000  139.333    0.000    0.000    0.000    0.000 
#
# Total GULP energy -267809.413224 kJ/mol
# GULP energy per Si atom -5579.362776 kJ/mol
# Density = 2.510811 g / cm^3
# Si number density = 25.165391 Si / 1000 Ang^3
#
#
#
# Elastic Constant Matrix: (Units=GPa)
#
#
# Indices 1 2 3 4 5 6 
#
# 1 200.1958 19.1649 -6.4903 0.0000 0.0000 0.0000
# 2 19.1649 73.7774 -5.3140 0.0000 0.0000 0.0000
# 3 -6.4903 -5.3140 31.0541 0.0000 0.0000 0.0000
# 4 0.0000 0.0000 0.0000 9.9983 0.0000 0.0000
# 5 0.0000 0.0000 0.0000 0.0000 -15.0137 0.0000
# 6 0.0000 0.0000 0.0000 0.0000 0.0000 20.3372
#
#
#
# Elastic Compliance Matrix: (Units=1/GPa)
#
#
# Indices 1 2 3 4 5 6 
#
# 1 0.005145 -0.001275 0.000857 0.000000 0.000000 0.000000
# 2 -0.001275 0.014039 0.002136 0.000000 0.000000 0.000000
# 3 0.000857 0.002136 0.032747 0.000000 0.000000 0.000000
# 4 0.000000 0.000000 0.000000 0.100017 0.000000 0.000000
# 5 0.000000 0.000000 0.000000 0.000000 -0.066606 0.000000
# 6 0.000000 0.000000 0.000000 0.000000 0.000000 0.049171
#
#
# Mechanical properties :
#
#
# Convention : Reuss Voigt Hill
#
# Bulk Modulus (GPa) = 18.06112 35.52761 26.79436
# Shear Modulus (GPa) = 33.43777 22.90881 28.17329
#
# Velocity S-wave (km/s) = 3.64912 3.02044 3.34956
# Velocity P-wave (km/s) = 4.99473 5.12956 5.06259
#
# Compressibility (1/GPa) = 0.05536755
#
# Stress axis : x y z
#
# Youngs Moduli (GPa) = 194.36608 71.22872 30.53757
#
# Poissons Ratio (x) = 0.09080 -0.02618
# Poissons Ratio (y) = 0.24777 -0.06523
# Poissons Ratio (z) = -0.16660 -0.15214
#
# Static dielectric constant tensor:
#      x y z
#    x 2.063970 0.000000 0.000000 
#    y 0.000000 2.013050 0.000000 
#    z 0.000000 0.000000 1.954740 
# 
# From -- ./inp_files/22826.got.cif
#   From: 2010.05.17/outbox.cif.g08.bks.cpg/sg58_12_cif.got.tgz:22826.got - 2010.06.03 14:20:14.
