data_PCOD9441472
_publ_section_title
;
Structure prediction by ZEFSAII (Michael W. Deem and Ramdas Pophale) SiO2 
 PCOD9441472
Probable space group: P N N M
;
_chemical_formula_sum "Si O2"
_cell_formula_units_Z 36
_cell_length_a 4.951690
_cell_length_b 13.638963
_cell_length_c 24.495589
_cell_angle_alpha 90.000000
_cell_angle_beta 90.000000
_cell_angle_gamma 90.000000
_cell_volume 1654.332058
_symmetry_space_group_name_H-M "P N N M"
_symmetry_group_IT_number 58
_symmetry_cell_setting 'orthorhombic'
loop_
_space_group_symop_operation_xyz
x,y,z
-x,-y,z
1/2+x,1/2-y,1/2-z
1/2-x,1/2+y,1/2-z
-x,-y,-z
x,y,-z
1/2-x,1/2+y,1/2+z
1/2+x,1/2-y,1/2+z
loop_
_atom_site_type_symbol
_atom_site_label
_atom_site_fract_x
_atom_site_fract_y
_atom_site_fract_z
Si Si1 0.177223 0.253401 0.500000
Si Si2 0.296771 0.386604 0.117208
Si Si3 0.422841 0.807860 0.770044
Si Si4 0.676758 0.118254 0.500000
Si Si5 0.000000 0.500000 0.206498
Si Si6 0.291093 0.253562 0.383041
O O1 0.372182 0.157581 0.500000
O O2 0.245544 0.302735 0.442134
O O3 0.871295 0.214847 0.500000
O O4 0.590747 0.339913 0.118426
O O5 0.226680 0.461053 0.164980
O O6 0.086515 0.294371 0.121267
O O7 0.243239 0.431634 0.057233
O O8 0.164703 0.770619 0.735184
O O9 0.546819 0.906686 0.745043
O O10 0.302582 0.815768 0.830947
#
# Coordination Sequence:
#
# PCOD9441472 Si02
#       6
#     4   8   8   4   4   8
#     4   8  16  28  58  74 102 146 182 222 284 324
#     4  10  20  33  56  79 114 146 184 226 277 340
#     4  12  24  40  58  83 117 153 191 236 281 336
#     4   8  16  31  48  80 108 143 178 219 272 338
#     4  12  24  37  60  85 112 162 188 232 284 338
#     4  10  18  38  53  81 111 145 186 234 276 333
#
# _framework density 21.761047000000001
#
# number of rings (size 3 to 8) (size 9 to 14) (size 15 to 20)
#    0.000    1.778    4.444    0.000    0.000    4.000 
#    0.000    0.000    0.000    8.667    0.000    0.000 
#    0.000   14.222    0.000    0.000    0.000    2.222 
#
# Total GULP energy -201067.046041 kJ/mol
# GULP energy per Si atom -5585.195723 kJ/mol
# Density = 2.171152 g / cm^3
# Si number density = 21.761047 Si / 1000 Ang^3
#
#
#
# Elastic Constant Matrix: (Units=GPa)
#
#
# Indices 1 2 3 4 5 6 
#
# 1 68.2202 -7.4657 -4.4281 0.0000 0.0000 0.0000
# 2 -7.4657 44.3218 35.2850 0.0000 0.0000 0.0000
# 3 -4.4281 35.2850 197.4088 0.0000 0.0000 0.0000
# 4 0.0000 0.0000 0.0000 18.3060 0.0000 0.0000
# 5 0.0000 0.0000 0.0000 0.0000 -12.4782 0.0000
# 6 0.0000 0.0000 0.0000 0.0000 0.0000 18.8612
#
#
#
# Elastic Compliance Matrix: (Units=1/GPa)
#
#
# Indices 1 2 3 4 5 6 
#
# 1 0.014937 0.002622 -0.000134 0.000000 0.000000 0.000000
# 2 0.002622 0.026766 -0.004725 0.000000 0.000000 0.000000
# 3 -0.000134 -0.004725 0.005907 0.000000 0.000000 0.000000
# 4 0.000000 0.000000 0.000000 0.054627 0.000000 0.000000
# 5 0.000000 0.000000 0.000000 0.000000 -0.080140 0.000000
# 6 0.000000 0.000000 0.000000 0.000000 0.000000 0.053019
#
#
# Mechanical properties :
#
#
# Convention : Reuss Voigt Hill
#
# Bulk Modulus (GPa) = 23.18214 39.63701 31.40958
# Shear Modulus (GPa) = 53.20974 24.04178 38.62576
#
# Velocity S-wave (km/s) = 4.95024 3.32747 4.21764
# Velocity P-wave (km/s) = 6.58403 5.74604 6.17925
#
# Compressibility (1/GPa) = 0.04313665
#
# Stress axis : x y z
#
# Youngs Moduli (GPa) = 66.94908 37.36104 169.28385
#
# Poissons Ratio (x) = -0.09798 0.02263
# Poissons Ratio (y) = -0.17557 0.79992
# Poissons Ratio (z) = 0.00895 0.17654
#
# Static dielectric constant tensor:
#      x y z
#    x 1.796710 0.000000 0.000000 
#    y 0.000000 1.797770 0.000000 
#    z 0.000000 0.000000 1.919650 
# 
# From -- ./inp_files/18462.got.cif
#   From: 2010.05.17/outbox.cif.g08.bks.cpg/sg58_10_cif.got.tgz:18462.got - 2010.06.03 14:20:14.
