data_PCOD9441157
_publ_section_title
;
Structure prediction by ZEFSAII (Michael W. Deem and Ramdas Pophale) SiO2 
 PCOD9441157
Probable space group: P N N M
;
_chemical_formula_sum "Si O2"
_cell_formula_units_Z 48
_cell_length_a 21.086471
_cell_length_b 15.123722
_cell_length_c 7.621325
_cell_angle_alpha 90.000000
_cell_angle_beta 90.000000
_cell_angle_gamma 90.000000
_cell_volume 2430.485702
_symmetry_space_group_name_H-M "P N N M"
_symmetry_group_IT_number 58
_symmetry_cell_setting 'orthorhombic'
loop_
_space_group_symop_operation_xyz
x,y,z
-x,-y,z
1/2+x,1/2-y,1/2-z
1/2-x,1/2+y,1/2-z
-x,-y,-z
x,y,-z
1/2-x,1/2+y,1/2+z
1/2+x,1/2-y,1/2+z
loop_
_atom_site_type_symbol
_atom_site_label
_atom_site_fract_x
_atom_site_fract_y
_atom_site_fract_z
Si Si1 0.983504 0.738466 0.702307
Si Si2 0.809300 0.499313 0.289346
Si Si3 0.343670 0.806683 0.291551
Si Si4 0.054129 0.569348 0.715000
Si Si5 0.810774 0.887742 0.215013
Si Si6 0.449610 0.567587 0.702601
O O1 0.998877 0.756850 0.500000
O O2 0.914031 0.692887 0.709933
O O3 0.976722 0.832860 0.793320
O O4 0.033179 0.667100 0.772709
O O5 0.809966 0.490719 0.500000
O O6 0.807487 0.603245 0.248448
O O7 0.876663 0.461133 0.225431
O O8 0.749080 0.444164 0.224136
O O9 0.353271 0.800691 0.500000
O O10 0.309906 0.715776 0.234466
O O11 0.053717 0.570015 0.500000
O O12 0.000000 0.500000 0.769815
O O13 0.878543 0.925918 0.277537
O O14 0.811237 0.889708 0.000000
O O15 0.500000 0.500000 0.783643
O O16 0.441081 0.540141 0.500000
#
# Coordination Sequence:
#
# PCOD9441157 Si02
#       6
#     8   8   8   8   8   8
#     4  10  18  31  52  76  99 129 169 209 248 298
#     4  10  18  33  54  71  95 134 171 205 244 298
#     4  10  19  33  51  74 101 132 166 203 253 304
#     4   9  16  28  48  75 100 124 161 203 247 293
#     4   8  17  33  52  71  94 132 171 197 243 306
#     4   9  18  35  55  73 100 136 170 208 257 306
#
# _framework density 19.749137999999999
#
# number of rings (size 3 to 8) (size 9 to 14) (size 15 to 20)
#    0.000    2.667    1.667    2.000    0.000    0.333 
#    3.000    6.667    0.000    0.000    0.000    0.000 
#    0.000    0.000    0.000    0.000    0.000    0.000 
#
# Total GULP energy -267732.684726 kJ/mol
# GULP energy per Si atom -5577.764265 kJ/mol
# Density = 1.970419 g / cm^3
# Si number density = 19.749138 Si / 1000 Ang^3
#
#
#
# Elastic Constant Matrix: (Units=GPa)
#
#
# Indices 1 2 3 4 5 6 
#
# 1 155.9427 116.0259 5.9462 0.0000 0.0000 0.0000
# 2 116.0259 141.2902 -5.4056 0.0000 0.0000 0.0000
# 3 5.9462 -5.4056 40.9878 0.0000 0.0000 0.0000
# 4 0.0000 0.0000 0.0000 25.7653 0.0000 0.0000
# 5 0.0000 0.0000 0.0000 0.0000 5.6043 0.0000
# 6 0.0000 0.0000 0.0000 0.0000 0.0000 38.5623
#
#
#
# Elastic Compliance Matrix: (Units=1/GPa)
#
#
# Indices 1 2 3 4 5 6 
#
# 1 0.017236 -0.014322 -0.004389 0.000000 0.000000 0.000000
# 2 -0.014322 0.019014 0.004585 0.000000 0.000000 0.000000
# 3 -0.004389 0.004585 0.025639 0.000000 0.000000 0.000000
# 4 0.000000 0.000000 0.000000 0.038812 0.000000 0.000000
# 5 0.000000 0.000000 0.000000 0.000000 0.178435 0.000000
# 6 0.000000 0.000000 0.000000 0.000000 0.000000 0.025932
#
#
# Mechanical properties :
#
#
# Convention : Reuss Voigt Hill
#
# Bulk Modulus (GPa) = 29.72889 63.48375 46.60632
# Shear Modulus (GPa) = 14.51246 28.76331 21.63789
#
# Velocity S-wave (km/s) = 2.71373 3.82047 3.31363
# Velocity P-wave (km/s) = 4.99050 7.18861 6.18794
#
# Compressibility (1/GPa) = 0.03363732
#
# Stress axis : x y z
#
# Youngs Moduli (GPa) = 58.01883 52.59301 39.00312
#
# Poissons Ratio (x) = 0.75322 0.17119
# Poissons Ratio (y) = 0.83093 -0.17884
# Poissons Ratio (z) = 0.25466 -0.24115
#
# Static dielectric constant tensor:
#      x y z
#    x 1.680620 0.000000 0.000000 
#    y 0.000000 1.683780 0.000000 
#    z 0.000000 0.000000 1.746650 
# 
# From -- ./inp_files/4175.got.cif
#   From: 2010.05.17/outbox.cif.g08.bks.cpg/sg58_3_cif.got.tgz:4175.got - 2010.06.03 14:20:14.
