data_PCOD9441686
_publ_section_title
;
Structure prediction by ZEFSAII (Michael W. Deem and Ramdas Pophale) SiO2 
 PCOD9441686
Probable space group: P N N M
;
_chemical_formula_sum "Si O2"
_cell_formula_units_Z 64
_cell_length_a 20.502895
_cell_length_b 18.094774
_cell_length_c 7.296304
_cell_angle_alpha 90.000000
_cell_angle_beta 90.000000
_cell_angle_gamma 90.000000
_cell_volume 2706.894137
_symmetry_space_group_name_H-M "P N N M"
_symmetry_group_IT_number 58
_symmetry_cell_setting 'orthorhombic'
loop_
_space_group_symop_operation_xyz
x,y,z
-x,-y,z
1/2+x,1/2-y,1/2-z
1/2-x,1/2+y,1/2-z
-x,-y,-z
x,y,-z
1/2-x,1/2+y,1/2+z
1/2+x,1/2-y,1/2+z
loop_
_atom_site_type_symbol
_atom_site_label
_atom_site_fract_x
_atom_site_fract_y
_atom_site_fract_z
Si Si1 0.277418 0.833446 0.221811
Si Si2 0.997296 0.668759 0.776530
Si Si3 0.002704 0.168759 0.776530
Si Si4 0.607302 0.054065 0.289257
Si Si5 0.136162 0.889908 0.776607
Si Si6 0.777418 0.833446 0.278189
Si Si7 0.892698 0.945935 0.789256
Si Si8 0.863838 0.389908 0.776607
O O1 0.330247 0.892705 0.284665
O O2 0.204941 0.856480 0.282555
O O3 0.292930 0.750000 0.281007
O O4 0.278359 0.834394 0.000000
O O5 0.974350 0.750000 0.717918
O O6 0.952000 0.601952 0.710023
O O7 0.072197 0.655837 0.724596
O O8 0.994427 0.667976 0.000000
O O9 0.048000 0.101952 0.710023
O O10 0.927803 0.155837 0.724596
O O11 0.005573 0.167976 0.000000
O O12 0.588665 0.039017 0.500000
O O13 0.625403 0.974123 0.212696
O O14 0.125403 0.974123 0.712696
O O15 0.138651 0.889728 0.000000
O O16 0.778359 0.834394 0.500000
O O17 0.830247 0.892705 0.215335
O O18 0.704941 0.856480 0.217445
O O19 0.911335 0.960983 0.000000
O O20 0.861349 0.389728 0.000000
#
# Coordination Sequence:
#
# PCOD9441686 Si02
#       8
#     8   8   8   8   8   8   8   8
#     4  10  20  33  49  69  95 129 164 194 229 279
#     4   9  16  27  46  72  98 123 156 198 238 276
#     4   9  16  27  46  72  98 123 156 198 238 276
#     4  10  19  31  50  75  99 122 153 197 244 282
#     4   9  17  30  48  70  96 126 160 196 233 277
#     4  10  20  33  49  69  95 129 164 194 229 279
#     4  10  19  31  50  75  99 122 153 197 244 282
#     4   9  17  30  48  70  96 126 160 196 233 277
#
# _framework density 23.643331
#
# number of rings (size 3 to 8) (size 9 to 14) (size 15 to 20)
#    0.000    2.500    0.000    3.000    0.000    7.500 
#    0.000    0.000    0.000    4.500    0.000    0.000 
#    0.000    0.000    0.000    0.000    0.000    0.000 
#
# Total GULP energy -357921.106839 kJ/mol
# GULP energy per Si atom -5592.517294 kJ/mol
# Density = 2.358952 g / cm^3
# Si number density = 23.643331 Si / 1000 Ang^3
#
#
#
# Elastic Constant Matrix: (Units=GPa)
#
#
# Indices 1 2 3 4 5 6 
#
# 1 74.2328 -14.0334 -13.4966 0.0000 0.0000 0.0000
# 2 -14.0334 108.5500 -5.0284 0.0000 0.0000 0.0000
# 3 -13.4966 -5.0284 97.2991 0.0000 0.0000 0.0000
# 4 0.0000 0.0000 0.0000 0.9778 0.0000 0.0000
# 5 0.0000 0.0000 0.0000 0.0000 3.2363 0.0000
# 6 0.0000 0.0000 0.0000 0.0000 0.0000 43.7859
#
#
#
# Elastic Compliance Matrix: (Units=1/GPa)
#
#
# Indices 1 2 3 4 5 6 
#
# 1 0.014213 0.001933 0.002071 0.000000 0.000000 0.000000
# 2 0.001933 0.009497 0.000759 0.000000 0.000000 0.000000
# 3 0.002071 0.000759 0.010604 0.000000 0.000000 0.000000
# 4 0.000000 0.000000 0.000000 1.022739 0.000000 0.000000
# 5 0.000000 0.000000 0.000000 0.000000 0.308995 0.000000
# 6 0.000000 0.000000 0.000000 0.000000 0.000000 0.022838
#
#
# Mechanical properties :
#
#
# Convention : Reuss Voigt Hill
#
# Bulk Modulus (GPa) = 22.80875 23.88500 23.34687
# Shear Modulus (GPa) = 3.58687 30.44268 17.01477
#
# Velocity S-wave (km/s) = 1.23303 3.59218 2.68553
# Velocity P-wave (km/s) = 3.41981 5.22773 4.41725
#
# Compressibility (1/GPa) = 0.04384283
#
# Stress axis : x y z
#
# Youngs Moduli (GPa) = 70.35674 105.29124 94.30263
#
# Poissons Ratio (x) = -0.20358 -0.19535
# Poissons Ratio (y) = -0.13603 -0.07158
# Poissons Ratio (z) = -0.14574 -0.07992
#
# Static dielectric constant tensor:
#      x y z
#    x 1.826380 0.000000 0.000000 
#    y 0.000000 1.840420 0.000000 
#    z 0.000000 0.000000 1.976940 
# 
# From -- ./inp_files/9299.got.cif
#   From: 2010.05.17/outbox.cif.g08.bks.cpg/sg58_5_cif.got.tgz:9299.got - 2010.06.03 14:20:14.
