data_PCOD9441880
_publ_section_title
;
Structure prediction by ZEFSAII (Michael W. Deem and Ramdas Pophale) SiO2 
 PCOD9441880
Probable space group: P N N M
;
_chemical_formula_sum "Si O2"
_cell_formula_units_Z 64
_cell_length_a 29.298055
_cell_length_b 12.938526
_cell_length_c 7.607026
_cell_angle_alpha 90.000000
_cell_angle_beta 90.000000
_cell_angle_gamma 90.000000
_cell_volume 2883.623084
_symmetry_space_group_name_H-M "P N N M"
_symmetry_group_IT_number 58
_symmetry_cell_setting 'orthorhombic'
loop_
_space_group_symop_operation_xyz
x,y,z
-x,-y,z
1/2+x,1/2-y,1/2-z
1/2-x,1/2+y,1/2-z
-x,-y,-z
x,y,-z
1/2-x,1/2+y,1/2+z
1/2+x,1/2-y,1/2+z
loop_
_atom_site_type_symbol
_atom_site_label
_atom_site_fract_x
_atom_site_fract_y
_atom_site_fract_z
Si Si1 0.637326 0.886048 0.703946
Si Si2 0.520447 0.610023 0.787645
Si Si3 0.159448 0.198746 0.708361
Si Si4 0.704964 0.501430 0.204474
Si Si5 0.052172 0.485403 0.712620
Si Si6 0.061907 0.251405 0.715032
Si Si7 0.698422 0.076234 0.286636
Si Si8 0.625819 0.656230 0.291372
O O1 0.650770 0.876195 0.500000
O O2 0.637780 0.770818 0.780032
O O3 0.585989 0.929009 0.714839
O O4 0.668680 0.978118 0.777880
O O5 0.500000 0.500000 0.728125
O O6 0.485027 0.698376 0.727626
O O7 0.572679 0.630048 0.737705
O O8 0.519527 0.609395 0.000000
O O9 0.155899 0.178581 0.500000
O O10 0.107514 0.193459 0.776210
O O11 0.178499 0.313908 0.729331
O O12 0.192049 0.109942 0.783315
O O13 0.749765 0.558079 0.275959
O O14 0.660189 0.572011 0.215048
O O15 0.716558 0.484062 0.000000
O O16 0.054578 0.491398 0.500000
O O17 0.066361 0.370512 0.768430
O O18 0.000000 0.500000 0.764739
O O19 0.061408 0.250822 0.500000
O O20 0.696049 0.078535 0.500000
O O21 0.633311 0.656609 0.500000
#
# Coordination Sequence:
#
# PCOD9441880 Si02
#       8
#     8   8   8   8   8   8   8   8
#     4  10  22  39  57  82 120 159 192 235 298 360
#     4  10  20  37  62  87 118 161 204 245 294 352
#     4  10  20  38  64  89 115 150 197 247 297 351
#     4  10  23  41  63  87 116 156 200 247 299 360
#     4  10  19  32  53  82 114 149 194 245 288 336
#     4   9  17  31  53  84 113 145 193 242 289 344
#     4  10  22  40  60  86 117 153 196 245 303 359
#     4  11  24  40  60  89 125 161 199 246 299 354
#
# _framework density 22.194302
#
# number of rings (size 3 to 8) (size 9 to 14) (size 15 to 20)
#    0.000    2.000    1.250    1.875    1.750    5.500 
#    0.000    1.250    0.000    0.000    0.000    0.000 
#    0.000    0.000    0.000    0.000    0.000    0.000 
#
# Total GULP energy -357571.098598 kJ/mol
# GULP energy per Si atom -5587.048416 kJ/mol
# Density = 2.214379 g / cm^3
# Si number density = 22.194302 Si / 1000 Ang^3
#
#
#
# Elastic Constant Matrix: (Units=GPa)
#
#
# Indices 1 2 3 4 5 6 
#
# 1 119.5434 25.3283 -17.8248 0.0000 0.0000 0.0000
# 2 25.3283 106.6433 -14.9747 0.0000 0.0000 0.0000
# 3 -17.8248 -14.9747 41.4160 0.0000 0.0000 0.0000
# 4 0.0000 0.0000 0.0000 11.9494 0.0000 0.0000
# 5 0.0000 0.0000 0.0000 0.0000 0.2945 0.0000
# 6 0.0000 0.0000 0.0000 0.0000 0.0000 33.4717
#
#
#
# Elastic Compliance Matrix: (Units=1/GPa)
#
#
# Indices 1 2 3 4 5 6 
#
# 1 0.009229 -0.001722 0.003350 0.000000 0.000000 0.000000
# 2 -0.001722 0.010200 0.002947 0.000000 0.000000 0.000000
# 3 0.003350 0.002947 0.026652 0.000000 0.000000 0.000000
# 4 0.000000 0.000000 0.000000 0.083686 0.000000 0.000000
# 5 0.000000 0.000000 0.000000 0.000000 3.395692 0.000000
# 6 0.000000 0.000000 0.000000 0.000000 0.000000 0.029876
#
#
# Mechanical properties :
#
#
# Convention : Reuss Voigt Hill
#
# Bulk Modulus (GPa) = 18.10563 28.07337 23.08950
# Shear Modulus (GPa) = 1.40268 27.48139 14.44204
#
# Velocity S-wave (km/s) = 0.79585 3.52265 2.55367
# Velocity P-wave (km/s) = 3.00333 5.40572 4.37274
#
# Compressibility (1/GPa) = 0.05523144
#
# Stress axis : x y z
#
# Youngs Moduli (GPa) = 108.34934 98.04158 37.52008
#
# Poissons Ratio (x) = 0.16879 -0.12568
# Poissons Ratio (y) = 0.18654 -0.11057
# Poissons Ratio (z) = -0.36294 -0.28892
#
# Static dielectric constant tensor:
#      x y z
#    x 1.797470 0.000000 0.000000 
#    y 0.000000 1.807290 0.000000 
#    z 0.000000 0.000000 1.850360 
# 
# From -- ./inp_files/11078.got.cif
#   From: 2010.05.17/outbox.cif.g08.bks.cpg/sg58_6_cif.got.tgz:11078.got - 2010.06.03 14:20:14.
