data_PCOD9441101
_publ_section_title
;
Structure prediction by ZEFSAII (Michael W. Deem and Ramdas Pophale) SiO2 
 PCOD9441101
Probable space group: P N N M
;
_chemical_formula_sum "Si O2"
_cell_formula_units_Z 56
_cell_length_a 20.179318
_cell_length_b 15.936785
_cell_length_c 7.871819
_cell_angle_alpha 90.000000
_cell_angle_beta 90.000000
_cell_angle_gamma 90.000000
_cell_volume 2531.525449
_symmetry_space_group_name_H-M "P N N M"
_symmetry_group_IT_number 58
_symmetry_cell_setting 'orthorhombic'
loop_
_space_group_symop_operation_xyz
x,y,z
-x,-y,z
1/2+x,1/2-y,1/2-z
1/2-x,1/2+y,1/2-z
-x,-y,-z
x,y,-z
1/2-x,1/2+y,1/2+z
1/2+x,1/2-y,1/2+z
loop_
_atom_site_type_symbol
_atom_site_label
_atom_site_fract_x
_atom_site_fract_y
_atom_site_fract_z
Si Si1 0.577762 0.823912 0.203747
Si Si2 0.427329 0.814985 0.701785
Si Si3 0.137946 0.840098 0.294960
Si Si4 0.774752 0.000760 0.203890
Si Si5 0.643724 0.341333 0.693352
Si Si6 0.994402 0.900727 0.304707
Si Si7 0.876656 0.503256 0.294418
O O1 0.502328 0.796074 0.240028
O O2 0.633956 0.757211 0.262205
O O3 0.589122 0.917932 0.268981
O O4 0.583651 0.826842 0.000000
O O5 0.426325 0.804433 0.500000
O O6 0.370652 0.750938 0.771498
O O7 0.411423 0.910738 0.743986
O O8 0.140571 0.840315 0.500000
O O9 0.189668 0.910577 0.239894
O O10 0.065255 0.871059 0.240702
O O11 0.699398 0.003336 0.264537
O O12 0.812886 0.917229 0.270869
O O13 0.774466 0.992279 0.000000
O O14 0.668240 0.328806 0.500000
O O15 0.568731 0.376264 0.695804
O O16 0.984359 0.870455 0.500000
O O17 0.000000 0.000000 0.311862
O O18 0.877248 0.501083 0.500000
#
# Coordination Sequence:
#
# PCOD9441101 Si02
#       7
#     8   8   8   8   8   8   8
#     4  10  21  39  63  86 111 149 193 236 283 338
#     4  11  23  38  60  89 116 144 185 241 293 333
#     4  10  20  34  57  88 116 147 186 232 284 337
#     4  10  22  39  57  81 116 154 190 228 276 340
#     4  10  21  35  55  84 115 148 183 226 282 338
#     4  10  18  30  51  82 116 146 182 228 278 332
#     4  10  23  42  60  79 109 153 198 235 276 334
#
# _framework density 22.12105
#
# number of rings (size 3 to 8) (size 9 to 14) (size 15 to 20)
#    0.000    1.857    2.857    0.857    0.000    6.000 
#    0.000    2.857    0.000    0.000    0.000    0.000 
#    0.000    0.000    0.000    0.000    0.000    0.000 
#
# Total GULP energy -312379.754425 kJ/mol
# GULP energy per Si atom -5578.209900 kJ/mol
# Density = 2.207070 g / cm^3
# Si number density = 22.121050 Si / 1000 Ang^3
#
#
#
# Elastic Constant Matrix: (Units=GPa)
#
#
# Indices 1 2 3 4 5 6 
#
# 1 65.7833 36.6341 -0.4286 0.0000 0.0000 0.0000
# 2 36.6341 166.5056 10.3452 0.0000 0.0000 0.0000
# 3 -0.4286 10.3452 22.8183 0.0000 0.0000 0.0000
# 4 0.0000 0.0000 0.0000 28.2419 0.0000 0.0000
# 5 0.0000 0.0000 0.0000 0.0000 20.5190 0.0000
# 6 0.0000 0.0000 0.0000 0.0000 0.0000 29.2321
#
#
#
# Elastic Compliance Matrix: (Units=1/GPa)
#
#
# Indices 1 2 3 4 5 6 
#
# 1 0.017424 -0.003966 0.002125 0.000000 0.000000 0.000000
# 2 -0.003966 0.007082 -0.003285 0.000000 0.000000 0.000000
# 3 0.002125 -0.003285 0.045354 0.000000 0.000000 0.000000
# 4 0.000000 0.000000 0.000000 0.035408 0.000000 0.000000
# 5 0.000000 0.000000 0.000000 0.000000 0.048735 0.000000
# 6 0.000000 0.000000 0.000000 0.000000 0.000000 0.034209
#
#
# Mechanical properties :
#
#
# Convention : Reuss Voigt Hill
#
# Bulk Modulus (GPa) = 16.77620 38.68983 27.73301
# Shear Modulus (GPa) = 22.90071 29.50236 26.20154
#
# Velocity S-wave (km/s) = 3.22101 3.65592 3.44533
# Velocity P-wave (km/s) = 4.62963 5.94550 5.32834
#
# Compressibility (1/GPa) = 0.05960827
#
# Stress axis : x y z
#
# Youngs Moduli (GPa) = 57.39332 141.19469 22.04881
#
# Poissons Ratio (x) = 0.55991 -0.04686
# Poissons Ratio (y) = 0.22760 0.07244
# Poissons Ratio (z) = -0.12197 0.46389
#
# Static dielectric constant tensor:
#      x y z
#    x 1.770900 0.000000 0.000000 
#    y 0.000000 1.887520 0.000000 
#    z 0.000000 0.000000 1.834280 
# 
# From -- ./inp_files/9006.got.cif
#   From: 2010.05.17/outbox.cif.g08.bks.cpg/sg58_5_cif.got.tgz:9006.got - 2010.06.03 14:20:14.
