data_PCOD9441227
_publ_section_title
;
Structure prediction by ZEFSAII (Michael W. Deem and Ramdas Pophale) SiO2 
 PCOD9441227
Probable space group: P N N M
;
_chemical_formula_sum "Si O2"
_cell_formula_units_Z 64
_cell_length_a 30.370608
_cell_length_b 12.082269
_cell_length_c 7.722621
_cell_angle_alpha 90.000000
_cell_angle_beta 90.000000
_cell_angle_gamma 90.000000
_cell_volume 2833.783770
_symmetry_space_group_name_H-M "P N N M"
_symmetry_group_IT_number 58
_symmetry_cell_setting 'orthorhombic'
loop_
_space_group_symop_operation_xyz
x,y,z
-x,-y,z
1/2+x,1/2-y,1/2-z
1/2-x,1/2+y,1/2-z
-x,-y,-z
x,y,-z
1/2-x,1/2+y,1/2+z
1/2+x,1/2-y,1/2+z
loop_
_atom_site_type_symbol
_atom_site_label
_atom_site_fract_x
_atom_site_fract_y
_atom_site_fract_z
Si Si1 0.891844 0.887923 0.788351
Si Si2 0.722852 0.997015 0.791940
Si Si3 0.352001 0.848060 0.293929
Si Si4 0.318367 0.450220 0.292365
Si Si5 0.563526 0.823922 0.204615
Si Si6 0.480499 0.703852 0.696137
Si Si7 0.058225 0.435074 0.699861
Si Si8 0.837771 0.297533 0.708784
O O1 0.864479 0.776867 0.742726
O O2 0.862815 0.990697 0.727438
O O3 0.942104 0.872750 0.724339
O O4 0.894836 0.890011 0.000000
O O5 0.772721 0.998171 0.725882
O O6 0.692851 0.896539 0.724879
O O7 0.696284 0.109250 0.751177
O O8 0.724968 0.987145 0.000000
O O9 0.357864 0.856410 0.500000
O O10 0.388626 0.926487 0.206330
O O11 0.318770 0.465074 0.500000
O O12 0.318452 0.321284 0.252975
O O13 0.528578 0.726223 0.228531
O O14 0.546389 0.943702 0.270015
O O15 0.612035 0.802069 0.276084
O O16 0.567948 0.842104 0.000000
O O17 0.487398 0.667675 0.500000
O O18 0.458555 0.826732 0.701993
O O19 0.043390 0.422158 0.500000
O O20 0.839393 0.306705 0.500000
#
# Coordination Sequence:
#
# PCOD9441227 Si02
#       8
#     8   8   8   8   8   8   8   8
#     4   8  18  37  56  79 113 150 185 230 287 336
#     4  10  21  38  59  83 114 150 184 227 289 353
#     4  10  19  32  56  85 113 147 188 233 279 333
#     4  10  22  40  62  83 109 149 195 235 279 342
#     4  10  20  35  54  77 111 156 193 228 288 353
#     4  10  20  33  53  83 115 148 193 243 288 338
#     4  10  18  32  52  77 115 156 187 224 283 347
#     4  10  22  41  60  83 117 152 189 235 290 344
#
# _framework density 22.584645999999999
#
# number of rings (size 3 to 8) (size 9 to 14) (size 15 to 20)
#    0.000    2.250    1.250    2.250    1.750    4.000 
#    0.000    4.375    0.000    3.750    0.000    0.000 
#    0.000    0.000    0.000    0.000    0.000    0.000 
#
# Total GULP energy -357349.961730 kJ/mol
# GULP energy per Si atom -5583.593152 kJ/mol
# Density = 2.253324 g / cm^3
# Si number density = 22.584646 Si / 1000 Ang^3
#
#
#
# Elastic Constant Matrix: (Units=GPa)
#
#
# Indices 1 2 3 4 5 6 
#
# 1 108.2470 11.0774 1.6317 0.0000 0.0000 0.0000
# 2 11.0774 33.6761 -4.0928 0.0000 0.0000 0.0000
# 3 1.6317 -4.0928 37.6866 0.0000 0.0000 0.0000
# 4 0.0000 0.0000 0.0000 11.0996 0.0000 0.0000
# 5 0.0000 0.0000 0.0000 0.0000 21.0974 0.0000
# 6 0.0000 0.0000 0.0000 0.0000 0.0000 22.7103
#
#
#
# Elastic Compliance Matrix: (Units=1/GPa)
#
#
# Indices 1 2 3 4 5 6 
#
# 1 0.009582 -0.003245 -0.000767 0.000000 0.000000 0.000000
# 2 -0.003245 0.031191 0.003528 0.000000 0.000000 0.000000
# 3 -0.000767 0.003528 0.026951 0.000000 0.000000 0.000000
# 4 0.000000 0.000000 0.000000 0.090093 0.000000 0.000000
# 5 0.000000 0.000000 0.000000 0.000000 0.047399 0.000000
# 6 0.000000 0.000000 0.000000 0.000000 0.000000 0.044033
#
#
# Mechanical properties :
#
#
# Convention : Reuss Voigt Hill
#
# Bulk Modulus (GPa) = 14.98022 21.87136 18.42579
# Shear Modulus (GPa) = 18.35067 22.38102 20.36584
#
# Velocity S-wave (km/s) = 2.85358 3.15140 3.00618
# Velocity P-wave (km/s) = 4.18384 4.79030 4.49731
#
# Compressibility (1/GPa) = 0.06675471
#
# Stress axis : x y z
#
# Youngs Moduli (GPa) = 104.36477 32.06068 37.10434
#
# Poissons Ratio (x) = 0.10404 0.02847
# Poissons Ratio (y) = 0.33867 -0.13090
# Poissons Ratio (z) = 0.08008 -0.11311
#
# Static dielectric constant tensor:
#      x y z
#    x 1.890190 0.000000 0.000000 
#    y 0.000000 1.811640 0.000000 
#    z 0.000000 0.000000 1.833720 
# 
# From -- ./inp_files/10940.got.cif
#   From: 2010.05.17/outbox.cif.g08.bks.cpg/sg58_6_cif.got.tgz:10940.got - 2010.06.03 14:20:14.
