data_PCOD9441619
_publ_section_title
;
Structure prediction by ZEFSAII (Michael W. Deem and Ramdas Pophale) SiO2 
 PCOD9441619
Probable space group: P N N M
;
_chemical_formula_sum "Si O2"
_cell_formula_units_Z 56
_cell_length_a 8.016638
_cell_length_b 13.138891
_cell_length_c 30.345379
_cell_angle_alpha 90.000000
_cell_angle_beta 90.000000
_cell_angle_gamma 90.000000
_cell_volume 3196.270664
_symmetry_space_group_name_H-M "P N N M"
_symmetry_group_IT_number 58
_symmetry_cell_setting 'orthorhombic'
loop_
_space_group_symop_operation_xyz
x,y,z
-x,-y,z
1/2+x,1/2-y,1/2-z
1/2-x,1/2+y,1/2-z
-x,-y,-z
x,y,-z
1/2-x,1/2+y,1/2+z
1/2+x,1/2-y,1/2+z
loop_
_atom_site_type_symbol
_atom_site_label
_atom_site_fract_x
_atom_site_fract_y
_atom_site_fract_z
Si Si1 0.003460 0.621949 0.889959
Si Si2 0.142137 0.887599 0.582903
Si Si3 0.804295 0.880629 0.449761
Si Si4 0.909715 0.895611 0.234650
Si Si5 0.920639 0.674321 0.207734
Si Si6 0.537107 0.892943 0.199677
Si Si7 0.537314 0.668721 0.177754
O O1 0.165125 0.660835 0.916118
O O2 0.000000 0.500000 0.895538
O O3 0.825772 0.660354 0.909732
O O4 0.005964 0.640634 0.837630
O O5 0.059230 0.886832 0.631552
O O6 0.992492 0.837731 0.555038
O O7 0.174517 0.999415 0.562734
O O8 0.746692 0.872003 0.500000
O O9 0.985484 0.788387 0.218315
O O10 0.730145 0.894566 0.212810
O O11 0.912851 0.884318 0.287808
O O12 0.000000 0.000000 0.223098
O O13 0.722632 0.668350 0.198956
O O14 0.948401 0.612612 0.252529
O O15 0.493950 0.788747 0.174302
O O16 0.500000 0.000000 0.176952
#
# Coordination Sequence:
#
# PCOD9441619 Si02
#       7
#     8   8   8   8   8   8   8
#     4   9  18  30  48  68  91 128 160 192 232 292
#     4   9  18  31  46  65  95 127 154 195 230 286
#     4  10  20  31  47  73  98 126 157 193 244 297
#     4  10  20  29  45  66  92 126 162 202 233 280
#     4   9  18  33  45  64  91 125 165 200 235 274
#     4  10  19  31  46  64  94 126 160 207 235 271
#     4   9  19  32  46  66  89 125 171 192 237 283
#
# _framework density 17.520417999999999
#
# number of rings (size 3 to 8) (size 9 to 14) (size 15 to 20)
#    0.000    2.571    0.000    2.143    4.000    5.429 
#    0.000    0.000    0.000    0.000    0.000    0.000 
#    0.000    2.857    1.714    0.000    0.000    0.000 
#
# Total GULP energy -311829.806637 kJ/mol
# GULP energy per Si atom -5568.389404 kJ/mol
# Density = 1.748054 g / cm^3
# Si number density = 17.520418 Si / 1000 Ang^3
#
#
#
# Elastic Constant Matrix: (Units=GPa)
#
#
# Indices 1 2 3 4 5 6 
#
# 1 44.7692 -5.2691 11.2014 0.0000 0.0000 0.0000
# 2 -5.2691 51.3306 -6.1181 0.0000 0.0000 0.0000
# 3 11.2014 -6.1181 46.2497 0.0000 0.0000 0.0000
# 4 0.0000 0.0000 0.0000 13.0693 0.0000 0.0000
# 5 0.0000 0.0000 0.0000 0.0000 20.3139 0.0000
# 6 0.0000 0.0000 0.0000 0.0000 0.0000 17.2369
#
#
#
# Elastic Compliance Matrix: (Units=1/GPa)
#
#
# Indices 1 2 3 4 5 6 
#
# 1 0.023939 0.001795 -0.005561 0.000000 0.000000 0.000000
# 2 0.001795 0.019928 0.002202 0.000000 0.000000 0.000000
# 3 -0.005561 0.002202 0.023260 0.000000 0.000000 0.000000
# 4 0.000000 0.000000 0.000000 0.076515 0.000000 0.000000
# 5 0.000000 0.000000 0.000000 0.000000 0.049227 0.000000
# 6 0.000000 0.000000 0.000000 0.000000 0.000000 0.058015
#
#
# Mechanical properties :
#
#
# Convention : Reuss Voigt Hill
#
# Bulk Modulus (GPa) = 15.62542 15.77535 15.70038
# Shear Modulus (GPa) = 18.15893 19.62636 18.89265
#
# Velocity S-wave (km/s) = 3.22288 3.35057 3.28734
# Velocity P-wave (km/s) = 4.77358 4.89816 4.83627
#
# Compressibility (1/GPa) = 0.06399826
#
# Stress axis : x y z
#
# Youngs Moduli (GPa) = 41.77241 50.18026 42.99280
#
# Poissons Ratio (x) = -0.09005 0.23906
# Poissons Ratio (y) = -0.07496 -0.09465
# Poissons Ratio (z) = 0.23228 -0.11047
#
# Static dielectric constant tensor:
#      x y z
#    x 1.689430 0.000000 0.000000 
#    y 0.000000 1.630240 0.000000 
#    z 0.000000 0.000000 1.602350 
# 
# From -- ./inp_files/34797.got.cif
#   From: 2010.05.17/outbox.cif.g08.bks.cpg/sg58_18_cif.got.tgz:34797.got - 2010.06.03 14:20:14.
