data_PCOD9441156
_publ_section_title
;
Structure prediction by ZEFSAII (Michael W. Deem and Ramdas Pophale) SiO2 
 PCOD9441156
Probable space group: P N N M
;
_chemical_formula_sum "Si O2"
_cell_formula_units_Z 48
_cell_length_a 7.369595
_cell_length_b 14.352494
_cell_length_c 20.844269
_cell_angle_alpha 90.000000
_cell_angle_beta 90.000000
_cell_angle_gamma 90.000000
_cell_volume 2204.741438
_symmetry_space_group_name_H-M "P N N M"
_symmetry_group_IT_number 58
_symmetry_cell_setting 'orthorhombic'
loop_
_space_group_symop_operation_xyz
x,y,z
-x,-y,z
1/2+x,1/2-y,1/2-z
1/2-x,1/2+y,1/2-z
-x,-y,-z
x,y,-z
1/2-x,1/2+y,1/2+z
1/2+x,1/2-y,1/2+z
loop_
_atom_site_type_symbol
_atom_site_label
_atom_site_fract_x
_atom_site_fract_y
_atom_site_fract_z
Si Si1 0.053599 0.751323 0.071305
Si Si2 0.058161 0.141112 0.710189
Si Si3 0.102233 0.146230 0.429442
Si Si4 0.752206 0.663211 0.307756
Si Si5 0.832416 0.313615 0.428649
Si Si6 0.790045 0.966341 0.172922
O O1 0.180675 0.660780 0.071849
O O2 0.121735 0.807478 0.133080
O O3 0.838037 0.742108 0.076286
O O4 0.086935 0.794814 0.000000
O O5 0.123598 0.248409 0.706309
O O6 0.188000 0.083370 0.757868
O O7 0.050631 0.102567 0.638194
O O8 0.865598 0.144172 0.744498
O O9 0.049235 0.109970 0.500000
O O10 0.011537 0.250377 0.424897
O O11 0.825087 0.561453 0.325221
O O12 0.829236 0.355693 0.500000
O O13 0.788612 0.392069 0.376935
O O14 0.000000 0.000000 0.156899
#
# Coordination Sequence:
#
# PCOD9441156 Si02
#       6
#     8   8   8   8   8   8
#     4   9  17  31  50  74 107 140 170 205 258 316
#     4  10  19  33  53  73 103 140 172 219 263 305
#     4   9  19  33  51  78 103 135 183 222 257 311
#     4  10  20  34  53  76 105 139 175 217 263 313
#     4  10  18  31  52  76 109 143 170 209 261 322
#     4  10  19  33  52  78 106 142 179 211 263 318
#
# _framework density 21.771260000000002
#
# number of rings (size 3 to 8) (size 9 to 14) (size 15 to 20)
#    0.000    2.333    3.333    1.000    0.000    1.000 
#    0.000    7.500    0.000   13.500    0.000    0.000 
#    0.000    5.333    0.000    0.000    0.000    0.000 
#
# Total GULP energy -267414.842347 kJ/mol
# GULP energy per Si atom -5571.142549 kJ/mol
# Density = 2.172171 g / cm^3
# Si number density = 21.771260 Si / 1000 Ang^3
#
#
#
# Elastic Constant Matrix: (Units=GPa)
#
#
# Indices 1 2 3 4 5 6 
#
# 1 57.0251 3.4516 -3.5697 0.0000 0.0000 0.0000
# 2 3.4516 73.8929 -5.6178 0.0000 0.0000 0.0000
# 3 -3.5697 -5.6178 145.2924 0.0000 0.0000 0.0000
# 4 0.0000 0.0000 0.0000 -8.6218 0.0000 0.0000
# 5 0.0000 0.0000 0.0000 0.0000 -86.2650 0.0000
# 6 0.0000 0.0000 0.0000 0.0000 0.0000 15.1466
#
#
#
# Elastic Compliance Matrix: (Units=1/GPa)
#
#
# Indices 1 2 3 4 5 6 
#
# 1 0.017609 -0.000792 0.000402 0.000000 0.000000 0.000000
# 2 -0.000792 0.013609 0.000507 0.000000 0.000000 0.000000
# 3 0.000402 0.000507 0.006912 0.000000 0.000000 0.000000
# 4 0.000000 0.000000 0.000000 -0.115985 0.000000 0.000000
# 5 0.000000 0.000000 0.000000 0.000000 -0.011592 0.000000
# 6 0.000000 0.000000 0.000000 0.000000 0.000000 0.066021
#
#
# Mechanical properties :
#
#
# Convention : Reuss Voigt Hill
#
# Bulk Modulus (GPa) = 26.06643 29.41541 27.74092
# Shear Modulus (GPa) = -459.91209 2.84838 -228.53186
#
# Velocity S-wave (km/s) = -14.55012 1.14506 -10.25658
# Velocity P-wave (km/s) = 16.44007 3.91007 11.29130
#
# Compressibility (1/GPa) = 0.03836353
#
# Stress axis : x y z
#
# Youngs Moduli (GPa) = 56.78836 73.48290 144.67292
#
# Poissons Ratio (x) = 0.05820 -0.05816
# Poissons Ratio (y) = 0.04498 -0.07331
# Poissons Ratio (z) = -0.02283 -0.03724
#
# Static dielectric constant tensor:
#      x y z
#    x 1.852200 0.000000 0.000000 
#    y 0.000000 1.802740 0.000000 
#    z 0.000000 0.000000 1.839890 
# 
# From -- ./inp_files/28855.got.cif
#   From: 2010.05.17/outbox.cif.g08.bks.cpg/sg58_15_cif.got.tgz:28855.got - 2010.06.03 14:20:14.
