data_PCOD9441163
_publ_section_title
;
Structure prediction by ZEFSAII (Michael W. Deem and Ramdas Pophale) SiO2 
 PCOD9441163
Probable space group: P N N M
;
_chemical_formula_sum "Si O2"
_cell_formula_units_Z 56
_cell_length_a 18.662282
_cell_length_b 11.502565
_cell_length_c 12.916784
_cell_angle_alpha 90.000000
_cell_angle_beta 90.000000
_cell_angle_gamma 90.000000
_cell_volume 2772.769964
_symmetry_space_group_name_H-M "P N N M"
_symmetry_group_IT_number 58
_symmetry_cell_setting 'orthorhombic'
loop_
_space_group_symop_operation_xyz
x,y,z
-x,-y,z
1/2+x,1/2-y,1/2-z
1/2-x,1/2+y,1/2-z
-x,-y,-z
x,y,-z
1/2-x,1/2+y,1/2+z
1/2+x,1/2-y,1/2+z
loop_
_atom_site_type_symbol
_atom_site_label
_atom_site_fract_x
_atom_site_fract_y
_atom_site_fract_z
Si Si1 0.683347 0.689840 0.376262
Si Si2 0.982606 0.869169 0.830992
Si Si3 0.653137 0.458208 0.260610
Si Si4 0.945137 0.843726 0.616359
Si Si5 0.490560 0.187257 0.500000
Si Si6 0.876565 0.522656 0.000000
Si Si7 0.650759 0.113550 0.117751
Si Si8 0.318242 0.059080 0.290618
O O1 0.668434 0.692351 0.500000
O O2 0.647908 0.581364 0.317896
O O3 0.769672 0.668619 0.367062
O O4 0.662670 0.809388 0.320571
O O5 0.894995 0.868249 0.827820
O O6 0.001240 0.853674 0.709779
O O7 0.000000 0.000000 0.864769
O O8 0.013951 0.770800 0.901568
O O9 0.614188 0.440169 0.149931
O O10 0.736206 0.434661 0.246619
O O11 0.970634 0.859476 0.500000
O O12 0.905719 0.718736 0.625217
O O13 0.569397 0.130185 0.500000
O O14 0.431647 0.086960 0.500000
O O15 0.829296 0.512364 0.896915
O O16 0.640321 0.011802 0.201429
O O17 0.648417 0.067777 0.000000
#
# Coordination Sequence:
#
# PCOD9441163 Si02
#       8
#     8   8   8   8   4   4   8   8
#     4  10  18  31  52  80 119 149 196 246 308 365
#     4  10  22  37  63  85 122 162 207 258 307 376
#     4   9  22  33  56  89 117 155 199 253 313 378
#     4   9  18  35  58  80 113 154 198 245 306 370
#     4  11  25  46  56  90 127 173 218 245 311 376
#     4  11  26  36  66  90 123 168 214 265 298 381
#     4   9  18  34  55  78 115 159 192 242 307 382
#     4  11  20  35  59  89 118 157 207 257 318 352
#
# _framework density 20.196411999999999
#
# number of rings (size 3 to 8) (size 9 to 14) (size 15 to 20)
#    0.857    1.286    2.143    1.071    4.000    0.286 
#    0.000    0.714    1.571    0.857    0.000    4.000 
#    0.000    0.000    0.000    0.000    0.000    0.000 
#
# Total GULP energy -312123.963790 kJ/mol
# GULP energy per Si atom -5573.642211 kJ/mol
# Density = 2.015044 g / cm^3
# Si number density = 20.196412 Si / 1000 Ang^3
#
#
#
# Elastic Constant Matrix: (Units=GPa)
#
#
# Indices 1 2 3 4 5 6 
#
# 1 55.6649 11.5946 4.9601 0.0000 0.0000 0.0000
# 2 11.5946 108.8909 77.6620 0.0000 0.0000 0.0000
# 3 4.9601 77.6620 119.3367 0.0000 0.0000 0.0000
# 4 0.0000 0.0000 0.0000 35.9714 0.0000 0.0000
# 5 0.0000 0.0000 0.0000 0.0000 11.3608 0.0000
# 6 0.0000 0.0000 0.0000 0.0000 0.0000 25.2162
#
#
#
# Elastic Compliance Matrix: (Units=1/GPa)
#
#
# Indices 1 2 3 4 5 6 
#
# 1 0.018430 -0.002643 0.000954 0.000000 0.000000 0.000000
# 2 -0.002643 0.017517 -0.011290 0.000000 0.000000 0.000000
# 3 0.000954 -0.011290 0.015687 0.000000 0.000000 0.000000
# 4 0.000000 0.000000 0.000000 0.027800 0.000000 0.000000
# 5 0.000000 0.000000 0.000000 0.000000 0.088022 0.000000
# 6 0.000000 0.000000 0.000000 0.000000 0.000000 0.039657
#
#
# Mechanical properties :
#
#
# Convention : Reuss Voigt Hill
#
# Bulk Modulus (GPa) = 38.94569 52.48065 45.71317
# Shear Modulus (GPa) = 20.69284 27.15474 23.92379
#
# Velocity S-wave (km/s) = 3.20438 3.67077 3.44547
# Velocity P-wave (km/s) = 5.74596 6.63382 6.20579
#
# Compressibility (1/GPa) = 0.02567678
#
# Stress axis : x y z
#
# Youngs Moduli (GPa) = 54.25912 57.08782 63.74632
#
# Poissons Ratio (x) = 0.15086 -0.06080
# Poissons Ratio (y) = 0.14339 0.71968
# Poissons Ratio (z) = -0.05175 0.64451
#
# Static dielectric constant tensor:
#      x y z
#    x 1.765150 0.000000 0.000000 
#    y 0.000000 1.708010 0.000000 
#    z 0.000000 0.000000 1.720710 
# 
# From -- ./inp_files/17512.got.cif
#   From: 2010.05.17/outbox.cif.g08.bks.cpg/sg58_9_cif.got.tgz:17512.got - 2010.06.03 14:20:14.
