data_PCOD9441794
_publ_section_title
;
Structure prediction by ZEFSAII (Michael W. Deem and Ramdas Pophale) SiO2 
 PCOD9441794
Probable space group: P N N M
;
_chemical_formula_sum "Si O2"
_cell_formula_units_Z 52
_cell_length_a 7.304115
_cell_length_b 24.537540
_cell_length_c 15.569226
_cell_angle_alpha 90.000000
_cell_angle_beta 90.000000
_cell_angle_gamma 90.000000
_cell_volume 2790.394747
_symmetry_space_group_name_H-M "P N N M"
_symmetry_group_IT_number 58
_symmetry_cell_setting 'orthorhombic'
loop_
_space_group_symop_operation_xyz
x,y,z
-x,-y,z
1/2+x,1/2-y,1/2-z
1/2-x,1/2+y,1/2-z
-x,-y,-z
x,y,-z
1/2-x,1/2+y,1/2+z
1/2+x,1/2-y,1/2+z
loop_
_atom_site_type_symbol
_atom_site_label
_atom_site_fract_x
_atom_site_fract_y
_atom_site_fract_z
Si Si1 0.110613 0.784951 0.095985
Si Si2 0.681588 0.754175 0.093566
Si Si3 0.796679 0.521819 0.905861
Si Si4 0.331332 0.192502 0.728166
Si Si5 0.014175 0.880038 0.208167
Si Si6 0.195259 0.358579 0.851846
Si Si7 0.500000 0.500000 0.239416
O O1 0.205055 0.745209 0.166515
O O2 0.084469 0.847466 0.124757
O O3 0.898703 0.766518 0.094391
O O4 0.185277 0.778391 0.000000
O O5 0.607674 0.783610 0.178833
O O6 0.687462 0.689317 0.104258
O O7 0.608817 0.770699 0.000000
O O8 0.812919 0.587036 0.906388
O O9 0.669722 0.504451 0.826912
O O10 0.000000 0.500000 0.892875
O O11 0.730017 0.502688 0.000000
O O12 0.495553 0.161021 0.680183
O O13 0.157777 0.153631 0.749988
O O14 0.186507 0.873986 0.269848
O O15 0.976275 0.944589 0.205707
#
# Coordination Sequence:
#
# PCOD9441794 Si02
#       7
#     8   8   8   8   8   8   4
#     4   9  18  33  54  79 107 140 178 226 275 324
#     4   9  17  30  51  76 105 138 171 210 269 327
#     4  10  20  34  52  74 102 137 180 222 264 316
#     4  10  19  34  54  76 109 140 175 221 276 325
#     4  10  20  35  54  76 108 143 176 224 265 323
#     4  10  19  32  51  73 103 137 173 213 260 317
#     4  10  21  36  53  76 106 146 186 220 272 320
#
# _framework density 18.635355000000001
#
# number of rings (size 3 to 8) (size 9 to 14) (size 15 to 20)
#    0.000    2.308    1.538    1.615    0.000    0.615 
#    0.000    7.308    0.000    0.000    0.000    0.000 
#    0.000   14.769    0.000    0.000    0.000    0.000 
#
# Total GULP energy -289528.058094 kJ/mol
# GULP energy per Si atom -5567.847271 kJ/mol
# Density = 1.859294 g / cm^3
# Si number density = 18.635355 Si / 1000 Ang^3
#
#
#
# Elastic Constant Matrix: (Units=GPa)
#
#
# Indices 1 2 3 4 5 6 
#
# 1 59.2652 4.4055 -7.1344 0.0000 0.0000 0.0000
# 2 4.4055 111.8566 19.9787 0.0000 0.0000 0.0000
# 3 -7.1344 19.9787 82.3463 0.0000 0.0000 0.0000
# 4 0.0000 0.0000 0.0000 19.4909 0.0000 0.0000
# 5 0.0000 0.0000 0.0000 0.0000 7.2130 0.0000
# 6 0.0000 0.0000 0.0000 0.0000 0.0000 25.2821
#
#
#
# Elastic Compliance Matrix: (Units=1/GPa)
#
#
# Indices 1 2 3 4 5 6 
#
# 1 0.017154 -0.000984 0.001725 0.000000 0.000000 0.000000
# 2 -0.000984 0.009401 -0.002366 0.000000 0.000000 0.000000
# 3 0.001725 -0.002366 0.012867 0.000000 0.000000 0.000000
# 4 0.000000 0.000000 0.000000 0.051306 0.000000 0.000000
# 5 0.000000 0.000000 0.000000 0.000000 0.138639 0.000000
# 6 0.000000 0.000000 0.000000 0.000000 0.000000 0.039554
#
#
# Mechanical properties :
#
#
# Convention : Reuss Voigt Hill
#
# Bulk Modulus (GPa) = 27.64506 31.99641 29.82073
# Shear Modulus (GPa) = 17.59143 26.14507 21.86825
#
# Velocity S-wave (km/s) = 3.07576 3.74970 3.42933
# Velocity P-wave (km/s) = 5.24220 5.99617 5.63182
#
# Compressibility (1/GPa) = 0.03617283
#
# Stress axis : x y z
#
# Youngs Moduli (GPa) = 58.29515 106.36730 77.71606
#
# Poissons Ratio (x) = 0.10463 -0.13405
# Poissons Ratio (y) = 0.05734 0.18389
# Poissons Ratio (z) = -0.10055 0.25168
#
# Static dielectric constant tensor:
#      x y z
#    x 1.656480 0.000000 0.000000 
#    y 0.000000 1.744690 0.000000 
#    z 0.000000 0.000000 1.679990 
# 
# From -- ./inp_files/20061.got.cif
#   From: 2010.05.17/outbox.cif.g08.bks.cpg/sg58_11_cif.got.tgz:20061.got - 2010.06.03 14:20:14.
