data_PCOD9441358
_publ_section_title
;
Structure prediction by ZEFSAII (Michael W. Deem and Ramdas Pophale) SiO2 
 PCOD9441358
Probable space group: P N N M
;
_chemical_formula_sum "Si O2"
_cell_formula_units_Z 40
_cell_length_a 16.746022
_cell_length_b 6.673159
_cell_length_c 16.148020
_cell_angle_alpha 90.000000
_cell_angle_beta 90.000000
_cell_angle_gamma 90.000000
_cell_volume 1804.522946
_symmetry_space_group_name_H-M "P N N M"
_symmetry_group_IT_number 58
_symmetry_cell_setting 'orthorhombic'
loop_
_space_group_symop_operation_xyz
x,y,z
-x,-y,z
1/2+x,1/2-y,1/2-z
1/2-x,1/2+y,1/2-z
-x,-y,-z
x,y,-z
1/2-x,1/2+y,1/2+z
1/2+x,1/2-y,1/2+z
loop_
_atom_site_type_symbol
_atom_site_label
_atom_site_fract_x
_atom_site_fract_y
_atom_site_fract_z
Si Si1 0.279305 0.591999 0.646158
Si Si2 0.147240 0.868247 0.406764
Si Si3 0.853843 0.731514 0.686822
Si Si4 0.026195 0.763175 0.265449
Si Si5 0.572592 0.658365 0.411100
O O1 0.236716 0.782554 0.604583
O O2 0.207892 0.438407 0.663126
O O3 0.318774 0.658365 0.732278
O O4 0.347332 0.473250 0.597341
O O5 0.120135 0.827964 0.500000
O O6 0.090951 0.765421 0.338153
O O7 0.143030 0.103103 0.385427
O O8 0.942740 0.659921 0.710515
O O9 0.061045 0.717806 0.174047
O O10 0.000000 0.000000 0.260827
O O11 0.500000 0.500000 0.413386
O O12 0.573323 0.768054 0.500000
#
# Coordination Sequence:
#
# PCOD9441358 Si02
#       5
#     8   8   8   8   8
#     4  12  21  40  62  95 121 162 207 255 307 361
#     4  11  24  41  63  93 128 161 203 258 307 364
#     4  11  22  38  67  88 123 166 207 249 307 370
#     4   9  18  39  58  88 121 163 205 246 310 364
#     4  10  18  33  61  89 119 160 204 246 303 369
#
# _framework density 22.166525
#
# number of rings (size 3 to 8) (size 9 to 14) (size 15 to 20)
#    0.000    1.400    8.000    0.600    0.000    6.000 
#    0.000    1.000    0.000    1.200    0.000    7.000 
#    0.000    0.000    0.000    0.000    0.000    0.000 
#
# Total GULP energy -223557.442799 kJ/mol
# GULP energy per Si atom -5588.936070 kJ/mol
# Density = 2.211607 g / cm^3
# Si number density = 22.166525 Si / 1000 Ang^3
#
#
#
# Elastic Constant Matrix: (Units=GPa)
#
#
# Indices 1 2 3 4 5 6 
#
# 1 158.7465 31.8572 52.1152 0.0000 0.0000 0.0000
# 2 31.8572 41.0652 15.7073 0.0000 0.0000 0.0000
# 3 52.1152 15.7073 169.8876 0.0000 0.0000 0.0000
# 4 0.0000 0.0000 0.0000 11.8109 0.0000 0.0000
# 5 0.0000 0.0000 0.0000 0.0000 54.6926 0.0000
# 6 0.0000 0.0000 0.0000 0.0000 0.0000 40.4020
#
#
#
# Elastic Compliance Matrix: (Units=1/GPa)
#
#
# Indices 1 2 3 4 5 6 
#
# 1 0.008045 -0.005491 -0.001960 0.000000 0.000000 0.000000
# 2 -0.005491 0.028992 -0.000996 0.000000 0.000000 0.000000
# 3 -0.001960 -0.000996 0.006580 0.000000 0.000000 0.000000
# 4 0.000000 0.000000 0.000000 0.084667 0.000000 0.000000
# 5 0.000000 0.000000 0.000000 0.000000 0.018284 0.000000
# 6 0.000000 0.000000 0.000000 0.000000 0.000000 0.024751
#
#
# Mechanical properties :
#
#
# Convention : Reuss Voigt Hill
#
# Bulk Modulus (GPa) = 37.42226 63.22874 50.32550
# Shear Modulus (GPa) = 25.36504 39.38241 32.37372
#
# Velocity S-wave (km/s) = 3.38641 4.21962 3.82577
# Velocity P-wave (km/s) = 5.67533 7.23371 6.50138
#
# Compressibility (1/GPa) = 0.02672207
#
# Stress axis : x y z
#
# Youngs Moduli (GPa) = 124.30354 34.49181 151.98401
#
# Poissons Ratio (x) = 0.18940 0.29791
# Poissons Ratio (y) = 0.68257 0.15138
# Poissons Ratio (z) = 0.24365 0.03436
#
# Static dielectric constant tensor:
#      x y z
#    x 1.801750 0.000000 0.000000 
#    y 0.000000 1.875230 0.000000 
#    z 0.000000 0.000000 1.814690 
# 
# From -- ./inp_files/21898.got.cif
#   From: 2010.05.17/outbox.cif.g08.bks.cpg/sg58_11_cif.got.tgz:21898.got - 2010.06.03 14:20:14.
