data_PCOD9441553
_publ_section_title
;
Structure prediction by ZEFSAII (Michael W. Deem and Ramdas Pophale) SiO2 
 PCOD9441553
Probable space group: P N N M
;
_chemical_formula_sum "Si O2"
_cell_formula_units_Z 56
_cell_length_a 19.928391
_cell_length_b 18.419122
_cell_length_c 7.582332
_cell_angle_alpha 90.000000
_cell_angle_beta 90.000000
_cell_angle_gamma 90.000000
_cell_volume 2783.197057
_symmetry_space_group_name_H-M "P N N M"
_symmetry_group_IT_number 58
_symmetry_cell_setting 'orthorhombic'
loop_
_space_group_symop_operation_xyz
x,y,z
-x,-y,z
1/2+x,1/2-y,1/2-z
1/2-x,1/2+y,1/2-z
-x,-y,-z
x,y,-z
1/2-x,1/2+y,1/2+z
1/2+x,1/2-y,1/2+z
loop_
_atom_site_type_symbol
_atom_site_label
_atom_site_fract_x
_atom_site_fract_y
_atom_site_fract_z
Si Si1 0.110507 0.310511 0.211649
Si Si2 0.249746 0.359118 0.710391
Si Si3 0.039726 0.165935 0.213250
Si Si4 0.394087 0.375403 0.294276
Si Si5 0.144143 0.038750 0.290021
Si Si6 0.788538 0.478578 0.799452
Si Si7 0.073010 0.472467 0.783469
O O1 0.189329 0.304220 0.255881
O O2 0.068061 0.242711 0.278210
O O3 0.085471 0.389410 0.274795
O O4 0.104907 0.311608 0.000000
O O5 0.253137 0.372509 0.500000
O O6 0.324565 0.341252 0.775226
O O7 0.228315 0.435037 0.799111
O O8 0.092180 0.102504 0.255570
O O9 0.965466 0.147396 0.282643
O O10 0.036490 0.169020 0.000000
O O11 0.396844 0.355535 0.500000
O O12 0.383449 0.462247 0.281618
O O13 0.150712 0.028917 0.500000
O O14 0.219899 0.053656 0.219959
O O15 0.863634 0.478550 0.722176
O O16 0.793980 0.451058 0.000000
O O17 0.000000 0.500000 0.730066
O O18 0.075261 0.473148 0.000000
#
# Coordination Sequence:
#
# PCOD9441553 Si02
#       7
#     8   8   8   8   8   8   8
#     4   9  18  32  48  66  91 124 157 189 233 285
#     4   9  16  28  48  69  88 114 150 190 228 269
#     4  10  20  33  47  65  94 129 160 191 231 282
#     4   9  18  32  49  69  92 122 160 196 231 275
#     4  10  19  30  46  70  97 124 156 195 238 279
#     4   8  15  28  45  67  93 117 145 183 228 278
#     4   8  13  25  48  72  88 109 149 196 234 269
#
# _framework density 20.120744999999999
#
# number of rings (size 3 to 8) (size 9 to 14) (size 15 to 20)
#    0.000    3.000    0.000    2.143    0.000    4.000 
#    0.000    1.429    0.000   12.000    0.000    2.000 
#    0.000    0.000    0.000    0.000    0.000    0.000 
#
# Total GULP energy -311939.299013 kJ/mol
# GULP energy per Si atom -5570.344625 kJ/mol
# Density = 2.007495 g / cm^3
# Si number density = 20.120745 Si / 1000 Ang^3
#
#
#
# Elastic Constant Matrix: (Units=GPa)
#
#
# Indices 1 2 3 4 5 6 
#
# 1 244.1998 72.6697 -0.4525 0.0000 0.0000 0.0000
# 2 72.6697 54.3680 -6.1440 0.0000 0.0000 0.0000
# 3 -0.4525 -6.1440 48.9029 0.0000 0.0000 0.0000
# 4 0.0000 0.0000 0.0000 9.2872 0.0000 0.0000
# 5 0.0000 0.0000 0.0000 0.0000 15.3080 0.0000
# 6 0.0000 0.0000 0.0000 0.0000 0.0000 21.5465
#
#
#
# Elastic Compliance Matrix: (Units=1/GPa)
#
#
# Indices 1 2 3 4 5 6 
#
# 1 0.006858 -0.009291 -0.001104 0.000000 0.000000 0.000000
# 2 -0.009291 0.031246 0.003840 0.000000 0.000000 0.000000
# 3 -0.001104 0.003840 0.020921 0.000000 0.000000 0.000000
# 4 0.000000 0.000000 0.000000 0.107675 0.000000 0.000000
# 5 0.000000 0.000000 0.000000 0.000000 0.065325 0.000000
# 6 0.000000 0.000000 0.000000 0.000000 0.000000 0.046411
#
#
# Mechanical properties :
#
#
# Convention : Reuss Voigt Hill
#
# Bulk Modulus (GPa) = 21.77991 53.29078 37.53535
# Shear Modulus (GPa) = 16.29455 27.98818 22.14137
#
# Velocity S-wave (km/s) = 2.84885 3.73367 3.32086
# Velocity P-wave (km/s) = 4.65504 6.71789 5.77925
#
# Compressibility (1/GPa) = 0.04591387
#
# Stress axis : x y z
#
# Youngs Moduli (GPa) = 145.81875 32.00435 47.79919
#
# Poissons Ratio (x) = 0.29736 0.05276
# Poissons Ratio (y) = 1.35481 -0.18353
# Poissons Ratio (z) = 0.16096 -0.12289
#
# Static dielectric constant tensor:
#      x y z
#    x 1.779440 0.000000 0.000000 
#    y 0.000000 1.660630 0.000000 
#    z 0.000000 0.000000 1.784050 
# 
# From -- ./inp_files/8147.got.cif
#   From: 2010.05.17/outbox.cif.g08.bks.cpg/sg58_5_cif.got.tgz:8147.got - 2010.06.03 14:20:14.
