data_PCOD9441497
_publ_section_title
;
Structure prediction by ZEFSAII (Michael W. Deem and Ramdas Pophale) SiO2 
 PCOD9441497
Probable space group: P N N M
;
_chemical_formula_sum "Si O2"
_cell_formula_units_Z 56
_cell_length_a 19.336980
_cell_length_b 21.406258
_cell_length_c 7.613743
_cell_angle_alpha 90.000000
_cell_angle_beta 90.000000
_cell_angle_gamma 90.000000
_cell_volume 3151.574782
_symmetry_space_group_name_H-M "P N N M"
_symmetry_group_IT_number 58
_symmetry_cell_setting 'orthorhombic'
loop_
_space_group_symop_operation_xyz
x,y,z
-x,-y,z
1/2+x,1/2-y,1/2-z
1/2-x,1/2+y,1/2-z
-x,-y,-z
x,y,-z
1/2-x,1/2+y,1/2+z
1/2+x,1/2-y,1/2+z
loop_
_atom_site_type_symbol
_atom_site_label
_atom_site_fract_x
_atom_site_fract_y
_atom_site_fract_z
Si Si1 0.650871 0.630770 0.209219
Si Si2 0.921036 0.000057 0.788223
Si Si3 0.924064 0.258928 0.205116
Si Si4 0.717484 0.804558 0.708914
Si Si5 0.346843 0.624981 0.288610
Si Si6 0.579335 0.246584 0.716528
Si Si7 0.791336 0.677690 0.800365
O O1 0.616346 0.564677 0.244726
O O2 0.605168 0.688181 0.280678
O O3 0.729852 0.636106 0.279523
O O4 0.654662 0.640518 0.000000
O O5 0.879609 0.939365 0.723398
O O6 0.923664 0.995691 0.000000
O O7 0.000000 0.000000 0.723648
O O8 0.861662 0.302635 0.272984
O O9 0.001112 0.262534 0.279479
O O10 0.931728 0.274110 0.000000
O O11 0.716734 0.791453 0.500000
O O12 0.767063 0.863207 0.738951
O O13 0.755762 0.746374 0.800253
O O14 0.350214 0.624654 0.500000
O O15 0.391026 0.685529 0.228919
O O16 0.580429 0.246569 0.500000
O O17 0.633515 0.193369 0.776777
O O18 0.802673 0.655916 0.000000
#
# Coordination Sequence:
#
# PCOD9441497 Si02
#       7
#     8   8   8   8   8   8   8
#     4  10  19  29  42  62  88 114 138 171 213 248
#     4  10  20  33  47  61  80 112 150 177 199 239
#     4   9  16  27  44  64  85 111 141 171 204 245
#     4   9  16  25  40  62  85 107 133 170 210 244
#     4   9  17  29  44  59  79 111 143 169 201 243
#     4   8  13  25  45  63  79 104 140 173 198 236
#     4   8  15  28  43  58  80 111 141 167 202 249
#
# _framework density 17.768894
#
# number of rings (size 3 to 8) (size 9 to 14) (size 15 to 20)
#    0.000    3.000    0.000    2.571    0.000    4.286 
#    0.000    5.714    0.000    0.000    0.000    1.000 
#    0.000    8.000    0.000    0.000    0.000    0.000 
#
# Total GULP energy -311792.156165 kJ/mol
# GULP energy per Si atom -5567.717074 kJ/mol
# Density = 1.772845 g / cm^3
# Si number density = 17.768894 Si / 1000 Ang^3
#
#
#
# Elastic Constant Matrix: (Units=GPa)
#
#
# Indices 1 2 3 4 5 6 
#
# 1 203.1562 71.2804 -0.2722 0.0000 0.0000 0.0000
# 2 71.2804 74.5369 -4.6996 0.0000 0.0000 0.0000
# 3 -0.2722 -4.6996 40.6986 0.0000 0.0000 0.0000
# 4 0.0000 0.0000 0.0000 6.5275 0.0000 0.0000
# 5 0.0000 0.0000 0.0000 0.0000 13.6756 0.0000
# 6 0.0000 0.0000 0.0000 0.0000 0.0000 28.0021
#
#
#
# Elastic Compliance Matrix: (Units=1/GPa)
#
#
# Indices 1 2 3 4 5 6 
#
# 1 0.007432 -0.007157 -0.000777 0.000000 0.000000 0.000000
# 2 -0.007157 0.020406 0.002308 0.000000 0.000000 0.000000
# 3 -0.000777 0.002308 0.024832 0.000000 0.000000 0.000000
# 4 0.000000 0.000000 0.000000 0.153198 0.000000 0.000000
# 5 0.000000 0.000000 0.000000 0.000000 0.073123 0.000000
# 6 0.000000 0.000000 0.000000 0.000000 0.000000 0.035712
#
#
# Mechanical properties :
#
#
# Convention : Reuss Voigt Hill
#
# Bulk Modulus (GPa) = 24.14265 50.11211 37.12738
# Shear Modulus (GPa) = 14.71630 26.44657 20.58143
#
# Velocity S-wave (km/s) = 2.88098 3.86212 3.40705
# Velocity P-wave (km/s) = 4.96822 6.93911 6.03467
#
# Compressibility (1/GPa) = 0.04142048
#
# Stress axis : x y z
#
# Youngs Moduli (GPa) = 134.54878 49.00625 40.27029
#
# Poissons Ratio (x) = 0.35071 0.03128
# Poissons Ratio (y) = 0.96290 -0.09296
# Poissons Ratio (z) = 0.10450 -0.11313
#
# Static dielectric constant tensor:
#      x y z
#    x 1.672220 0.000000 0.000000 
#    y 0.000000 1.572320 0.000000 
#    z 0.000000 0.000000 1.683180 
# 
# From -- ./inp_files/8127.got.cif
#   From: 2010.05.17/outbox.cif.g08.bks.cpg/sg58_5_cif.got.tgz:8127.got - 2010.06.03 14:20:14.
