data_PCOD9441884
_publ_section_title
;
Structure prediction by ZEFSAII (Michael W. Deem and Ramdas Pophale) SiO2 
 PCOD9441884
Probable space group: P N N M
;
_chemical_formula_sum "Si O2"
_cell_formula_units_Z 64
_cell_length_a 29.192742
_cell_length_b 12.435050
_cell_length_c 9.079878
_cell_angle_alpha 90.000000
_cell_angle_beta 90.000000
_cell_angle_gamma 90.000000
_cell_volume 3296.115627
_symmetry_space_group_name_H-M "P N N M"
_symmetry_group_IT_number 58
_symmetry_cell_setting 'orthorhombic'
loop_
_space_group_symop_operation_xyz
x,y,z
-x,-y,z
1/2+x,1/2-y,1/2-z
1/2-x,1/2+y,1/2-z
-x,-y,-z
x,y,-z
1/2-x,1/2+y,1/2+z
1/2+x,1/2-y,1/2+z
loop_
_atom_site_type_symbol
_atom_site_label
_atom_site_fract_x
_atom_site_fract_y
_atom_site_fract_z
Si Si1 0.377737 0.818106 0.825021
Si Si2 0.834572 0.356175 0.830611
Si Si3 0.312267 0.361669 0.176901
Si Si4 0.421505 0.041741 0.175298
Si Si5 0.210918 0.418078 0.172531
Si Si6 0.089002 0.931293 0.325584
Si Si7 0.020131 0.737203 0.672718
Si Si8 0.563192 0.354627 0.674677
O O1 0.328993 0.858950 0.763524
O O2 0.394523 0.711594 0.743892
O O3 0.414945 0.914632 0.797823
O O4 0.375309 0.801341 0.000000
O O5 0.818837 0.259307 0.730074
O O6 0.882037 0.403126 0.770748
O O7 0.799830 0.455584 0.822698
O O8 0.839058 0.321323 0.000000
O O9 0.262379 0.399505 0.227649
O O10 0.358189 0.423932 0.225503
O O11 0.312571 0.367159 0.000000
O O12 0.466384 0.113566 0.205392
O O13 0.412474 0.056969 0.000000
O O14 0.207573 0.384598 0.000000
O O15 0.087720 0.956581 0.500000
O O16 0.063292 0.025283 0.239611
O O17 0.064391 0.815413 0.309430
O O18 0.006287 0.742842 0.500000
O O19 0.981165 0.789288 0.771217
O O20 0.565771 0.357043 0.500000
#
# Coordination Sequence:
#
# PCOD9441884 Si02
#       8
#     8   8   8   8   8   8   8   8
#     4  10  21  39  62  85 115 154 197 240 288 349
#     4  10  19  32  53  83 117 149 186 236 291 342
#     4  10  20  37  60  85 114 151 194 238 286 344
#     4   9  18  36  62  87 110 146 194 240 286 344
#     4   9  20  37  57  84 118 152 187 235 294 346
#     4  10  21  39  62  85 114 155 201 244 288 348
#     4  10  20  38  63  88 114 149 198 244 293 353
#     4  12  26  40  56  83 123 160 195 241 299 351
#
# _framework density 19.416795
#
# number of rings (size 3 to 8) (size 9 to 14) (size 15 to 20)
#    0.000    2.000    1.250    2.250    0.000    6.000 
#    0.000    3.750    0.000    0.000    0.000    0.000 
#    0.000    0.000    0.000    0.000    0.000    0.000 
#
# Total GULP energy -357236.520707 kJ/mol
# GULP energy per Si atom -5581.820636 kJ/mol
# Density = 1.937260 g / cm^3
# Si number density = 19.416795 Si / 1000 Ang^3
#
#
#
# Elastic Constant Matrix: (Units=GPa)
#
#
# Indices 1 2 3 4 5 6 
#
# 1 63.3668 3.3153 21.5478 0.0000 0.0000 0.0000
# 2 3.3153 46.5661 19.9273 0.0000 0.0000 0.0000
# 3 21.5478 19.9273 32.0939 0.0000 0.0000 0.0000
# 4 0.0000 0.0000 0.0000 22.5100 0.0000 0.0000
# 5 0.0000 0.0000 0.0000 0.0000 23.6372 0.0000
# 6 0.0000 0.0000 0.0000 0.0000 0.0000 18.0087
#
#
#
# Elastic Compliance Matrix: (Units=1/GPa)
#
#
# Indices 1 2 3 4 5 6 
#
# 1 0.021769 0.006407 -0.018594 0.000000 0.000000 0.000000
# 2 0.006407 0.031131 -0.023631 0.000000 0.000000 0.000000
# 3 -0.018594 -0.023631 0.058315 0.000000 0.000000 0.000000
# 4 0.000000 0.000000 0.000000 0.044425 0.000000 0.000000
# 5 0.000000 0.000000 0.000000 0.000000 0.042306 0.000000
# 6 0.000000 0.000000 0.000000 0.000000 0.000000 0.055529
#
#
# Mechanical properties :
#
#
# Convention : Reuss Voigt Hill
#
# Bulk Modulus (GPa) = 25.26569 25.73416 25.49993
# Shear Modulus (GPa) = 14.77960 19.31360 17.04660
#
# Velocity S-wave (km/s) = 2.76194 3.15728 2.96620
# Velocity P-wave (km/s) = 4.81784 5.15496 4.98925
#
# Compressibility (1/GPa) = 0.03957937
#
# Stress axis : x y z
#
# Youngs Moduli (GPa) = 45.93754 32.12192 17.14818
#
# Poissons Ratio (x) = -0.20581 0.31885
# Poissons Ratio (y) = -0.29433 0.40524
# Poissons Ratio (z) = 0.85415 0.75909
#
# Static dielectric constant tensor:
#      x y z
#    x 1.704410 0.000000 0.000000 
#    y 0.000000 1.671880 0.000000 
#    z 0.000000 0.000000 1.644160 
# 
# From -- ./inp_files/11044.got.cif
#   From: 2010.05.17/outbox.cif.g08.bks.cpg/sg58_6_cif.got.tgz:11044.got - 2010.06.03 14:20:14.
