data_PCOD9441191
_publ_section_title
;
Structure prediction by ZEFSAII (Michael W. Deem and Ramdas Pophale) SiO2 
 PCOD9441191
Probable space group: P N N M
;
_chemical_formula_sum "Si O2"
_cell_formula_units_Z 56
_cell_length_a 21.730781
_cell_length_b 7.598865
_cell_length_c 13.690110
_cell_angle_alpha 90.000000
_cell_angle_beta 90.000000
_cell_angle_gamma 90.000000
_cell_volume 2260.637886
_symmetry_space_group_name_H-M "P N N M"
_symmetry_group_IT_number 58
_symmetry_cell_setting 'orthorhombic'
loop_
_space_group_symop_operation_xyz
x,y,z
-x,-y,z
1/2+x,1/2-y,1/2-z
1/2-x,1/2+y,1/2-z
-x,-y,-z
x,y,-z
1/2-x,1/2+y,1/2+z
1/2+x,1/2-y,1/2+z
loop_
_atom_site_type_symbol
_atom_site_label
_atom_site_fract_x
_atom_site_fract_y
_atom_site_fract_z
Si Si1 0.987311 0.310285 0.177902
Si Si2 0.252179 0.651072 0.391259
Si Si3 0.297532 0.446615 0.232576
Si Si4 0.471425 0.231347 0.893027
Si Si5 0.636276 0.794999 0.389957
Si Si6 0.397173 0.600689 0.892649
Si Si7 0.111815 0.290373 0.110821
O O1 0.933497 0.221736 0.117855
O O2 0.000000 0.500000 0.131667
O O3 0.960078 0.347521 0.286368
O O4 0.054701 0.225597 0.176629
O O5 0.232988 0.596136 0.500000
O O6 0.242662 0.524422 0.298796
O O7 0.223446 0.836974 0.361675
O O8 0.326034 0.677648 0.389192
O O9 0.328201 0.309674 0.307380
O O10 0.344611 0.591294 0.188826
O O11 0.432973 0.412749 0.889683
O O12 0.544910 0.266952 0.890118
O O13 0.456447 0.151597 0.000000
O O14 0.660591 0.770252 0.500000
O O15 0.631274 0.005491 0.370601
O O16 0.368317 0.621517 0.000000
O O17 0.088010 0.284025 0.000000
#
# Coordination Sequence:
#
# PCOD9441191 Si02
#       7
#     8   8   8   8   8   8   8
#     4  10  18  31  54  83 116 152 189 233 294 357
#     4  11  25  42  62  90 120 156 206 255 299 361
#     4  12  22  40  63  85 119 157 199 250 312 356
#     4   9  17  31  50  80 114 144 186 233 285 350
#     4  10  20  35  58  87 116 154 199 241 297 365
#     4   9  18  33  56  79 106 148 192 235 287 355
#     4   9  19  37  57  81 118 156 192 240 293 352
#
# _framework density 24.77177
#
# number of rings (size 3 to 8) (size 9 to 14) (size 15 to 20)
#    0.000    2.000    1.429    3.857    0.000    2.000 
#    0.000    2.143    0.000    8.571    0.000    0.000 
#    0.000    0.000    0.000    0.000    0.000    0.000 
#
# Total GULP energy -312450.693587 kJ/mol
# GULP energy per Si atom -5579.476671 kJ/mol
# Density = 2.471539 g / cm^3
# Si number density = 24.771770 Si / 1000 Ang^3
#
#
#
# Elastic Constant Matrix: (Units=GPa)
#
#
# Indices 1 2 3 4 5 6 
#
# 1 34.0469 -7.6287 14.6639 0.0000 0.0000 0.0000
# 2 -7.6287 23.3896 -4.0085 0.0000 0.0000 0.0000
# 3 14.6639 -4.0085 155.2989 0.0000 0.0000 0.0000
# 4 0.0000 0.0000 0.0000 28.4771 0.0000 0.0000
# 5 0.0000 0.0000 0.0000 0.0000 28.5391 0.0000
# 6 0.0000 0.0000 0.0000 0.0000 0.0000 24.6526
#
#
#
# Elastic Compliance Matrix: (Units=1/GPa)
#
#
# Indices 1 2 3 4 5 6 
#
# 1 0.032889 0.010240 -0.002841 0.000000 0.000000 0.000000
# 2 0.010240 0.046132 0.000224 0.000000 0.000000 0.000000
# 3 -0.002841 0.000224 0.006713 0.000000 0.000000 0.000000
# 4 0.000000 0.000000 0.000000 0.035116 0.000000 0.000000
# 5 0.000000 0.000000 0.000000 0.000000 0.035040 0.000000
# 6 0.000000 0.000000 0.000000 0.000000 0.000000 0.040564
#
#
# Mechanical properties :
#
#
# Convention : Reuss Voigt Hill
#
# Bulk Modulus (GPa) = 9.90290 24.30987 17.10639
# Shear Modulus (GPa) = 23.27000 30.31433 26.79216
#
# Velocity S-wave (km/s) = 3.06825 3.50200 3.29228
# Velocity P-wave (km/s) = 4.06922 5.11731 4.62306
#
# Compressibility (1/GPa) = 0.10098051
#
# Stress axis : x y z
#
# Youngs Moduli (GPa) = 30.40497 21.67676 148.95909
#
# Poissons Ratio (x) = -0.22197 0.42323
# Poissons Ratio (y) = -0.31135 -0.03334
# Poissons Ratio (z) = 0.08639 -0.00485
#
# Static dielectric constant tensor:
#      x y z
#    x 2.023990 0.000000 0.000000 
#    y 0.000000 2.041820 0.000000 
#    z 0.000000 0.000000 1.996140 
# 
# From -- ./inp_files/23271.got.cif
#   From: 2010.05.17/outbox.cif.g08.bks.cpg/sg58_12_cif.got.tgz:23271.got - 2010.06.03 14:20:14.
