data_PCOD9441645
_publ_section_title
;
Structure prediction by ZEFSAII (Michael W. Deem and Ramdas Pophale) SiO2 
 PCOD9441645
Probable space group: P N N M
;
_chemical_formula_sum "Si O2"
_cell_formula_units_Z 56
_cell_length_a 19.264275
_cell_length_b 20.066007
_cell_length_c 7.625754
_cell_angle_alpha 90.000000
_cell_angle_beta 90.000000
_cell_angle_gamma 90.000000
_cell_volume 2947.789176
_symmetry_space_group_name_H-M "P N N M"
_symmetry_group_IT_number 58
_symmetry_cell_setting 'orthorhombic'
loop_
_space_group_symop_operation_xyz
x,y,z
-x,-y,z
1/2+x,1/2-y,1/2-z
1/2-x,1/2+y,1/2-z
-x,-y,-z
x,y,-z
1/2-x,1/2+y,1/2+z
1/2+x,1/2-y,1/2+z
loop_
_atom_site_type_symbol
_atom_site_label
_atom_site_fract_x
_atom_site_fract_y
_atom_site_fract_z
Si Si1 0.237888 0.394290 0.215705
Si Si2 0.852182 0.212315 0.290718
Si Si3 0.513306 0.302516 0.709746
Si Si4 0.218563 0.036687 0.293600
Si Si5 0.559312 0.448454 0.287313
Si Si6 0.371658 0.791260 0.701316
Si Si7 0.241524 0.183982 0.294641
O O1 0.304651 0.350001 0.269212
O O2 0.246292 0.469797 0.277777
O O3 0.169697 0.354304 0.277462
O O4 0.237303 0.394065 0.000000
O O5 0.847665 0.214261 0.500000
O O6 0.814886 0.278881 0.222167
O O7 0.931886 0.204801 0.240763
O O8 0.524574 0.303306 0.500000
O O9 0.540858 0.373931 0.775139
O O10 0.559535 0.241491 0.781325
O O11 0.235476 0.038179 0.500000
O O12 0.135637 0.031041 0.273233
O O13 0.239963 0.109079 0.222203
O O14 0.500000 0.500000 0.230168
O O15 0.559819 0.448285 0.500000
O O16 0.387446 0.809182 0.500000
O O17 0.314953 0.731531 0.703891
O O18 0.222076 0.181775 0.500000
#
# Coordination Sequence:
#
# PCOD9441645 Si02
#       7
#     8   8   8   8   8   8   8
#     4   8  16  31  49  70  94 123 163 202 240 284
#     4  10  20  33  51  71  96 130 165 203 244 291
#     4  10  19  31  48  71  99 129 162 201 243 288
#     4  10  19  31  49  72  97 127 162 203 242 288
#     4  10  20  31  45  70 105 137 161 191 240 300
#     4   9  17  32  52  70  94 130 166 202 241 288
#     4  10  19  31  49  72  97 125 162 205 245 289
#
# _framework density 18.997288000000001
#
# number of rings (size 3 to 8) (size 9 to 14) (size 15 to 20)
#    0.000    2.429    1.429    2.571    0.000    2.000 
#    0.000    2.857    0.000    0.857    0.000    6.000 
#    0.000    0.000    0.000    0.000    0.000    0.000 
#
# Total GULP energy -312400.397457 kJ/mol
# GULP energy per Si atom -5578.578526 kJ/mol
# Density = 1.895405 g / cm^3
# Si number density = 18.997288 Si / 1000 Ang^3
#
#
#
# Elastic Constant Matrix: (Units=GPa)
#
#
# Indices 1 2 3 4 5 6 
#
# 1 13.9615 -6.0471 -6.7150 0.0000 0.0000 0.0000
# 2 -6.0471 99.3974 -2.0318 0.0000 0.0000 0.0000
# 3 -6.7150 -2.0318 37.5609 0.0000 0.0000 0.0000
# 4 0.0000 0.0000 0.0000 7.7866 0.0000 0.0000
# 5 0.0000 0.0000 0.0000 0.0000 -2.9399 0.0000
# 6 0.0000 0.0000 0.0000 0.0000 0.0000 28.8500
#
#
#
# Elastic Compliance Matrix: (Units=1/GPa)
#
#
# Indices 1 2 3 4 5 6 
#
# 1 0.080990 0.005229 0.014762 0.000000 0.000000 0.000000
# 2 0.005229 0.010409 0.001498 0.000000 0.000000 0.000000
# 3 0.014762 0.001498 0.029344 0.000000 0.000000 0.000000
# 4 0.000000 0.000000 0.000000 0.128425 0.000000 0.000000
# 5 0.000000 0.000000 0.000000 0.000000 -0.340151 0.000000
# 6 0.000000 0.000000 0.000000 0.000000 0.000000 0.034662
#
#
# Mechanical properties :
#
#
# Convention : Reuss Voigt Hill
#
# Bulk Modulus (GPa) = 6.10796 13.48133 9.79464
# Shear Modulus (GPa) = -111.79579 17.78693 -47.00443
#
# Velocity S-wave (km/s) = -7.67959 3.06320 -4.97960
# Velocity P-wave (km/s) = 8.68404 4.42976 5.28156
#
# Compressibility (1/GPa) = 0.16372089
#
# Stress axis : x y z
#
# Youngs Moduli (GPa) = 12.34718 96.06736 34.07902
#
# Poissons Ratio (x) = -0.50233 -0.50307
# Poissons Ratio (y) = -0.06456 -0.05105
# Poissons Ratio (z) = -0.18227 -0.14390
#
# Static dielectric constant tensor:
#      x y z
#    x 1.642360 0.000000 0.000000 
#    y 0.000000 1.682020 0.000000 
#    z 0.000000 0.000000 1.718970 
# 
# From -- ./inp_files/8166.got.cif
#   From: 2010.05.17/outbox.cif.g08.bks.cpg/sg58_5_cif.got.tgz:8166.got - 2010.06.03 14:20:14.
