data_PCOD9441150
_publ_section_title
;
Structure prediction by ZEFSAII (Michael W. Deem and Ramdas Pophale) SiO2 
 PCOD9441150
Probable space group: P N N M
;
_chemical_formula_sum "Si O2"
_cell_formula_units_Z 64
_cell_length_a 23.721802
_cell_length_b 12.669557
_cell_length_c 11.381775
_cell_angle_alpha 90.000000
_cell_angle_beta 90.000000
_cell_angle_gamma 90.000000
_cell_volume 3420.732410
_symmetry_space_group_name_H-M "P N N M"
_symmetry_group_IT_number 58
_symmetry_cell_setting 'orthorhombic'
loop_
_space_group_symop_operation_xyz
x,y,z
-x,-y,z
1/2+x,1/2-y,1/2-z
1/2-x,1/2+y,1/2-z
-x,-y,-z
x,y,-z
1/2-x,1/2+y,1/2+z
1/2+x,1/2-y,1/2+z
loop_
_atom_site_type_symbol
_atom_site_label
_atom_site_fract_x
_atom_site_fract_y
_atom_site_fract_z
Si Si1 0.580986 0.820713 0.135960
Si Si2 0.687134 0.549736 0.369889
Si Si3 0.790523 0.513738 0.800010
Si Si4 0.459905 0.725066 0.859425
Si Si5 0.098159 0.123663 0.863199
Si Si6 0.687551 0.786287 0.698176
Si Si7 0.897753 0.552528 0.363376
Si Si8 0.212502 0.255479 0.125222
O O1 0.526185 0.749237 0.152967
O O2 0.632728 0.792933 0.219235
O O3 0.566707 0.944951 0.155242
O O4 0.598569 0.810403 0.000000
O O5 0.706907 0.517866 0.500000
O O6 0.731879 0.513535 0.272138
O O7 0.627843 0.490625 0.350590
O O8 0.682466 0.676130 0.368510
O O9 0.804230 0.401479 0.859103
O O10 0.840981 0.536340 0.708872
O O11 0.790334 0.618387 0.876488
O O12 0.439586 0.650256 0.751645
O O13 0.428967 0.837892 0.838556
O O14 0.449598 0.695718 0.000000
O O15 0.151181 0.204776 0.857560
O O16 0.075540 0.131547 0.000000
O O17 0.744062 0.774766 0.774847
O O18 0.882814 0.556019 0.500000
O O19 0.234839 0.217631 0.000000
#
# Coordination Sequence:
#
# PCOD9441150 Si02
#       8
#     8   8   8   8   8   8   8   8
#     4   9  18  32  53  79 110 145 180 226 281 329
#     4  10  21  36  54  76 108 148 186 224 268 331
#     4  10  18  31  51  80 109 136 171 220 277 327
#     4  10  19  34  56  84 112 142 186 236 276 322
#     4  10  20  37  57  78 109 149 187 223 270 330
#     4  10  20  34  54  78 107 139 180 226 271 328
#     4   9  16  27  49  81 112 140 173 218 273 333
#     4  10  19  32  52  76 107 141 176 215 267 332
#
# _framework density 18.709443
#
# number of rings (size 3 to 8) (size 9 to 14) (size 15 to 20)
#    0.000    2.250    2.500    1.125    0.000    3.000 
#    0.000    4.375    0.000    5.250    0.000    0.000 
#    0.000    0.000    0.000    0.000    0.000    0.000 
#
# Total GULP energy -356298.517206 kJ/mol
# GULP energy per Si atom -5567.164331 kJ/mol
# Density = 1.866686 g / cm^3
# Si number density = 18.709443 Si / 1000 Ang^3
#
#
#
# Elastic Constant Matrix: (Units=GPa)
#
#
# Indices 1 2 3 4 5 6 
#
# 1 35.3616 2.5870 13.4042 0.0000 0.0000 0.0000
# 2 2.5870 112.4376 19.8695 0.0000 0.0000 0.0000
# 3 13.4042 19.8695 53.8107 0.0000 0.0000 0.0000
# 4 0.0000 0.0000 0.0000 -4.2872 0.0000 0.0000
# 5 0.0000 0.0000 0.0000 0.0000 -3.7004 0.0000
# 6 0.0000 0.0000 0.0000 0.0000 0.0000 20.3787
#
#
#
# Elastic Compliance Matrix: (Units=1/GPa)
#
#
# Indices 1 2 3 4 5 6 
#
# 1 0.031280 0.000703 -0.008051 0.000000 0.000000 0.000000
# 2 0.000703 0.009530 -0.003694 0.000000 0.000000 0.000000
# 3 -0.008051 -0.003694 0.021953 0.000000 0.000000 0.000000
# 4 0.000000 0.000000 0.000000 -0.233254 0.000000 0.000000
# 5 0.000000 0.000000 0.000000 0.000000 -0.270240 0.000000
# 6 0.000000 0.000000 0.000000 0.000000 0.000000 0.049071
#
#
# Mechanical properties :
#
#
# Convention : Reuss Voigt Hill
#
# Bulk Modulus (GPa) = 24.58297 30.37015 27.47656
# Shear Modulus (GPa) = -14.04436 13.52816 -0.25810
#
# Velocity S-wave (km/s) = -2.74278 2.69191 -0.37182
# Velocity P-wave (km/s) = 1.77127 5.09211 3.81228
#
# Compressibility (1/GPa) = 0.04067857
#
# Stress axis : x y z
#
# Youngs Moduli (GPa) = 31.96953 104.92655 45.55113
#
# Poissons Ratio (x) = -0.07377 0.36675
# Poissons Ratio (y) = -0.02248 0.16828
# Poissons Ratio (z) = 0.25740 0.38763
#
# Static dielectric constant tensor:
#      x y z
#    x 1.616520 0.000000 0.000000 
#    y 0.000000 1.695030 0.000000 
#    z 0.000000 0.000000 1.642180 
# 
# From -- ./inp_files/14802.got.cif
#   From: 2010.05.17/outbox.cif.g08.bks.cpg/sg58_8_cif.got.tgz:14802.got - 2010.06.03 14:20:14.
