data_PCOD9441298
_publ_section_title
;
Structure prediction by ZEFSAII (Michael W. Deem and Ramdas Pophale) SiO2 
 PCOD9441298
Probable space group: P N N M
;
_chemical_formula_sum "Si O2"
_cell_formula_units_Z 56
_cell_length_a 8.679452
_cell_length_b 20.692843
_cell_length_c 14.288865
_cell_angle_alpha 90.000000
_cell_angle_beta 90.000000
_cell_angle_gamma 90.000000
_cell_volume 2566.316413
_symmetry_space_group_name_H-M "P N N M"
_symmetry_group_IT_number 58
_symmetry_cell_setting 'orthorhombic'
loop_
_space_group_symop_operation_xyz
x,y,z
-x,-y,z
1/2+x,1/2-y,1/2-z
1/2-x,1/2+y,1/2-z
-x,-y,-z
x,y,-z
1/2-x,1/2+y,1/2+z
1/2+x,1/2-y,1/2+z
loop_
_atom_site_type_symbol
_atom_site_label
_atom_site_fract_x
_atom_site_fract_y
_atom_site_fract_z
Si Si1 0.959458 0.383752 0.830202
Si Si2 0.553929 0.608322 0.849027
Si Si3 0.187207 0.934340 0.000000
Si Si4 0.159394 0.090535 0.000000
Si Si5 0.771617 0.980325 0.353485
Si Si6 0.798259 0.714018 0.896324
Si Si7 0.854621 0.540301 0.322406
Si Si8 0.323862 0.652886 0.301679
O O1 0.886470 0.446226 0.881037
O O2 0.813166 0.355442 0.773900
O O3 0.056296 0.334005 0.889675
O O4 0.075762 0.410751 0.752424
O O5 0.677942 0.552581 0.876884
O O6 0.402176 0.570150 0.885297
O O7 0.640344 0.673406 0.879794
O O8 0.482732 0.625095 0.745105
O O9 0.274568 0.921391 0.904377
O O10 0.024404 0.900143 0.000000
O O11 0.178150 0.012979 0.000000
O O12 0.216029 0.119078 0.098793
O O13 0.754371 0.992214 0.239117
O O14 0.829827 0.771174 0.823864
O O15 0.790233 0.742448 0.000000
O O16 0.000000 0.500000 0.359935
#
# Coordination Sequence:
#
# PCOD9441298 Si02
#       8
#     8   8   4   4   8   8   8   8
#     4  10  22  39  66  91 124 171 204 264 330 382
#     4  10  20  38  69  90 125 165 206 259 331 386
#     4  11  21  32  54 102 131 162 195 263 317 387
#     4  11  22  36  60  94 132 165 204 257 318 374
#     4   9  18  37  63  98 119 157 206 264 323 397
#     4  12  25  44  63  90 126 171 226 274 304 359
#     4  10  18  32  57  90 132 157 198 249 324 389
#     4  11  23  43  64  90 128 176 215 247 310 397
#
# _framework density 21.821159000000002
#
# number of rings (size 3 to 8) (size 9 to 14) (size 15 to 20)
#    0.000    1.571    2.143    4.500    0.000    4.000 
#    0.000    5.714    0.000    0.000    0.000    0.000 
#    0.000    0.000    0.000    0.000    0.000    0.000 
#
# Total GULP energy -311768.822512 kJ/mol
# GULP energy per Si atom -5567.300402 kJ/mol
# Density = 2.177149 g / cm^3
# Si number density = 21.821159 Si / 1000 Ang^3
#
#
#
# Elastic Constant Matrix: (Units=GPa)
#
#
# Indices 1 2 3 4 5 6 
#
# 1 59.3131 13.5697 24.2831 0.0000 0.0000 0.0000
# 2 13.5697 89.6050 10.1414 0.0000 0.0000 0.0000
# 3 24.2831 10.1414 67.2484 0.0000 0.0000 0.0000
# 4 0.0000 0.0000 0.0000 14.8850 0.0000 0.0000
# 5 0.0000 0.0000 0.0000 0.0000 12.9897 0.0000
# 6 0.0000 0.0000 0.0000 0.0000 0.0000 31.3276
#
#
#
# Elastic Compliance Matrix: (Units=1/GPa)
#
#
# Indices 1 2 3 4 5 6 
#
# 1 0.020231 -0.002276 -0.006962 0.000000 0.000000 0.000000
# 2 -0.002276 0.011610 -0.000929 0.000000 0.000000 0.000000
# 3 -0.006962 -0.000929 0.017524 0.000000 0.000000 0.000000
# 4 0.000000 0.000000 0.000000 0.067182 0.000000 0.000000
# 5 0.000000 0.000000 0.000000 0.000000 0.076984 0.000000
# 6 0.000000 0.000000 0.000000 0.000000 0.000000 0.031921
#
#
# Mechanical properties :
#
#
# Convention : Reuss Voigt Hill
#
# Bulk Modulus (GPa) = 34.44574 34.68388 34.56481
# Shear Modulus (GPa) = 19.57239 23.05195 21.31217
#
# Velocity S-wave (km/s) = 2.99815 3.25376 3.12857
# Velocity P-wave (km/s) = 5.27304 5.48134 5.37820
#
# Compressibility (1/GPa) = 0.02903117
#
# Stress axis : x y z
#
# Youngs Moduli (GPa) = 49.43008 86.13354 57.06360
#
# Poissons Ratio (x) = 0.19602 0.39728
# Poissons Ratio (y) = 0.11249 0.05302
# Poissons Ratio (z) = 0.34413 0.08002
#
# Static dielectric constant tensor:
#      x y z
#    x 1.835890 0.000000 0.000000 
#    y 0.000000 1.847600 0.000000 
#    z 0.000000 0.000000 1.836620 
# 
# From -- ./inp_files/20175.got.cif
#   From: 2010.05.17/outbox.cif.g08.bks.cpg/sg58_11_cif.got.tgz:20175.got - 2010.06.03 14:20:14.
