data_PCOD9441919
_publ_section_title
;
Structure prediction by ZEFSAII (Michael W. Deem and Ramdas Pophale) SiO2 
 PCOD9441919
Probable space group: P N N M
;
_chemical_formula_sum "Si O2"
_cell_formula_units_Z 56
_cell_length_a 19.757663
_cell_length_b 14.543501
_cell_length_c 7.640917
_cell_angle_alpha 90.000000
_cell_angle_beta 90.000000
_cell_angle_gamma 90.000000
_cell_volume 2195.583816
_symmetry_space_group_name_H-M "P N N M"
_symmetry_group_IT_number 58
_symmetry_cell_setting 'orthorhombic'
loop_
_space_group_symop_operation_xyz
x,y,z
-x,-y,z
1/2+x,1/2-y,1/2-z
1/2-x,1/2+y,1/2-z
-x,-y,-z
x,y,-z
1/2-x,1/2+y,1/2+z
1/2+x,1/2-y,1/2+z
loop_
_atom_site_type_symbol
_atom_site_label
_atom_site_fract_x
_atom_site_fract_y
_atom_site_fract_z
Si Si1 0.149905 0.725268 0.291780
Si Si2 0.580099 0.385895 0.206791
Si Si3 0.496096 0.224850 0.706045
Si Si4 0.431801 0.949518 0.284888
Si Si5 0.640431 0.564960 0.214590
Si Si6 0.796782 0.761166 0.705425
Si Si7 0.212267 0.450789 0.200775
O O1 0.155516 0.725746 0.500000
O O2 0.077543 0.683005 0.244662
O O3 0.138729 0.830287 0.223611
O O4 0.222248 0.692857 0.222157
O O5 0.512423 0.326390 0.225964
O O6 0.585783 0.490004 0.273002
O O7 0.642823 0.324582 0.276315
O O8 0.591849 0.393867 0.000000
O O9 0.502756 0.229682 0.500000
O O10 0.553509 0.155206 0.772417
O O11 0.429364 0.952113 0.500000
O O12 0.358841 0.982441 0.219251
O O13 0.500000 0.000000 0.231051
O O14 0.714094 0.526918 0.273062
O O15 0.640025 0.571465 0.000000
O O16 0.808290 0.744011 0.500000
O O17 0.791901 0.661332 0.796045
O O18 0.213334 0.482043 0.000000
#
# Coordination Sequence:
#
# PCOD9441919 Si02
#       7
#     8   8   8   8   8   8   8
#     4  10  21  38  58  78 109 149 187 228 274 327
#     4  10  20  35  56  82 111 145 186 227 273 327
#     4  11  22  36  56  83 113 145 183 228 279 329
#     4   9  18  32  54  82 109 143 185 227 267 320
#     4   8  17  33  55  79 101 141 193 231 260 314
#     4  10  19  32  55  82 107 139 180 230 279 327
#     4   9  16  32  55  76 103 139 181 224 270 322
#
# _framework density 25.505745000000001
#
# number of rings (size 3 to 8) (size 9 to 14) (size 15 to 20)
#    0.000    2.429    1.429    2.143    0.000    2.286 
#    0.000   10.714    0.000    7.286    0.000    0.000 
#    0.000    0.000    0.000    0.000    0.000    0.000 
#
# Total GULP energy -312845.308153 kJ/mol
# GULP energy per Si atom -5586.523360 kJ/mol
# Density = 2.544769 g / cm^3
# Si number density = 25.505745 Si / 1000 Ang^3
#
#
#
# Elastic Constant Matrix: (Units=GPa)
#
#
# Indices 1 2 3 4 5 6 
#
# 1 102.0456 -1.5483 -20.0212 0.0000 0.0000 0.0000
# 2 -1.5483 50.1734 -0.0053 0.0000 0.0000 0.0000
# 3 -20.0212 -0.0053 58.7520 0.0000 0.0000 0.0000
# 4 0.0000 0.0000 0.0000 -175.7812 0.0000 0.0000
# 5 0.0000 0.0000 0.0000 0.0000 21.6417 0.0000
# 6 0.0000 0.0000 0.0000 0.0000 0.0000 42.6834
#
#
#
# Elastic Compliance Matrix: (Units=1/GPa)
#
#
# Indices 1 2 3 4 5 6 
#
# 1 0.010507 0.000325 0.003581 0.000000 0.000000 0.000000
# 2 0.000325 0.019941 0.000112 0.000000 0.000000 0.000000
# 3 0.003581 0.000112 0.018241 0.000000 0.000000 0.000000
# 4 0.000000 0.000000 0.000000 -0.005689 0.000000 0.000000
# 5 0.000000 0.000000 0.000000 0.000000 0.046207 0.000000
# 6 0.000000 0.000000 0.000000 0.000000 0.000000 0.023428
#
#
# Mechanical properties :
#
#
# Convention : Reuss Voigt Hill
#
# Bulk Modulus (GPa) = 17.62926 18.64682 18.13804
# Shear Modulus (GPa) = 40.48317 -6.78817 16.84750
#
# Velocity S-wave (km/s) = 3.98831 -1.63316 2.57288
# Velocity P-wave (km/s) = 5.30431 1.94176 3.99413
#
# Compressibility (1/GPa) = 0.05672389
#
# Stress axis : x y z
#
# Youngs Moduli (GPa) = 95.17498 50.14820 54.82193
#
# Poissons Ratio (x) = -0.01628 -0.19629
# Poissons Ratio (y) = -0.03089 -0.00616
# Poissons Ratio (z) = -0.34078 -0.00564
#
# Static dielectric constant tensor:
#      x y z
#    x 2.035530 0.000000 0.000000 
#    y 0.000000 2.080330 0.000000 
#    z 0.000000 0.000000 1.942890 
# 
# From -- ./inp_files/8121.got.cif
#   From: 2010.05.17/outbox.cif.g08.bks.cpg/sg58_5_cif.got.tgz:8121.got - 2010.06.03 14:20:14.
