data_PCOD9441915
_publ_section_title
;
Structure prediction by ZEFSAII (Michael W. Deem and Ramdas Pophale) SiO2 
 PCOD9441915
Probable space group: P N N M
;
_chemical_formula_sum "Si O2"
_cell_formula_units_Z 48
_cell_length_a 16.421517
_cell_length_b 13.852251
_cell_length_c 9.060378
_cell_angle_alpha 90.000000
_cell_angle_beta 90.000000
_cell_angle_gamma 90.000000
_cell_volume 2061.009262
_symmetry_space_group_name_H-M "P N N M"
_symmetry_group_IT_number 58
_symmetry_cell_setting 'orthorhombic'
loop_
_space_group_symop_operation_xyz
x,y,z
-x,-y,z
1/2+x,1/2-y,1/2-z
1/2-x,1/2+y,1/2-z
-x,-y,-z
x,y,-z
1/2-x,1/2+y,1/2+z
1/2+x,1/2-y,1/2+z
loop_
_atom_site_type_symbol
_atom_site_label
_atom_site_fract_x
_atom_site_fract_y
_atom_site_fract_z
Si Si1 0.019580 0.807443 0.331731
Si Si2 0.047360 0.370651 0.826689
Si Si3 0.208260 0.360604 0.325643
Si Si4 0.611670 0.883768 0.834367
Si Si5 0.119480 0.965736 0.823575
Si Si6 0.705804 0.346798 0.323399
O O1 0.989124 0.817556 0.500000
O O2 0.096986 0.733163 0.339958
O O3 0.051142 0.905676 0.261016
O O4 0.961877 0.741432 0.229000
O O5 0.128366 0.408080 0.747259
O O6 0.959901 0.412376 0.776939
O O7 0.056610 0.375579 0.000000
O O8 0.195412 0.359529 0.500000
O O9 0.294464 0.411232 0.297866
O O10 0.210509 0.252410 0.263186
O O11 0.705901 0.897444 0.801623
O O12 0.593278 0.919966 0.000000
O O13 0.137334 0.075824 0.777758
O O14 0.103418 0.963791 0.000000
O O15 0.697959 0.329528 0.500000
#
# Coordination Sequence:
#
# PCOD9441915 Si02
#       6
#     8   8   8   8   8   8
#     4   9  17  32  54  77 104 138 175 215 264 315
#     4  10  19  32  55  79 104 143 182 220 268 317
#     4  11  21  35  54  81 112 141 177 223 268 315
#     4   8  16  32  54  76 103 138 175 214 263 315
#     4  10  21  35  56  83 110 141 180 220 263 319
#     4  10  20  36  57  82 109 142 180 219 265 319
#
# _framework density 23.289563000000001
#
# number of rings (size 3 to 8) (size 9 to 14) (size 15 to 20)
#    1.000    1.333    1.667    2.000    0.000    2.000 
#    0.000    1.667    0.000   10.000    0.000    0.000 
#    0.000    0.000    0.000    0.000    0.000    0.000 
#
# Total GULP energy -268183.725233 kJ/mol
# GULP energy per Si atom -5587.160942 kJ/mol
# Density = 2.323655 g / cm^3
# Si number density = 23.289563 Si / 1000 Ang^3
#
#
#
# Elastic Constant Matrix: (Units=GPa)
#
#
# Indices 1 2 3 4 5 6 
#
# 1 104.8155 14.0908 42.9807 0.0000 0.0000 0.0000
# 2 14.0908 103.2461 19.1617 0.0000 0.0000 0.0000
# 3 42.9807 19.1617 80.1358 0.0000 0.0000 0.0000
# 4 0.0000 0.0000 0.0000 11.4954 0.0000 0.0000
# 5 0.0000 0.0000 0.0000 0.0000 26.4389 0.0000
# 6 0.0000 0.0000 0.0000 0.0000 0.0000 45.7623
#
#
#
# Elastic Compliance Matrix: (Units=1/GPa)
#
#
# Indices 1 2 3 4 5 6 
#
# 1 0.012253 -0.000474 -0.006458 0.000000 0.000000 0.000000
# 2 -0.000474 0.010154 -0.002174 0.000000 0.000000 0.000000
# 3 -0.006458 -0.002174 0.016463 0.000000 0.000000 0.000000
# 4 0.000000 0.000000 0.000000 0.086992 0.000000 0.000000
# 5 0.000000 0.000000 0.000000 0.000000 0.037823 0.000000
# 6 0.000000 0.000000 0.000000 0.000000 0.000000 0.021852
#
#
# Mechanical properties :
#
#
# Convention : Reuss Voigt Hill
#
# Bulk Modulus (GPa) = 48.40954 48.96264 48.68609
# Shear Modulus (GPa) = 23.73797 30.87026 27.30412
#
# Velocity S-wave (km/s) = 3.19604 3.64469 3.42771
# Velocity P-wave (km/s) = 5.86946 6.22742 6.05109
#
# Compressibility (1/GPa) = 0.02065708
#
# Stress axis : x y z
#
# Youngs Moduli (GPa) = 81.61554 98.48632 60.74385
#
# Poissons Ratio (x) = 0.04664 0.39231
# Poissons Ratio (y) = 0.03865 0.13205
# Poissons Ratio (z) = 0.52711 0.21410
#
# Static dielectric constant tensor:
#      x y z
#    x 1.913240 0.000000 0.000000 
#    y 0.000000 1.969740 0.000000 
#    z 0.000000 0.000000 1.784390 
# 
# From -- ./inp_files/7733.got.cif
#   From: 2010.05.17/outbox.cif.g08.bks.cpg/sg58_4_cif.got.tgz:7733.got - 2010.06.03 14:20:14.
