data_PCOD9441977
_publ_section_title
;
Structure prediction by ZEFSAII (Michael W. Deem and Ramdas Pophale) SiO2 
 PCOD9441977
Probable space group: P N N M
;
_chemical_formula_sum "Si O2"
_cell_formula_units_Z 64
_cell_length_a 11.655237
_cell_length_b 30.375882
_cell_length_c 7.562238
_cell_angle_alpha 90.000000
_cell_angle_beta 90.000000
_cell_angle_gamma 90.000000
_cell_volume 2677.320402
_symmetry_space_group_name_H-M "P N N M"
_symmetry_group_IT_number 58
_symmetry_cell_setting 'orthorhombic'
loop_
_space_group_symop_operation_xyz
x,y,z
-x,-y,z
1/2+x,1/2-y,1/2-z
1/2-x,1/2+y,1/2-z
-x,-y,-z
x,y,-z
1/2-x,1/2+y,1/2+z
1/2+x,1/2-y,1/2+z
loop_
_atom_site_type_symbol
_atom_site_label
_atom_site_fract_x
_atom_site_fract_y
_atom_site_fract_z
Si Si1 0.689749 0.016112 0.200464
Si Si2 0.071471 0.941098 0.708710
Si Si3 0.700759 0.335577 0.785335
Si Si4 0.679505 0.434396 0.207794
Si Si5 0.311579 0.350448 0.208560
Si Si6 0.018314 0.779342 0.283113
Si Si7 0.548965 0.816359 0.205799
Si Si8 0.921119 0.602148 0.703292
O O1 0.817258 0.037644 0.203757
O O2 0.608828 0.054065 0.283061
O O3 0.715345 0.967933 0.274458
O O4 0.652421 0.009685 0.000000
O O5 0.081155 0.953278 0.500000
O O6 0.091342 0.888519 0.722828
O O7 0.944205 0.951707 0.776440
O O8 0.701570 0.385951 0.720362
O O9 0.588634 0.309191 0.730553
O O10 0.815178 0.312977 0.718063
O O11 0.703862 0.335662 0.000000
O O12 0.657359 0.429160 0.000000
O O13 0.366057 0.304939 0.273548
O O14 0.198097 0.370164 0.295645
O O15 0.284909 0.346453 0.000000
O O16 0.022395 0.778558 0.500000
O O17 0.002949 0.729501 0.219488
O O18 0.509448 0.863094 0.285838
O O19 0.513302 0.818157 0.000000
O O20 0.955309 0.593458 0.500000
#
# Coordination Sequence:
#
# PCOD9441977 Si02
#       8
#     8   8   8   8   8   8   8   8
#     4  10  20  32  49  76 109 144 184 225 270 324
#     4   9  16  29  49  74 106 142 175 213 267 326
#     4  10  21  39  60  83 111 143 184 230 274 323
#     4  10  19  33  53  77 107 143 182 225 276 327
#     4   9  16  30  54  80 105 137 176 217 263 318
#     4   9  18  35  58  82 109 140 174 219 276 329
#     4  10  22  39  58  79 109 147 183 222 272 327
#     4   9  20  37  53  75 111 149 182 221 270 323
#
# _framework density 23.904496999999999
#
# number of rings (size 3 to 8) (size 9 to 14) (size 15 to 20)
#    0.000    2.500    1.250    0.750    1.750    3.500 
#    0.000    1.875    0.000    3.750    0.000    0.000 
#    0.000    0.000    0.000    0.000    0.000    0.000 
#
# Total GULP energy -357254.370024 kJ/mol
# GULP energy per Si atom -5582.099532 kJ/mol
# Density = 2.385009 g / cm^3
# Si number density = 23.904497 Si / 1000 Ang^3
#
#
#
# Elastic Constant Matrix: (Units=GPa)
#
#
# Indices 1 2 3 4 5 6 
#
# 1 29.5501 0.6762 -9.5159 0.0000 0.0000 0.0000
# 2 0.6762 103.6754 -0.6233 0.0000 0.0000 0.0000
# 3 -9.5159 -0.6233 56.1954 0.0000 0.0000 0.0000
# 4 0.0000 0.0000 0.0000 -14.3561 0.0000 0.0000
# 5 0.0000 0.0000 0.0000 0.0000 87.5903 0.0000
# 6 0.0000 0.0000 0.0000 0.0000 0.0000 21.6531
#
#
#
# Elastic Compliance Matrix: (Units=1/GPa)
#
#
# Indices 1 2 3 4 5 6 
#
# 1 0.035797 -0.000197 0.006060 0.000000 0.000000 0.000000
# 2 -0.000197 0.009647 0.000074 0.000000 0.000000 0.000000
# 3 0.006060 0.000074 0.018822 0.000000 0.000000 0.000000
# 4 0.000000 0.000000 0.000000 -0.069657 0.000000 0.000000
# 5 0.000000 0.000000 0.000000 0.000000 0.011417 0.000000
# 6 0.000000 0.000000 0.000000 0.000000 0.000000 0.046183
#
#
# Mechanical properties :
#
#
# Convention : Reuss Voigt Hill
#
# Bulk Modulus (GPa) = 13.13404 18.94387 16.03895
# Shear Modulus (GPa) = 76.08526 32.23638 54.16082
#
# Velocity S-wave (km/s) = 5.64783 3.67624 4.76512
# Velocity P-wave (km/s) = 6.93087 5.09526 6.08271
#
# Compressibility (1/GPa) = 0.07613803
#
# Stress axis : x y z
#
# Youngs Moduli (GPa) = 27.93557 103.65679 53.12939
#
# Poissons Ratio (x) = 0.02043 -0.32194
# Poissons Ratio (y) = 0.00550 -0.00391
# Poissons Ratio (z) = -0.16928 -0.00763
#
# Static dielectric constant tensor:
#      x y z
#    x 1.887840 0.000000 0.000000 
#    y 0.000000 1.968460 0.000000 
#    z 0.000000 0.000000 1.904330 
# 
# From -- ./inp_files/4763.got.cif
#   From: 2010.05.17/outbox.cif.g08.bks.cpg/sg58_3_cif.got.tgz:4763.got - 2010.06.03 14:20:14.
