data_PCOD9441458
_publ_section_title
;
Structure prediction by ZEFSAII (Michael W. Deem and Ramdas Pophale) SiO2 
 PCOD9441458
Probable space group: P N N M
;
_chemical_formula_sum "Si O2"
_cell_formula_units_Z 64
_cell_length_a 12.226218
_cell_length_b 31.669620
_cell_length_c 8.402528
_cell_angle_alpha 90.000000
_cell_angle_beta 90.000000
_cell_angle_gamma 90.000000
_cell_volume 3253.456137
_symmetry_space_group_name_H-M "P N N M"
_symmetry_group_IT_number 58
_symmetry_cell_setting 'orthorhombic'
loop_
_space_group_symop_operation_xyz
x,y,z
-x,-y,z
1/2+x,1/2-y,1/2-z
1/2-x,1/2+y,1/2-z
-x,-y,-z
x,y,-z
1/2-x,1/2+y,1/2+z
1/2+x,1/2-y,1/2+z
loop_
_atom_site_type_symbol
_atom_site_label
_atom_site_fract_x
_atom_site_fract_y
_atom_site_fract_z
Si Si1 0.220586 0.045197 0.310178
Si Si2 0.244309 0.456534 0.308004
Si Si3 0.788817 0.792077 0.190641
Si Si4 0.847636 0.370976 0.190627
Si Si5 0.095063 0.377750 0.306998
Si Si6 0.746530 0.697964 0.692211
Si Si7 0.488757 0.432225 0.692216
Si Si8 0.989120 0.165011 0.806110
O O1 0.222892 0.045396 0.500000
O O2 0.276113 0.088755 0.251868
O O3 0.094750 0.043490 0.253650
O O4 0.282017 0.003573 0.248807
O O5 0.245099 0.455957 0.500000
O O6 0.162176 0.419528 0.255913
O O7 0.368483 0.446361 0.253932
O O8 0.702384 0.827354 0.245189
O O9 0.766532 0.745358 0.252497
O O10 0.907968 0.807742 0.247697
O O11 0.789076 0.791265 0.000000
O O12 0.972492 0.376709 0.243330
O O13 0.841885 0.369987 0.000000
O O14 0.091939 0.377886 0.500000
O O15 0.162587 0.336074 0.256057
O O16 0.745984 0.697274 0.500000
O O17 0.627364 0.682492 0.747752
O O18 0.489949 0.434836 0.500000
O O19 0.502970 0.383499 0.741533
O O20 0.988166 0.165411 0.000000
#
# Coordination Sequence:
#
# PCOD9441458 Si02
#       8
#     8   8   8   8   8   8   8   8
#     4  11  24  39  57  86 122 157 195 243 299 352
#     4  10  21  38  63  91 118 153 197 242 294 354
#     4  11  23  39  62  92 120 155 201 242 288 352
#     4  11  25  43  60  82 118 162 202 245 300 350
#     4  10  22  41  64  89 118 154 201 249 293 351
#     4  10  21  40  63  90 124 156 189 242 302 351
#     4  10  18  36  63  89 117 153 195 239 290 350
#     4   9  18  36  63  88 117 154 191 238 292 346
#
# _framework density 19.671389999999999
#
# number of rings (size 3 to 8) (size 9 to 14) (size 15 to 20)
#    0.000    1.750    2.500    1.500    1.750    5.000 
#    0.000    3.750    0.000    0.000    0.000    0.000 
#    0.000    0.000    0.000    0.000    0.000    0.000 
#
# Total GULP energy -357559.727089 kJ/mol
# GULP energy per Si atom -5586.870736 kJ/mol
# Density = 1.962662 g / cm^3
# Si number density = 19.671390 Si / 1000 Ang^3
#
#
#
# Elastic Constant Matrix: (Units=GPa)
#
#
# Indices 1 2 3 4 5 6 
#
# 1 106.2924 24.8811 8.7326 0.0000 0.0000 0.0000
# 2 24.8811 104.2162 6.6495 0.0000 0.0000 0.0000
# 3 8.7326 6.6495 13.2303 0.0000 0.0000 0.0000
# 4 0.0000 0.0000 0.0000 31.3102 0.0000 0.0000
# 5 0.0000 0.0000 0.0000 0.0000 -2.6206 0.0000
# 6 0.0000 0.0000 0.0000 0.0000 0.0000 14.1248
#
#
#
# Elastic Compliance Matrix: (Units=1/GPa)
#
#
# Indices 1 2 3 4 5 6 
#
# 1 0.010377 -0.002108 -0.005790 0.000000 0.000000 0.000000
# 2 -0.002108 0.010342 -0.003806 0.000000 0.000000 0.000000
# 3 -0.005790 -0.003806 0.081319 0.000000 0.000000 0.000000
# 4 0.000000 0.000000 0.000000 0.031938 0.000000 0.000000
# 5 0.000000 0.000000 0.000000 0.000000 -0.381598 0.000000
# 6 0.000000 0.000000 0.000000 0.000000 0.000000 0.070798
#
#
# Mechanical properties :
#
#
# Convention : Reuss Voigt Hill
#
# Bulk Modulus (GPa) = 12.71797 33.80728 23.26262
# Shear Modulus (GPa) = -39.30613 20.79458 -9.25578
#
# Velocity S-wave (km/s) = -4.47490 3.25483 -2.17150
# Velocity P-wave (km/s) = 4.49671 5.59898 2.35883
#
# Compressibility (1/GPa) = 0.07862892
#
# Stress axis : x y z
#
# Youngs Moduli (GPa) = 96.36558 96.69691 12.29731
#
# Poissons Ratio (x) = 0.20384 0.07120
# Poissons Ratio (y) = 0.20315 0.04681
# Poissons Ratio (z) = 0.55795 0.36805
#
# Static dielectric constant tensor:
#      x y z
#    x 1.669900 0.000000 0.000000 
#    y 0.000000 1.684950 0.000000 
#    z 0.000000 0.000000 1.680980 
# 
# From -- ./inp_files/4676.got.cif
#   From: 2010.05.17/outbox.cif.g08.bks.cpg/sg58_3_cif.got.tgz:4676.got - 2010.06.03 14:20:14.
