data_PCOD9441031
_publ_section_title
;
Structure prediction by ZEFSAII (Michael W. Deem and Ramdas Pophale) SiO2 
 PCOD9441031
Probable space group: P N N M
;
_chemical_formula_sum "Si O2"
_cell_formula_units_Z 64
_cell_length_a 17.481741
_cell_length_b 21.091574
_cell_length_c 8.866106
_cell_angle_alpha 90.000000
_cell_angle_beta 90.000000
_cell_angle_gamma 90.000000
_cell_volume 3269.087853
_symmetry_space_group_name_H-M "P N N M"
_symmetry_group_IT_number 58
_symmetry_cell_setting 'orthorhombic'
loop_
_space_group_symop_operation_xyz
x,y,z
-x,-y,z
1/2+x,1/2-y,1/2-z
1/2-x,1/2+y,1/2-z
-x,-y,-z
x,y,-z
1/2-x,1/2+y,1/2+z
1/2+x,1/2-y,1/2+z
loop_
_atom_site_type_symbol
_atom_site_label
_atom_site_fract_x
_atom_site_fract_y
_atom_site_fract_z
Si Si1 0.209641 0.984718 0.819252
Si Si2 0.122385 0.487583 0.821586
Si Si3 0.882602 0.643767 0.324413
Si Si4 0.127805 0.619019 0.317920
Si Si5 0.428738 0.724527 0.319792
Si Si6 0.198124 0.846304 0.173883
Si Si7 0.806043 0.876802 0.818561
Si Si8 0.417485 0.258512 0.821711
O O1 0.287583 0.986482 0.723983
O O2 0.167815 0.050902 0.787722
O O3 0.169546 0.917738 0.790215
O O4 0.229938 0.984498 0.000000
O O5 0.092107 0.423198 0.745685
O O6 0.095524 0.554886 0.754885
O O7 0.111665 0.485614 0.000000
O O8 0.904519 0.645814 0.500000
O O9 0.912930 0.705005 0.239322
O O10 0.789954 0.649056 0.314621
O O11 0.126257 0.612003 0.500000
O O12 0.217288 0.627593 0.270845
O O13 0.087219 0.684576 0.276399
O O14 0.427547 0.723726 0.500000
O O15 0.363292 0.676657 0.260432
O O16 0.512735 0.707452 0.261256
O O17 0.160606 0.794007 0.278744
O O18 0.179285 0.831384 0.000000
O O19 0.804382 0.869707 0.000000
O O20 0.429086 0.260488 0.000000
#
# Coordination Sequence:
#
# PCOD9441031 Si02
#       8
#     8   8   8   8   8   8   8   8
#     4   8  15  31  53  78 107 136 170 212 260 313
#     4  10  18  29  51  83 110 131 164 213 264 309
#     4  10  20  36  57  80 108 140 174 213 261 317
#     4   9  18  35  56  76 101 136 176 213 257 315
#     4  11  22  36  54  77 107 141 180 224 265 310
#     4   9  18  33  56  82 106 135 173 219 262 306
#     4   8  15  31  56  80 101 132 173 215 260 312
#     4  11  23  37  53  74 106 146 182 218 263 316
#
# _framework density 19.577325999999999
#
# number of rings (size 3 to 8) (size 9 to 14) (size 15 to 20)
#    0.000    2.500    0.000    4.500    0.000    4.500 
#    0.000    7.500    0.000    7.500    0.000    0.000 
#    0.000    0.000    0.000    0.000    0.000    0.000 
#
# Total GULP energy -357002.997832 kJ/mol
# GULP energy per Si atom -5578.171841 kJ/mol
# Density = 1.953277 g / cm^3
# Si number density = 19.577326 Si / 1000 Ang^3
#
#
#
# Elastic Constant Matrix: (Units=GPa)
#
#
# Indices 1 2 3 4 5 6 
#
# 1 26.2888 11.4175 9.8950 0.0000 0.0000 0.0000
# 2 11.4175 86.9001 23.2756 0.0000 0.0000 0.0000
# 3 9.8950 23.2756 51.6071 0.0000 0.0000 0.0000
# 4 0.0000 0.0000 0.0000 28.5219 0.0000 0.0000
# 5 0.0000 0.0000 0.0000 0.0000 -34.6835 0.0000
# 6 0.0000 0.0000 0.0000 0.0000 0.0000 -16.4631
#
#
#
# Elastic Compliance Matrix: (Units=1/GPa)
#
#
# Indices 1 2 3 4 5 6 
#
# 1 0.042090 -0.003831 -0.006342 0.000000 0.000000 0.000000
# 2 -0.003831 0.013437 -0.005326 0.000000 0.000000 0.000000
# 3 -0.006342 -0.005326 0.022995 0.000000 0.000000 0.000000
# 4 0.000000 0.000000 0.000000 0.035061 0.000000 0.000000
# 5 0.000000 0.000000 0.000000 0.000000 -0.028832 0.000000
# 6 0.000000 0.000000 0.000000 0.000000 0.000000 -0.060742
#
#
# Mechanical properties :
#
#
# Convention : Reuss Voigt Hill
#
# Bulk Modulus (GPa) = 21.04203 28.21913 24.63058
# Shear Modulus (GPa) = 70.57189 3.48892 37.03041
#
# Velocity S-wave (km/s) = 6.01049 1.33641 4.35385
# Velocity P-wave (km/s) = 7.67721 4.10205 6.15493
#
# Compressibility (1/GPa) = 0.04752393
#
# Stress axis : x y z
#
# Youngs Moduli (GPa) = 23.75850 74.41949 43.48723
#
# Poissons Ratio (x) = 0.28513 0.27581
# Poissons Ratio (y) = 0.09103 0.23161
# Poissons Ratio (z) = 0.15068 0.39635
#
# Static dielectric constant tensor:
#      x y z
#    x 1.722050 0.000000 0.000000 
#    y 0.000000 1.710670 0.000000 
#    z 0.000000 0.000000 1.653250 
# 
# From -- ./inp_files/8262.got.cif
#   From: 2010.05.17/outbox.cif.g08.bks.cpg/sg58_5_cif.got.tgz:8262.got - 2010.06.03 14:20:14.
