data_PCOD9442130
_publ_section_title
;
Structure prediction by ZEFSAII (Michael W. Deem and Ramdas Pophale) SiO2 
 PCOD9442130
Probable space group: P N N M
;
_chemical_formula_sum "Si O2"
_cell_formula_units_Z 58
_cell_length_a 17.422368
_cell_length_b 19.348386
_cell_length_c 7.472677
_cell_angle_alpha 90.000000
_cell_angle_beta 90.000000
_cell_angle_gamma 90.000000
_cell_volume 2518.999820
_symmetry_space_group_name_H-M "P N N M"
_symmetry_group_IT_number 58
_symmetry_cell_setting 'orthorhombic'
loop_
_space_group_symop_operation_xyz
x,y,z
-x,-y,z
1/2+x,1/2-y,1/2-z
1/2-x,1/2+y,1/2-z
-x,-y,-z
x,y,-z
1/2-x,1/2+y,1/2+z
1/2+x,1/2-y,1/2+z
loop_
_atom_site_type_symbol
_atom_site_label
_atom_site_fract_x
_atom_site_fract_y
_atom_site_fract_z
Si Si1 0.068952 0.580206 0.704697
Si Si2 0.457165 0.799834 0.785673
Si Si3 0.669782 0.574941 0.281488
Si Si4 0.856085 0.917960 0.217825
Si Si5 0.014898 0.852102 0.786804
Si Si6 0.000000 0.500000 0.000000
Si Si7 0.717376 0.189354 0.780828
Si Si8 0.289764 0.172158 0.295263
O O1 0.053986 0.560723 0.500000
O O2 0.147570 0.623569 0.705877
O O3 0.004526 0.633913 0.777899
O O4 0.063800 0.517801 0.841511
O O5 0.500736 0.728749 0.745128
O O6 0.369687 0.799071 0.719182
O O7 0.454679 0.805886 0.000000
O O8 0.669532 0.574657 0.500000
O O9 0.663227 0.495729 0.225735
O O10 0.594662 0.617039 0.219693
O O11 0.745377 0.616872 0.227685
O O12 0.940063 0.893436 0.278660
O O13 0.791909 0.865954 0.287275
O O14 0.854389 0.915205 0.000000
O O15 0.016600 0.862060 0.000000
O O16 0.773044 0.251607 0.721151
O O17 0.716100 0.192698 0.000000
O O18 0.315579 0.180220 0.500000
#
# Coordination Sequence:
#
# PCOD9442130 Si02
#       8
#     8   8   8   8   8   2   8   8
#     4  11  25  44  69  97 133 176 225 278 335 397
#     4  10  21  38  61  91 123 165 214 269 326 384
#     4   9  18  33  55  85 119 159 207 261 323 392
#     4  10  20  34  57  89 125 164 212 266 325 394
#     4  10  19  33  58  89 123 163 208 261 325 394
#     4  12  26  48  68  98 132 172 226 284 336 398
#     4   9  18  34  58  87 123 166 215 269 326 389
#     4  11  21  39  64  90 125 169 219 268 328 396
#
# _framework density 23.025010999999999
#
# number of rings (size 3 to 8) (size 9 to 14) (size 15 to 20)
#    0.000    1.931    2.069    1.862    0.966    3.862 
#    0.000    3.448    0.000    3.310    0.000    0.000 
#    0.000    0.000    0.000    0.000    0.000    0.000 
#
# Total GULP energy -323839.632293 kJ/mol
# GULP energy per Si atom -5583.441936 kJ/mol
# Density = 2.297260 g / cm^3
# Si number density = 23.025011 Si / 1000 Ang^3
#
#
#
# Elastic Constant Matrix: (Units=GPa)
#
#
# Indices 1 2 3 4 5 6 
#
# 1 35.5241 -5.8862 -1.4487 0.0000 0.0000 0.0000
# 2 -5.8862 69.6305 -7.9380 0.0000 0.0000 0.0000
# 3 -1.4487 -7.9380 93.2092 0.0000 0.0000 0.0000
# 4 0.0000 0.0000 0.0000 -5.2943 0.0000 0.0000
# 5 0.0000 0.0000 0.0000 0.0000 -38.2657 0.0000
# 6 0.0000 0.0000 0.0000 0.0000 0.0000 -3.6791
#
#
#
# Elastic Compliance Matrix: (Units=1/GPa)
#
#
# Indices 1 2 3 4 5 6 
#
# 1 0.028590 0.002492 0.000657 0.000000 0.000000 0.000000
# 2 0.002492 0.014719 0.001292 0.000000 0.000000 0.000000
# 3 0.000657 0.001292 0.010849 0.000000 0.000000 0.000000
# 4 0.000000 0.000000 0.000000 -0.188882 0.000000 0.000000
# 5 0.000000 0.000000 0.000000 0.000000 -0.026133 0.000000
# 6 0.000000 0.000000 0.000000 0.000000 0.000000 -0.271809
#
#
# Mechanical properties :
#
#
# Convention : Reuss Voigt Hill
#
# Bulk Modulus (GPa) = 15.86325 18.64645 17.25485
# Shear Modulus (GPa) = -11.88963 4.79464 -3.54750
#
# Velocity S-wave (km/s) = -2.27486 1.44460 -1.24260
# Velocity P-wave (km/s) = 0.06730 3.30128 2.33484
#
# Compressibility (1/GPa) = 0.06303877
#
# Stress axis : x y z
#
# Youngs Moduli (GPa) = 34.97787 67.93721 92.17598
#
# Poissons Ratio (x) = -0.16928 -0.06052
# Poissons Ratio (y) = -0.08715 -0.11912
# Poissons Ratio (z) = -0.02296 -0.08779
#
# Static dielectric constant tensor:
#      x y z
#    x 1.839560 0.000000 0.000000 
#    y 0.000000 1.875060 0.000000 
#    z 0.000000 0.000000 1.867720 
# 
# From -- ./inp_files/8063.got.cif
#   From: 2010.05.17/outbox.cif.g08.bks.cpg/sg58_5_cif.got.tgz:8063.got - 2010.06.03 14:20:14.
