data_PCOD9442455
_publ_section_title
;
Structure prediction by ZEFSAII (Michael W. Deem and Ramdas Pophale) SiO2 
 PCOD9442455
Probable space group: P N N M
;
_chemical_formula_sum "Si O2"
_cell_formula_units_Z 48
_cell_length_a 7.405622
_cell_length_b 16.447036
_cell_length_c 16.504730
_cell_angle_alpha 90.000000
_cell_angle_beta 90.000000
_cell_angle_gamma 90.000000
_cell_volume 2010.284889
_symmetry_space_group_name_H-M "P N N M"
_symmetry_group_IT_number 58
_symmetry_cell_setting 'orthorhombic'
loop_
_space_group_symop_operation_xyz
x,y,z
-x,-y,z
1/2+x,1/2-y,1/2-z
1/2-x,1/2+y,1/2-z
-x,-y,-z
x,y,-z
1/2-x,1/2+y,1/2+z
1/2+x,1/2-y,1/2+z
loop_
_atom_site_type_symbol
_atom_site_label
_atom_site_fract_x
_atom_site_fract_y
_atom_site_fract_z
Si Si1 0.042041 0.271868 0.093136
Si Si2 0.094124 0.084746 0.117401
Si Si3 0.496275 0.415646 0.202501
Si Si4 0.929544 0.588265 0.221676
Si Si5 0.011155 0.395454 0.587059
Si Si6 0.978183 0.212006 0.414521
O O1 0.002926 0.174232 0.104245
O O2 0.993217 0.336048 0.166143
O O3 0.262194 0.276551 0.093639
O O4 0.985294 0.294023 0.000000
O O5 0.295444 0.090665 0.084106
O O6 0.102978 0.075366 0.214529
O O7 0.000000 0.000000 0.090467
O O8 0.500000 0.500000 0.154839
O O9 0.285349 0.402425 0.215812
O O10 0.565133 0.339006 0.155486
O O11 0.000000 0.500000 0.190693
O O12 0.949642 0.583905 0.319612
O O13 0.088042 0.426653 0.500000
O O14 0.056289 0.300920 0.585028
O O15 0.009613 0.169951 0.500000
#
# Coordination Sequence:
#
# PCOD9442455 Si02
#       6
#     8   8   8   8   8   8
#     4   9  19  35  57  85 115 149 188 231 284 340
#     4  10  19  35  60  87 115 146 185 234 287 341
#     4  10  20  34  55  82 112 147 189 237 286 335
#     4  11  22  38  58  80 113 154 192 234 280 333
#     4  10  21  38  60  84 113 151 191 232 283 342
#     4   8  16  33  56  82 112 147 187 233 286 340
#
# _framework density 23.877213999999999
#
# number of rings (size 3 to 8) (size 9 to 14) (size 15 to 20)
#    0.000    2.333    0.000    4.500    0.000    2.333 
#    0.000    3.333    0.000    7.500    0.000    0.000 
#    0.000    0.000    0.000    0.000    0.000    0.000 
#
# Total GULP energy -267311.742477 kJ/mol
# GULP energy per Si atom -5568.994635 kJ/mol
# Density = 2.382287 g / cm^3
# Si number density = 23.877214 Si / 1000 Ang^3
#
#
#
# Elastic Constant Matrix: (Units=GPa)
#
#
# Indices 1 2 3 4 5 6 
#
# 1 65.1773 6.1725 11.5031 0.0000 0.0000 0.0000
# 2 6.1725 168.6885 98.1127 0.0000 0.0000 0.0000
# 3 11.5031 98.1127 126.4490 0.0000 0.0000 0.0000
# 4 0.0000 0.0000 0.0000 24.0640 0.0000 0.0000
# 5 0.0000 0.0000 0.0000 0.0000 6.9686 0.0000
# 6 0.0000 0.0000 0.0000 0.0000 0.0000 21.3530
#
#
#
# Elastic Compliance Matrix: (Units=1/GPa)
#
#
# Indices 1 2 3 4 5 6 
#
# 1 0.015613 0.000464 -0.001781 0.000000 0.000000 0.000000
# 2 0.000464 0.010817 -0.008436 0.000000 0.000000 0.000000
# 3 -0.001781 -0.008436 0.014615 0.000000 0.000000 0.000000
# 4 0.000000 0.000000 0.000000 0.041556 0.000000 0.000000
# 5 0.000000 0.000000 0.000000 0.000000 0.143500 0.000000
# 6 0.000000 0.000000 0.000000 0.000000 0.000000 0.046832
#
#
# Mechanical properties :
#
#
# Convention : Reuss Voigt Hill
#
# Bulk Modulus (GPa) = 46.42022 65.76573 56.09297
# Shear Modulus (GPa) = 16.68793 26.77889 21.73341
#
# Velocity S-wave (km/s) = 2.64655 3.35255 3.02025
# Velocity P-wave (km/s) = 5.36865 6.52604 5.97543
#
# Compressibility (1/GPa) = 0.02154234
#
# Stress axis : x y z
#
# Youngs Moduli (GPa) = 64.04894 92.44395 68.42054
#
# Poissons Ratio (x) = -0.04293 0.12183
# Poissons Ratio (y) = -0.02974 0.57716
# Poissons Ratio (z) = 0.11405 0.77981
#
# Static dielectric constant tensor:
#      x y z
#    x 1.925460 0.000000 0.000000 
#    y 0.000000 1.971900 0.000000 
#    z 0.000000 0.000000 1.962300 
# 
# From -- ./inp_files/25305.got.cif
#   From: 2010.05.17/outbox.cif.g08.bks.cpg/sg58_13_cif.got.tgz:25305.got - 2010.06.03 14:20:14.
