data_PCOD9442967
_publ_section_title
;
Structure prediction by ZEFSAII (Michael W. Deem and Ramdas Pophale) SiO2 
 PCOD9442967
Probable space group: P N N M
;
_chemical_formula_sum "Si O2"
_cell_formula_units_Z 56
_cell_length_a 15.255575
_cell_length_b 21.487042
_cell_length_c 8.313845
_cell_angle_alpha 90.000000
_cell_angle_beta 90.000000
_cell_angle_gamma 90.000000
_cell_volume 2725.254952
_symmetry_space_group_name_H-M "P N N M"
_symmetry_group_IT_number 58
_symmetry_cell_setting 'orthorhombic'
loop_
_space_group_symop_operation_xyz
x,y,z
-x,-y,z
1/2+x,1/2-y,1/2-z
1/2-x,1/2+y,1/2-z
-x,-y,-z
x,y,-z
1/2-x,1/2+y,1/2+z
1/2+x,1/2-y,1/2+z
loop_
_atom_site_type_symbol
_atom_site_label
_atom_site_fract_x
_atom_site_fract_y
_atom_site_fract_z
Si Si1 0.327821 0.843546 0.190875
Si Si2 0.051413 0.149085 0.813391
Si Si3 0.729472 0.392260 0.193601
Si Si4 0.418891 0.455092 0.689507
Si Si5 0.308371 0.238989 0.193415
Si Si6 0.729869 0.025153 0.685828
Si Si7 0.993925 0.725021 0.686131
O O1 0.250706 0.797759 0.253116
O O2 0.311090 0.915853 0.225737
O O3 0.423046 0.822542 0.258217
O O4 0.329652 0.833912 0.000000
O O5 0.132720 0.105185 0.770065
O O6 0.054016 0.208741 0.701233
O O7 0.960419 0.113127 0.791694
O O8 0.059390 0.167739 0.000000
O O9 0.767275 0.326403 0.250159
O O10 0.783372 0.453995 0.244424
O O11 0.723188 0.393606 0.000000
O O12 0.500000 0.500000 0.727280
O O13 0.396157 0.463915 0.500000
O O14 0.334418 0.465060 0.796137
O O15 0.409048 0.236243 0.255878
O O16 0.309323 0.241074 0.000000
O O17 0.703725 0.028449 0.500000
O O18 0.007394 0.707768 0.500000
#
# Coordination Sequence:
#
# PCOD9442967 Si02
#       7
#     8   8   8   8   8   8   8
#     4  11  23  41  64  90 124 163 201 251 311 366
#     4  11  21  34  58  87 117 156 198 245 300 363
#     4  11  23  39  59  86 122 161 201 249 305 360
#     4  10  20  34  53  83 119 154 196 242 299 366
#     4  11  23  41  66  94 122 159 207 254 306 369
#     4  11  24  39  58  86 122 164 206 252 308 364
#     4  10  23  41  61  88 122 156 198 253 308 364
#
# _framework density 20.548537
#
# number of rings (size 3 to 8) (size 9 to 14) (size 15 to 20)
#    0.000    1.286    2.857    3.000    0.000    7.143 
#    0.000    0.714    0.000    4.286    0.000    0.000 
#    0.000    0.000    0.000    0.000    0.000    0.000 
#
# Total GULP energy -312595.721250 kJ/mol
# GULP energy per Si atom -5582.066451 kJ/mol
# Density = 2.050177 g / cm^3
# Si number density = 20.548537 Si / 1000 Ang^3
#
#
#
# Elastic Constant Matrix: (Units=GPa)
#
#
# Indices 1 2 3 4 5 6 
#
# 1 55.2996 7.2092 3.0539 0.0000 0.0000 0.0000
# 2 7.2092 78.1265 -1.3491 0.0000 0.0000 0.0000
# 3 3.0539 -1.3491 25.2274 0.0000 0.0000 0.0000
# 4 0.0000 0.0000 0.0000 29.3588 0.0000 0.0000
# 5 0.0000 0.0000 0.0000 0.0000 2.1043 0.0000
# 6 0.0000 0.0000 0.0000 0.0000 0.0000 21.8685
#
#
#
# Elastic Compliance Matrix: (Units=1/GPa)
#
#
# Indices 1 2 3 4 5 6 
#
# 1 0.018439 -0.001742 -0.002325 0.000000 0.000000 0.000000
# 2 -0.001742 0.012976 0.000905 0.000000 0.000000 0.000000
# 3 -0.002325 0.000905 0.039969 0.000000 0.000000 0.000000
# 4 0.000000 0.000000 0.000000 0.034061 0.000000 0.000000
# 5 0.000000 0.000000 0.000000 0.000000 0.475216 0.000000
# 6 0.000000 0.000000 0.000000 0.000000 0.000000 0.045728
#
#
# Mechanical properties :
#
#
# Convention : Reuss Voigt Hill
#
# Bulk Modulus (GPa) = 15.37045 19.60908 17.48976
# Shear Modulus (GPa) = 7.64058 20.64895 14.14477
#
# Velocity S-wave (km/s) = 1.93038 3.17343 2.62651
# Velocity P-wave (km/s) = 3.53055 4.79490 4.21046
#
# Compressibility (1/GPa) = 0.06505991
#
# Stress axis : x y z
#
# Youngs Moduli (GPa) = 54.23359 77.06488 25.01921
#
# Poissons Ratio (x) = 0.13422 0.05818
# Poissons Ratio (y) = 0.09445 -0.02264
# Poissons Ratio (z) = 0.12611 -0.06972
#
# Static dielectric constant tensor:
#      x y z
#    x 1.760300 0.000000 0.000000 
#    y 0.000000 1.765680 0.000000 
#    z 0.000000 0.000000 1.719130 
# 
# From -- ./inp_files/6399.got.cif
#   From: 2010.05.17/outbox.cif.g08.bks.cpg/sg58_4_cif.got.tgz:6399.got - 2010.06.03 14:20:14.
