data_PCOD9442716
_publ_section_title
;
Structure prediction by ZEFSAII (Michael W. Deem and Ramdas Pophale) SiO2 
 PCOD9442716
Probable space group: P N N M
;
_chemical_formula_sum "Si O2"
_cell_formula_units_Z 64
_cell_length_a 12.974107
_cell_length_b 29.143189
_cell_length_c 7.784265
_cell_angle_alpha 90.000000
_cell_angle_beta 90.000000
_cell_angle_gamma 90.000000
_cell_volume 2943.283937
_symmetry_space_group_name_H-M "P N N M"
_symmetry_group_IT_number 58
_symmetry_cell_setting 'orthorhombic'
loop_
_space_group_symop_operation_xyz
x,y,z
-x,-y,z
1/2+x,1/2-y,1/2-z
1/2-x,1/2+y,1/2-z
-x,-y,-z
x,y,-z
1/2-x,1/2+y,1/2+z
1/2+x,1/2-y,1/2+z
loop_
_atom_site_type_symbol
_atom_site_label
_atom_site_fract_x
_atom_site_fract_y
_atom_site_fract_z
Si Si1 0.862821 0.864723 0.793015
Si Si2 0.768931 0.699545 0.802011
Si Si3 0.978477 0.651454 0.702867
Si Si4 0.408796 0.367857 0.708179
Si Si5 0.682093 0.796128 0.789775
Si Si6 0.259033 0.047741 0.304634
Si Si7 0.396571 0.474149 0.707407
Si Si8 0.483308 0.050957 0.195300
O O1 0.774365 0.829944 0.739300
O O2 0.828521 0.914783 0.732710
O O3 0.977413 0.851747 0.736971
O O4 0.864587 0.866104 0.000000
O O5 0.873066 0.679525 0.721492
O O6 0.681854 0.661093 0.788347
O O7 0.716338 0.745742 0.729242
O O8 0.795176 0.709185 0.000000
O O9 0.998913 0.644963 0.500000
O O10 0.074522 0.681641 0.771069
O O11 0.974209 0.598889 0.773062
O O12 0.401155 0.364286 0.500000
O O13 0.400210 0.421166 0.754711
O O14 0.676456 0.794291 0.000000
O O15 0.293362 0.051834 0.500000
O O16 0.359715 0.056955 0.192740
O O17 0.205514 0.999232 0.272090
O O18 0.500000 0.500000 0.768165
O O19 0.395764 0.477241 0.500000
O O20 0.500000 0.000000 0.274781
O O21 0.525558 0.047594 0.000000
#
# Coordination Sequence:
#
# PCOD9442716 Si02
#       8
#     8   8   8   8   8   8   8   8
#     4  10  19  40  67  88 114 157 214 257 290 352
#     4  11  25  41  60  91 130 162 193 248 322 372
#     4  10  21  42  67  90 120 159 212 259 294 357
#     4  10  22  39  64  90 116 160 213 254 293 354
#     4   9  20  40  66  89 116 159 203 251 306 359
#     4  12  24  36  56  91 128 158 191 244 317 368
#     4  10  20  38  61  84 114 159 209 246 281 344
#     4  10  22  41  66  89 113 161 215 254 293 355
#
# _framework density 21.744418
#
# number of rings (size 3 to 8) (size 9 to 14) (size 15 to 20)
#    0.000    1.750    2.500    1.500    3.500    2.000 
#    0.000    1.875    0.000    0.000    0.000    0.000 
#    0.000    0.000    0.000    0.000    0.000    0.000 
#
# Total GULP energy -357472.272452 kJ/mol
# GULP energy per Si atom -5585.504257 kJ/mol
# Density = 2.169493 g / cm^3
# Si number density = 21.744418 Si / 1000 Ang^3
#
#
#
# Elastic Constant Matrix: (Units=GPa)
#
#
# Indices 1 2 3 4 5 6 
#
# 1 111.1699 60.0674 6.4720 0.0000 0.0000 0.0000
# 2 60.0674 143.8551 11.1843 0.0000 0.0000 0.0000
# 3 6.4720 11.1843 25.5227 0.0000 0.0000 0.0000
# 4 0.0000 0.0000 0.0000 25.0756 0.0000 0.0000
# 5 0.0000 0.0000 0.0000 0.0000 5.0819 0.0000
# 6 0.0000 0.0000 0.0000 0.0000 0.0000 30.0469
#
#
#
# Elastic Compliance Matrix: (Units=1/GPa)
#
#
# Indices 1 2 3 4 5 6 
#
# 1 0.011634 -0.004792 -0.000850 0.000000 0.000000 0.000000
# 2 -0.004792 0.009170 -0.002803 0.000000 0.000000 0.000000
# 3 -0.000850 -0.002803 0.040625 0.000000 0.000000 0.000000
# 4 0.000000 0.000000 0.000000 0.039879 0.000000 0.000000
# 5 0.000000 0.000000 0.000000 0.000000 0.196778 0.000000
# 6 0.000000 0.000000 0.000000 0.000000 0.000000 0.033281
#
#
# Mechanical properties :
#
#
# Convention : Reuss Voigt Hill
#
# Bulk Modulus (GPa) = 22.45265 48.44390 35.44828
# Shear Modulus (GPa) = 13.77016 25.56246 19.66631
#
# Velocity S-wave (km/s) = 2.51922 3.43240 3.01064
# Velocity P-wave (km/s) = 4.33706 6.16731 5.33131
#
# Compressibility (1/GPa) = 0.04453816
#
# Stress axis : x y z
#
# Youngs Moduli (GPa) = 85.95677 109.04927 24.61541
#
# Poissons Ratio (x) = 0.52252 0.02093
# Poissons Ratio (y) = 0.41187 0.06901
# Poissons Ratio (z) = 0.07309 0.30571
#
# Static dielectric constant tensor:
#      x y z
#    x 1.751230 0.000000 0.000000 
#    y 0.000000 1.806890 0.000000 
#    z 0.000000 0.000000 1.838500 
# 
# From -- ./inp_files/4822.got.cif
#   From: 2010.05.17/outbox.cif.g08.bks.cpg/sg58_3_cif.got.tgz:4822.got - 2010.06.03 14:20:14.
