data_PCOD9442467
_publ_section_title
;
Structure prediction by ZEFSAII (Michael W. Deem and Ramdas Pophale) SiO2 
 PCOD9442467
Probable space group: P N N M
;
_chemical_formula_sum "Si O2"
_cell_formula_units_Z 48
_cell_length_a 15.572032
_cell_length_b 19.590130
_cell_length_c 7.582294
_cell_angle_alpha 90.000000
_cell_angle_beta 90.000000
_cell_angle_gamma 90.000000
_cell_volume 2313.040438
_symmetry_space_group_name_H-M "P N N M"
_symmetry_group_IT_number 58
_symmetry_cell_setting 'orthorhombic'
loop_
_space_group_symop_operation_xyz
x,y,z
-x,-y,z
1/2+x,1/2-y,1/2-z
1/2-x,1/2+y,1/2-z
-x,-y,-z
x,y,-z
1/2-x,1/2+y,1/2+z
1/2+x,1/2-y,1/2+z
loop_
_atom_site_type_symbol
_atom_site_label
_atom_site_fract_x
_atom_site_fract_y
_atom_site_fract_z
Si Si1 0.382044 0.826264 0.283124
Si Si2 0.730491 0.933201 0.792665
Si Si3 0.222392 0.914189 0.295731
Si Si4 0.626751 0.328875 0.709728
Si Si5 0.468563 0.425608 0.786774
Si Si6 0.966561 0.425527 0.213171
O O1 0.382814 0.827255 0.500000
O O2 0.298165 0.867668 0.221101
O O3 0.378628 0.748212 0.222484
O O4 0.466948 0.867527 0.227970
O O5 0.795376 0.875811 0.720930
O O6 0.631175 0.914365 0.769543
O O7 0.748594 0.006987 0.709741
O O8 0.748431 0.941605 0.000000
O O9 0.214737 0.893393 0.500000
O O10 0.126883 0.909672 0.218559
O O11 0.640690 0.322812 0.500000
O O12 0.538782 0.369491 0.739815
O O13 0.500000 0.500000 0.723930
O O14 0.463968 0.429532 0.000000
O O15 0.000000 0.500000 0.272869
O O16 0.967085 0.426693 0.000000
#
# Coordination Sequence:
#
# PCOD9442467 Si02
#       6
#     8   8   8   8   8   8
#     4   9  19  37  58  80 108 146 188 224 272 335
#     4  11  22  34  54  85 116 145 179 227 281 329
#     4  10  19  36  60  81 107 146 191 230 265 326
#     4  10  22  38  55  79 115 151 179 221 283 340
#     4  10  20  34  58  87 109 140 189 236 272 315
#     4  10  19  35  61  84 103 143 192 229 267 323
#
# _framework density 20.751908
#
# number of rings (size 3 to 8) (size 9 to 14) (size 15 to 20)
#    0.000    2.000    3.333    0.500    0.000    3.333 
#    0.000    3.333    0.000    0.000    0.000    0.000 
#    0.000    0.000    0.000    0.000    0.000    0.000 
#
# Total GULP energy -268133.218660 kJ/mol
# GULP energy per Si atom -5586.108722 kJ/mol
# Density = 2.070468 g / cm^3
# Si number density = 20.751908 Si / 1000 Ang^3
#
#
#
# Elastic Constant Matrix: (Units=GPa)
#
#
# Indices 1 2 3 4 5 6 
#
# 1 202.6218 106.9444 -13.1832 0.0000 0.0000 0.0000
# 2 106.9444 185.2327 -8.3857 0.0000 0.0000 0.0000
# 3 -13.1832 -8.3857 41.7072 0.0000 0.0000 0.0000
# 4 0.0000 0.0000 0.0000 10.7208 0.0000 0.0000
# 5 0.0000 0.0000 0.0000 0.0000 19.2126 0.0000
# 6 0.0000 0.0000 0.0000 0.0000 0.0000 33.5052
#
#
#
# Elastic Compliance Matrix: (Units=1/GPa)
#
#
# Indices 1 2 3 4 5 6 
#
# 1 0.007184 -0.004082 0.001450 0.000000 0.000000 0.000000
# 2 -0.004082 0.007768 0.000271 0.000000 0.000000 0.000000
# 3 0.001450 0.000271 0.024490 0.000000 0.000000 0.000000
# 4 0.000000 0.000000 0.000000 0.093276 0.000000 0.000000
# 5 0.000000 0.000000 0.000000 0.000000 0.052049 0.000000
# 6 0.000000 0.000000 0.000000 0.000000 0.000000 0.029846
#
#
# Mechanical properties :
#
#
# Convention : Reuss Voigt Hill
#
# Bulk Modulus (GPa) = 28.80156 66.70141 47.75149
# Shear Modulus (GPa) = 21.65367 35.63349 28.64358
#
# Velocity S-wave (km/s) = 3.23376 4.14831 3.71925
# Velocity P-wave (km/s) = 5.27750 7.42676 6.44239
#
# Compressibility (1/GPa) = 0.03472034
#
# Stress axis : x y z
#
# Youngs Moduli (GPa) = 139.19360 128.73722 40.83365
#
# Poissons Ratio (x) = 0.52553 -0.05921
# Poissons Ratio (y) = 0.56821 -0.01108
# Poissons Ratio (z) = -0.20184 -0.03495
#
# Static dielectric constant tensor:
#      x y z
#    x 1.721580 0.000000 0.000000 
#    y 0.000000 1.702800 0.000000 
#    z 0.000000 0.000000 1.791370 
# 
# From -- ./inp_files/5858.got.cif
#   From: 2010.05.17/outbox.cif.g08.bks.cpg/sg58_3_cif.got.tgz:5858.got - 2010.06.03 14:20:14.
