data_PCOD9442999
_publ_section_title
;
Structure prediction by ZEFSAII (Michael W. Deem and Ramdas Pophale) SiO2 
 PCOD9442999
Probable space group: P N N M
;
_chemical_formula_sum "Si O2"
_cell_formula_units_Z 64
_cell_length_a 23.473286
_cell_length_b 13.191131
_cell_length_c 11.367065
_cell_angle_alpha 90.000000
_cell_angle_beta 90.000000
_cell_angle_gamma 90.000000
_cell_volume 3519.688806
_symmetry_space_group_name_H-M "P N N M"
_symmetry_group_IT_number 58
_symmetry_cell_setting 'orthorhombic'
loop_
_space_group_symop_operation_xyz
x,y,z
-x,-y,z
1/2+x,1/2-y,1/2-z
1/2-x,1/2+y,1/2-z
-x,-y,-z
x,y,-z
1/2-x,1/2+y,1/2+z
1/2+x,1/2-y,1/2+z
loop_
_atom_site_type_symbol
_atom_site_label
_atom_site_fract_x
_atom_site_fract_y
_atom_site_fract_z
Si Si1 0.803662 0.681911 0.636955
Si Si2 0.546001 0.911261 0.128938
Si Si3 0.684764 0.761431 0.286077
Si Si4 0.439855 0.201440 0.627046
Si Si5 0.321046 0.041086 0.134927
Si Si6 0.490408 0.385964 0.263038
Si Si7 0.389769 0.645271 0.857554
Si Si8 0.627688 0.584318 0.138207
O O1 0.818710 0.667472 0.500000
O O2 0.741316 0.729602 0.646760
O O3 0.804423 0.568111 0.687580
O O4 0.849743 0.762526 0.683348
O O5 0.500000 0.000000 0.129665
O O6 0.540563 0.850463 0.250640
O O7 0.610105 0.954394 0.131323
O O8 0.540229 0.857214 0.000000
O O9 0.628437 0.786462 0.361577
O O10 0.697255 0.861117 0.208554
O O11 0.665546 0.666024 0.206166
O O12 0.453441 0.153708 0.500000
O O13 0.469313 0.310667 0.636833
O O14 0.300147 0.049938 0.000000
O O15 0.500000 0.500000 0.306362
O O16 0.548182 0.349833 0.200722
O O17 0.438110 0.391801 0.170431
O O18 0.363707 0.533984 0.828981
O O19 0.395203 0.648366 0.000000
O O20 0.636801 0.595502 0.000000
#
# Coordination Sequence:
#
# PCOD9442999 Si02
#       8
#     8   8   8   8   8   8   8   8
#     4  10  21  34  52  76 105 140 179 227 276 327
#     4   9  19  35  58  85 109 139 181 227 276 328
#     4  10  20  34  55  73 105 144 187 224 264 328
#     4  10  21  35  54  80 111 150 188 224 269 322
#     4   9  19  35  53  79 106 135 176 227 279 325
#     4   9  18  32  52  80 110 142 175 219 271 331
#     4   9  18  31  51  80 109 136 173 228 289 335
#     4   9  17  31  53  81 107 136 178 230 285 331
#
# _framework density 18.183425
#
# number of rings (size 3 to 8) (size 9 to 14) (size 15 to 20)
#    0.000    2.625    0.000    1.125    3.500    5.500 
#    0.000    0.000    0.000    2.250    0.000    0.000 
#    0.000    0.000    0.000    0.000    0.000    0.000 
#
# Total GULP energy -356507.667239 kJ/mol
# GULP energy per Si atom -5570.432301 kJ/mol
# Density = 1.814204 g / cm^3
# Si number density = 18.183425 Si / 1000 Ang^3
#
#
#
# Elastic Constant Matrix: (Units=GPa)
#
#
# Indices 1 2 3 4 5 6 
#
# 1 35.4590 31.8342 6.6580 0.0000 0.0000 0.0000
# 2 31.8342 107.1602 38.4230 0.0000 0.0000 0.0000
# 3 6.6580 38.4230 82.3950 0.0000 0.0000 0.0000
# 4 0.0000 0.0000 0.0000 -36.1772 0.0000 0.0000
# 5 0.0000 0.0000 0.0000 0.0000 4.9316 0.0000
# 6 0.0000 0.0000 0.0000 0.0000 0.0000 22.8504
#
#
#
# Elastic Compliance Matrix: (Units=1/GPa)
#
#
# Indices 1 2 3 4 5 6 
#
# 1 0.038952 -0.012540 0.002700 0.000000 0.000000 0.000000
# 2 -0.012540 0.015242 -0.006095 0.000000 0.000000 0.000000
# 3 0.002700 -0.006095 0.014761 0.000000 0.000000 0.000000
# 4 0.000000 0.000000 0.000000 -0.027642 0.000000 0.000000
# 5 0.000000 0.000000 0.000000 0.000000 0.202775 0.000000
# 6 0.000000 0.000000 0.000000 0.000000 0.000000 0.043763
#
#
# Mechanical properties :
#
#
# Convention : Reuss Voigt Hill
#
# Bulk Modulus (GPa) = 26.96387 42.09385 34.52886
# Shear Modulus (GPa) = 15.05649 8.19422 11.62536
#
# Velocity S-wave (km/s) = 2.88068 2.12514 2.53126
# Velocity P-wave (km/s) = 5.09170 5.40569 5.25104
#
# Compressibility (1/GPa) = 0.03708666
#
# Stress axis : x y z
#
# Youngs Moduli (GPa) = 25.67230 65.60699 67.74813
#
# Poissons Ratio (x) = 0.82270 -0.18292
# Poissons Ratio (y) = 0.32192 0.41290
# Poissons Ratio (z) = -0.06932 0.39985
#
# Static dielectric constant tensor:
#      x y z
#    x 1.599120 0.000000 0.000000 
#    y 0.000000 1.671180 0.000000 
#    z 0.000000 0.000000 1.631890 
# 
# From -- ./inp_files/17535.got.cif
#   From: 2010.05.17/outbox.cif.g08.bks.cpg/sg58_9_cif.got.tgz:17535.got - 2010.06.03 14:20:14.
