data_PCOD9442927
_publ_section_title
;
Structure prediction by ZEFSAII (Michael W. Deem and Ramdas Pophale) SiO2 
 PCOD9442927
Probable space group: P N N M
;
_chemical_formula_sum "Si O2"
_cell_formula_units_Z 56
_cell_length_a 22.268925
_cell_length_b 14.957493
_cell_length_c 9.276327
_cell_angle_alpha 90.000000
_cell_angle_beta 90.000000
_cell_angle_gamma 90.000000
_cell_volume 3089.826620
_symmetry_space_group_name_H-M "P N N M"
_symmetry_group_IT_number 58
_symmetry_cell_setting 'orthorhombic'
loop_
_space_group_symop_operation_xyz
x,y,z
-x,-y,z
1/2+x,1/2-y,1/2-z
1/2-x,1/2+y,1/2-z
-x,-y,-z
x,y,-z
1/2-x,1/2+y,1/2+z
1/2+x,1/2-y,1/2+z
loop_
_atom_site_type_symbol
_atom_site_label
_atom_site_fract_x
_atom_site_fract_y
_atom_site_fract_z
Si Si1 0.569671 0.519530 0.325727
Si Si2 0.471248 0.134445 0.836259
Si Si3 0.857420 0.843782 0.824716
Si Si4 0.359431 0.004568 0.168692
Si Si5 0.280050 0.171768 0.824122
Si Si6 0.116847 0.803898 0.669786
Si Si7 0.408838 0.844558 0.328674
O O1 0.500000 0.500000 0.287140
O O2 0.572074 0.527037 0.500000
O O3 0.610524 0.435210 0.279441
O O4 0.595190 0.609986 0.256449
O O5 0.423714 0.054561 0.820614
O O6 0.432985 0.225421 0.820180
O O7 0.524884 0.131605 0.724939
O O8 0.495602 0.130959 0.000000
O O9 0.788737 0.830356 0.777186
O O10 0.894568 0.756423 0.781362
O O11 0.856558 0.845836 0.000000
O O12 0.311996 0.079050 0.219030
O O13 0.362968 0.914550 0.258489
O O14 0.348503 0.985755 0.000000
O O15 0.321285 0.255924 0.779100
O O16 0.282022 0.173221 0.000000
O O17 0.123218 0.826200 0.500000
O O18 0.404698 0.849559 0.500000
#
# Coordination Sequence:
#
# PCOD9442927 Si02
#       7
#     8   8   8   8   8   8   8
#     4  10  20  34  52  75 104 138 172 204 247 306
#     4   9  18  33  51  72 100 131 161 195 240 297
#     4   9  19  34  50  70 100 136 169 202 245 300
#     4   9  18  33  53  73  95 128 166 200 238 292
#     4   8  16  34  55  72  95 131 170 203 245 302
#     4   9  18  33  55  78  97 125 168 214 253 289
#     4  11  21  31  48  75 103 130 160 199 246 290
#
# _framework density 18.123994
#
# number of rings (size 3 to 8) (size 9 to 14) (size 15 to 20)
#    0.000    2.714    0.000    3.429    0.000    5.429 
#    0.000    3.571    0.000    3.429    0.000    0.000 
#    0.000    0.000    0.000    0.000    0.000    0.000 
#
# Total GULP energy -312286.796107 kJ/mol
# GULP energy per Si atom -5576.549930 kJ/mol
# Density = 1.808274 g / cm^3
# Si number density = 18.123994 Si / 1000 Ang^3
#
#
#
# Elastic Constant Matrix: (Units=GPa)
#
#
# Indices 1 2 3 4 5 6 
#
# 1 62.3421 17.5751 17.0658 0.0000 0.0000 0.0000
# 2 17.5751 118.0076 35.8931 0.0000 0.0000 0.0000
# 3 17.0658 35.8931 28.9975 0.0000 0.0000 0.0000
# 4 0.0000 0.0000 0.0000 27.7748 0.0000 0.0000
# 5 0.0000 0.0000 0.0000 0.0000 8.2147 0.0000
# 6 0.0000 0.0000 0.0000 0.0000 0.0000 11.1805
#
#
#
# Elastic Compliance Matrix: (Units=1/GPa)
#
#
# Indices 1 2 3 4 5 6 
#
# 1 0.019184 0.000925 -0.012435 0.000000 0.000000 0.000000
# 2 0.000925 0.013635 -0.017422 0.000000 0.000000 0.000000
# 3 -0.012435 -0.017422 0.063370 0.000000 0.000000 0.000000
# 4 0.000000 0.000000 0.000000 0.036004 0.000000 0.000000
# 5 0.000000 0.000000 0.000000 0.000000 0.121734 0.000000
# 6 0.000000 0.000000 0.000000 0.000000 0.000000 0.089441
#
#
# Mechanical properties :
#
#
# Convention : Reuss Voigt Hill
#
# Bulk Modulus (GPa) = 26.09353 38.93503 32.51428
# Shear Modulus (GPa) = 12.07708 18.68821 15.38264
#
# Velocity S-wave (km/s) = 2.58419 3.21461 2.91648
# Velocity P-wave (km/s) = 4.83038 5.94201 5.41480
#
# Compressibility (1/GPa) = 0.03832368
#
# Stress axis : x y z
#
# Youngs Moduli (GPa) = 52.12722 73.33845 15.78041
#
# Poissons Ratio (x) = -0.06786 0.19624
# Poissons Ratio (y) = -0.04823 0.27493
# Poissons Ratio (z) = 0.64823 1.27773
#
# Static dielectric constant tensor:
#      x y z
#    x 1.628300 0.000000 0.000000 
#    y 0.000000 1.616580 0.000000 
#    z 0.000000 0.000000 1.603340 
# 
# From -- ./inp_files/9062.got.cif
#   From: 2010.05.17/outbox.cif.g08.bks.cpg/sg58_5_cif.got.tgz:9062.got - 2010.06.03 14:20:14.
