data_PCOD9442379
_publ_section_title
;
Structure prediction by ZEFSAII (Michael W. Deem and Ramdas Pophale) SiO2 
 PCOD9442379
Probable space group: P N N M
;
_chemical_formula_sum "Si O2"
_cell_formula_units_Z 58
_cell_length_a 15.596451
_cell_length_b 23.755423
_cell_length_c 8.865197
_cell_angle_alpha 90.000000
_cell_angle_beta 90.000000
_cell_angle_gamma 90.000000
_cell_volume 3284.558067
_symmetry_space_group_name_H-M "P N N M"
_symmetry_group_IT_number 58
_symmetry_cell_setting 'orthorhombic'
loop_
_space_group_symop_operation_xyz
x,y,z
-x,-y,z
1/2+x,1/2-y,1/2-z
1/2-x,1/2+y,1/2-z
-x,-y,-z
x,y,-z
1/2-x,1/2+y,1/2+z
1/2+x,1/2-y,1/2+z
loop_
_atom_site_type_symbol
_atom_site_label
_atom_site_fract_x
_atom_site_fract_y
_atom_site_fract_z
Si Si1 0.951550 0.293371 0.180259
Si Si2 0.052294 0.388716 0.334493
Si Si3 0.553512 0.416702 0.683001
Si Si4 0.274095 0.265290 0.319143
Si Si5 0.000000 0.500000 0.500000
Si Si6 0.892911 0.792498 0.181695
Si Si7 0.869514 0.034625 0.182481
Si Si8 0.265529 0.884388 0.320947
O O1 0.859785 0.268447 0.225037
O O2 0.978796 0.349959 0.264542
O O3 0.025525 0.247342 0.211193
O O4 0.950761 0.303040 0.000000
O O5 0.077468 0.364527 0.500000
O O6 0.021196 0.451510 0.371220
O O7 0.135928 0.387401 0.231010
O O8 0.553043 0.416035 0.500000
O O9 0.586193 0.356020 0.732998
O O10 0.612137 0.469926 0.726837
O O11 0.455653 0.431008 0.726430
O O12 0.273032 0.269853 0.500000
O O13 0.190235 0.233143 0.260239
O O14 0.273554 0.327506 0.249325
O O15 0.879521 0.792910 0.000000
O O16 0.787589 0.063080 0.256130
O O17 0.861705 0.036889 0.000000
O O18 0.259969 0.882259 0.500000
#
# Coordination Sequence:
#
# PCOD9442379 Si02
#       8
#     8   8   8   8   2   8   8   8
#     4  10  21  38  62  90 125 160 195 250 316 367
#     4  10  21  42  65  85 114 151 205 256 300 359
#     4   8  16  33  57  84 117 157 197 239 296 360
#     4  11  23  38  58  89 120 156 200 246 305 374
#     4   8  24  44  66  92 108 154 218 250 300 360
#     4  10  19  35  57  86 119 155 193 243 301 359
#     4   9  17  34  59  85 113 155 204 243 289 358
#     4  12  23  37  59  89 120 156 205 255 305 362
#
# _framework density 17.658387999999999
#
# number of rings (size 3 to 8) (size 9 to 14) (size 15 to 20)
#    0.414    1.655    1.379    3.724    0.000    3.310 
#    2.483    5.517    0.000    0.000    0.000    0.000 
#    0.000    0.000    0.000    0.000    0.000    0.000 
#
# Total GULP energy -323041.268622 kJ/mol
# GULP energy per Si atom -5569.677045 kJ/mol
# Density = 1.761820 g / cm^3
# Si number density = 17.658388 Si / 1000 Ang^3
#
#
#
# Elastic Constant Matrix: (Units=GPa)
#
#
# Indices 1 2 3 4 5 6 
#
# 1 62.0606 24.7323 24.1606 0.0000 0.0000 0.0000
# 2 24.7323 91.6673 27.9000 0.0000 0.0000 0.0000
# 3 24.1606 27.9000 47.0085 0.0000 0.0000 0.0000
# 4 0.0000 0.0000 0.0000 22.7207 0.0000 0.0000
# 5 0.0000 0.0000 0.0000 0.0000 38.2428 0.0000
# 6 0.0000 0.0000 0.0000 0.0000 0.0000 28.6282
#
#
#
# Elastic Compliance Matrix: (Units=1/GPa)
#
#
# Indices 1 2 3 4 5 6 
#
# 1 0.020745 -0.002870 -0.008958 0.000000 0.000000 0.000000
# 2 -0.002870 0.013711 -0.006662 0.000000 0.000000 0.000000
# 3 -0.008958 -0.006662 0.029831 0.000000 0.000000 0.000000
# 4 0.000000 0.000000 0.000000 0.044013 0.000000 0.000000
# 5 0.000000 0.000000 0.000000 0.000000 0.026149 0.000000
# 6 0.000000 0.000000 0.000000 0.000000 0.000000 0.034931
#
#
# Mechanical properties :
#
#
# Convention : Reuss Voigt Hill
#
# Bulk Modulus (GPa) = 36.62375 39.36913 37.99644
# Shear Modulus (GPa) = 23.20577 26.18122 24.69350
#
# Velocity S-wave (km/s) = 3.62905 3.85470 3.74358
# Velocity P-wave (km/s) = 6.19235 6.49268 6.34429
#
# Compressibility (1/GPa) = 0.02730469
#
# Stress axis : x y z
#
# Youngs Moduli (GPa) = 48.20492 72.93259 33.52191
#
# Poissons Ratio (x) = 0.20935 0.30030
# Poissons Ratio (y) = 0.13837 0.22334
# Poissons Ratio (z) = 0.43184 0.48591
#
# Static dielectric constant tensor:
#      x y z
#    x 1.588840 0.000000 0.000000 
#    y 0.000000 1.593080 0.000000 
#    z 0.000000 0.000000 1.596800 
# 
# From -- ./inp_files/6640.got.cif
#   From: 2010.05.17/outbox.cif.g08.bks.cpg/sg58_4_cif.got.tgz:6640.got - 2010.06.03 14:20:14.
