data_PCOD9442675
_publ_section_title
;
Structure prediction by ZEFSAII (Michael W. Deem and Ramdas Pophale) SiO2 
 PCOD9442675
Probable space group: P N N M
;
_chemical_formula_sum "Si O2"
_cell_formula_units_Z 36
_cell_length_a 7.751808
_cell_length_b 7.799622
_cell_length_c 28.188073
_cell_angle_alpha 90.000000
_cell_angle_beta 90.000000
_cell_angle_gamma 90.000000
_cell_volume 1704.283936
_symmetry_space_group_name_H-M "P N N M"
_symmetry_group_IT_number 58
_symmetry_cell_setting 'orthorhombic'
loop_
_space_group_symop_operation_xyz
x,y,z
-x,-y,z
1/2+x,1/2-y,1/2-z
1/2-x,1/2+y,1/2-z
-x,-y,-z
x,y,-z
1/2-x,1/2+y,1/2+z
1/2+x,1/2-y,1/2+z
loop_
_atom_site_type_symbol
_atom_site_label
_atom_site_fract_x
_atom_site_fract_y
_atom_site_fract_z
Si Si1 0.182733 0.231332 0.678394
Si Si2 0.810600 0.586858 0.224422
Si Si3 0.500000 0.000000 0.885876
Si Si4 0.038358 0.203714 0.143295
Si Si5 0.175018 0.114207 0.946566
O O1 0.235267 0.347416 0.723727
O O2 0.351740 0.211963 0.646121
O O3 0.040999 0.336052 0.648310
O O4 0.174407 0.045089 0.702484
O O5 0.844183 0.738790 0.187065
O O6 0.000000 0.500000 0.229085
O O7 0.334988 0.022139 0.920221
O O8 0.124872 0.251719 0.093438
O O9 0.000000 0.000000 0.145907
O O10 0.219574 0.167723 0.000000
O O11 0.000000 0.000000 0.950126
#
# Coordination Sequence:
#
# PCOD9442675 Si02
#       5
#     8   8   4   8   8
#     4  11  21  36  58  93 129 168 216 259 316 396
#     4  10  22  35  59  91 132 172 216 257 323 391
#     4  12  21  38  62  92 124 166 209 274 318 394
#     4  10  19  38  60  84 121 163 206 260 316 380
#     4  10  21  38  63  91 120 160 214 269 328 388
#
# _framework density 21.123239000000002
#
# number of rings (size 3 to 8) (size 9 to 14) (size 15 to 20)
#    0.000    1.556    5.556    1.667    0.000    0.000 
#    0.000    5.556    0.000   10.000    0.000    0.000 
#    0.000    0.000    0.000    0.000    0.000    0.000 
#
# Total GULP energy -200593.832060 kJ/mol
# GULP energy per Si atom -5572.050891 kJ/mol
# Density = 2.107516 g / cm^3
# Si number density = 21.123239 Si / 1000 Ang^3
#
#
#
# Elastic Constant Matrix: (Units=GPa)
#
#
# Indices 1 2 3 4 5 6 
#
# 1 124.2766 23.7770 41.2453 0.0000 0.0000 0.0000
# 2 23.7770 64.4089 36.2333 0.0000 0.0000 0.0000
# 3 41.2453 36.2333 176.7889 0.0000 0.0000 0.0000
# 4 0.0000 0.0000 0.0000 12.0425 0.0000 0.0000
# 5 0.0000 0.0000 0.0000 0.0000 2.1011 0.0000
# 6 0.0000 0.0000 0.0000 0.0000 0.0000 28.2858
#
#
#
# Elastic Compliance Matrix: (Units=1/GPa)
#
#
# Indices 1 2 3 4 5 6 
#
# 1 0.009047 -0.002433 -0.001612 0.000000 0.000000 0.000000
# 2 -0.002433 0.018203 -0.003163 0.000000 0.000000 0.000000
# 3 -0.001612 -0.003163 0.006681 0.000000 0.000000 0.000000
# 4 0.000000 0.000000 0.000000 0.083039 0.000000 0.000000
# 5 0.000000 0.000000 0.000000 0.000000 0.475933 0.000000
# 6 0.000000 0.000000 0.000000 0.000000 0.000000 0.035353
#
#
# Mechanical properties :
#
#
# Convention : Reuss Voigt Hill
#
# Bulk Modulus (GPa) = 51.24285 63.10953 57.17619
# Shear Modulus (GPa) = 7.70204 26.10047 16.90125
#
# Velocity S-wave (km/s) = 1.91158 3.51896 2.83172
# Velocity P-wave (km/s) = 5.40221 6.81561 6.14965
#
# Compressibility (1/GPa) = 0.01951492
#
# Stress axis : x y z
#
# Youngs Moduli (GPa) = 110.53318 54.93477 149.68097
#
# Poissons Ratio (x) = 0.13365 0.24130
# Poissons Ratio (y) = 0.26892 0.47348
# Poissons Ratio (z) = 0.17819 0.17377
#
# Static dielectric constant tensor:
#      x y z
#    x 1.830250 0.000000 0.000000 
#    y 0.000000 1.870070 0.000000 
#    z 0.000000 0.000000 1.790350 
# 
# From -- ./inp_files/33123.got.cif
#   From: 2010.05.17/outbox.cif.g08.bks.cpg/sg58_17_cif.got.tgz:33123.got - 2010.06.03 14:20:14.
