data_PCOD9442417
_publ_section_title
;
Structure prediction by ZEFSAII (Michael W. Deem and Ramdas Pophale) SiO2 
 PCOD9442417
Probable space group: P N N M
;
_chemical_formula_sum "Si O2"
_cell_formula_units_Z 64
_cell_length_a 13.079104
_cell_length_b 26.753028
_cell_length_c 7.961992
_cell_angle_alpha 90.000000
_cell_angle_beta 90.000000
_cell_angle_gamma 90.000000
_cell_volume 2785.945871
_symmetry_space_group_name_H-M "P N N M"
_symmetry_group_IT_number 58
_symmetry_cell_setting 'orthorhombic'
loop_
_space_group_symop_operation_xyz
x,y,z
-x,-y,z
1/2+x,1/2-y,1/2-z
1/2-x,1/2+y,1/2-z
-x,-y,-z
x,y,-z
1/2-x,1/2+y,1/2+z
1/2+x,1/2-y,1/2+z
loop_
_atom_site_type_symbol
_atom_site_label
_atom_site_fract_x
_atom_site_fract_y
_atom_site_fract_z
Si Si1 0.665828 0.879747 0.801398
Si Si2 0.970953 0.107159 0.297159
Si Si3 0.691773 0.203333 0.692097
Si Si4 0.561606 0.112247 0.695849
Si Si5 0.758472 0.061974 0.807979
Si Si6 0.338291 0.543667 0.803459
Si Si7 0.354097 0.232700 0.203465
Si Si8 0.059047 0.213933 0.700606
O O1 0.548205 0.897776 0.778274
O O2 0.751362 0.913973 0.716359
O O3 0.669811 0.822758 0.733797
O O4 0.687821 0.879262 0.000000
O O5 0.970937 0.107835 0.500000
O O6 0.052477 0.064864 0.242305
O O7 0.854971 0.096178 0.244726
O O8 0.019932 0.159989 0.244300
O O9 0.707266 0.186442 0.500000
O O10 0.618207 0.161923 0.768725
O O11 0.798949 0.217371 0.773732
O O12 0.649293 0.260107 0.698585
O O13 0.537811 0.120612 0.500000
O O14 0.652513 0.071789 0.710677
O O15 0.798438 0.005767 0.785976
O O16 0.733956 0.072212 0.000000
O O17 0.350411 0.531128 0.000000
O O18 0.471380 0.245361 0.229434
O O19 0.341099 0.232876 0.000000
O O20 0.082460 0.211916 0.500000
#
# Coordination Sequence:
#
# PCOD9442417 Si02
#       8
#     8   8   8   8   8   8   8   8
#     4  11  22  39  63  92 129 168 213 264 316 372
#     4  10  22  41  66  95 130 168 208 258 316 383
#     4  10  20  35  57  86 120 161 205 247 295 357
#     4  11  23  41  64  90 128 170 213 262 316 380
#     4  12  26  43  66  94 123 161 213 269 325 382
#     4  11  24  43  66  93 125 165 212 262 324 386
#     4   9  18  33  55  83 121 162 196 240 297 353
#     4  10  19  35  58  86 121 161 199 237 294 357
#
# _framework density 22.972449999999998
#
# number of rings (size 3 to 8) (size 9 to 14) (size 15 to 20)
#    0.000    1.500    1.250    4.125    0.000    6.000 
#    0.000    3.750    0.000    0.000    0.000    0.000 
#    0.000    0.000    0.000    0.000    0.000    0.000 
#
# Total GULP energy -357322.544431 kJ/mol
# GULP energy per Si atom -5583.164757 kJ/mol
# Density = 2.292016 g / cm^3
# Si number density = 22.972450 Si / 1000 Ang^3
#
#
#
# Elastic Constant Matrix: (Units=GPa)
#
#
# Indices 1 2 3 4 5 6 
#
# 1 57.2445 -13.6449 -6.1847 0.0000 0.0000 0.0000
# 2 -13.6449 68.9532 -3.4276 0.0000 0.0000 0.0000
# 3 -6.1847 -3.4276 28.5685 0.0000 0.0000 0.0000
# 4 0.0000 0.0000 0.0000 25.7789 0.0000 0.0000
# 5 0.0000 0.0000 0.0000 0.0000 22.7957 0.0000
# 6 0.0000 0.0000 0.0000 0.0000 0.0000 36.9974
#
#
#
# Elastic Compliance Matrix: (Units=1/GPa)
#
#
# Indices 1 2 3 4 5 6 
#
# 1 0.018909 0.003969 0.004570 0.000000 0.000000 0.000000
# 2 0.003969 0.015423 0.002710 0.000000 0.000000 0.000000
# 3 0.004570 0.002710 0.036318 0.000000 0.000000 0.000000
# 4 0.000000 0.000000 0.000000 0.038791 0.000000 0.000000
# 5 0.000000 0.000000 0.000000 0.000000 0.043868 0.000000
# 6 0.000000 0.000000 0.000000 0.000000 0.000000 0.027029
#
#
# Mechanical properties :
#
#
# Convention : Reuss Voigt Hill
#
# Bulk Modulus (GPa) = 10.73586 12.02797 11.38191
# Shear Modulus (GPa) = 26.47047 28.98264 27.72656
#
# Velocity S-wave (km/s) = 3.39819 3.55579 3.47789
# Velocity P-wave (km/s) = 4.48112 4.70164 4.59270
#
# Compressibility (1/GPa) = 0.09314580
#
# Stress axis : x y z
#
# Youngs Moduli (GPa) = 52.88580 64.83960 27.53455
#
# Poissons Ratio (x) = -0.25734 -0.12582
# Poissons Ratio (y) = -0.20990 -0.07461
# Poissons Ratio (z) = -0.24167 -0.17569
#
# Static dielectric constant tensor:
#      x y z
#    x 1.945960 0.000000 0.000000 
#    y 0.000000 1.885220 0.000000 
#    z 0.000000 0.000000 1.839830 
# 
# From -- ./inp_files/4655.got.cif
#   From: 2010.05.17/outbox.cif.g08.bks.cpg/sg58_3_cif.got.tgz:4655.got - 2010.06.03 14:20:14.
