data_PCOD9442861
_publ_section_title
;
Structure prediction by ZEFSAII (Michael W. Deem and Ramdas Pophale) SiO2 
 PCOD9442861
Probable space group: P N N M
;
_chemical_formula_sum "Si O2"
_cell_formula_units_Z 58
_cell_length_a 26.051193
_cell_length_b 14.417250
_cell_length_c 7.973902
_cell_angle_alpha 90.000000
_cell_angle_beta 90.000000
_cell_angle_gamma 90.000000
_cell_volume 2994.890440
_symmetry_space_group_name_H-M "P N N M"
_symmetry_group_IT_number 58
_symmetry_cell_setting 'orthorhombic'
loop_
_space_group_symop_operation_xyz
x,y,z
-x,-y,z
1/2+x,1/2-y,1/2-z
1/2-x,1/2+y,1/2-z
-x,-y,-z
x,y,-z
1/2-x,1/2+y,1/2+z
1/2+x,1/2-y,1/2+z
loop_
_atom_site_type_symbol
_atom_site_label
_atom_site_fract_x
_atom_site_fract_y
_atom_site_fract_z
Si Si1 0.211132 0.243032 0.306483
Si Si2 0.851032 0.048672 0.297887
Si Si3 0.306550 0.124857 0.186256
Si Si4 0.107034 0.752926 0.192995
Si Si5 0.233518 0.441862 0.808201
Si Si6 0.993748 0.150080 0.196346
Si Si7 0.894126 0.851661 0.295276
Si Si8 0.000000 0.000000 0.500000
O O1 0.214810 0.213187 0.500000
O O2 0.260287 0.197028 0.219469
O O3 0.213867 0.353550 0.292755
O O4 0.156457 0.204826 0.245059
O O5 0.854955 0.055889 0.500000
O O6 0.791492 0.032517 0.254206
O O7 0.883882 0.959057 0.248671
O O8 0.869575 0.144401 0.220694
O O9 0.359403 0.180153 0.205162
O O10 0.299734 0.034582 0.299551
O O11 0.300904 0.087793 0.000000
O O12 0.047079 0.767889 0.227854
O O13 0.114174 0.726901 0.000000
O O14 0.236923 0.409387 0.000000
O O15 0.052928 0.179851 0.214855
O O16 0.986576 0.076192 0.347978
O O17 0.985025 0.119084 0.000000
O O18 0.899517 0.849464 0.500000
#
# Coordination Sequence:
#
# PCOD9442861 Si02
#       8
#     8   8   8   8   8   8   8   2
#     4  11  22  39  61  88 122 159 202 250 307 367
#     4  10  20  33  55  85 120 160 197 237 296 361
#     4  12  24  38  60  87 119 161 204 250 307 364
#     4  11  24  39  58  85 120 161 206 254 301 361
#     4  11  22  39  58  86 122 156 199 249 303 359
#     4  11  25  40  59  89 123 169 212 253 310 374
#     4  10  21  39  61  84 121 167 204 253 305 358
#     4  12  22  40  64  86 136 158 210 256 316 360
#
# _framework density 19.366316999999999
#
# number of rings (size 3 to 8) (size 9 to 14) (size 15 to 20)
#    0.000    1.103    3.448    3.517    3.862    3.310 
#    0.000    0.000    0.000    0.828    0.000    5.793 
#    0.000    0.000    0.000    0.000    0.000    0.000 
#
# Total GULP energy -323438.554343 kJ/mol
# GULP energy per Si atom -5576.526799 kJ/mol
# Density = 1.932224 g / cm^3
# Si number density = 19.366317 Si / 1000 Ang^3
#
#
#
# Elastic Constant Matrix: (Units=GPa)
#
#
# Indices 1 2 3 4 5 6 
#
# 1 70.0072 11.2538 14.4304 0.0000 0.0000 0.0000
# 2 11.2538 50.9357 -0.3225 0.0000 0.0000 0.0000
# 3 14.4304 -0.3225 64.6461 0.0000 0.0000 0.0000
# 4 0.0000 0.0000 0.0000 57.7656 0.0000 0.0000
# 5 0.0000 0.0000 0.0000 0.0000 -25.1348 0.0000
# 6 0.0000 0.0000 0.0000 0.0000 0.0000 16.9072
#
#
#
# Elastic Compliance Matrix: (Units=1/GPa)
#
#
# Indices 1 2 3 4 5 6 
#
# 1 0.015560 -0.003460 -0.003491 0.000000 0.000000 0.000000
# 2 -0.003460 0.020403 0.000874 0.000000 0.000000 0.000000
# 3 -0.003491 0.000874 0.016252 0.000000 0.000000 0.000000
# 4 0.000000 0.000000 0.000000 0.017311 0.000000 0.000000
# 5 0.000000 0.000000 0.000000 0.000000 -0.039785 0.000000
# 6 0.000000 0.000000 0.000000 0.000000 0.000000 0.059146
#
#
# Mechanical properties :
#
#
# Convention : Reuss Voigt Hill
#
# Bulk Modulus (GPa) = 24.96127 26.25695 25.60911
# Shear Modulus (GPa) = 43.70859 20.58941 32.14900
#
# Velocity S-wave (km/s) = 4.75588 3.26414 4.07879
# Velocity P-wave (km/s) = 6.56314 5.27197 5.95267
#
# Compressibility (1/GPa) = 0.04006207
#
# Stress axis : x y z
#
# Youngs Moduli (GPa) = 64.26756 49.01339 61.52952
#
# Poissons Ratio (x) = 0.16958 0.21477
# Poissons Ratio (y) = 0.22236 -0.05378
# Poissons Ratio (z) = 0.22433 -0.04284
#
# Static dielectric constant tensor:
#      x y z
#    x 1.719320 0.000000 0.000000 
#    y 0.000000 1.631000 0.000000 
#    z 0.000000 0.000000 1.692850 
# 
# From -- ./inp_files/9907.got.cif
#   From: 2010.05.17/outbox.cif.g08.bks.cpg/sg58_5_cif.got.tgz:9907.got - 2010.06.03 14:20:14.
