data_PCOD9442468
_publ_section_title
;
Structure prediction by ZEFSAII (Michael W. Deem and Ramdas Pophale) SiO2 
 PCOD9442468
Probable space group: P N N M
;
_chemical_formula_sum "Si O2"
_cell_formula_units_Z 56
_cell_length_a 15.952459
_cell_length_b 11.492917
_cell_length_c 15.331519
_cell_angle_alpha 90.000000
_cell_angle_beta 90.000000
_cell_angle_gamma 90.000000
_cell_volume 2810.885097
_symmetry_space_group_name_H-M "P N N M"
_symmetry_group_IT_number 58
_symmetry_cell_setting 'orthorhombic'
loop_
_space_group_symop_operation_xyz
x,y,z
-x,-y,z
1/2+x,1/2-y,1/2-z
1/2-x,1/2+y,1/2-z
-x,-y,-z
x,y,-z
1/2-x,1/2+y,1/2+z
1/2+x,1/2-y,1/2+z
loop_
_atom_site_type_symbol
_atom_site_label
_atom_site_fract_x
_atom_site_fract_y
_atom_site_fract_z
Si Si1 0.864693 0.267206 0.700879
Si Si2 0.182650 0.499128 0.220662
Si Si3 0.314313 0.780194 0.606267
Si Si4 0.419842 0.562138 0.598603
Si Si5 0.707851 0.628054 0.356119
Si Si6 0.008487 0.134503 0.603735
Si Si7 0.700626 0.355972 0.903256
O O1 0.873469 0.395659 0.742632
O O2 0.778097 0.253739 0.644354
O O3 0.851479 0.181181 0.781760
O O4 0.943068 0.220718 0.647564
O O5 0.155937 0.400490 0.151355
O O6 0.216956 0.433618 0.305082
O O7 0.259142 0.562915 0.170041
O O8 0.311216 0.786462 0.500000
O O9 0.378511 0.678686 0.635605
O O10 0.500000 0.500000 0.641381
O O11 0.446549 0.594437 0.500000
O O12 0.345814 0.467707 0.594941
O O13 0.745776 0.738141 0.405158
O O14 0.992280 0.135251 0.500000
O O15 0.104589 0.169992 0.617993
O O16 0.000000 0.000000 0.633110
O O17 0.703053 0.411874 0.000000
#
# Coordination Sequence:
#
# PCOD9442468 Si02
#       7
#     8   8   8   8   8   8   8
#     4  10  20  35  57  88 122 158 193 244 300 362
#     4  10  20  36  58  84 121 156 200 240 294 363
#     4  10  19  35  61  86 117 157 198 248 302 361
#     4  10  21  37  60  87 110 146 202 255 299 353
#     4  10  20  36  56  82 119 152 193 239 300 353
#     4  10  20  36  59  92 123 153 203 252 295 357
#     4  10  21  37  60  85 118 161 197 240 296 359
#
# _framework density 19.922550999999999
#
# number of rings (size 3 to 8) (size 9 to 14) (size 15 to 20)
#    0.000    2.000    1.429    3.000    0.000    2.857 
#    0.000    0.714    3.143    1.714    0.000    7.000 
#    0.000    0.000    0.000    0.000    0.000    0.000 
#
# Total GULP energy -312352.004019 kJ/mol
# GULP energy per Si atom -5577.714357 kJ/mol
# Density = 1.987721 g / cm^3
# Si number density = 19.922551 Si / 1000 Ang^3
#
#
#
# Elastic Constant Matrix: (Units=GPa)
#
#
# Indices 1 2 3 4 5 6 
#
# 1 78.6722 41.5995 28.8771 0.0000 0.0000 0.0000
# 2 41.5995 123.5942 32.2151 0.0000 0.0000 0.0000
# 3 28.8771 32.2151 78.9603 0.0000 0.0000 0.0000
# 4 0.0000 0.0000 0.0000 103.5143 0.0000 0.0000
# 5 0.0000 0.0000 0.0000 0.0000 13.1220 0.0000
# 6 0.0000 0.0000 0.0000 0.0000 0.0000 22.5457
#
#
#
# Elastic Compliance Matrix: (Units=1/GPa)
#
#
# Indices 1 2 3 4 5 6 
#
# 1 0.016650 -0.004495 -0.004255 0.000000 0.000000 0.000000
# 2 -0.004495 0.010267 -0.002545 0.000000 0.000000 0.000000
# 3 -0.004255 -0.002545 0.015259 0.000000 0.000000 0.000000
# 4 0.000000 0.000000 0.000000 0.009660 0.000000 0.000000
# 5 0.000000 0.000000 0.000000 0.000000 0.076208 0.000000
# 6 0.000000 0.000000 0.000000 0.000000 0.000000 0.044354
#
#
# Mechanical properties :
#
#
# Convention : Reuss Voigt Hill
#
# Bulk Modulus (GPa) = 51.05749 54.06781 52.56265
# Shear Modulus (GPa) = 24.81174 39.73875 32.27524
#
# Velocity S-wave (km/s) = 3.53287 4.47101 4.02933
# Velocity P-wave (km/s) = 6.50578 7.33833 6.93456
#
# Compressibility (1/GPa) = 0.01958576
#
# Stress axis : x y z
#
# Youngs Moduli (GPa) = 60.06155 97.39701 65.53433
#
# Poissons Ratio (x) = 0.43778 0.27886
# Poissons Ratio (y) = 0.26997 0.16679
# Poissons Ratio (z) = 0.25557 0.24789
#
# Static dielectric constant tensor:
#      x y z
#    x 1.697100 0.000000 0.000000 
#    y 0.000000 1.716190 0.000000 
#    z 0.000000 0.000000 1.745520 
# 
# From -- ./inp_files/21275.got.cif
#   From: 2010.05.17/outbox.cif.g08.bks.cpg/sg58_11_cif.got.tgz:21275.got - 2010.06.03 14:20:14.
