data_PCOD9442251
_publ_section_title
;
Structure prediction by ZEFSAII (Michael W. Deem and Ramdas Pophale) SiO2 
 PCOD9442251
Probable space group: P N N M
;
_chemical_formula_sum "Si O2"
_cell_formula_units_Z 64
_cell_length_a 20.845287
_cell_length_b 19.621781
_cell_length_c 8.932721
_cell_angle_alpha 90.000000
_cell_angle_beta 90.000000
_cell_angle_gamma 90.000000
_cell_volume 3653.676340
_symmetry_space_group_name_H-M "P N N M"
_symmetry_group_IT_number 58
_symmetry_cell_setting 'orthorhombic'
loop_
_space_group_symop_operation_xyz
x,y,z
-x,-y,z
1/2+x,1/2-y,1/2-z
1/2-x,1/2+y,1/2-z
-x,-y,-z
x,y,-z
1/2-x,1/2+y,1/2+z
1/2+x,1/2-y,1/2+z
loop_
_atom_site_type_symbol
_atom_site_label
_atom_site_fract_x
_atom_site_fract_y
_atom_site_fract_z
Si Si1 0.313290 0.037614 0.678761
Si Si2 0.390438 0.678842 0.821555
Si Si3 0.692958 0.539731 0.678555
Si Si4 0.566340 0.038106 0.821120
Si Si5 0.436873 0.541717 0.679875
Si Si6 0.739480 0.816215 0.677719
Si Si7 0.237321 0.826442 0.322557
Si Si8 0.610497 0.175541 0.321151
O O1 0.317309 0.027809 0.500000
O O2 0.302729 0.117532 0.709989
O O3 0.250660 0.999319 0.739934
O O4 0.375201 0.006093 0.756344
O O5 0.428952 0.615099 0.756058
O O6 0.314364 0.667506 0.788824
O O7 0.407417 0.751316 0.747806
O O8 0.397894 0.682711 0.000000
O O9 0.702293 0.537090 0.500000
O O10 0.626087 0.503079 0.714868
O O11 0.697180 0.617039 0.735328
O O12 0.571922 0.112880 0.748805
O O13 0.500000 0.000000 0.786118
O O14 0.572447 0.044143 0.000000
O O15 0.500000 0.500000 0.725432
O O16 0.439107 0.551301 0.500000
O O17 0.735864 0.801413 0.500000
O O18 0.720935 0.749580 0.769784
O O19 0.229233 0.834251 0.500000
O O20 0.313450 0.836067 0.287918
O O21 0.603405 0.177000 0.500000
#
# Coordination Sequence:
#
# PCOD9442251 Si02
#       8
#     8   8   8   8   8   8   8   8
#     4  11  21  36  58  85 114 145 186 232 281 337
#     4  10  19  34  57  84 114 147 187 236 284 336
#     4  11  21  34  57  83 112 148 186 233 285 332
#     4  11  24  40  58  84 117 152 191 234 281 336
#     4  10  22  39  57  82 116 154 195 236 281 339
#     4   9  19  34  54  82 115 146 182 232 285 337
#     4  10  20  33  54  84 115 145 185 235 282 337
#     4  10  20  35  57  84 113 148 189 233 280 336
#
# _framework density 17.516604000000001
#
# number of rings (size 3 to 8) (size 9 to 14) (size 15 to 20)
#    0.000    1.750    2.500    2.250    0.000    4.250 
#    0.000    1.250    0.000    1.500    0.000    0.000 
#    0.000    0.000    0.000    0.000    0.000    0.000 
#
# Total GULP energy -357460.696321 kJ/mol
# GULP energy per Si atom -5585.323380 kJ/mol
# Density = 1.747673 g / cm^3
# Si number density = 17.516604 Si / 1000 Ang^3
#
#
#
# Elastic Constant Matrix: (Units=GPa)
#
#
# Indices 1 2 3 4 5 6 
#
# 1 97.8648 74.4082 50.5842 0.0000 0.0000 0.0000
# 2 74.4082 161.2150 69.7848 0.0000 0.0000 0.0000
# 3 50.5842 69.7848 54.5962 0.0000 0.0000 0.0000
# 4 0.0000 0.0000 0.0000 37.9446 0.0000 0.0000
# 5 0.0000 0.0000 0.0000 0.0000 -7.6713 0.0000
# 6 0.0000 0.0000 0.0000 0.0000 0.0000 23.9425
#
#
#
# Elastic Compliance Matrix: (Units=1/GPa)
#
#
# Indices 1 2 3 4 5 6 
#
# 1 0.020130 -0.002726 -0.015167 0.000000 0.000000 0.000000
# 2 -0.002726 0.014255 -0.015695 0.000000 0.000000 0.000000
# 3 -0.015167 -0.015695 0.052430 0.000000 0.000000 0.000000
# 4 0.000000 0.000000 0.000000 0.026354 0.000000 0.000000
# 5 0.000000 0.000000 0.000000 0.000000 -0.130357 0.000000
# 6 0.000000 0.000000 0.000000 0.000000 0.000000 0.041767
#
#
# Mechanical properties :
#
#
# Convention : Reuss Voigt Hill
#
# Bulk Modulus (GPa) = 50.91730 78.13673 64.52702
# Shear Modulus (GPa) = 50.86449 18.76976 34.81712
#
# Velocity S-wave (km/s) = 5.39453 3.27699 4.46316
# Velocity P-wave (km/s) = 8.24211 7.68260 7.96727
#
# Compressibility (1/GPa) = 0.01963969
#
# Stress axis : x y z
#
# Youngs Moduli (GPa) = 49.67739 70.15149 19.07311
#
# Poissons Ratio (x) = 0.19122 0.28927
# Poissons Ratio (y) = 0.13541 0.29935
# Poissons Ratio (z) = 0.75344 1.10104
#
# Static dielectric constant tensor:
#      x y z
#    x 1.573210 0.000000 0.000000 
#    y 0.000000 1.589020 0.000000 
#    z 0.000000 0.000000 1.580000 
# 
# From -- ./inp_files/9264.got.cif
#   From: 2010.05.17/outbox.cif.g08.bks.cpg/sg58_5_cif.got.tgz:9264.got - 2010.06.03 14:20:14.
