data_PCOD9442905
_publ_section_title
;
Structure prediction by ZEFSAII (Michael W. Deem and Ramdas Pophale) SiO2 
 PCOD9442905
Probable space group: P N N M
;
_chemical_formula_sum "Si O2"
_cell_formula_units_Z 64
_cell_length_a 19.646869
_cell_length_b 20.773174
_cell_length_c 7.490213
_cell_angle_alpha 90.000000
_cell_angle_beta 90.000000
_cell_angle_gamma 90.000000
_cell_volume 3056.964365
_symmetry_space_group_name_H-M "P N N M"
_symmetry_group_IT_number 58
_symmetry_cell_setting 'orthorhombic'
loop_
_space_group_symop_operation_xyz
x,y,z
-x,-y,z
1/2+x,1/2-y,1/2-z
1/2-x,1/2+y,1/2-z
-x,-y,-z
x,y,-z
1/2-x,1/2+y,1/2+z
1/2+x,1/2-y,1/2+z
loop_
_atom_site_type_symbol
_atom_site_label
_atom_site_fract_x
_atom_site_fract_y
_atom_site_fract_z
Si Si1 0.535267 0.565450 0.784186
Si Si2 0.249244 0.780667 0.783561
Si Si3 0.776038 0.860744 0.718355
Si Si4 0.596498 0.186237 0.782415
Si Si5 0.699113 0.987253 0.703960
Si Si6 0.056641 0.452578 0.293733
Si Si7 0.070121 0.171606 0.282288
Si Si8 0.310031 0.409127 0.291259
O O1 0.500000 0.500000 0.722781
O O2 0.490660 0.625989 0.722155
O O3 0.613269 0.568264 0.729808
O O4 0.533789 0.565603 0.000000
O O5 0.242882 0.707041 0.723703
O O6 0.324102 0.806686 0.733461
O O7 0.197618 0.835786 0.724250
O O8 0.247199 0.777052 0.000000
O O9 0.679944 0.972908 0.500000
O O10 0.855669 0.856153 0.771544
O O11 0.734922 0.923192 0.780536
O O12 0.565551 0.119253 0.715902
O O13 0.563569 0.253974 0.726271
O O14 0.595177 0.184482 0.000000
O O15 0.929284 0.828380 0.500000
O O16 0.630486 0.013650 0.791358
O O17 0.756334 0.042602 0.705213
O O18 0.036176 0.442344 0.500000
O O19 0.000000 0.500000 0.213460
O O20 0.223392 0.136711 0.500000
O O21 0.291640 0.409013 0.500000
#
# Coordination Sequence:
#
# PCOD9442905 Si02
#       8
#     8   8   8   8   8   8   8   8
#     4  10  20  34  51  76 109 142 177 218 265 313
#     4   8  14  28  51  74  97 128 173 215 250 307
#     4   8  15  29  51  78 101 132 174 215 258 309
#     4   8  13  27  51  74  95 129 174 211 246 298
#     4  11  21  34  55  81 108 135 172 219 269 316
#     4  10  20  35  54  76 104 138 176 216 264 319
#     4   8  14  27  50  75  99 132 178 217 248 298
#     4  11  21  34  55  79 106 141 178 217 263 317
#
# _framework density 20.9358
#
# number of rings (size 3 to 8) (size 9 to 14) (size 15 to 20)
#    0.000    2.750    1.250    3.000    0.000    2.500 
#    2.250    0.000    0.000    3.000    0.000    0.000 
#    0.000    0.000    0.000    0.000    0.000    0.000 
#
# Total GULP energy -357092.887113 kJ/mol
# GULP energy per Si atom -5579.576361 kJ/mol
# Density = 2.088815 g / cm^3
# Si number density = 20.935800 Si / 1000 Ang^3
#
#
#
# Elastic Constant Matrix: (Units=GPa)
#
#
# Indices 1 2 3 4 5 6 
#
# 1 97.1183 64.5258 -9.3128 0.0000 0.0000 0.0000
# 2 64.5258 152.8346 -0.2228 0.0000 0.0000 0.0000
# 3 -9.3128 -0.2228 56.3071 0.0000 0.0000 0.0000
# 4 0.0000 0.0000 0.0000 3.3121 0.0000 0.0000
# 5 0.0000 0.0000 0.0000 0.0000 10.2156 0.0000
# 6 0.0000 0.0000 0.0000 0.0000 0.0000 35.4966
#
#
#
# Elastic Compliance Matrix: (Units=1/GPa)
#
#
# Indices 1 2 3 4 5 6 
#
# 1 0.014627 -0.006172 0.002395 0.000000 0.000000 0.000000
# 2 -0.006172 0.009147 -0.000985 0.000000 0.000000 0.000000
# 3 0.002395 -0.000985 0.018152 0.000000 0.000000 0.000000
# 4 0.000000 0.000000 0.000000 0.301925 0.000000 0.000000
# 5 0.000000 0.000000 0.000000 0.000000 0.097890 0.000000
# 6 0.000000 0.000000 0.000000 0.000000 0.000000 0.028172
#
#
# Mechanical properties :
#
#
# Convention : Reuss Voigt Hill
#
# Bulk Modulus (GPa) = 30.86155 46.24893 38.55524
# Shear Modulus (GPa) = 10.19915 26.55616 18.37765
#
# Velocity S-wave (km/s) = 2.20957 3.56540 2.96600
# Velocity P-wave (km/s) = 4.61331 6.25206 5.49413
#
# Compressibility (1/GPa) = 0.03240278
#
# Stress axis : x y z
#
# Youngs Moduli (GPa) = 68.36661 109.32135 55.09053
#
# Poissons Ratio (x) = 0.67473 -0.13193
# Poissons Ratio (y) = 0.42196 0.05424
# Poissons Ratio (z) = -0.16372 0.10764
#
# Static dielectric constant tensor:
#      x y z
#    x 1.693440 0.000000 0.000000 
#    y 0.000000 1.768380 0.000000 
#    z 0.000000 0.000000 1.818410 
# 
# From -- ./inp_files/8283.got.cif
#   From: 2010.05.17/outbox.cif.g08.bks.cpg/sg58_5_cif.got.tgz:8283.got - 2010.06.03 14:20:14.
