data_PCOD9442053
_publ_section_title
;
Structure prediction by ZEFSAII (Michael W. Deem and Ramdas Pophale) SiO2 
 PCOD9442053
Probable space group: P N N M
;
_chemical_formula_sum "Si O2"
_cell_formula_units_Z 64
_cell_length_a 19.611110
_cell_length_b 17.232305
_cell_length_c 8.673259
_cell_angle_alpha 90.000000
_cell_angle_beta 90.000000
_cell_angle_gamma 90.000000
_cell_volume 2931.081294
_symmetry_space_group_name_H-M "P N N M"
_symmetry_group_IT_number 58
_symmetry_cell_setting 'orthorhombic'
loop_
_space_group_symop_operation_xyz
x,y,z
-x,-y,z
1/2+x,1/2-y,1/2-z
1/2-x,1/2+y,1/2-z
-x,-y,-z
x,y,-z
1/2-x,1/2+y,1/2+z
1/2+x,1/2-y,1/2+z
loop_
_atom_site_type_symbol
_atom_site_label
_atom_site_fract_x
_atom_site_fract_y
_atom_site_fract_z
Si Si1 0.147088 0.180235 0.317601
Si Si2 0.329182 0.002517 0.666373
Si Si3 0.474997 0.078722 0.674112
Si Si4 0.925237 0.975722 0.313294
Si Si5 0.159119 0.874274 0.315041
Si Si6 0.286296 0.141193 0.827272
Si Si7 0.311660 0.849199 0.181382
Si Si8 0.090847 0.729575 0.817008
O O1 0.164669 0.167480 0.500000
O O2 0.092738 0.113861 0.276661
O O3 0.210760 0.165871 0.207783
O O4 0.141654 0.272752 0.301285
O O5 0.293769 0.000864 0.500000
O O6 0.397168 0.051974 0.652807
O O7 0.287501 0.049943 0.791282
O O8 0.345891 0.917712 0.723115
O O9 0.506274 0.082889 0.500000
O O10 0.465998 0.166101 0.738280
O O11 0.500000 0.000000 0.758741
O O12 0.927152 0.980087 0.500000
O O13 0.868255 0.040076 0.267795
O O14 0.000000 0.000000 0.255264
O O15 0.166280 0.871414 0.500000
O O16 0.232714 0.850110 0.242710
O O17 0.101114 0.812084 0.264515
O O18 0.336217 0.188587 0.715799
O O19 0.309011 0.157348 0.000000
O O20 0.308191 0.865945 0.000000
O O21 0.081306 0.739031 0.000000
#
# Coordination Sequence:
#
# PCOD9442053 Si02
#       8
#     8   8   8   8   8   8   8   8
#     4  10  20  36  59  83 111 150 192 240 297 348
#     4  10  20  34  54  79 113 150 184 227 282 343
#     4   8  16  33  55  77 104 146 193 227 269 338
#     4   9  20  40  62  83 111 156 207 246 289 349
#     4  11  21  35  60  89 115 147 194 246 294 350
#     4  11  20  32  55  84 115 145 183 231 286 346
#     4  11  22  35  55  86 120 149 186 239 298 351
#     4  10  19  33  55  82 115 150 185 233 289 347
#
# _framework density 21.834945000000001
#
# number of rings (size 3 to 8) (size 9 to 14) (size 15 to 20)
#    0.000    2.000    1.250    4.125    0.000    1.500 
#    2.250    0.625    0.000   16.125    0.000    0.000 
#    0.000    0.000    0.000    0.000    0.000    0.000 
#
# Total GULP energy -356313.086849 kJ/mol
# GULP energy per Si atom -5567.391982 kJ/mol
# Density = 2.178525 g / cm^3
# Si number density = 21.834945 Si / 1000 Ang^3
#
#
#
# Elastic Constant Matrix: (Units=GPa)
#
#
# Indices 1 2 3 4 5 6 
#
# 1 26.7276 8.3663 -2.3212 0.0000 0.0000 0.0000
# 2 8.3663 99.1209 10.9097 0.0000 0.0000 0.0000
# 3 -2.3212 10.9097 30.6480 0.0000 0.0000 0.0000
# 4 0.0000 0.0000 0.0000 21.0265 0.0000 0.0000
# 5 0.0000 0.0000 0.0000 0.0000 5.9564 0.0000
# 6 0.0000 0.0000 0.0000 0.0000 0.0000 30.8353
#
#
#
# Elastic Compliance Matrix: (Units=1/GPa)
#
#
# Indices 1 2 3 4 5 6 
#
# 1 0.038964 -0.003761 0.004290 0.000000 0.000000 0.000000
# 2 -0.003761 0.010863 -0.004152 0.000000 0.000000 0.000000
# 3 0.004290 -0.004152 0.034431 0.000000 0.000000 0.000000
# 4 0.000000 0.000000 0.000000 0.047559 0.000000 0.000000
# 5 0.000000 0.000000 0.000000 0.000000 0.167886 0.000000
# 6 0.000000 0.000000 0.000000 0.000000 0.000000 0.032430
#
#
# Mechanical properties :
#
#
# Convention : Reuss Voigt Hill
#
# Bulk Modulus (GPa) = 12.98483 21.15626 17.07054
# Shear Modulus (GPa) = 13.69672 20.86642 17.28157
#
# Velocity S-wave (km/s) = 2.50728 3.09470 2.81635
# Velocity P-wave (km/s) = 3.78704 4.74128 4.29077
#
# Compressibility (1/GPa) = 0.07701293
#
# Stress axis : x y z
#
# Youngs Moduli (GPa) = 25.66455 92.05483 29.04327
#
# Poissons Ratio (x) = 0.34621 -0.12459
# Poissons Ratio (y) = 0.09652 0.12058
# Poissons Ratio (z) = -0.11010 0.38219
#
# Static dielectric constant tensor:
#      x y z
#    x 1.872510 0.000000 0.000000 
#    y 0.000000 1.954120 0.000000 
#    z 0.000000 0.000000 1.730270 
# 
# From -- ./inp_files/9260.got.cif
#   From: 2010.05.17/outbox.cif.g08.bks.cpg/sg58_5_cif.got.tgz:9260.got - 2010.06.03 14:20:14.
