data_PCOD9442942
_publ_section_title
;
Structure prediction by ZEFSAII (Michael W. Deem and Ramdas Pophale) SiO2 
 PCOD9442942
Probable space group: P N N M
;
_chemical_formula_sum "Si O2"
_cell_formula_units_Z 52
_cell_length_a 24.155718
_cell_length_b 6.728582
_cell_length_c 18.483960
_cell_angle_alpha 90.000000
_cell_angle_beta 90.000000
_cell_angle_gamma 90.000000
_cell_volume 3004.266952
_symmetry_space_group_name_H-M "P N N M"
_symmetry_group_IT_number 58
_symmetry_cell_setting 'orthorhombic'
loop_
_space_group_symop_operation_xyz
x,y,z
-x,-y,z
1/2+x,1/2-y,1/2-z
1/2-x,1/2+y,1/2-z
-x,-y,-z
x,y,-z
1/2-x,1/2+y,1/2+z
1/2+x,1/2-y,1/2+z
loop_
_atom_site_type_symbol
_atom_site_label
_atom_site_fract_x
_atom_site_fract_y
_atom_site_fract_z
Si Si1 0.284116 0.408282 0.414860
Si Si2 0.000000 0.500000 0.657660
Si Si3 0.199566 0.730850 0.581425
Si Si4 0.072377 0.833713 0.583237
Si Si5 0.553965 0.378872 0.784132
Si Si6 0.234446 0.527909 0.183349
Si Si7 0.670148 0.334774 0.293525
O O1 0.297186 0.379759 0.500000
O O2 0.223165 0.509283 0.410697
O O3 0.323028 0.566575 0.372838
O O4 0.282753 0.211495 0.366667
O O5 0.965662 0.347490 0.608746
O O6 0.962462 0.648893 0.705084
O O7 0.214393 0.794730 0.500000
O O8 0.134761 0.754524 0.590256
O O9 0.230462 0.874285 0.635731
O O10 0.062301 0.889076 0.500000
O O11 0.064304 0.017159 0.637764
O O12 0.500000 0.500000 0.754407
O O13 0.611290 0.393007 0.740387
O O14 0.276776 0.588264 0.246883
O O15 0.180756 0.402376 0.207152
#
# Coordination Sequence:
#
# PCOD9442942 Si02
#       7
#     8   4   8   8   8   8   8
#     4  10  22  38  57  87 121 151 183 230 296 358
#     4  10  23  34  50  74 107 150 202 244 287 328
#     4   9  19  33  52  78 112 150 187 223 276 340
#     4  10  20  34  53  76 110 153 198 241 280 330
#     4  10  23  40  56  79 113 154 202 251 289 340
#     4  11  20  33  56  87 115 147 184 235 283 349
#     4  11  22  36  60  86 115 150 193 236 294 346
#
# _framework density 17.308716
#
# number of rings (size 3 to 8) (size 9 to 14) (size 15 to 20)
#    0.000    1.846    3.077    0.692    2.154    6.462 
#    0.000    0.000    0.000    0.462    0.000    1.615 
#    0.000    0.000    0.000    0.000    0.000    0.000 
#
# Total GULP energy -289902.589151 kJ/mol
# GULP energy per Si atom -5575.049791 kJ/mol
# Density = 1.726932 g / cm^3
# Si number density = 17.308716 Si / 1000 Ang^3
#
#
#
# Elastic Constant Matrix: (Units=GPa)
#
#
# Indices 1 2 3 4 5 6 
#
# 1 84.2789 24.9743 37.8610 0.0000 0.0000 0.0000
# 2 24.9743 88.8114 36.1664 0.0000 0.0000 0.0000
# 3 37.8610 36.1664 82.8042 0.0000 0.0000 0.0000
# 4 0.0000 0.0000 0.0000 18.6957 0.0000 0.0000
# 5 0.0000 0.0000 0.0000 0.0000 23.4913 0.0000
# 6 0.0000 0.0000 0.0000 0.0000 0.0000 21.1362
#
#
#
# Elastic Compliance Matrix: (Units=1/GPa)
#
#
# Indices 1 2 3 4 5 6 
#
# 1 0.015153 -0.001751 -0.006164 0.000000 0.000000 0.000000
# 2 -0.001751 0.013898 -0.005270 0.000000 0.000000 0.000000
# 3 -0.006164 -0.005270 0.017197 0.000000 0.000000 0.000000
# 4 0.000000 0.000000 0.000000 0.053488 0.000000 0.000000
# 5 0.000000 0.000000 0.000000 0.000000 0.042569 0.000000
# 6 0.000000 0.000000 0.000000 0.000000 0.000000 0.047312
#
#
# Mechanical properties :
#
#
# Convention : Reuss Voigt Hill
#
# Bulk Modulus (GPa) = 50.30441 50.43310 50.36876
# Shear Modulus (GPa) = 22.46054 23.12417 22.79235
#
# Velocity S-wave (km/s) = 3.60619 3.65908 3.63273
# Velocity P-wave (km/s) = 6.81657 6.85948 6.83806
#
# Compressibility (1/GPa) = 0.01987897
#
# Stress axis : x y z
#
# Youngs Moduli (GPa) = 65.99237 71.95193 58.15106
#
# Poissons Ratio (x) = 0.12600 0.35843
# Poissons Ratio (y) = 0.11556 0.30643
# Poissons Ratio (z) = 0.40676 0.37916
#
# Static dielectric constant tensor:
#      x y z
#    x 1.591920 0.000000 0.000000 
#    y 0.000000 1.624410 0.000000 
#    z 0.000000 0.000000 1.600790 
# 
# From -- ./inp_files/27704.got.cif
#   From: 2010.05.17/outbox.cif.g08.bks.cpg/sg58_14_cif.got.tgz:27704.got - 2010.06.03 14:20:14.
