data_PCOD9442527
_publ_section_title
;
Structure prediction by ZEFSAII (Michael W. Deem and Ramdas Pophale) SiO2 
 PCOD9442527
Probable space group: P N N M
;
_chemical_formula_sum "Si O2"
_cell_formula_units_Z 64
_cell_length_a 25.272404
_cell_length_b 14.977960
_cell_length_c 7.659206
_cell_angle_alpha 90.000000
_cell_angle_beta 90.000000
_cell_angle_gamma 90.000000
_cell_volume 2899.232019
_symmetry_space_group_name_H-M "P N N M"
_symmetry_group_IT_number 58
_symmetry_cell_setting 'orthorhombic'
loop_
_space_group_symop_operation_xyz
x,y,z
-x,-y,z
1/2+x,1/2-y,1/2-z
1/2-x,1/2+y,1/2-z
-x,-y,-z
x,y,-z
1/2-x,1/2+y,1/2+z
1/2+x,1/2-y,1/2+z
loop_
_atom_site_type_symbol
_atom_site_label
_atom_site_fract_x
_atom_site_fract_y
_atom_site_fract_z
Si Si1 0.510046 0.400344 0.202609
Si Si2 0.447844 0.044829 0.200231
Si Si3 0.877065 0.939357 0.789433
Si Si4 0.169772 0.527647 0.296745
Si Si5 0.650559 0.632693 0.711855
Si Si6 0.733513 0.352089 0.285867
Si Si7 0.729004 0.149207 0.297772
Si Si8 0.936666 0.260609 0.798326
O O1 0.500000 0.500000 0.277324
O O2 0.572951 0.386682 0.217513
O O3 0.477828 0.320893 0.289711
O O4 0.494351 0.401294 0.000000
O O5 0.389420 0.028686 0.279761
O O6 0.454906 0.151388 0.201327
O O7 0.500000 0.000000 0.281445
O O8 0.445153 0.010830 0.000000
O O9 0.819668 0.904118 0.735513
O O10 0.880467 0.043141 0.737097
O O11 0.879375 0.934751 0.000000
O O12 0.163664 0.553044 0.500000
O O13 0.213659 0.596741 0.223298
O O14 0.195001 0.429039 0.287653
O O15 0.653105 0.634386 0.500000
O O16 0.709282 0.625399 0.782392
O O17 0.618529 0.719623 0.770493
O O18 0.735640 0.351906 0.500000
O O19 0.726974 0.250042 0.226674
O O20 0.712935 0.151916 0.500000
O O21 0.929232 0.285548 0.000000
#
# Coordination Sequence:
#
# PCOD9442527 Si02
#       8
#     8   8   8   8   8   8   8   8
#     4  11  23  37  56  86 123 157 196 245 301 361
#     4  10  23  43  66  91 121 159 203 253 307 360
#     4  10  19  36  59  80 113 155 199 241 291 360
#     4  10  20  40  64  84 117 162 200 239 298 363
#     4  10  20  36  59  85 116 155 199 242 294 359
#     4   9  19  36  57  83 115 155 194 234 290 352
#     4  11  22  35  58  90 120 151 197 249 296 350
#     4  11  23  39  63  91 119 159 207 254 303 362
#
# _framework density 22.074809999999999
#
# number of rings (size 3 to 8) (size 9 to 14) (size 15 to 20)
#    0.000    1.750    2.500    1.875    0.000    4.750 
#    0.000    5.000    0.000    0.000    0.000    0.000 
#    0.000    0.000    0.000    0.000    0.000    0.000 
#
# Total GULP energy -357555.101308 kJ/mol
# GULP energy per Si atom -5586.798458 kJ/mol
# Density = 2.202457 g / cm^3
# Si number density = 22.074810 Si / 1000 Ang^3
#
#
#
# Elastic Constant Matrix: (Units=GPa)
#
#
# Indices 1 2 3 4 5 6 
#
# 1 147.4497 56.5755 -1.0695 0.0000 0.0000 0.0000
# 2 56.5755 120.3539 -3.4775 0.0000 0.0000 0.0000
# 3 -1.0695 -3.4775 45.2797 0.0000 0.0000 0.0000
# 4 0.0000 0.0000 0.0000 27.8529 0.0000 0.0000
# 5 0.0000 0.0000 0.0000 0.0000 17.2090 0.0000
# 6 0.0000 0.0000 0.0000 0.0000 0.0000 37.3385
#
#
#
# Elastic Compliance Matrix: (Units=1/GPa)
#
#
# Indices 1 2 3 4 5 6 
#
# 1 0.008275 -0.003893 -0.000104 0.000000 0.000000 0.000000
# 2 -0.003893 0.010159 0.000688 0.000000 0.000000 0.000000
# 3 -0.000104 0.000688 0.022135 0.000000 0.000000 0.000000
# 4 0.000000 0.000000 0.000000 0.035903 0.000000 0.000000
# 5 0.000000 0.000000 0.000000 0.000000 0.058109 0.000000
# 6 0.000000 0.000000 0.000000 0.000000 0.000000 0.026782
#
#
# Mechanical properties :
#
#
# Convention : Reuss Voigt Hill
#
# Bulk Modulus (GPa) = 29.45276 46.34891 37.90084
# Shear Modulus (GPa) = 27.88674 33.88372 30.88523
#
# Velocity S-wave (km/s) = 3.55813 3.92209 3.74453
# Velocity P-wave (km/s) = 5.50014 6.44611 5.99182
#
# Compressibility (1/GPa) = 0.03395267
#
# Stress axis : x y z
#
# Youngs Moduli (GPa) = 120.84779 98.43840 45.17662
#
# Poissons Ratio (x) = 0.38320 0.00468
# Poissons Ratio (y) = 0.47044 -0.03109
# Poissons Ratio (z) = 0.01251 -0.06775
#
# Static dielectric constant tensor:
#      x y z
#    x 1.817360 0.000000 0.000000 
#    y 0.000000 1.805120 0.000000 
#    z 0.000000 0.000000 1.829450 
# 
# From -- ./inp_files/9941.got.cif
#   From: 2010.05.17/outbox.cif.g08.bks.cpg/sg58_5_cif.got.tgz:9941.got - 2010.06.03 14:20:14.
