data_PCOD9442190
_publ_section_title
;
Structure prediction by ZEFSAII (Michael W. Deem and Ramdas Pophale) SiO2 
 PCOD9442190
Probable space group: P N N M
;
_chemical_formula_sum "Si O2"
_cell_formula_units_Z 48
_cell_length_a 18.253008
_cell_length_b 17.001101
_cell_length_c 9.063093
_cell_angle_alpha 90.000000
_cell_angle_beta 90.000000
_cell_angle_gamma 90.000000
_cell_volume 2812.470191
_symmetry_space_group_name_H-M "P N N M"
_symmetry_group_IT_number 58
_symmetry_cell_setting 'orthorhombic'
loop_
_space_group_symop_operation_xyz
x,y,z
-x,-y,z
1/2+x,1/2-y,1/2-z
1/2-x,1/2+y,1/2-z
-x,-y,-z
x,y,-z
1/2-x,1/2+y,1/2+z
1/2+x,1/2-y,1/2+z
loop_
_atom_site_type_symbol
_atom_site_label
_atom_site_fract_x
_atom_site_fract_y
_atom_site_fract_z
Si Si1 0.334110 0.825324 0.176951
Si Si2 0.099257 0.176422 0.824436
Si Si3 0.984256 0.588887 0.322527
Si Si4 0.446210 0.236263 0.324270
Si Si5 0.331190 0.365503 0.677551
Si Si6 0.086290 0.010997 0.676014
O O1 0.348515 0.743462 0.258964
O O2 0.401814 0.882745 0.215762
O O3 0.254493 0.859051 0.213095
O O4 0.336987 0.812415 0.000000
O O5 0.016677 0.208055 0.793631
O O6 0.110347 0.093161 0.747308
O O7 0.107509 0.169498 0.000000
O O8 0.990684 0.590907 0.500000
O O9 0.000000 0.500000 0.272785
O O10 0.038664 0.654053 0.255783
O O11 0.444185 0.222525 0.500000
O O12 0.374599 0.285638 0.280967
O O13 0.339075 0.374301 0.500000
O O14 0.369239 0.438728 0.755928
O O15 0.095054 0.013236 0.500000
O O16 0.000000 0.000000 0.709413
#
# Coordination Sequence:
#
# PCOD9442190 Si02
#       6
#     8   8   8   8   8   8
#     4   9  19  36  56  76 107 143 176 221 275 319
#     4  10  19  34  56  78 104 140 181 218 260 321
#     4   9  18  34  55  77 102 136 178 220 260 313
#     4   9  18  32  53  77 100 134 175 215 261 315
#     4  10  20  36  55  77 110 144 177 221 274 326
#     4  11  22  34  54  83 112 142 181 224 268 320
#
# _framework density 17.066846999999999
#
# number of rings (size 3 to 8) (size 9 to 14) (size 15 to 20)
#    0.000    2.333    1.667    1.000    0.000    3.000 
#    3.000    0.000    0.000    0.000    0.000    0.000 
#    0.000    0.000    0.000    0.000    0.000    0.000 
#
# Total GULP energy -267785.878790 kJ/mol
# GULP energy per Si atom -5578.872475 kJ/mol
# Density = 1.702800 g / cm^3
# Si number density = 17.066847 Si / 1000 Ang^3
#
#
#
# Elastic Constant Matrix: (Units=GPa)
#
#
# Indices 1 2 3 4 5 6 
#
# 1 98.2700 76.7682 43.5259 0.0000 0.0000 0.0000
# 2 76.7682 176.9685 55.7968 0.0000 0.0000 0.0000
# 3 43.5259 55.7968 28.7048 0.0000 0.0000 0.0000
# 4 0.0000 0.0000 0.0000 33.7621 0.0000 0.0000
# 5 0.0000 0.0000 0.0000 0.0000 18.6050 0.0000
# 6 0.0000 0.0000 0.0000 0.0000 0.0000 22.0854
#
#
#
# Elastic Compliance Matrix: (Units=1/GPa)
#
#
# Indices 1 2 3 4 5 6 
#
# 1 0.031874 0.003647 -0.055419 0.000000 0.000000 0.000000
# 2 0.003647 0.015014 -0.034713 0.000000 0.000000 0.000000
# 3 -0.055419 -0.034713 0.186346 0.000000 0.000000 0.000000
# 4 0.000000 0.000000 0.000000 0.029619 0.000000 0.000000
# 5 0.000000 0.000000 0.000000 0.000000 0.053749 0.000000
# 6 0.000000 0.000000 0.000000 0.000000 0.000000 0.045279
#
#
# Mechanical properties :
#
#
# Convention : Reuss Voigt Hill
#
# Bulk Modulus (GPa) = 16.59405 72.90280 44.74842
# Shear Modulus (GPa) = 9.01000 23.41398 16.21199
#
# Velocity S-wave (km/s) = 2.30015 3.70793 3.08541
# Velocity P-wave (km/s) = 4.09858 7.81924 6.24255
#
# Compressibility (1/GPa) = 0.06026257
#
# Stress axis : x y z
#
# Youngs Moduli (GPa) = 31.37391 66.60620 5.36635
#
# Poissons Ratio (x) = -0.24288 0.29740
# Poissons Ratio (y) = -0.11441 0.18628
# Poissons Ratio (z) = 1.73871 2.31210
#
# Static dielectric constant tensor:
#      x y z
#    x 1.572140 0.000000 0.000000 
#    y 0.000000 1.549530 0.000000 
#    z 0.000000 0.000000 1.565170 
# 
# From -- ./inp_files/5770.got.cif
#   From: 2010.05.17/outbox.cif.g08.bks.cpg/sg58_3_cif.got.tgz:5770.got - 2010.06.03 14:20:14.
