data_PCOD9442685
_publ_section_title
;
Structure prediction by ZEFSAII (Michael W. Deem and Ramdas Pophale) SiO2 
 PCOD9442685
Probable space group: P N N M
;
_chemical_formula_sum "Si O2"
_cell_formula_units_Z 48
_cell_length_a 8.866414
_cell_length_b 17.240524
_cell_length_c 15.454328
_cell_angle_alpha 90.000000
_cell_angle_beta 90.000000
_cell_angle_gamma 90.000000
_cell_volume 2362.373666
_symmetry_space_group_name_H-M "P N N M"
_symmetry_group_IT_number 58
_symmetry_cell_setting 'orthorhombic'
loop_
_space_group_symop_operation_xyz
x,y,z
-x,-y,z
1/2+x,1/2-y,1/2-z
1/2-x,1/2+y,1/2-z
-x,-y,-z
x,y,-z
1/2-x,1/2+y,1/2+z
1/2+x,1/2-y,1/2+z
loop_
_atom_site_type_symbol
_atom_site_label
_atom_site_fract_x
_atom_site_fract_y
_atom_site_fract_z
Si Si1 0.088600 0.608386 0.178126
Si Si2 0.425621 0.413473 0.000000
Si Si3 0.319391 0.700215 0.288831
Si Si4 0.594792 0.670570 0.175204
Si Si5 0.059187 0.412111 0.000000
Si Si6 0.700751 0.042956 0.750671
Si Si7 0.841834 0.953672 0.900239
O O1 0.202824 0.669426 0.216390
O O2 0.177808 0.525800 0.180205
O O3 0.013137 0.624776 0.086159
O O4 0.950557 0.592839 0.243913
O O5 0.500000 0.500000 0.000000
O O6 0.467568 0.364245 0.914363
O O7 0.241094 0.414365 0.000000
O O8 0.470712 0.712733 0.234102
O O9 0.236685 0.771605 0.335149
O O10 0.350292 0.630541 0.355840
O O11 0.658852 0.595948 0.226131
O O12 0.000000 0.500000 0.000000
O O13 0.726354 0.002607 0.841916
O O14 0.798028 0.947372 0.000000
O O15 0.000000 0.000000 0.895474
#
# Coordination Sequence:
#
# PCOD9442685 Si02
#       7
#     8   4   8   8   4   8   8
#     4  10  21  37  65  96 131 177 223 281 345 413
#     4  12  30  40  72 108 143 176 237 300 348 417
#     4  11  26  43  69  91 140 181 230 280 357 415
#     4  12  25  44  67  97 141 183 227 285 358 415
#     4  12  20  38  64  98 138 167 230 280 344 404
#     4  10  19  38  63  96 126 171 223 281 338 412
#     4  10  21  40  70  99 124 174 237 289 330 403
#
# _framework density 20.318546999999999
#
# number of rings (size 3 to 8) (size 9 to 14) (size 15 to 20)
#    0.000    1.167    5.000    1.000    8.167    0.000 
#    0.000    6.667    9.167    0.000    0.000    0.000 
#    0.000    0.000    0.000    0.000    0.000    0.000 
#
# Total GULP energy -268069.055767 kJ/mol
# GULP energy per Si atom -5584.771995 kJ/mol
# Density = 2.027230 g / cm^3
# Si number density = 20.318547 Si / 1000 Ang^3
#
#
#
# Elastic Constant Matrix: (Units=GPa)
#
#
# Indices 1 2 3 4 5 6 
#
# 1 73.5119 29.4030 44.8482 0.0000 0.0000 0.0000
# 2 29.4030 89.3639 44.4046 0.0000 0.0000 0.0000
# 3 44.8482 44.4046 138.5087 0.0000 0.0000 0.0000
# 4 0.0000 0.0000 0.0000 10.8575 0.0000 0.0000
# 5 0.0000 0.0000 0.0000 0.0000 32.5051 0.0000
# 6 0.0000 0.0000 0.0000 0.0000 0.0000 46.0319
#
#
#
# Elastic Compliance Matrix: (Units=1/GPa)
#
#
# Indices 1 2 3 4 5 6 
#
# 1 0.017862 -0.003572 -0.004638 0.000000 0.000000 0.000000
# 2 -0.003572 0.014025 -0.003340 0.000000 0.000000 0.000000
# 3 -0.004638 -0.003340 0.009792 0.000000 0.000000 0.000000
# 4 0.000000 0.000000 0.000000 0.092102 0.000000 0.000000
# 5 0.000000 0.000000 0.000000 0.000000 0.030764 0.000000
# 6 0.000000 0.000000 0.000000 0.000000 0.000000 0.021724
#
#
# Mechanical properties :
#
#
# Convention : Reuss Voigt Hill
#
# Bulk Modulus (GPa) = 53.82495 59.85512 56.84004
# Shear Modulus (GPa) = 23.19511 30.06082 26.62797
#
# Velocity S-wave (km/s) = 3.38238 3.85057 3.62404
# Velocity P-wave (km/s) = 6.46545 7.02079 6.74884
#
# Compressibility (1/GPa) = 0.01857874
#
# Stress axis : x y z
#
# Youngs Moduli (GPa) = 55.98548 71.30126 102.12141
#
# Poissons Ratio (x) = 0.25470 0.47367
# Poissons Ratio (y) = 0.19999 0.34105
# Poissons Ratio (z) = 0.25968 0.23812
#
# Static dielectric constant tensor:
#      x y z
#    x 1.754390 0.000000 0.000000 
#    y 0.000000 1.745160 0.000000 
#    z 0.000000 0.000000 1.716020 
# 
# From -- ./inp_files/19870.got.cif
#   From: 2010.05.17/outbox.cif.g08.bks.cpg/sg58_10_cif.got.tgz:19870.got - 2010.06.03 14:20:14.
