data_PCOD9442571
_publ_section_title
;
Structure prediction by ZEFSAII (Michael W. Deem and Ramdas Pophale) SiO2 
 PCOD9442571
Probable space group: P N N M
;
_chemical_formula_sum "Si O2"
_cell_formula_units_Z 52
_cell_length_a 16.483339
_cell_length_b 8.318846
_cell_length_c 20.009468
_cell_angle_alpha 90.000000
_cell_angle_beta 90.000000
_cell_angle_gamma 90.000000
_cell_volume 2743.745449
_symmetry_space_group_name_H-M "P N N M"
_symmetry_group_IT_number 58
_symmetry_cell_setting 'orthorhombic'
loop_
_space_group_symop_operation_xyz
x,y,z
-x,-y,z
1/2+x,1/2-y,1/2-z
1/2-x,1/2+y,1/2-z
-x,-y,-z
x,y,-z
1/2-x,1/2+y,1/2+z
1/2+x,1/2-y,1/2+z
loop_
_atom_site_type_symbol
_atom_site_label
_atom_site_fract_x
_atom_site_fract_y
_atom_site_fract_z
Si Si1 0.500000 0.500000 0.348482
Si Si2 0.028211 0.331091 0.076688
Si Si3 0.194998 0.673606 0.687451
Si Si4 0.670129 0.576133 0.299720
Si Si5 0.720687 0.115168 0.574922
Si Si6 0.402667 0.989504 0.076410
Si Si7 0.756350 0.738008 0.575774
O O1 0.499553 0.333692 0.389977
O O2 0.583299 0.494512 0.307669
O O3 0.125221 0.346680 0.075910
O O4 0.000000 0.500000 0.108587
O O5 0.997862 0.328847 0.000000
O O6 0.259008 0.548490 0.719027
O O7 0.161794 0.782528 0.746483
O O8 0.241625 0.784220 0.634313
O O9 0.130078 0.587158 0.639982
O O10 0.701899 0.645017 0.370606
O O11 0.749980 0.159241 0.500000
O O12 0.741955 0.927496 0.584317
O O13 0.500000 0.000000 0.079703
O O14 0.350126 0.822862 0.082224
O O15 0.382572 0.046548 0.000000
O O16 0.730841 0.696904 0.500000
#
# Coordination Sequence:
#
# PCOD9442571 Si02
#       7
#     4   8   8   8   8   8   8
#     4  12  23  42  58  92 125 170 206 256 310 378
#     4  10  21  36  60  94 130 161 200 254 311 374
#     4  11  22  42  59  84 117 161 204 253 306 376
#     4  11  24  40  61  85 120 162 205 252 310 371
#     4  10  19  36  61  88 117 156 199 247 307 371
#     4   9  19  39  65  94 122 153 202 264 326 382
#     4   9  19  37  63  90 119 158 202 250 312 381
#
# _framework density 18.952195
#
# number of rings (size 3 to 8) (size 9 to 14) (size 15 to 20)
#    0.000    1.846    1.538    2.538    0.000    3.077 
#    8.308    0.000    0.000    3.692    0.000    0.000 
#    0.000    0.000    0.000    0.000    0.000    0.000 
#
# Total GULP energy -289889.667457 kJ/mol
# GULP energy per Si atom -5574.801297 kJ/mol
# Density = 1.890906 g / cm^3
# Si number density = 18.952195 Si / 1000 Ang^3
#
#
#
# Elastic Constant Matrix: (Units=GPa)
#
#
# Indices 1 2 3 4 5 6 
#
# 1 78.4550 12.4833 10.8532 0.0000 0.0000 0.0000
# 2 12.4833 71.5456 20.5349 0.0000 0.0000 0.0000
# 3 10.8532 20.5349 50.8675 0.0000 0.0000 0.0000
# 4 0.0000 0.0000 0.0000 33.0368 0.0000 0.0000
# 5 0.0000 0.0000 0.0000 0.0000 24.8072 0.0000
# 6 0.0000 0.0000 0.0000 0.0000 0.0000 16.0511
#
#
#
# Elastic Compliance Matrix: (Units=1/GPa)
#
#
# Indices 1 2 3 4 5 6 
#
# 1 0.013315 -0.001705 -0.002152 0.000000 0.000000 0.000000
# 2 -0.001705 0.016027 -0.006106 0.000000 0.000000 0.000000
# 3 -0.002152 -0.006106 0.022583 0.000000 0.000000 0.000000
# 4 0.000000 0.000000 0.000000 0.030269 0.000000 0.000000
# 5 0.000000 0.000000 0.000000 0.000000 0.040311 0.000000
# 6 0.000000 0.000000 0.000000 0.000000 0.000000 0.062301
#
#
# Mechanical properties :
#
#
# Convention : Reuss Voigt Hill
#
# Bulk Modulus (GPa) = 31.25250 32.06785 31.66017
# Shear Modulus (GPa) = 23.21252 25.24547 24.22900
#
# Velocity S-wave (km/s) = 3.50350 3.65370 3.57939
# Velocity P-wave (km/s) = 5.73515 5.89546 5.81586
#
# Compressibility (1/GPa) = 0.03199745
#
# Stress axis : x y z
#
# Youngs Moduli (GPa) = 75.10161 62.39369 44.28072
#
# Poissons Ratio (x) = 0.10641 0.09531
# Poissons Ratio (y) = 0.12808 0.27039
# Poissons Ratio (z) = 0.16166 0.38099
#
# Static dielectric constant tensor:
#      x y z
#    x 1.644890 0.000000 0.000000 
#    y 0.000000 1.675940 0.000000 
#    z 0.000000 0.000000 1.672620 
# 
# From -- ./inp_files/29952.got.cif
#   From: 2010.05.17/outbox.cif.g08.bks.cpg/sg58_15_cif.got.tgz:29952.got - 2010.06.03 14:20:14.
