data_PCOD9442538
_publ_section_title
;
Structure prediction by ZEFSAII (Michael W. Deem and Ramdas Pophale) SiO2 
 PCOD9442538
Probable space group: P N N M
;
_chemical_formula_sum "Si O2"
_cell_formula_units_Z 64
_cell_length_a 12.147733
_cell_length_b 14.115910
_cell_length_c 18.470489
_cell_angle_alpha 90.000000
_cell_angle_beta 90.000000
_cell_angle_gamma 90.000000
_cell_volume 3167.251219
_symmetry_space_group_name_H-M "P N N M"
_symmetry_group_IT_number 58
_symmetry_cell_setting 'orthorhombic'
loop_
_space_group_symop_operation_xyz
x,y,z
-x,-y,z
1/2+x,1/2-y,1/2-z
1/2-x,1/2+y,1/2-z
-x,-y,-z
x,y,-z
1/2-x,1/2+y,1/2+z
1/2+x,1/2-y,1/2+z
loop_
_atom_site_type_symbol
_atom_site_label
_atom_site_fract_x
_atom_site_fract_y
_atom_site_fract_z
Si Si1 0.628756 0.300633 0.420283
Si Si2 0.010535 0.114520 0.582725
Si Si3 0.727861 0.147120 0.191019
Si Si4 0.746225 0.426764 0.309417
Si Si5 0.741084 0.426425 0.864735
Si Si6 0.015231 0.613446 0.714707
Si Si7 0.714293 0.647862 0.140954
Si Si8 0.913381 0.288818 0.137606
O O1 0.640086 0.343203 0.500000
O O2 0.656319 0.373008 0.355991
O O3 0.717023 0.216628 0.409760
O O4 0.508204 0.257708 0.408948
O O5 0.988504 0.141875 0.500000
O O6 0.136564 0.128527 0.603589
O O7 0.917153 0.159345 0.633059
O O8 0.000000 0.000000 0.588343
O O9 0.596327 0.150157 0.177299
O O10 0.745826 0.163553 0.277053
O O11 0.812677 0.216740 0.152392
O O12 0.759518 0.038273 0.176166
O O13 0.735359 0.414141 0.222724
O O14 0.868603 0.386948 0.327458
O O15 0.736501 0.538203 0.878812
O O16 0.853268 0.381492 0.893169
O O17 0.032929 0.675183 0.786903
O O18 0.000000 0.500000 0.733217
#
# Coordination Sequence:
#
# PCOD9442538 Si02
#       8
#     8   8   8   8   8   8   8   8
#     4  12  26  41  57  84 126 169 209 246 300 370
#     4   9  18  32  52  82 119 154 191 237 296 363
#     4  10  20  37  63  90 114 150 199 262 309 348
#     4   9  21  40  61  87 115 156 210 259 301 353
#     4   9  20  35  60  88 121 155 198 254 312 364
#     4   9  18  36  63  91 122 147 190 264 323 360
#     4  10  19  36  59  86 119 157 198 247 311 372
#     4  11  23  34  56  87 121 157 202 248 301 368
#
# _framework density 20.206796000000001
#
# number of rings (size 3 to 8) (size 9 to 14) (size 15 to 20)
#    0.000    2.125    1.250    2.625    1.750    2.500 
#    0.000    1.875    0.000    4.125    0.000    0.000 
#    0.000    0.000    0.000    0.000    0.000    0.000 
#
# Total GULP energy -357254.747838 kJ/mol
# GULP energy per Si atom -5582.105435 kJ/mol
# Density = 2.016080 g / cm^3
# Si number density = 20.206796 Si / 1000 Ang^3
#
#
#
# Elastic Constant Matrix: (Units=GPa)
#
#
# Indices 1 2 3 4 5 6 
#
# 1 75.7985 4.6532 -5.1648 0.0000 0.0000 0.0000
# 2 4.6532 44.0492 8.1318 0.0000 0.0000 0.0000
# 3 -5.1648 8.1318 13.7088 0.0000 0.0000 0.0000
# 4 0.0000 0.0000 0.0000 9.1956 0.0000 0.0000
# 5 0.0000 0.0000 0.0000 0.0000 10.9905 0.0000
# 6 0.0000 0.0000 0.0000 0.0000 0.0000 34.3497
#
#
#
# Elastic Compliance Matrix: (Units=1/GPa)
#
#
# Indices 1 2 3 4 5 6 
#
# 1 0.013825 -0.002720 0.006822 0.000000 0.000000 0.000000
# 2 -0.002720 0.026029 -0.016464 0.000000 0.000000 0.000000
# 3 0.006822 -0.016464 0.085282 0.000000 0.000000 0.000000
# 4 0.000000 0.000000 0.000000 0.108747 0.000000 0.000000
# 5 0.000000 0.000000 0.000000 0.000000 0.090988 0.000000
# 6 0.000000 0.000000 0.000000 0.000000 0.000000 0.029112
#
#
# Mechanical properties :
#
#
# Convention : Reuss Voigt Hill
#
# Bulk Modulus (GPa) = 9.95907 16.53299 13.24603
# Shear Modulus (GPa) = 12.13068 19.30291 15.71679
#
# Velocity S-wave (km/s) = 2.45281 3.09409 2.79193
# Velocity P-wave (km/s) = 3.60014 4.57867 4.11857
#
# Compressibility (1/GPa) = 0.10041096
#
# Stress axis : x y z
#
# Youngs Moduli (GPa) = 72.33453 38.41923 11.72576
#
# Poissons Ratio (x) = 0.10449 -0.07999
# Poissons Ratio (y) = 0.19673 0.19306
# Poissons Ratio (z) = -0.49344 0.63255
#
# Static dielectric constant tensor:
#      x y z
#    x 1.734050 0.000000 0.000000 
#    y 0.000000 1.751870 0.000000 
#    z 0.000000 0.000000 1.699120 
# 
# From -- ./inp_files/26412.got.cif
#   From: 2010.05.17/outbox.cif.g08.bks.cpg/sg58_14_cif.got.tgz:26412.got - 2010.06.03 14:20:14.
