data_PCOD9442150
_publ_section_title
;
Structure prediction by ZEFSAII (Michael W. Deem and Ramdas Pophale) SiO2 
 PCOD9442150
Probable space group: P N N M
;
_chemical_formula_sum "Si O2"
_cell_formula_units_Z 56
_cell_length_a 25.695053
_cell_length_b 14.880342
_cell_length_c 8.202930
_cell_angle_alpha 90.000000
_cell_angle_beta 90.000000
_cell_angle_gamma 90.000000
_cell_volume 3136.399935
_symmetry_space_group_name_H-M "P N N M"
_symmetry_group_IT_number 58
_symmetry_cell_setting 'orthorhombic'
loop_
_space_group_symop_operation_xyz
x,y,z
-x,-y,z
1/2+x,1/2-y,1/2-z
1/2-x,1/2+y,1/2-z
-x,-y,-z
x,y,-z
1/2-x,1/2+y,1/2+z
1/2+x,1/2-y,1/2+z
loop_
_atom_site_type_symbol
_atom_site_label
_atom_site_fract_x
_atom_site_fract_y
_atom_site_fract_z
Si Si1 0.500201 0.895607 0.306127
Si Si2 0.894309 0.300610 0.303306
Si Si3 0.710608 0.260608 0.303478
Si Si4 0.110669 0.351105 0.304735
Si Si5 0.684196 0.654861 0.803586
Si Si6 0.333187 0.026456 0.198004
Si Si7 0.283076 0.532680 0.696916
O O1 0.500101 0.902295 0.500000
O O2 0.550578 0.838390 0.254823
O O3 0.448413 0.842664 0.252084
O O4 0.500000 0.000000 0.240626
O O5 0.896943 0.298413 0.500000
O O6 0.867464 0.208272 0.247691
O O7 0.852643 0.376426 0.253271
O O8 0.714386 0.262155 0.500000
O O9 0.656522 0.213645 0.255590
O O10 0.762274 0.205584 0.245358
O O11 0.708418 0.364719 0.247726
O O12 0.111369 0.348840 0.500000
O O13 0.127925 0.450073 0.245324
O O14 0.682752 0.550736 0.754490
O O15 0.685697 0.660029 0.000000
O O16 0.275167 0.007742 0.253346
O O17 0.332756 0.024938 0.000000
O O18 0.284375 0.533801 0.500000
#
# Coordination Sequence:
#
# PCOD9442150 Si02
#       7
#     8   8   8   8   8   8   8
#     4  11  23  36  52  79 112 141 175 222 272 319
#     4  10  19  35  55  76 107 146 183 216 261 319
#     4  10  20  34  53  78 111 146 177 219 271 315
#     4  11  21  34  55  79 107 144 184 221 260 318
#     4  10  20  33  53  80 109 141 179 224 267 309
#     4   9  16  28  50  78 106 139 179 213 248 312
#     4  10  19  34  53  76 110 149 182 214 262 322
#
# _framework density 17.854865
#
# number of rings (size 3 to 8) (size 9 to 14) (size 15 to 20)
#    0.000    1.857    4.286    0.857    0.000    1.714 
#    0.000    0.714    0.000    0.857    0.000    6.000 
#    0.000    0.000    0.000    0.000    0.000    0.000 
#
# Total GULP energy -312125.413646 kJ/mol
# GULP energy per Si atom -5573.668101 kJ/mol
# Density = 1.781423 g / cm^3
# Si number density = 17.854865 Si / 1000 Ang^3
#
#
#
# Elastic Constant Matrix: (Units=GPa)
#
#
# Indices 1 2 3 4 5 6 
#
# 1 70.6328 13.8024 5.6811 0.0000 0.0000 0.0000
# 2 13.8024 70.2269 10.1169 0.0000 0.0000 0.0000
# 3 5.6811 10.1169 16.5869 0.0000 0.0000 0.0000
# 4 0.0000 0.0000 0.0000 23.1045 0.0000 0.0000
# 5 0.0000 0.0000 0.0000 0.0000 21.4793 0.0000
# 6 0.0000 0.0000 0.0000 0.0000 0.0000 24.7463
#
#
#
# Elastic Compliance Matrix: (Units=1/GPa)
#
#
# Indices 1 2 3 4 5 6 
#
# 1 0.014921 -0.002408 -0.003642 0.000000 0.000000 0.000000
# 2 -0.002408 0.016000 -0.008934 0.000000 0.000000 0.000000
# 3 -0.003642 -0.008934 0.066985 0.000000 0.000000 0.000000
# 4 0.000000 0.000000 0.000000 0.043282 0.000000 0.000000
# 5 0.000000 0.000000 0.000000 0.000000 0.046556 0.000000
# 6 0.000000 0.000000 0.000000 0.000000 0.000000 0.040410
#
#
# Mechanical properties :
#
#
# Convention : Reuss Voigt Hill
#
# Bulk Modulus (GPa) = 14.71926 24.07195 19.39560
# Shear Modulus (GPa) = 17.80827 22.38910 20.09868
#
# Velocity S-wave (km/s) = 3.16157 3.54496 3.35874
# Velocity P-wave (km/s) = 4.64641 5.50154 5.09196
#
# Compressibility (1/GPa) = 0.06793821
#
# Stress axis : x y z
#
# Youngs Moduli (GPa) = 67.01872 62.50046 14.92867
#
# Poissons Ratio (x) = 0.15050 0.05437
# Poissons Ratio (y) = 0.16138 0.13338
# Poissons Ratio (z) = 0.24408 0.55839
#
# Static dielectric constant tensor:
#      x y z
#    x 1.614890 0.000000 0.000000 
#    y 0.000000 1.626690 0.000000 
#    z 0.000000 0.000000 1.631610 
# 
# From -- ./inp_files/8960.got.cif
#   From: 2010.05.17/outbox.cif.g08.bks.cpg/sg58_5_cif.got.tgz:8960.got - 2010.06.03 14:20:14.
