data_PCOD9442158
_publ_section_title
;
Structure prediction by ZEFSAII (Michael W. Deem and Ramdas Pophale) SiO2 
 PCOD9442158
Probable space group: P N N M
;
_chemical_formula_sum "Si O2"
_cell_formula_units_Z 64
_cell_length_a 9.602602
_cell_length_b 19.599524
_cell_length_c 17.588834
_cell_angle_alpha 90.000000
_cell_angle_beta 90.000000
_cell_angle_gamma 90.000000
_cell_volume 3310.331626
_symmetry_space_group_name_H-M "P N N M"
_symmetry_group_IT_number 58
_symmetry_cell_setting 'orthorhombic'
loop_
_space_group_symop_operation_xyz
x,y,z
-x,-y,z
1/2+x,1/2-y,1/2-z
1/2-x,1/2+y,1/2-z
-x,-y,-z
x,y,-z
1/2-x,1/2+y,1/2+z
1/2+x,1/2-y,1/2+z
loop_
_atom_site_type_symbol
_atom_site_label
_atom_site_fract_x
_atom_site_fract_y
_atom_site_fract_z
Si Si1 0.031801 0.194168 0.412472
Si Si2 0.208582 0.425202 0.305317
Si Si3 0.780683 0.200921 0.910419
Si Si4 0.526217 0.576880 0.793100
Si Si5 0.008429 0.277237 0.176856
Si Si6 0.229598 0.074781 0.803388
Si Si7 0.036059 0.572757 0.810906
Si Si8 0.317306 0.221074 0.828662
O O1 0.035700 0.172432 0.500000
O O2 0.169755 0.238362 0.395911
O O3 0.016154 0.131927 0.354758
O O4 0.899177 0.242361 0.396032
O O5 0.230069 0.365085 0.364461
O O6 0.316871 0.414545 0.235801
O O7 0.241025 0.500607 0.337857
O O8 0.058426 0.425225 0.265825
O O9 0.929057 0.226895 0.880030
O O10 0.783645 0.187623 0.000000
O O11 0.500000 0.500000 0.820734
O O12 0.431107 0.584357 0.717722
O O13 0.995828 0.355849 0.148956
O O14 0.168513 0.256173 0.188265
O O15 0.919691 0.273627 0.255396
O O16 0.307376 0.072304 0.720890
O O17 0.286979 0.141551 0.843975
O O18 0.000000 0.500000 0.848646
#
# Coordination Sequence:
#
# PCOD9442158 Si02
#       8
#     8   8   8   8   8   8   8   8
#     4  11  23  37  53  78 113 149 184 221 264 319
#     4  10  19  34  54  78 103 133 175 221 269 317
#     4  11  23  37  53  75 107 145 182 219 263 318
#     4  10  20  35  57  82 105 135 177 225 275 322
#     4  11  20  33  57  80 105 138 179 225 270 317
#     4   9  18  31  53  79 104 130 170 222 267 313
#     4   9  17  29  50  78 103 127 163 216 266 309
#     4  11  20  34  57  83 108 138 178 224 268 316
#
# _framework density 19.333410000000001
#
# number of rings (size 3 to 8) (size 9 to 14) (size 15 to 20)
#    0.000    1.750    0.000    7.500    0.000    0.750 
#    0.000    0.625    0.000   12.375    0.000    0.000 
#    0.000    0.000    0.000    0.000    0.000    0.000 
#
# Total GULP energy -357397.508325 kJ/mol
# GULP energy per Si atom -5584.336068 kJ/mol
# Density = 1.928941 g / cm^3
# Si number density = 19.333410 Si / 1000 Ang^3
#
#
#
# Elastic Constant Matrix: (Units=GPa)
#
#
# Indices 1 2 3 4 5 6 
#
# 1 93.6961 7.3262 5.4781 0.0000 0.0000 0.0000
# 2 7.3262 126.0816 35.5338 0.0000 0.0000 0.0000
# 3 5.4781 35.5338 47.2631 0.0000 0.0000 0.0000
# 4 0.0000 0.0000 0.0000 8.3026 0.0000 0.0000
# 5 0.0000 0.0000 0.0000 0.0000 16.2645 0.0000
# 6 0.0000 0.0000 0.0000 0.0000 0.0000 27.4051
#
#
#
# Elastic Compliance Matrix: (Units=1/GPa)
#
#
# Indices 1 2 3 4 5 6 
#
# 1 0.010758 -0.000347 -0.000986 0.000000 0.000000 0.000000
# 2 -0.000347 0.010075 -0.007534 0.000000 0.000000 0.000000
# 3 -0.000986 -0.007534 0.026937 0.000000 0.000000 0.000000
# 4 0.000000 0.000000 0.000000 0.120444 0.000000 0.000000
# 5 0.000000 0.000000 0.000000 0.000000 0.061484 0.000000
# 6 0.000000 0.000000 0.000000 0.000000 0.000000 0.036490
#
#
# Mechanical properties :
#
#
# Convention : Reuss Voigt Hill
#
# Bulk Modulus (GPa) = 33.29489 40.41300 36.85394
# Shear Modulus (GPa) = 17.01068 24.97462 20.99265
#
# Velocity S-wave (km/s) = 2.96946 3.59804 3.29876
# Velocity P-wave (km/s) = 5.38663 6.18141 5.79765
#
# Compressibility (1/GPa) = 0.03003464
#
# Stress axis : x y z
#
# Youngs Moduli (GPa) = 92.95763 99.25570 37.12367
#
# Poissons Ratio (x) = 0.03447 0.03660
# Poissons Ratio (y) = 0.03228 0.27971
# Poissons Ratio (z) = 0.09164 0.74783
#
# Static dielectric constant tensor:
#      x y z
#    x 1.674010 0.000000 0.000000 
#    y 0.000000 1.734510 0.000000 
#    z 0.000000 0.000000 1.619160 
# 
# From -- ./inp_files/25681.got.cif
#   From: 2010.05.17/outbox.cif.g08.bks.cpg/sg58_13_cif.got.tgz:25681.got - 2010.06.03 14:20:14.
