data_PCOD9442220
_publ_section_title
;
Structure prediction by ZEFSAII (Michael W. Deem and Ramdas Pophale) SiO2 
 PCOD9442220
Probable space group: P N N M
;
_chemical_formula_sum "Si O2"
_cell_formula_units_Z 64
_cell_length_a 13.350979
_cell_length_b 28.289925
_cell_length_c 7.914692
_cell_angle_alpha 90.000000
_cell_angle_beta 90.000000
_cell_angle_gamma 90.000000
_cell_volume 2989.364879
_symmetry_space_group_name_H-M "P N N M"
_symmetry_group_IT_number 58
_symmetry_cell_setting 'orthorhombic'
loop_
_space_group_symop_operation_xyz
x,y,z
-x,-y,z
1/2+x,1/2-y,1/2-z
1/2-x,1/2+y,1/2-z
-x,-y,-z
x,y,-z
1/2-x,1/2+y,1/2+z
1/2+x,1/2-y,1/2+z
loop_
_atom_site_type_symbol
_atom_site_label
_atom_site_fract_x
_atom_site_fract_y
_atom_site_fract_z
Si Si1 0.860761 0.862714 0.796325
Si Si2 0.766834 0.692696 0.697695
Si Si3 0.982152 0.656440 0.801075
Si Si4 0.423920 0.358852 0.696025
Si Si5 0.686708 0.793986 0.799498
Si Si6 0.235968 0.042175 0.297505
Si Si7 0.408226 0.464606 0.796634
Si Si8 0.462005 0.052137 0.293348
O O1 0.765340 0.833340 0.736659
O O2 0.840859 0.916617 0.748055
O O3 0.967941 0.844583 0.730503
O O4 0.864056 0.860262 0.000000
O O5 0.779040 0.681727 0.500000
O O6 0.677641 0.660829 0.774504
O O7 0.723119 0.745290 0.717712
O O8 0.875220 0.681350 0.773918
O O9 0.074298 0.687468 0.730270
O O10 0.985598 0.601446 0.738127
O O11 0.001124 0.653790 0.000000
O O12 0.423710 0.343271 0.500000
O O13 0.420964 0.415165 0.706654
O O14 0.699707 0.788159 0.000000
O O15 0.240949 0.039893 0.500000
O O16 0.346355 0.054788 0.236449
O O17 0.191811 0.992150 0.241195
O O18 0.500000 0.500000 0.763953
O O19 0.405359 0.456488 0.000000
O O20 0.466702 0.051565 0.500000
O O21 0.500000 0.000000 0.239169
#
# Coordination Sequence:
#
# PCOD9442220 Si02
#       8
#     8   8   8   8   8   8   8   8
#     4  10  21  38  61  88 120 157 201 254 310 371
#     4  11  26  45  65  92 127 165 211 264 319 377
#     4  11  23  42  69  96 129 168 211 261 319 381
#     4  10  23  41  60  85 123 167 205 253 311 371
#     4  11  24  43  68  95 123 159 209 264 321 381
#     4  10  19  34  56  85 120 158 204 253 304 360
#     4  10  20  33  54  86 121 157 201 254 297 353
#     4   9  19  35  58  88 121 163 210 256 307 370
#
# _framework density 21.409229
#
# number of rings (size 3 to 8) (size 9 to 14) (size 15 to 20)
#    0.000    1.750    2.500    1.125    3.500    2.250 
#    0.000    0.000    0.000    1.875    0.000    0.000 
#    0.000    0.000    0.000    0.000    0.000    0.000 
#
# Total GULP energy -357222.946634 kJ/mol
# GULP energy per Si atom -5581.608541 kJ/mol
# Density = 2.136050 g / cm^3
# Si number density = 21.409229 Si / 1000 Ang^3
#
#
#
# Elastic Constant Matrix: (Units=GPa)
#
#
# Indices 1 2 3 4 5 6 
#
# 1 142.0377 42.5894 -6.8787 0.0000 0.0000 0.0000
# 2 42.5894 71.5879 -14.6244 0.0000 0.0000 0.0000
# 3 -6.8787 -14.6244 13.5531 0.0000 0.0000 0.0000
# 4 0.0000 0.0000 0.0000 30.7107 0.0000 0.0000
# 5 0.0000 0.0000 0.0000 0.0000 15.1363 0.0000
# 6 0.0000 0.0000 0.0000 0.0000 0.0000 31.4899
#
#
#
# Elastic Compliance Matrix: (Units=1/GPa)
#
#
# Indices 1 2 3 4 5 6 
#
# 1 0.008592 -0.005414 -0.001481 0.000000 0.000000 0.000000
# 2 -0.005414 0.021331 0.020269 0.000000 0.000000 0.000000
# 3 -0.001481 0.020269 0.094903 0.000000 0.000000 0.000000
# 4 0.000000 0.000000 0.000000 0.032562 0.000000 0.000000
# 5 0.000000 0.000000 0.000000 0.000000 0.066066 0.000000
# 6 0.000000 0.000000 0.000000 0.000000 0.000000 0.031756
#
#
# Mechanical properties :
#
#
# Convention : Reuss Voigt Hill
#
# Bulk Modulus (GPa) = 6.59757 29.92792 18.26275
# Shear Modulus (GPa) = 17.92196 29.20689 23.56442
#
# Velocity S-wave (km/s) = 2.89643 3.69754 3.32123
# Velocity P-wave (km/s) = 3.77811 5.67789 4.82247
#
# Compressibility (1/GPa) = 0.15157089
#
# Stress axis : x y z
#
# Youngs Moduli (GPa) = 116.38613 46.88118 10.53713
#
# Poissons Ratio (x) = 0.25383 0.01561
# Poissons Ratio (y) = 0.63015 -0.21357
# Poissons Ratio (z) = 0.17242 -0.95022
#
# Static dielectric constant tensor:
#      x y z
#    x 1.795800 0.000000 0.000000 
#    y 0.000000 1.784570 0.000000 
#    z 0.000000 0.000000 1.765120 
# 
# From -- ./inp_files/4826.got.cif
#   From: 2010.05.17/outbox.cif.g08.bks.cpg/sg58_3_cif.got.tgz:4826.got - 2010.06.03 14:20:14.
