data_PCOD9442850
_publ_section_title
;
Structure prediction by ZEFSAII (Michael W. Deem and Ramdas Pophale) SiO2 
 PCOD9442850
Probable space group: P N N M
;
_chemical_formula_sum "Si O2"
_cell_formula_units_Z 58
_cell_length_a 25.498172
_cell_length_b 7.524046
_cell_length_c 15.076249
_cell_angle_alpha 90.000000
_cell_angle_beta 90.000000
_cell_angle_gamma 90.000000
_cell_volume 2892.369612
_symmetry_space_group_name_H-M "P N N M"
_symmetry_group_IT_number 58
_symmetry_cell_setting 'orthorhombic'
loop_
_space_group_symop_operation_xyz
x,y,z
-x,-y,z
1/2+x,1/2-y,1/2-z
1/2-x,1/2+y,1/2-z
-x,-y,-z
x,y,-z
1/2-x,1/2+y,1/2+z
1/2+x,1/2-y,1/2+z
loop_
_atom_site_type_symbol
_atom_site_label
_atom_site_fract_x
_atom_site_fract_y
_atom_site_fract_z
Si Si1 0.188339 0.938286 0.101163
Si Si2 0.901380 0.546630 0.269108
Si Si3 0.952692 0.888968 0.315989
Si Si4 0.694116 0.148349 0.102505
Si Si5 0.779868 0.066016 0.602815
Si Si6 0.631068 0.671558 0.230193
Si Si7 0.000000 0.000000 0.500000
Si Si8 0.838090 0.648010 0.102057
O O1 0.249897 0.939773 0.125387
O O2 0.156031 0.826918 0.172242
O O3 0.166555 0.138150 0.103807
O O4 0.185254 0.870036 0.000000
O O5 0.947491 0.682858 0.292284
O O6 0.852593 0.597076 0.332977
O O7 0.907877 0.336782 0.283058
O O8 0.881840 0.583106 0.169502
O O9 0.962525 0.916384 0.420645
O O10 0.900011 0.989990 0.287148
O O11 0.000000 0.000000 0.271779
O O12 0.704064 0.359857 0.107441
O O13 0.681616 0.103338 0.000000
O O14 0.782181 0.125098 0.500000
O O15 0.820431 0.175286 0.661974
O O16 0.719573 0.082134 0.631543
O O17 0.846561 0.592896 0.000000
#
# Coordination Sequence:
#
# PCOD9442850 Si02
#       8
#     8   8   8   8   8   8   2   8
#     4  10  20  36  56  85 124 163 203 247 293 351
#     4  12  23  37  62  88 119 160 202 246 302 364
#     4  10  24  46  65  90 118 153 198 258 304 357
#     4  10  20  33  53  83 126 165 202 247 293 353
#     4  10  20  33  53  83 126 165 202 247 293 353
#     4  12  23  37  62  88 119 160 202 246 302 364
#     4   8  24  48  74  84 130 146 200 260 314 344
#     4  10  20  36  56  85 124 163 203 247 293 351
#
# _framework density 20.052762000000001
#
# number of rings (size 3 to 8) (size 9 to 14) (size 15 to 20)
#    0.414    1.103    2.759    2.483    1.931    3.862 
#    0.000    0.690    0.000    1.655    0.000    1.931 
#    0.000    0.000    0.000    0.000    0.000    0.000 
#
# Total GULP energy -323506.326434 kJ/mol
# GULP energy per Si atom -5577.695283 kJ/mol
# Density = 2.000712 g / cm^3
# Si number density = 20.052762 Si / 1000 Ang^3
#
#
#
# Elastic Constant Matrix: (Units=GPa)
#
#
# Indices 1 2 3 4 5 6 
#
# 1 23.2086 -16.3329 12.2586 0.0000 0.0000 0.0000
# 2 -16.3329 56.6011 -2.1007 0.0000 0.0000 0.0000
# 3 12.2586 -2.1007 60.6781 0.0000 0.0000 0.0000
# 4 0.0000 0.0000 0.0000 4.2286 0.0000 0.0000
# 5 0.0000 0.0000 0.0000 0.0000 12.4350 0.0000
# 6 0.0000 0.0000 0.0000 0.0000 0.0000 16.4516
#
#
#
# Elastic Compliance Matrix: (Units=1/GPa)
#
#
# Indices 1 2 3 4 5 6 
#
# 1 0.061519 0.017313 -0.011829 0.000000 0.000000 0.000000
# 2 0.017313 0.022563 -0.002717 0.000000 0.000000 0.000000
# 3 -0.011829 -0.002717 0.018776 0.000000 0.000000 0.000000
# 4 0.000000 0.000000 0.000000 0.236486 0.000000 0.000000
# 5 0.000000 0.000000 0.000000 0.000000 0.080418 0.000000
# 6 0.000000 0.000000 0.000000 0.000000 0.000000 0.060785
#
#
# Mechanical properties :
#
#
# Convention : Reuss Voigt Hill
#
# Bulk Modulus (GPa) = 9.22568 14.23752 11.73160
# Shear Modulus (GPa) = 9.78200 16.40057 13.09129
#
# Velocity S-wave (km/s) = 2.21105 2.86295 2.55785
# Velocity P-wave (km/s) = 3.33601 4.24783 3.81923
#
# Compressibility (1/GPa) = 0.10839305
#
# Stress axis : x y z
#
# Youngs Moduli (GPa) = 16.25502 44.32113 53.25906
#
# Poissons Ratio (x) = -0.76734 0.63001
# Poissons Ratio (y) = -0.28143 0.14468
# Poissons Ratio (z) = 0.19228 0.12040
#
# Static dielectric constant tensor:
#      x y z
#    x 1.693800 0.000000 0.000000 
#    y 0.000000 1.744380 0.000000 
#    z 0.000000 0.000000 1.693520 
# 
# From -- ./inp_files/23707.got.cif
#   From: 2010.05.17/outbox.cif.g08.bks.cpg/sg58_12_cif.got.tgz:23707.got - 2010.06.03 14:20:14.
