data_PCOD9442955
_publ_section_title
;
Structure prediction by ZEFSAII (Michael W. Deem and Ramdas Pophale) SiO2 
 PCOD9442955
Probable space group: P N N M
;
_chemical_formula_sum "Si O2"
_cell_formula_units_Z 64
_cell_length_a 19.085409
_cell_length_b 20.468702
_cell_length_c 7.527915
_cell_angle_alpha 90.000000
_cell_angle_beta 90.000000
_cell_angle_gamma 90.000000
_cell_volume 2940.806714
_symmetry_space_group_name_H-M "P N N M"
_symmetry_group_IT_number 58
_symmetry_cell_setting 'orthorhombic'
loop_
_space_group_symop_operation_xyz
x,y,z
-x,-y,z
1/2+x,1/2-y,1/2-z
1/2-x,1/2+y,1/2-z
-x,-y,-z
x,y,-z
1/2-x,1/2+y,1/2+z
1/2+x,1/2-y,1/2+z
loop_
_atom_site_type_symbol
_atom_site_label
_atom_site_fract_x
_atom_site_fract_y
_atom_site_fract_z
Si Si1 0.519534 0.302563 0.782375
Si Si2 0.248626 0.378849 0.788461
Si Si3 0.941542 0.948360 0.283210
Si Si4 0.404655 0.824993 0.213772
Si Si5 0.826764 0.369277 0.793421
Si Si6 0.862534 0.222745 0.707880
Si Si7 0.977925 0.427643 0.284618
Si Si8 0.217528 0.023713 0.717808
O O1 0.539229 0.375260 0.726280
O O2 0.574161 0.247190 0.724306
O O3 0.441466 0.283120 0.720805
O O4 0.520049 0.302110 0.000000
O O5 0.172259 0.348800 0.761135
O O6 0.307871 0.329678 0.715986
O O7 0.255095 0.452949 0.721208
O O8 0.259385 0.383261 0.000000
O O9 0.942280 0.948936 0.500000
O O10 0.863071 0.967172 0.229450
O O11 0.000000 0.000000 0.224304
O O12 0.463885 0.875798 0.275969
O O13 0.408373 0.824716 0.000000
O O14 0.834710 0.296598 0.718315
O O15 0.901128 0.405837 0.774840
O O16 0.766786 0.416996 0.719785
O O17 0.811155 0.359487 0.000000
O O18 0.869457 0.206933 0.500000
O O19 0.976865 0.427029 0.500000
O O20 0.000000 0.500000 0.226817
O O21 0.220163 0.024566 0.500000
#
# Coordination Sequence:
#
# PCOD9442955 Si02
#       8
#     8   8   8   8   8   8   8   8
#     4   9  17  31  52  76 104 138 175 222 268 317
#     4  10  21  36  56  79 108 143 180 226 275 329
#     4   9  16  28  51  79 104 135 177 223 274 324
#     4  10  20  34  53  79 109 141 177 223 270 318
#     4  11  22  34  53  81 115 149 179 226 279 327
#     4  10  20  37  57  78 109 146 185 224 271 331
#     4  10  20  36  57  78 105 144 187 225 265 323
#     4   9  19  34  50  78 113 140 174 225 280 327
#
# _framework density 21.762736
#
# number of rings (size 3 to 8) (size 9 to 14) (size 15 to 20)
#    0.000    2.250    1.250    1.875    1.750    4.250 
#    0.000    0.625    0.000    0.000    0.000    0.000 
#    0.000    5.500    0.000    0.000    0.000    0.000 
#
# Total GULP energy -357645.521496 kJ/mol
# GULP energy per Si atom -5588.211273 kJ/mol
# Density = 2.171320 g / cm^3
# Si number density = 21.762736 Si / 1000 Ang^3
#
#
#
# Elastic Constant Matrix: (Units=GPa)
#
#
# Indices 1 2 3 4 5 6 
#
# 1 160.8691 93.0878 -5.2586 0.0000 0.0000 0.0000
# 2 93.0878 182.9204 -2.5420 0.0000 0.0000 0.0000
# 3 -5.2586 -2.5420 50.8980 0.0000 0.0000 0.0000
# 4 0.0000 0.0000 0.0000 8.4313 0.0000 0.0000
# 5 0.0000 0.0000 0.0000 0.0000 5.3016 0.0000
# 6 0.0000 0.0000 0.0000 0.0000 0.0000 46.3114
#
#
#
# Elastic Compliance Matrix: (Units=1/GPa)
#
#
# Indices 1 2 3 4 5 6 
#
# 1 0.008835 -0.004486 0.000689 0.000000 0.000000 0.000000
# 2 -0.004486 0.007749 -0.000077 0.000000 0.000000 0.000000
# 3 0.000689 -0.000077 0.019714 0.000000 0.000000 0.000000
# 4 0.000000 0.000000 0.000000 0.118606 0.000000 0.000000
# 5 0.000000 0.000000 0.000000 0.000000 0.188623 0.000000
# 6 0.000000 0.000000 0.000000 0.000000 0.000000 0.021593
#
#
# Mechanical properties :
#
#
# Convention : Reuss Voigt Hill
#
# Bulk Modulus (GPa) = 35.02659 62.80687 48.91673
# Shear Modulus (GPa) = 13.07582 32.63554 22.85568
#
# Velocity S-wave (km/s) = 2.45385 3.87668 3.24423
# Velocity P-wave (km/s) = 4.91510 6.99719 6.04644
#
# Compressibility (1/GPa) = 0.02854974
#
# Stress axis : x y z
#
# Youngs Moduli (GPa) = 113.18786 129.04968 50.72415
#
# Poissons Ratio (x) = 0.57898 -0.03493
# Poissons Ratio (y) = 0.50781 0.00388
# Poissons Ratio (z) = -0.07795 0.00988
#
# Static dielectric constant tensor:
#      x y z
#    x 1.743900 0.000000 0.000000 
#    y 0.000000 1.759990 0.000000 
#    z 0.000000 0.000000 1.851250 
# 
# From -- ./inp_files/8258.got.cif
#   From: 2010.05.17/outbox.cif.g08.bks.cpg/sg58_5_cif.got.tgz:8258.got - 2010.06.03 14:20:14.
