data_PCOD9442579
_publ_section_title
;
Structure prediction by ZEFSAII (Michael W. Deem and Ramdas Pophale) SiO2 
 PCOD9442579
Probable space group: P N N M
;
_chemical_formula_sum "Si O2"
_cell_formula_units_Z 64
_cell_length_a 28.842983
_cell_length_b 12.956351
_cell_length_c 8.400056
_cell_angle_alpha 90.000000
_cell_angle_beta 90.000000
_cell_angle_gamma 90.000000
_cell_volume 3139.099345
_symmetry_space_group_name_H-M "P N N M"
_symmetry_group_IT_number 58
_symmetry_cell_setting 'orthorhombic'
loop_
_space_group_symop_operation_xyz
x,y,z
-x,-y,z
1/2+x,1/2-y,1/2-z
1/2-x,1/2+y,1/2-z
-x,-y,-z
x,y,-z
1/2-x,1/2+y,1/2+z
1/2+x,1/2-y,1/2+z
loop_
_atom_site_type_symbol
_atom_site_label
_atom_site_fract_x
_atom_site_fract_y
_atom_site_fract_z
Si Si1 0.088748 0.114782 0.189337
Si Si2 0.615411 0.960978 0.192951
Si Si3 0.963914 0.313313 0.813798
Si Si4 0.562018 0.599084 0.184071
Si Si5 0.172254 0.863818 0.686557
Si Si6 0.192399 0.076655 0.813399
Si Si7 0.791832 0.361003 0.694106
Si Si8 0.561001 0.163353 0.812126
O O1 0.142020 0.108384 0.253233
O O2 0.071015 0.228199 0.228041
O O3 0.059344 0.019846 0.261592
O O4 0.089521 0.097780 0.000000
O O5 0.582760 0.868717 0.254505
O O6 0.668385 0.941541 0.244471
O O7 0.593545 0.069787 0.244514
O O8 0.613946 0.957444 0.000000
O O9 0.962508 0.190331 0.780312
O O10 0.007407 0.361256 0.721410
O O11 0.969660 0.331274 0.000000
O O12 0.616808 0.626045 0.199100
O O13 0.548151 0.608032 0.000000
O O14 0.183923 0.879693 0.500000
O O15 0.189480 0.751855 0.735593
O O16 0.194344 0.953988 0.789865
O O17 0.239890 0.121842 0.744549
O O18 0.191168 0.103470 0.000000
O O19 0.790052 0.366636 0.500000
O O20 0.568233 0.176851 0.000000
#
# Coordination Sequence:
#
# PCOD9442579 Si02
#       8
#     8   8   8   8   8   8   8   8
#     4  10  21  38  57  84 122 157 191 240 298 348
#     4  10  21  40  62  84 114 154 201 244 283 342
#     4  12  24  38  60  89 119 150 189 242 304 355
#     4  10  19  36  62  86 111 149 196 241 282 342
#     4   9  17  32  55  78 107 145 187 233 280 331
#     4   9  19  34  55  82 115 151 186 230 289 345
#     4   9  17  34  58  83 110 149 192 233 284 338
#     4  11  24  40  60  84 115 158 202 240 286 350
#
# _framework density 20.388013000000001
#
# number of rings (size 3 to 8) (size 9 to 14) (size 15 to 20)
#    0.000    2.000    1.250    2.625    0.000    5.000 
#    0.000    3.750    0.000    0.000    0.000    0.000 
#    0.000    0.000    0.000    0.000    0.000    0.000 
#
# Total GULP energy -357358.524206 kJ/mol
# GULP energy per Si atom -5583.726941 kJ/mol
# Density = 2.034161 g / cm^3
# Si number density = 20.388013 Si / 1000 Ang^3
#
#
#
# Elastic Constant Matrix: (Units=GPa)
#
#
# Indices 1 2 3 4 5 6 
#
# 1 63.2167 10.3392 -5.0091 0.0000 0.0000 0.0000
# 2 10.3392 73.3326 -0.7433 0.0000 0.0000 0.0000
# 3 -5.0091 -0.7433 12.1686 0.0000 0.0000 0.0000
# 4 0.0000 0.0000 0.0000 24.8231 0.0000 0.0000
# 5 0.0000 0.0000 0.0000 0.0000 12.1647 0.0000
# 6 0.0000 0.0000 0.0000 0.0000 0.0000 21.3654
#
#
#
# Elastic Compliance Matrix: (Units=1/GPa)
#
#
# Indices 1 2 3 4 5 6 
#
# 1 0.016728 -0.002290 0.006746 0.000000 0.000000 0.000000
# 2 -0.002290 0.013958 -0.000090 0.000000 0.000000 0.000000
# 3 0.006746 -0.000090 0.084950 0.000000 0.000000 0.000000
# 4 0.000000 0.000000 0.000000 0.040285 0.000000 0.000000
# 5 0.000000 0.000000 0.000000 0.000000 0.082205 0.000000
# 6 0.000000 0.000000 0.000000 0.000000 0.000000 0.046805
#
#
# Mechanical properties :
#
#
# Convention : Reuss Voigt Hill
#
# Bulk Modulus (GPa) = 8.04065 17.54349 12.79207
# Shear Modulus (GPa) = 15.74033 21.27939 18.50986
#
# Velocity S-wave (km/s) = 2.78157 3.23417 3.01637
# Velocity P-wave (km/s) = 3.77738 4.75079 4.29177
#
# Compressibility (1/GPa) = 0.12436801
#
# Stress axis : x y z
#
# Youngs Moduli (GPa) = 59.78117 71.64113 11.77160
#
# Poissons Ratio (x) = 0.16406 -0.07941
# Poissons Ratio (y) = 0.13690 0.00106
# Poissons Ratio (z) = -0.40328 0.00645
#
# Static dielectric constant tensor:
#      x y z
#    x 1.745260 0.000000 0.000000 
#    y 0.000000 1.704140 0.000000 
#    z 0.000000 0.000000 1.697290 
# 
# From -- ./inp_files/11048.got.cif
#   From: 2010.05.17/outbox.cif.g08.bks.cpg/sg58_6_cif.got.tgz:11048.got - 2010.06.03 14:20:14.
