data_PCOD9442082
_publ_section_title
;
Structure prediction by ZEFSAII (Michael W. Deem and Ramdas Pophale) SiO2 
 PCOD9442082
Probable space group: P N N M
;
_chemical_formula_sum "Si O2"
_cell_formula_units_Z 56
_cell_length_a 24.477819
_cell_length_b 13.702926
_cell_length_c 9.010070
_cell_angle_alpha 90.000000
_cell_angle_beta 90.000000
_cell_angle_gamma 90.000000
_cell_volume 3022.137338
_symmetry_space_group_name_H-M "P N N M"
_symmetry_group_IT_number 58
_symmetry_cell_setting 'orthorhombic'
loop_
_space_group_symop_operation_xyz
x,y,z
-x,-y,z
1/2+x,1/2-y,1/2-z
1/2-x,1/2+y,1/2-z
-x,-y,-z
x,y,-z
1/2-x,1/2+y,1/2+z
1/2+x,1/2-y,1/2+z
loop_
_atom_site_type_symbol
_atom_site_label
_atom_site_fract_x
_atom_site_fract_y
_atom_site_fract_z
Si Si1 0.659332 0.743781 0.177637
Si Si2 0.335420 0.030510 0.823235
Si Si3 0.943304 0.782644 0.177990
Si Si4 0.119359 0.051714 0.677209
Si Si5 0.555838 0.054259 0.678947
Si Si6 0.769649 0.059518 0.677059
Si Si7 0.561505 0.630082 0.322318
O O1 0.673088 0.855027 0.212037
O O2 0.707243 0.667037 0.213497
O O3 0.605697 0.708021 0.263885
O O4 0.649035 0.734707 0.000000
O O5 0.391771 0.995417 0.751378
O O6 0.284891 0.969391 0.760546
O O7 0.338456 0.020549 0.000000
O O8 0.896057 0.843605 0.257671
O O9 0.945422 0.668823 0.218041
O O10 0.001088 0.833185 0.216123
O O11 0.936329 0.789580 0.000000
O O12 0.113627 0.050236 0.500000
O O13 0.180361 0.014083 0.713382
O O14 0.078451 0.971910 0.748063
O O15 0.560008 0.047165 0.500000
O O16 0.500000 0.000000 0.723716
O O17 0.760335 0.055095 0.500000
O O18 0.564952 0.620588 0.500000
#
# Coordination Sequence:
#
# PCOD9442082 Si02
#       7
#     8   8   8   8   8   8   8
#     4   9  20  38  57  79 110 147 185 229 280 329
#     4  11  23  38  59  86 112 141 182 231 281 330
#     4  10  21  35  54  82 114 148 186 229 275 325
#     4  10  21  36  55  82 115 149 185 227 277 329
#     4  10  22  41  61  81 110 148 187 226 273 330
#     4   9  20  39  58  78 108 146 186 225 270 329
#     4  10  19  33  56  84 112 146 190 230 267 323
#
# _framework density 18.529933
#
# number of rings (size 3 to 8) (size 9 to 14) (size 15 to 20)
#    0.000    2.143    0.000    3.429    0.000   10.000 
#    0.000    4.286    0.000    0.000    0.000    0.000 
#    0.000    0.000    0.000    0.000    0.000    0.000 
#
# Total GULP energy -312797.122905 kJ/mol
# GULP energy per Si atom -5585.662909 kJ/mol
# Density = 1.848776 g / cm^3
# Si number density = 18.529933 Si / 1000 Ang^3
#
#
#
# Elastic Constant Matrix: (Units=GPa)
#
#
# Indices 1 2 3 4 5 6 
#
# 1 139.7246 85.2869 51.2818 0.0000 0.0000 0.0000
# 2 85.2869 108.9073 41.1692 0.0000 0.0000 0.0000
# 3 51.2818 41.1692 28.8113 0.0000 0.0000 0.0000
# 4 0.0000 0.0000 0.0000 37.9103 0.0000 0.0000
# 5 0.0000 0.0000 0.0000 0.0000 26.9260 0.0000
# 6 0.0000 0.0000 0.0000 0.0000 0.0000 15.8019
#
#
#
# Elastic Compliance Matrix: (Units=1/GPa)
#
#
# Indices 1 2 3 4 5 6 
#
# 1 0.021946 -0.005263 -0.031542 0.000000 0.000000 0.000000
# 2 -0.005263 0.021230 -0.020969 0.000000 0.000000 0.000000
# 3 -0.031542 -0.020969 0.120814 0.000000 0.000000 0.000000
# 4 0.000000 0.000000 0.000000 0.026378 0.000000 0.000000
# 5 0.000000 0.000000 0.000000 0.000000 0.037139 0.000000
# 6 0.000000 0.000000 0.000000 0.000000 0.000000 0.063283
#
#
# Mechanical properties :
#
#
# Convention : Reuss Voigt Hill
#
# Bulk Modulus (GPa) = 20.64300 70.32433 45.48367
# Shear Modulus (GPa) = 11.83474 22.77467 17.30471
#
# Velocity S-wave (km/s) = 2.52996 3.50962 3.05926
# Velocity P-wave (km/s) = 4.43833 7.37952 6.08918
#
# Compressibility (1/GPa) = 0.04844256
#
# Stress axis : x y z
#
# Youngs Moduli (GPa) = 45.56720 47.10284 8.27718
#
# Poissons Ratio (x) = 0.24788 0.26108
# Poissons Ratio (y) = 0.23980 0.17357
# Poissons Ratio (z) = 1.43727 0.98772
#
# Static dielectric constant tensor:
#      x y z
#    x 1.606570 0.000000 0.000000 
#    y 0.000000 1.641290 0.000000 
#    z 0.000000 0.000000 1.616640 
# 
# From -- ./inp_files/9030.got.cif
#   From: 2010.05.17/outbox.cif.g08.bks.cpg/sg58_5_cif.got.tgz:9030.got - 2010.06.03 14:20:14.
