data_PCOD9442282
_publ_section_title
;
Structure prediction by ZEFSAII (Michael W. Deem and Ramdas Pophale) SiO2 
 PCOD9442282
Probable space group: P N N M
;
_chemical_formula_sum "Si O2"
_cell_formula_units_Z 48
_cell_length_a 18.234821
_cell_length_b 16.794775
_cell_length_c 8.868333
_cell_angle_alpha 90.000000
_cell_angle_beta 90.000000
_cell_angle_gamma 90.000000
_cell_volume 2715.924461
_symmetry_space_group_name_H-M "P N N M"
_symmetry_group_IT_number 58
_symmetry_cell_setting 'orthorhombic'
loop_
_space_group_symop_operation_xyz
x,y,z
-x,-y,z
1/2+x,1/2-y,1/2-z
1/2-x,1/2+y,1/2-z
-x,-y,-z
x,y,-z
1/2-x,1/2+y,1/2+z
1/2+x,1/2-y,1/2+z
loop_
_atom_site_type_symbol
_atom_site_label
_atom_site_fract_x
_atom_site_fract_y
_atom_site_fract_z
Si Si1 0.171697 0.835224 0.178612
Si Si2 0.470453 0.413440 0.180893
Si Si3 0.170183 0.354074 0.820479
Si Si4 0.947424 0.752632 0.680012
Si Si5 0.410091 0.171377 0.320708
Si Si6 0.912794 0.495121 0.680017
O O1 0.104564 0.888962 0.237667
O O2 0.246512 0.853035 0.264280
O O3 0.146189 0.743864 0.204339
O O4 0.181570 0.846592 0.000000
O O5 0.500000 0.500000 0.224581
O O6 0.529320 0.343505 0.212638
O O7 0.457905 0.413048 0.000000
O O8 0.126612 0.277834 0.755736
O O9 0.128783 0.431125 0.754198
O O10 0.166387 0.354846 0.000000
O O11 0.943041 0.741924 0.500000
O O12 0.013873 0.699119 0.744323
O O13 0.421059 0.162173 0.500000
O O14 0.386179 0.088580 0.247788
O O15 0.903191 0.497275 0.500000
O O16 0.000000 0.500000 0.712052
#
# Coordination Sequence:
#
# PCOD9442282 Si02
#       6
#     8   8   8   8   8   8
#     4  10  22  40  60  84 117 153 191 239 291 340
#     4   9  19  38  63  88 114 151 195 238 285 341
#     4  12  24  38  58  84 117 154 194 239 290 345
#     4  10  19  34  58  84 113 149 188 234 286 340
#     4  10  20  36  59  85 112 149 191 231 279 342
#     4  11  22  36  59  88 118 152 189 235 288 343
#
# _framework density 17.673539999999999
#
# number of rings (size 3 to 8) (size 9 to 14) (size 15 to 20)
#    0.000    1.667    1.667    3.500    0.000    3.667 
#    3.000    0.000    0.000    0.000    0.000    0.000 
#    0.000    0.000    0.000    0.000    0.000    0.000 
#
# Total GULP energy -268156.890631 kJ/mol
# GULP energy per Si atom -5586.601888 kJ/mol
# Density = 1.763331 g / cm^3
# Si number density = 17.673540 Si / 1000 Ang^3
#
#
#
# Elastic Constant Matrix: (Units=GPa)
#
#
# Indices 1 2 3 4 5 6 
#
# 1 114.5537 72.2856 76.0571 0.0000 0.0000 0.0000
# 2 72.2856 132.2193 73.2293 0.0000 0.0000 0.0000
# 3 76.0571 73.2293 106.8524 0.0000 0.0000 0.0000
# 4 0.0000 0.0000 0.0000 28.7076 0.0000 0.0000
# 5 0.0000 0.0000 0.0000 0.0000 29.1649 0.0000
# 6 0.0000 0.0000 0.0000 0.0000 0.0000 17.0215
#
#
#
# Elastic Compliance Matrix: (Units=1/GPa)
#
#
# Indices 1 2 3 4 5 6 
#
# 1 0.018031 -0.004431 -0.009797 0.000000 0.000000 0.000000
# 2 -0.004431 0.013279 -0.005947 0.000000 0.000000 0.000000
# 3 -0.009797 -0.005947 0.020408 0.000000 0.000000 0.000000
# 4 0.000000 0.000000 0.000000 0.034834 0.000000 0.000000
# 5 0.000000 0.000000 0.000000 0.000000 0.034288 0.000000
# 6 0.000000 0.000000 0.000000 0.000000 0.000000 0.058749
#
#
# Mechanical properties :
#
#
# Convention : Reuss Voigt Hill
#
# Bulk Modulus (GPa) = 87.97035 88.52994 88.25014
# Shear Modulus (GPa) = 22.34859 23.78234 23.06547
#
# Velocity S-wave (km/s) = 3.55987 3.67229 3.61651
# Velocity P-wave (km/s) = 8.17191 8.25721 8.21467
#
# Compressibility (1/GPa) = 0.01136747
#
# Stress axis : x y z
#
# Youngs Moduli (GPa) = 55.46147 75.30508 49.00142
#
# Poissons Ratio (x) = 0.33370 0.48007
# Poissons Ratio (y) = 0.24577 0.29139
# Poissons Ratio (z) = 0.54336 0.44780
#
# Static dielectric constant tensor:
#      x y z
#    x 1.570770 0.000000 0.000000 
#    y 0.000000 1.601930 0.000000 
#    z 0.000000 0.000000 1.586760 
# 
# From -- ./inp_files/7833.got.cif
#   From: 2010.05.17/outbox.cif.g08.bks.cpg/sg58_4_cif.got.tgz:7833.got - 2010.06.03 14:20:14.
