data_PCOD9442146
_publ_section_title
;
Structure prediction by ZEFSAII (Michael W. Deem and Ramdas Pophale) SiO2 
 PCOD9442146
Probable space group: P N N M
;
_chemical_formula_sum "Si O2"
_cell_formula_units_Z 64
_cell_length_a 23.789282
_cell_length_b 19.644394
_cell_length_c 8.656432
_cell_angle_alpha 90.000000
_cell_angle_beta 90.000000
_cell_angle_gamma 90.000000
_cell_volume 4045.375988
_symmetry_space_group_name_H-M "P N N M"
_symmetry_group_IT_number 58
_symmetry_cell_setting 'orthorhombic'
loop_
_space_group_symop_operation_xyz
x,y,z
-x,-y,z
1/2+x,1/2-y,1/2-z
1/2-x,1/2+y,1/2-z
-x,-y,-z
x,y,-z
1/2-x,1/2+y,1/2+z
1/2+x,1/2-y,1/2+z
loop_
_atom_site_type_symbol
_atom_site_label
_atom_site_fract_x
_atom_site_fract_y
_atom_site_fract_z
Si Si1 0.335263 0.778531 0.812863
Si Si2 0.748749 0.001204 0.684752
Si Si3 0.122789 0.504440 0.315173
Si Si4 0.065234 0.640210 0.816309
Si Si5 0.266422 0.651509 0.813120
Si Si6 0.721949 0.642325 0.684967
Si Si7 0.340699 0.231948 0.816013
Si Si8 0.940879 0.636321 0.686470
O O1 0.316533 0.702670 0.766786
O O2 0.283364 0.827614 0.767992
O O3 0.394396 0.808672 0.760266
O O4 0.337112 0.780109 0.000000
O O5 0.750829 0.007244 0.500000
O O6 0.683917 0.002123 0.739027
O O7 0.780119 0.065027 0.759624
O O8 0.772794 0.927125 0.729604
O O9 0.130130 0.507727 0.500000
O O10 0.092084 0.572025 0.256622
O O11 0.085433 0.437959 0.280321
O O12 0.102120 0.703078 0.754979
O O13 0.000855 0.645180 0.764322
O O14 0.069815 0.636069 0.000000
O O15 0.209440 0.682265 0.742081
O O16 0.260673 0.655235 0.000000
O O17 0.718504 0.646334 0.500000
O O18 0.676642 0.693248 0.757762
O O19 0.343258 0.230174 0.000000
O O20 0.947424 0.641041 0.500000
#
# Coordination Sequence:
#
# PCOD9442146 Si02
#       8
#     8   8   8   8   8   8   8   8
#     4   8  15  31  51  70  94 129 168 204 250 298
#     4  11  20  30  49  78 108 137 170 206 249 302
#     4  11  21  34  50  71 101 138 178 214 250 296
#     4  12  24  36  49  70 100 137 174 214 257 303
#     4   9  18  32  51  74 103 135 165 206 254 304
#     4  10  19  34  53  73 101 135 168 208 257 304
#     4  11  21  34  52  74  98 130 171 214 255 304
#     4  10  20  35  52  71  96 135 178 214 250 300
#
# _framework density 15.820532
#
# number of rings (size 3 to 8) (size 9 to 14) (size 15 to 20)
#    0.000    1.750    2.500    4.500    0.000    3.000 
#    0.000    0.625    0.000    0.000    0.000    0.875 
#    0.000    7.000    0.000    0.000    0.000    0.000 
#
# Total GULP energy -357259.167025 kJ/mol
# GULP energy per Si atom -5582.174485 kJ/mol
# Density = 1.578452 g / cm^3
# Si number density = 15.820532 Si / 1000 Ang^3
#
#
#
# Elastic Constant Matrix: (Units=GPa)
#
#
# Indices 1 2 3 4 5 6 
#
# 1 61.8987 40.2127 9.1921 0.0000 0.0000 0.0000
# 2 40.2127 114.8547 21.3161 0.0000 0.0000 0.0000
# 3 9.1921 21.3161 27.0713 0.0000 0.0000 0.0000
# 4 0.0000 0.0000 0.0000 24.6451 0.0000 0.0000
# 5 0.0000 0.0000 0.0000 0.0000 21.6699 0.0000
# 6 0.0000 0.0000 0.0000 0.0000 0.0000 19.2746
#
#
#
# Elastic Compliance Matrix: (Units=1/GPa)
#
#
# Indices 1 2 3 4 5 6 
#
# 1 0.020969 -0.007050 -0.001568 0.000000 0.000000 0.000000
# 2 -0.007050 0.012567 -0.007502 0.000000 0.000000 0.000000
# 3 -0.001568 -0.007502 0.043379 0.000000 0.000000 0.000000
# 4 0.000000 0.000000 0.000000 0.040576 0.000000 0.000000
# 5 0.000000 0.000000 0.000000 0.000000 0.046147 0.000000
# 6 0.000000 0.000000 0.000000 0.000000 0.000000 0.051882
#
#
# Mechanical properties :
#
#
# Convention : Reuss Voigt Hill
#
# Bulk Modulus (GPa) = 22.38442 38.36295 30.37369
# Shear Modulus (GPa) = 19.03661 21.99151 20.51406
#
# Velocity S-wave (km/s) = 3.47260 3.73240 3.60484
# Velocity P-wave (km/s) = 5.50076 6.54797 6.04707
#
# Compressibility (1/GPa) = 0.04467392
#
# Stress axis : x y z
#
# Youngs Moduli (GPa) = 47.69020 79.57112 23.05273
#
# Poissons Ratio (x) = 0.56101 0.03616
# Poissons Ratio (y) = 0.33624 0.17293
# Poissons Ratio (z) = 0.07480 0.59691
#
# Static dielectric constant tensor:
#      x y z
#    x 1.503670 0.000000 0.000000 
#    y 0.000000 1.539370 0.000000 
#    z 0.000000 0.000000 1.532070 
# 
# From -- ./inp_files/8494.got.cif
#   From: 2010.05.17/outbox.cif.g08.bks.cpg/sg58_5_cif.got.tgz:8494.got - 2010.06.03 14:20:14.
