data_PCOD9442011
_publ_section_title
;
Structure prediction by ZEFSAII (Michael W. Deem and Ramdas Pophale) SiO2 
 PCOD9442011
Probable space group: P N N M
;
_chemical_formula_sum "Si O2"
_cell_formula_units_Z 64
_cell_length_a 19.254051
_cell_length_b 20.502061
_cell_length_c 8.381048
_cell_angle_alpha 90.000000
_cell_angle_beta 90.000000
_cell_angle_gamma 90.000000
_cell_volume 3308.399657
_symmetry_space_group_name_H-M "P N N M"
_symmetry_group_IT_number 58
_symmetry_cell_setting 'orthorhombic'
loop_
_space_group_symop_operation_xyz
x,y,z
-x,-y,z
1/2+x,1/2-y,1/2-z
1/2-x,1/2+y,1/2-z
-x,-y,-z
x,y,-z
1/2-x,1/2+y,1/2+z
1/2+x,1/2-y,1/2+z
loop_
_atom_site_type_symbol
_atom_site_label
_atom_site_fract_x
_atom_site_fract_y
_atom_site_fract_z
Si Si1 0.455074 0.562748 0.307106
Si Si2 0.318053 0.741457 0.193286
Si Si3 0.052302 0.817795 0.805382
Si Si4 0.792491 0.148222 0.806851
Si Si5 0.555025 0.053412 0.809389
Si Si6 0.803558 0.906873 0.308065
Si Si7 0.709613 0.022929 0.690960
Si Si8 0.036745 0.301065 0.809139
O O1 0.500000 0.500000 0.259153
O O2 0.450483 0.562646 0.500000
O O3 0.496414 0.627651 0.256624
O O4 0.377851 0.563443 0.239415
O O5 0.258194 0.792413 0.239068
O O6 0.302031 0.667973 0.248934
O O7 0.391045 0.767194 0.259043
O O8 0.322315 0.741158 0.000000
O O9 0.129174 0.837456 0.752232
O O10 0.024975 0.746989 0.754220
O O11 0.053385 0.817892 0.000000
O O12 0.760344 0.081460 0.742702
O O13 0.792963 0.144340 0.000000
O O14 0.632687 0.037078 0.753121
O O15 0.534830 0.126139 0.756971
O O16 0.500000 0.000000 0.748407
O O17 0.554895 0.051584 0.000000
O O18 0.799333 0.904863 0.500000
O O19 0.742691 0.954756 0.250501
O O20 0.706764 0.021497 0.500000
O O21 0.034611 0.304658 0.000000
#
# Coordination Sequence:
#
# PCOD9442011 Si02
#       8
#     8   8   8   8   8   8   8   8
#     4  10  19  33  54  80 113 153 198 243 287 345
#     4  10  20  36  59  84 114 158 202 238 291 357
#     4   9  19  34  55  88 119 151 198 245 292 351
#     4  10  20  37  61  85 115 157 202 242 294 360
#     4  11  25  44  65  89 119 158 205 249 303 368
#     4  10  22  37  55  84 120 157 196 240 292 350
#     4  11  23  39  60  89 124 157 201 251 300 355
#     4  11  21  37  63  90 121 155 197 252 301 351
#
# _framework density 19.3447
#
# number of rings (size 3 to 8) (size 9 to 14) (size 15 to 20)
#    0.000    1.750    2.500    1.875    0.000    4.250 
#    0.000    4.375    0.000    0.000    0.000    0.000 
#    0.000    0.000    0.000    0.000    0.000    0.000 
#
# Total GULP energy -357531.700262 kJ/mol
# GULP energy per Si atom -5586.432817 kJ/mol
# Density = 1.930067 g / cm^3
# Si number density = 19.344700 Si / 1000 Ang^3
#
#
#
# Elastic Constant Matrix: (Units=GPa)
#
#
# Indices 1 2 3 4 5 6 
#
# 1 114.6124 65.1259 16.0131 0.0000 0.0000 0.0000
# 2 65.1259 171.9178 22.9366 0.0000 0.0000 0.0000
# 3 16.0131 22.9366 14.2196 0.0000 0.0000 0.0000
# 4 0.0000 0.0000 0.0000 852.0492 0.0000 0.0000
# 5 0.0000 0.0000 0.0000 0.0000 -3.2500 0.0000
# 6 0.0000 0.0000 0.0000 0.0000 0.0000 41.5844
#
#
#
# Elastic Compliance Matrix: (Units=1/GPa)
#
#
# Indices 1 2 3 4 5 6 
#
# 1 0.011746 -0.003421 -0.007709 0.000000 0.000000 0.000000
# 2 -0.003421 0.008408 -0.009710 0.000000 0.000000 0.000000
# 3 -0.007709 -0.009710 0.094670 0.000000 0.000000 0.000000
# 4 0.000000 0.000000 0.000000 0.001174 0.000000 0.000000
# 5 0.000000 0.000000 0.000000 0.000000 -0.307689 0.000000
# 6 0.000000 0.000000 0.000000 0.000000 0.000000 0.024047
#
#
# Mechanical properties :
#
#
# Convention : Reuss Voigt Hill
#
# Bulk Modulus (GPa) = 13.67182 56.54458 35.10820
# Shear Modulus (GPa) = -49.22149 191.18833 70.98342
#
# Velocity S-wave (km/s) = -5.04972 9.95223 6.06413
# Velocity P-wave (km/s) = 5.18813 12.70260 8.19876
#
# Compressibility (1/GPa) = 0.07314315
#
# Stress axis : x y z
#
# Youngs Moduli (GPa) = 85.13432 118.93144 10.56304
#
# Poissons Ratio (x) = 0.40688 0.08143
# Poissons Ratio (y) = 0.29126 0.10257
# Poissons Ratio (z) = 0.65633 1.15483
#
# Static dielectric constant tensor:
#      x y z
#    x 1.647290 0.000000 0.000000 
#    y 0.000000 1.676680 0.000000 
#    z 0.000000 0.000000 1.670070 
# 
# From -- ./inp_files/9225.got.cif
#   From: 2010.05.17/outbox.cif.g08.bks.cpg/sg58_5_cif.got.tgz:9225.got - 2010.06.03 14:20:14.
