data_PCOD9442136
_publ_section_title
;
Structure prediction by ZEFSAII (Michael W. Deem and Ramdas Pophale) SiO2 
 PCOD9442136
Probable space group: P N N M
;
_chemical_formula_sum "Si O2"
_cell_formula_units_Z 56
_cell_length_a 14.048792
_cell_length_b 14.702390
_cell_length_c 14.053164
_cell_angle_alpha 90.000000
_cell_angle_beta 90.000000
_cell_angle_gamma 90.000000
_cell_volume 2902.692534
_symmetry_space_group_name_H-M "P N N M"
_symmetry_group_IT_number 58
_symmetry_cell_setting 'orthorhombic'
loop_
_space_group_symop_operation_xyz
x,y,z
-x,-y,z
1/2+x,1/2-y,1/2-z
1/2-x,1/2+y,1/2-z
-x,-y,-z
x,y,-z
1/2-x,1/2+y,1/2+z
1/2+x,1/2-y,1/2+z
loop_
_atom_site_type_symbol
_atom_site_label
_atom_site_fract_x
_atom_site_fract_y
_atom_site_fract_z
Si Si1 0.291499 0.954614 0.810012
Si Si2 0.459539 0.908608 0.298472
Si Si3 0.515001 0.689059 0.888233
Si Si4 0.904446 0.261380 0.113619
Si Si5 0.078076 0.928118 0.782826
Si Si6 0.076537 0.611805 0.389045
Si Si7 0.305044 0.754001 0.111905
O O1 0.347771 0.923123 0.714433
O O2 0.182172 0.971127 0.787515
O O3 0.298467 0.863029 0.873659
O O4 0.339246 0.044017 0.856909
O O5 0.512054 0.824913 0.346410
O O6 0.494722 0.907533 0.188143
O O7 0.500000 0.000000 0.344798
O O8 0.553871 0.610181 0.821780
O O9 0.583131 0.778503 0.880228
O O10 0.407550 0.717045 0.853478
O O11 0.510250 0.665961 0.000000
O O12 0.922719 0.159948 0.149784
O O13 0.796224 0.285497 0.149174
O O14 0.903991 0.265710 0.000000
O O15 0.000000 0.000000 0.812660
O O16 0.052357 0.594919 0.500000
O O17 0.306476 0.735887 0.000000
#
# Coordination Sequence:
#
# PCOD9442136 Si02
#       7
#     8   8   8   8   8   8   8
#     4  10  20  34  56  87 120 157 197 247 305 361
#     4  10  20  35  57  90 121 153 195 246 308 359
#     4  10  20  37  62  91 119 154 198 252 312 359
#     4  10  21  39  59  84 124 166 204 247 294 362
#     4  11  24  42  60  83 121 167 208 249 297 366
#     4  10  19  33  59  93 122 145 190 257 313 354
#     4   9  17  31  58  88 116 153 199 244 298 358
#
# _framework density 19.292432999999999
#
# number of rings (size 3 to 8) (size 9 to 14) (size 15 to 20)
#    0.000    2.000    2.857    0.429    0.000    6.286 
#    2.571    0.714    0.000    0.857    0.000    0.000 
#    0.000    0.000    0.000    0.000    0.000    0.000 
#
# Total GULP energy -311906.278499 kJ/mol
# GULP energy per Si atom -5569.754973 kJ/mol
# Density = 1.924852 g / cm^3
# Si number density = 19.292433 Si / 1000 Ang^3
#
#
#
# Elastic Constant Matrix: (Units=GPa)
#
#
# Indices 1 2 3 4 5 6 
#
# 1 127.2397 37.5167 31.8413 0.0000 0.0000 0.0000
# 2 37.5167 47.0494 11.8309 0.0000 0.0000 0.0000
# 3 31.8413 11.8309 58.3897 0.0000 0.0000 0.0000
# 4 0.0000 0.0000 0.0000 6.9290 0.0000 0.0000
# 5 0.0000 0.0000 0.0000 0.0000 10.4394 0.0000
# 6 0.0000 0.0000 0.0000 0.0000 0.0000 29.2184
#
#
#
# Elastic Compliance Matrix: (Units=1/GPa)
#
#
# Indices 1 2 3 4 5 6 
#
# 1 0.011330 -0.007882 -0.004581 0.000000 0.000000 0.000000
# 2 -0.007882 0.027879 -0.001350 0.000000 0.000000 0.000000
# 3 -0.004581 -0.001350 0.019898 0.000000 0.000000 0.000000
# 4 0.000000 0.000000 0.000000 0.144320 0.000000 0.000000
# 5 0.000000 0.000000 0.000000 0.000000 0.095791 0.000000
# 6 0.000000 0.000000 0.000000 0.000000 0.000000 0.034225
#
#
# Mechanical properties :
#
#
# Convention : Reuss Voigt Hill
#
# Bulk Modulus (GPa) = 31.76714 43.89518 37.83116
# Shear Modulus (GPa) = 13.45665 19.41671 16.43668
#
# Velocity S-wave (km/s) = 2.64391 3.17589 2.92203
# Velocity P-wave (km/s) = 5.08155 6.02082 5.57102
#
# Compressibility (1/GPa) = 0.03147907
#
# Stress axis : x y z
#
# Youngs Moduli (GPa) = 88.26355 35.86920 50.25576
#
# Poissons Ratio (x) = 0.28273 0.23024
# Poissons Ratio (y) = 0.69571 0.06787
# Poissons Ratio (z) = 0.40436 0.04844
#
# Static dielectric constant tensor:
#      x y z
#    x 1.741520 0.000000 0.000000 
#    y 0.000000 1.697120 0.000000 
#    z 0.000000 0.000000 1.675850 
# 
# From -- ./inp_files/21278.got.cif
#   From: 2010.05.17/outbox.cif.g08.bks.cpg/sg58_11_cif.got.tgz:21278.got - 2010.06.03 14:20:14.
