data_PCOD9442345
_publ_section_title
;
Structure prediction by ZEFSAII (Michael W. Deem and Ramdas Pophale) SiO2 
 PCOD9442345
Probable space group: P N N M
;
_chemical_formula_sum "Si O2"
_cell_formula_units_Z 64
_cell_length_a 19.458785
_cell_length_b 8.893399
_cell_length_c 20.920892
_cell_angle_alpha 90.000000
_cell_angle_beta 90.000000
_cell_angle_gamma 90.000000
_cell_volume 3620.459506
_symmetry_space_group_name_H-M "P N N M"
_symmetry_group_IT_number 58
_symmetry_cell_setting 'orthorhombic'
loop_
_space_group_symop_operation_xyz
x,y,z
-x,-y,z
1/2+x,1/2-y,1/2-z
1/2-x,1/2+y,1/2-z
-x,-y,-z
x,y,-z
1/2-x,1/2+y,1/2+z
1/2+x,1/2-y,1/2+z
loop_
_atom_site_type_symbol
_atom_site_label
_atom_site_fract_x
_atom_site_fract_y
_atom_site_fract_z
Si Si1 0.291550 0.931749 0.198845
Si Si2 0.930448 0.575632 0.866177
Si Si3 0.662301 0.589866 0.617217
Si Si4 0.430515 0.065356 0.223896
Si Si5 0.058697 0.125074 0.070051
Si Si6 0.926894 0.083965 0.247551
Si Si7 0.700307 0.424519 0.809754
Si Si8 0.300595 0.078101 0.425687
O O1 0.237095 0.953389 0.142470
O O2 0.303303 0.753158 0.205920
O O3 0.254955 0.998654 0.261684
O O4 0.362124 0.017599 0.187694
O O5 0.923528 0.514327 0.793984
O O6 0.942090 0.752814 0.874102
O O7 0.861741 0.532105 0.903648
O O8 0.000000 0.500000 0.892643
O O9 0.629417 0.465810 0.572408
O O10 0.612238 0.591742 0.679241
O O11 0.668630 0.754891 0.587416
O O12 0.436156 0.243155 0.232252
O O13 0.500000 0.000000 0.194677
O O14 0.049309 0.197791 0.000000
O O15 0.000000 0.000000 0.077221
O O16 0.873002 0.000354 0.294905
O O17 0.000000 0.000000 0.244482
O O18 0.734443 0.440162 0.879690
O O19 0.284705 0.059864 0.500000
#
# Coordination Sequence:
#
# PCOD9442345 Si02
#       8
#     8   8   8   8   8   8   8   8
#     4  10  19  35  53  80 109 142 180 233 280 333
#     4  11  23  35  51  74 107 144 190 230 272 318
#     4  10  21  34  56  79 110 145 185 225 279 327
#     4  11  22  35  54  81 110 142 181 223 284 345
#     4  11  24  37  51  74 108 152 195 229 267 317
#     4  11  22  36  57  83 113 143 181 233 296 346
#     4  10  21  35  56  82 110 146 188 230 290 330
#     4  11  21  38  57  79 114 152 195 230 270 330
#
# _framework density 17.677315
#
# number of rings (size 3 to 8) (size 9 to 14) (size 15 to 20)
#    0.000    1.375    2.500    4.125    8.750    3.000 
#    0.000    0.000    0.000    0.375    0.000    0.000 
#    0.000   17.000    0.000    0.000    0.000    0.000 
#
# Total GULP energy -357436.480864 kJ/mol
# GULP energy per Si atom -5584.945014 kJ/mol
# Density = 1.763708 g / cm^3
# Si number density = 17.677315 Si / 1000 Ang^3
#
#
#
# Elastic Constant Matrix: (Units=GPa)
#
#
# Indices 1 2 3 4 5 6 
#
# 1 120.3690 36.0293 11.3936 0.0000 0.0000 0.0000
# 2 36.0293 79.3250 4.7704 0.0000 0.0000 0.0000
# 3 11.3936 4.7704 32.2507 0.0000 0.0000 0.0000
# 4 0.0000 0.0000 0.0000 10.3466 0.0000 0.0000
# 5 0.0000 0.0000 0.0000 0.0000 26.7844 0.0000
# 6 0.0000 0.0000 0.0000 0.0000 0.0000 31.6107
#
#
#
# Elastic Compliance Matrix: (Units=1/GPa)
#
#
# Indices 1 2 3 4 5 6 
#
# 1 0.009868 -0.004311 -0.002848 0.000000 0.000000 0.000000
# 2 -0.004311 0.014603 -0.000637 0.000000 0.000000 0.000000
# 3 -0.002848 -0.000637 0.032108 0.000000 0.000000 0.000000
# 4 0.000000 0.000000 0.000000 0.096650 0.000000 0.000000
# 5 0.000000 0.000000 0.000000 0.000000 0.037335 0.000000
# 6 0.000000 0.000000 0.000000 0.000000 0.000000 0.031635
#
#
# Mechanical properties :
#
#
# Convention : Reuss Voigt Hill
#
# Bulk Modulus (GPa) = 24.39884 37.37014 30.88449
# Shear Modulus (GPa) = 19.88450 25.73178 22.80814
#
# Velocity S-wave (km/s) = 3.35753 3.81942 3.59590
# Velocity P-wave (km/s) = 5.37243 6.37469 5.89490
#
# Compressibility (1/GPa) = 0.04098555
#
# Stress axis : x y z
#
# Youngs Moduli (GPa) = 101.34105 68.48122 31.14524
#
# Poissons Ratio (x) = 0.29519 0.08872
# Poissons Ratio (y) = 0.43684 0.01984
# Poissons Ratio (z) = 0.28867 0.04363
#
# Static dielectric constant tensor:
#      x y z
#    x 1.616970 0.000000 0.000000 
#    y 0.000000 1.640940 0.000000 
#    z 0.000000 0.000000 1.598210 
# 
# From -- ./inp_files/30294.got.cif
#   From: 2010.05.17/outbox.cif.g08.bks.cpg/sg58_16_cif.got.tgz:30294.got - 2010.06.03 14:20:14.
