data_PCOD9442051
_publ_section_title
;
Structure prediction by ZEFSAII (Michael W. Deem and Ramdas Pophale) SiO2 
 PCOD9442051
Probable space group: P N N M
;
_chemical_formula_sum "Si O2"
_cell_formula_units_Z 64
_cell_length_a 20.880988
_cell_length_b 16.908799
_cell_length_c 8.991715
_cell_angle_alpha 90.000000
_cell_angle_beta 90.000000
_cell_angle_gamma 90.000000
_cell_volume 3174.726656
_symmetry_space_group_name_H-M "P N N M"
_symmetry_group_IT_number 58
_symmetry_cell_setting 'orthorhombic'
loop_
_space_group_symop_operation_xyz
x,y,z
-x,-y,z
1/2+x,1/2-y,1/2-z
1/2-x,1/2+y,1/2-z
-x,-y,-z
x,y,-z
1/2-x,1/2+y,1/2+z
1/2+x,1/2-y,1/2+z
loop_
_atom_site_type_symbol
_atom_site_label
_atom_site_fract_x
_atom_site_fract_y
_atom_site_fract_z
Si Si1 0.106529 0.766537 0.321530
Si Si2 0.333483 0.948221 0.175852
Si Si3 0.723597 0.337188 0.332304
Si Si4 0.366880 0.776107 0.827149
Si Si5 0.648690 0.888464 0.675655
Si Si6 0.301690 0.402613 0.176867
Si Si7 0.112641 0.029465 0.830516
Si Si8 0.521969 0.352173 0.824242
O O1 0.102212 0.757668 0.500000
O O2 0.106571 0.681503 0.245603
O O3 0.171361 0.815264 0.287469
O O4 0.046690 0.820507 0.274448
O O5 0.361374 0.025258 0.254631
O O6 0.374982 0.868992 0.199410
O O7 0.262816 0.927701 0.239081
O O8 0.327599 0.963707 0.000000
O O9 0.749350 0.328897 0.500000
O O10 0.687996 0.258739 0.277929
O O11 0.779080 0.364703 0.222997
O O12 0.668751 0.404148 0.333405
O O13 0.429081 0.721730 0.807086
O O14 0.346625 0.766839 0.000000
O O15 0.641963 0.890891 0.500000
O O16 0.358446 0.461618 0.226862
O O17 0.291568 0.408415 0.000000
O O18 0.051256 0.074362 0.764541
O O19 0.102391 0.002243 0.000000
O O20 0.519499 0.372007 0.000000
#
# Coordination Sequence:
#
# PCOD9442051 Si02
#       8
#     8   8   8   8   8   8   8   8
#     4  10  23  41  60  83 114 154 195 239 288 339
#     4  11  22  37  57  85 117 146 183 236 291 344
#     4  10  19  33  55  82 114 148 183 226 284 342
#     4   9  19  35  59  86 111 146 192 237 282 337
#     4  12  24  37  57  82 112 150 189 234 289 347
#     4  11  22  36  57  86 118 151 189 233 286 347
#     4  10  20  34  56  85 117 154 188 233 284 334
#     4   9  19  39  62  83 113 153 199 241 280 338
#
# _framework density 20.159215
#
# number of rings (size 3 to 8) (size 9 to 14) (size 15 to 20)
#    0.000    1.750    1.250    3.375    0.000    6.000 
#    0.000    3.125    0.000    3.750    0.000    0.000 
#    0.000    0.000    0.000    0.000    0.000    0.000 
#
# Total GULP energy -357729.120767 kJ/mol
# GULP energy per Si atom -5589.517512 kJ/mol
# Density = 2.011333 g / cm^3
# Si number density = 20.159215 Si / 1000 Ang^3
#
#
#
# Elastic Constant Matrix: (Units=GPa)
#
#
# Indices 1 2 3 4 5 6 
#
# 1 36.2950 -6.3956 1.8489 0.0000 0.0000 0.0000
# 2 -6.3956 72.5720 16.0720 0.0000 0.0000 0.0000
# 3 1.8489 16.0720 48.3019 0.0000 0.0000 0.0000
# 4 0.0000 0.0000 0.0000 23.6367 0.0000 0.0000
# 5 0.0000 0.0000 0.0000 0.0000 22.6678 0.0000
# 6 0.0000 0.0000 0.0000 0.0000 0.0000 22.9289
#
#
#
# Elastic Compliance Matrix: (Units=1/GPa)
#
#
# Indices 1 2 3 4 5 6 
#
# 1 0.028175 0.002938 -0.002056 0.000000 0.000000 0.000000
# 2 0.002938 0.015182 -0.005164 0.000000 0.000000 0.000000
# 3 -0.002056 -0.005164 0.022500 0.000000 0.000000 0.000000
# 4 0.000000 0.000000 0.000000 0.042307 0.000000 0.000000
# 5 0.000000 0.000000 0.000000 0.000000 0.044115 0.000000
# 6 0.000000 0.000000 0.000000 0.000000 0.000000 0.043613
#
#
# Mechanical properties :
#
#
# Convention : Reuss Voigt Hill
#
# Bulk Modulus (GPa) = 17.45425 20.02442 18.73933
# Shear Modulus (GPa) = 22.36596 23.55624 22.96110
#
# Velocity S-wave (km/s) = 3.33448 3.42206 3.37855
# Velocity P-wave (km/s) = 4.84788 5.05655 4.95331
#
# Compressibility (1/GPa) = 0.05729264
#
# Stress axis : x y z
#
# Youngs Moduli (GPa) = 35.49304 65.86735 44.44417
#
# Poissons Ratio (x) = -0.19354 0.09139
# Poissons Ratio (y) = -0.10429 0.22952
# Poissons Ratio (z) = 0.07298 0.34015
#
# Static dielectric constant tensor:
#      x y z
#    x 1.711730 0.000000 0.000000 
#    y 0.000000 1.732790 0.000000 
#    z 0.000000 0.000000 1.679250 
# 
# From -- ./inp_files/9943.got.cif
#   From: 2010.05.17/outbox.cif.g08.bks.cpg/sg58_5_cif.got.tgz:9943.got - 2010.06.03 14:20:14.
