data_PCOD9442784
_publ_section_title
;
Structure prediction by ZEFSAII (Michael W. Deem and Ramdas Pophale) SiO2 
 PCOD9442784
Probable space group: P N N M
;
_chemical_formula_sum "Si O2"
_cell_formula_units_Z 64
_cell_length_a 23.943801
_cell_length_b 19.811945
_cell_length_c 7.725067
_cell_angle_alpha 90.000000
_cell_angle_beta 90.000000
_cell_angle_gamma 90.000000
_cell_volume 3664.565282
_symmetry_space_group_name_H-M "P N N M"
_symmetry_group_IT_number 58
_symmetry_cell_setting 'orthorhombic'
loop_
_space_group_symop_operation_xyz
x,y,z
-x,-y,z
1/2+x,1/2-y,1/2-z
1/2-x,1/2+y,1/2-z
-x,-y,-z
x,y,-z
1/2-x,1/2+y,1/2+z
1/2+x,1/2-y,1/2+z
loop_
_atom_site_type_symbol
_atom_site_label
_atom_site_fract_x
_atom_site_fract_y
_atom_site_fract_z
Si Si1 0.058863 0.154900 0.699740
Si Si2 0.736302 0.487979 0.796337
Si Si3 0.267848 0.157787 0.289238
Si Si4 0.158303 0.243159 0.711476
Si Si5 0.890905 0.985481 0.200522
Si Si6 0.225639 0.368673 0.291420
Si Si7 0.834925 0.217425 0.211150
Si Si8 0.565819 0.626708 0.703089
O O1 0.048693 0.171554 0.500000
O O2 0.100465 0.211534 0.774383
O O3 0.091367 0.083680 0.709490
O O4 0.998421 0.146012 0.781857
O O5 0.765736 0.419551 0.731867
O O6 0.675610 0.496276 0.710181
O O7 0.772472 0.555049 0.771599
O O8 0.724839 0.479340 0.000000
O O9 0.269816 0.157685 0.500000
O O10 0.209418 0.193612 0.240072
O O11 0.317078 0.207798 0.229600
O O12 0.156781 0.242631 0.500000
O O13 0.176408 0.318216 0.766201
O O14 0.920778 0.052198 0.275419
O O15 0.907850 0.976934 0.000000
O O16 0.224673 0.370226 0.500000
O O17 0.283798 0.332206 0.241162
O O18 0.892085 0.183602 0.273339
O O19 0.836137 0.220216 0.000000
O O20 0.579947 0.620356 0.500000
#
# Coordination Sequence:
#
# PCOD9442784 Si02
#       8
#     8   8   8   8   8   8   8   8
#     4  11  21  33  48  68  92 123 158 195 233 268
#     4  11  19  28  46  73 100 121 148 191 239 275
#     4   8  14  26  46  67  88 116 150 187 226 274
#     4   8  15  29  48  66  87 119 157 187 222 275
#     4  11  21  33  46  64  94 130 165 190 217 268
#     4   9  16  30  50  67  87 121 157 186 222 279
#     4   8  14  28  48  65  84 118 159 187 217 270
#     4  10  20  33  47  65  89 123 161 192 220 265
#
# _framework density 17.464554
#
# number of rings (size 3 to 8) (size 9 to 14) (size 15 to 20)
#    0.000    2.500    2.500    3.000    0.000    2.500 
#    0.000    1.250    0.000    1.500    0.000    0.875 
#    0.000    7.000    0.000    0.000    0.000    0.000 
#
# Total GULP energy -356825.303240 kJ/mol
# GULP energy per Si atom -5575.395363 kJ/mol
# Density = 1.742480 g / cm^3
# Si number density = 17.464554 Si / 1000 Ang^3
#
#
#
# Elastic Constant Matrix: (Units=GPa)
#
#
# Indices 1 2 3 4 5 6 
#
# 1 57.3601 36.0788 -2.9318 0.0000 0.0000 0.0000
# 2 36.0788 114.6419 -2.6455 0.0000 0.0000 0.0000
# 3 -2.9318 -2.6455 25.0693 0.0000 0.0000 0.0000
# 4 0.0000 0.0000 0.0000 18.2863 0.0000 0.0000
# 5 0.0000 0.0000 0.0000 0.0000 18.6922 0.0000
# 6 0.0000 0.0000 0.0000 0.0000 0.0000 20.9669
#
#
#
# Elastic Compliance Matrix: (Units=1/GPa)
#
#
# Indices 1 2 3 4 5 6 
#
# 1 0.021820 -0.006825 0.001832 0.000000 0.000000 0.000000
# 2 -0.006825 0.010879 0.000350 0.000000 0.000000 0.000000
# 3 0.001832 0.000350 0.040141 0.000000 0.000000 0.000000
# 4 0.000000 0.000000 0.000000 0.054686 0.000000 0.000000
# 5 0.000000 0.000000 0.000000 0.000000 0.053498 0.000000
# 6 0.000000 0.000000 0.000000 0.000000 0.000000 0.047694
#
#
# Mechanical properties :
#
#
# Convention : Reuss Voigt Hill
#
# Bulk Modulus (GPa) = 15.73497 28.67493 22.20495
# Shear Modulus (GPa) = 19.29102 22.69374 20.99238
#
# Velocity S-wave (km/s) = 3.32713 3.60865 3.47075
# Velocity P-wave (km/s) = 4.87739 5.81530 5.36687
#
# Compressibility (1/GPa) = 0.06355272
#
# Stress axis : x y z
#
# Youngs Moduli (GPa) = 45.82962 91.92301 24.91249
#
# Poissons Ratio (x) = 0.62734 -0.04563
# Poissons Ratio (y) = 0.31277 -0.00872
# Poissons Ratio (z) = -0.08394 -0.03216
#
# Static dielectric constant tensor:
#      x y z
#    x 1.571280 0.000000 0.000000 
#    y 0.000000 1.618070 0.000000 
#    z 0.000000 0.000000 1.645730 
# 
# From -- ./inp_files/9394.got.cif
#   From: 2010.05.17/outbox.cif.g08.bks.cpg/sg58_5_cif.got.tgz:9394.got - 2010.06.03 14:20:14.
