data_PCOD9442191
_publ_section_title
;
Structure prediction by ZEFSAII (Michael W. Deem and Ramdas Pophale) SiO2 
 PCOD9442191
Probable space group: P N N M
;
_chemical_formula_sum "Si O2"
_cell_formula_units_Z 40
_cell_length_a 19.985038
_cell_length_b 6.877861
_cell_length_c 11.855577
_cell_angle_alpha 90.000000
_cell_angle_beta 90.000000
_cell_angle_gamma 90.000000
_cell_volume 1629.600197
_symmetry_space_group_name_H-M "P N N M"
_symmetry_group_IT_number 58
_symmetry_cell_setting 'orthorhombic'
loop_
_space_group_symop_operation_xyz
x,y,z
-x,-y,z
1/2+x,1/2-y,1/2-z
1/2-x,1/2+y,1/2-z
-x,-y,-z
x,y,-z
1/2-x,1/2+y,1/2+z
1/2+x,1/2-y,1/2+z
loop_
_atom_site_type_symbol
_atom_site_label
_atom_site_fract_x
_atom_site_fract_y
_atom_site_fract_z
Si Si1 0.763875 0.896818 0.616745
Si Si2 0.330640 0.796675 0.308847
Si Si3 0.936094 0.633915 0.373625
Si Si4 0.422445 0.433835 0.624343
Si Si5 0.087760 0.922486 0.374508
O O1 0.762829 0.778190 0.500000
O O2 0.701906 0.040186 0.616393
O O3 0.834083 0.013925 0.617756
O O4 0.769082 0.779087 0.731715
O O5 0.381013 0.894638 0.220324
O O6 0.371870 0.619324 0.364344
O O7 0.910503 0.600300 0.500000
O O8 0.000000 0.500000 0.356458
O O9 0.949687 0.866310 0.367919
O O10 0.500000 0.500000 0.620153
O O11 0.409198 0.340730 0.500000
O O12 0.417236 0.332350 0.748292
O O13 0.073098 0.834716 0.500000
#
# Coordination Sequence:
#
# PCOD9442191 Si02
#       5
#     8   8   8   8   8
#     4   9  18  35  56  80 111 144 185 232 277 332
#     4  10  19  34  56  78 109 145 181 225 279 334
#     4   8  14  28  50  74 102 134 172 220 268 318
#     4   9  17  30  50  76 105 137 177 221 266 323
#     4   8  16  31  52  76 101 134 176 221 268 321
#
# _framework density 24.545898999999999
#
# number of rings (size 3 to 8) (size 9 to 14) (size 15 to 20)
#    0.000    3.600    0.000    2.400    0.000    0.400 
#    0.000   18.000    0.000   39.000    0.000    0.000 
#    0.000    0.000    0.000    0.000    0.000    0.000 
#
# Total GULP energy -222994.066481 kJ/mol
# GULP energy per Si atom -5574.851662 kJ/mol
# Density = 2.449003 g / cm^3
# Si number density = 24.545899 Si / 1000 Ang^3
#
#
#
# Elastic Constant Matrix: (Units=GPa)
#
#
# Indices 1 2 3 4 5 6 
#
# 1 73.0193 38.8446 29.8345 0.0000 0.0000 0.0000
# 2 38.8446 81.5741 25.1543 0.0000 0.0000 0.0000
# 3 29.8345 25.1543 230.7697 0.0000 0.0000 0.0000
# 4 0.0000 0.0000 0.0000 -996.2160 0.0000 0.0000
# 5 0.0000 0.0000 0.0000 0.0000 107.8491 0.0000
# 6 0.0000 0.0000 0.0000 0.0000 0.0000 44.0609
#
#
#
# Elastic Compliance Matrix: (Units=1/GPa)
#
#
# Indices 1 2 3 4 5 6 
#
# 1 0.018835 -0.008504 -0.001508 0.000000 0.000000 0.000000
# 2 -0.008504 0.016525 -0.000702 0.000000 0.000000 0.000000
# 3 -0.001508 -0.000702 0.004605 0.000000 0.000000 0.000000
# 4 0.000000 0.000000 0.000000 -0.001004 0.000000 0.000000
# 5 0.000000 0.000000 0.000000 0.000000 0.009272 0.000000
# 6 0.000000 0.000000 0.000000 0.000000 0.000000 0.022696
#
#
# Mechanical properties :
#
#
# Convention : Reuss Voigt Hill
#
# Bulk Modulus (GPa) = 53.94675 63.66998 58.80836
# Shear Modulus (GPa) = 50.74303 -149.42588 -49.34142
#
# Velocity S-wave (km/s) = 4.55166 -7.81078 -4.48836
# Velocity P-wave (km/s) = 7.04621 7.43968 1.68817
#
# Compressibility (1/GPa) = 0.01853680
#
# Stress axis : x y z
#
# Youngs Moduli (GPa) = 53.09224 60.51542 217.16498
#
# Poissons Ratio (x) = 0.51462 0.32751
# Poissons Ratio (y) = 0.45150 0.15241
# Poissons Ratio (z) = 0.08007 0.04247
#
# Static dielectric constant tensor:
#      x y z
#    x 2.002330 0.000000 0.000000 
#    y 0.000000 1.952680 0.000000 
#    z 0.000000 0.000000 1.993890 
# 
# From -- ./inp_files/12709.got.cif
#   From: 2010.05.17/outbox.cif.g08.bks.cpg/sg58_7_cif.got.tgz:12709.got - 2010.06.03 14:20:14.
