data_PCOD9442929
_publ_section_title
;
Structure prediction by ZEFSAII (Michael W. Deem and Ramdas Pophale) SiO2 
 PCOD9442929
Probable space group: P N N M
;
_chemical_formula_sum "Si O2"
_cell_formula_units_Z 64
_cell_length_a 22.085285
_cell_length_b 16.866475
_cell_length_c 9.061861
_cell_angle_alpha 90.000000
_cell_angle_beta 90.000000
_cell_angle_gamma 90.000000
_cell_volume 3375.551445
_symmetry_space_group_name_H-M "P N N M"
_symmetry_group_IT_number 58
_symmetry_cell_setting 'orthorhombic'
loop_
_space_group_symop_operation_xyz
x,y,z
-x,-y,z
1/2+x,1/2-y,1/2-z
1/2-x,1/2+y,1/2-z
-x,-y,-z
x,y,-z
1/2-x,1/2+y,1/2+z
1/2+x,1/2-y,1/2+z
loop_
_atom_site_type_symbol
_atom_site_label
_atom_site_fract_x
_atom_site_fract_y
_atom_site_fract_z
Si Si1 0.496273 0.904014 0.831839
Si Si2 0.872050 0.588707 0.173704
Si Si3 0.042284 0.079612 0.330948
Si Si4 0.857366 0.008530 0.832265
Si Si5 0.253693 0.375451 0.322096
Si Si6 0.441381 0.333663 0.667715
Si Si7 0.163322 0.744387 0.325484
Si Si8 0.620216 0.898726 0.328856
O O1 0.432760 0.883399 0.756374
O O2 0.552612 0.881724 0.729883
O O3 0.500000 0.000000 0.839820
O O4 0.501721 0.873973 0.000000
O O5 0.812385 0.620052 0.253269
O O6 0.870098 0.492704 0.185486
O O7 0.873781 0.608550 0.000000
O O8 0.046329 0.105577 0.500000
O O9 0.006445 0.143156 0.232567
O O10 0.107442 0.054436 0.267479
O O11 0.000000 0.000000 0.328540
O O12 0.794082 0.046736 0.780513
O O13 0.902357 0.084699 0.838144
O O14 0.850743 0.978881 0.000000
O O15 0.252862 0.372349 0.500000
O O16 0.288599 0.299668 0.257504
O O17 0.444744 0.303269 0.500000
O O18 0.401868 0.278667 0.773889
O O19 0.170138 0.750335 0.500000
O O20 0.164667 0.654344 0.269108
O O21 0.626325 0.876926 0.500000
#
# Coordination Sequence:
#
# PCOD9442929 Si02
#       8
#     8   8   8   8   8   8   8   8
#     4   9  17  31  53  81 109 135 167 209 258 310
#     4  10  20  34  55  82 110 141 177 218 264 316
#     4   9  15  22  36  59  85 115 154 202 251 295
#     4   8  15  26  40  60  87 122 161 201 247 298
#     4  10  20  34  52  75 106 143 182 222 266 318
#     4   9  16  27  42  61  89 124 162 204 253 304
#     4  11  21  33  51  76 106 139 179 223 269 321
#     4  10  20  35  55  80 110 141 175 217 268 321
#
# _framework density 18.959864
#
# number of rings (size 3 to 8) (size 9 to 14) (size 15 to 20)
#    0.000    2.500    0.000    4.125    0.000    8.000 
#    0.000    0.000    0.000    1.500    0.000    7.000 
#    0.000    0.000    0.000    0.000    0.000    0.000 
#
# Total GULP energy -356980.736271 kJ/mol
# GULP energy per Si atom -5577.824004 kJ/mol
# Density = 1.891671 g / cm^3
# Si number density = 18.959864 Si / 1000 Ang^3
#
#
#
# Elastic Constant Matrix: (Units=GPa)
#
#
# Indices 1 2 3 4 5 6 
#
# 1 68.8861 5.5433 17.4193 0.0000 0.0000 0.0000
# 2 5.5433 18.6212 9.2341 0.0000 0.0000 0.0000
# 3 17.4193 9.2341 91.8194 0.0000 0.0000 0.0000
# 4 0.0000 0.0000 0.0000 12.6795 0.0000 0.0000
# 5 0.0000 0.0000 0.0000 0.0000 26.1877 0.0000
# 6 0.0000 0.0000 0.0000 0.0000 0.0000 9.6281
#
#
#
# Elastic Compliance Matrix: (Units=1/GPa)
#
#
# Indices 1 2 3 4 5 6 
#
# 1 0.015439 -0.003309 -0.002596 0.000000 0.000000 0.000000
# 2 -0.003309 0.057230 -0.005128 0.000000 0.000000 0.000000
# 3 -0.002596 -0.005128 0.011899 0.000000 0.000000 0.000000
# 4 0.000000 0.000000 0.000000 0.078867 0.000000 0.000000
# 5 0.000000 0.000000 0.000000 0.000000 0.038186 0.000000
# 6 0.000000 0.000000 0.000000 0.000000 0.000000 0.103863
#
#
# Mechanical properties :
#
#
# Convention : Reuss Voigt Hill
#
# Bulk Modulus (GPa) = 15.99921 27.08002 21.53961
# Shear Modulus (GPa) = 14.35195 19.50773 16.92984
#
# Velocity S-wave (km/s) = 2.75428 3.21112 2.99144
# Velocity P-wave (km/s) = 4.30947 5.29738 4.82876
#
# Compressibility (1/GPa) = 0.06250308
#
# Stress axis : x y z
#
# Youngs Moduli (GPa) = 64.76897 17.47339 84.03926
#
# Poissons Ratio (x) = 0.05781 0.21819
# Poissons Ratio (y) = 0.21429 0.43094
# Poissons Ratio (z) = 0.16816 0.08960
#
# Static dielectric constant tensor:
#      x y z
#    x 1.649490 0.000000 0.000000 
#    y 0.000000 1.690570 0.000000 
#    z 0.000000 0.000000 1.636960 
# 
# From -- ./inp_files/9293.got.cif
#   From: 2010.05.17/outbox.cif.g08.bks.cpg/sg58_5_cif.got.tgz:9293.got - 2010.06.03 14:20:14.
