data_PCOD9442815
_publ_section_title
;
Structure prediction by ZEFSAII (Michael W. Deem and Ramdas Pophale) SiO2 
 PCOD9442815
Probable space group: P N N M
;
_chemical_formula_sum "Si O2"
_cell_formula_units_Z 48
_cell_length_a 9.543335
_cell_length_b 32.831259
_cell_length_c 8.744651
_cell_angle_alpha 90.000000
_cell_angle_beta 90.000000
_cell_angle_gamma 90.000000
_cell_volume 2739.871455
_symmetry_space_group_name_H-M "P N N M"
_symmetry_group_IT_number 58
_symmetry_cell_setting 'orthorhombic'
loop_
_space_group_symop_operation_xyz
x,y,z
-x,-y,z
1/2+x,1/2-y,1/2-z
1/2-x,1/2+y,1/2-z
-x,-y,-z
x,y,-z
1/2-x,1/2+y,1/2+z
1/2+x,1/2-y,1/2+z
loop_
_atom_site_type_symbol
_atom_site_label
_atom_site_fract_x
_atom_site_fract_y
_atom_site_fract_z
Si Si1 0.088307 0.038453 0.186100
Si Si2 0.915183 0.459764 0.684459
Si Si3 0.091639 0.127473 0.817079
Si Si4 0.578919 0.786338 0.316513
Si Si5 0.594236 0.876109 0.316862
Si Si6 0.092582 0.211867 0.317796
O O1 0.251863 0.035394 0.230028
O O2 0.031798 0.083286 0.230945
O O3 0.085595 0.037563 0.000000
O O4 0.000000 0.000000 0.242192
O O5 0.920044 0.455850 0.500000
O O6 0.972117 0.417859 0.756633
O O7 0.000000 0.500000 0.728326
O O8 0.252668 0.125413 0.760902
O O9 0.033962 0.169331 0.748681
O O10 0.087545 0.129917 0.000000
O O11 0.571046 0.781591 0.500000
O O12 0.527133 0.832259 0.278957
O O13 0.743387 0.784137 0.272250
O O14 0.492155 0.750733 0.239134
O O15 0.610852 0.877766 0.500000
O O16 0.088860 0.209233 0.500000
#
# Coordination Sequence:
#
# PCOD9442815 Si02
#       6
#     8   8   8   8   8   8
#     4   8  14  26  45  67  89 116 151 188 225 267
#     4   9  17  29  46  68  92 120 156 193 231 280
#     4   9  16  28  48  69  92 124 158 192 233 282
#     4   9  19  34  50  71  97 125 160 198 238 287
#     4   9  17  30  48  69  94 123 158 196 234 284
#     4  10  20  33  51  74  98 126 161 200 241 286
#
# _framework density 17.519069999999999
#
# number of rings (size 3 to 8) (size 9 to 14) (size 15 to 20)
#    0.000    3.000    0.000    3.500    0.000    4.333 
#    0.000    1.667    0.000   16.500    0.000    0.000 
#    0.000    0.000    0.000    0.000    0.000    0.000 
#
# Total GULP energy -267204.032224 kJ/mol
# GULP energy per Si atom -5566.750671 kJ/mol
# Density = 1.747920 g / cm^3
# Si number density = 17.519070 Si / 1000 Ang^3
#
#
#
# Elastic Constant Matrix: (Units=GPa)
#
#
# Indices 1 2 3 4 5 6 
#
# 1 34.7207 60.5788 17.9850 0.0000 0.0000 0.0000
# 2 60.5788 226.8313 51.7659 0.0000 0.0000 0.0000
# 3 17.9850 51.7659 30.0146 0.0000 0.0000 0.0000
# 4 0.0000 0.0000 0.0000 30.7774 0.0000 0.0000
# 5 0.0000 0.0000 0.0000 0.0000 14.6384 0.0000
# 6 0.0000 0.0000 0.0000 0.0000 0.0000 31.1957
#
#
#
# Elastic Compliance Matrix: (Units=1/GPa)
#
#
# Indices 1 2 3 4 5 6 
#
# 1 0.056846 -0.012216 -0.012993 0.000000 0.000000 0.000000
# 2 -0.012216 0.009895 -0.009746 0.000000 0.000000 0.000000
# 3 -0.012993 -0.009746 0.057912 0.000000 0.000000 0.000000
# 4 0.000000 0.000000 0.000000 0.032491 0.000000 0.000000
# 5 0.000000 0.000000 0.000000 0.000000 0.068313 0.000000
# 6 0.000000 0.000000 0.000000 0.000000 0.000000 0.032056
#
#
# Mechanical properties :
#
#
# Convention : Reuss Voigt Hill
#
# Bulk Modulus (GPa) = 18.26752 61.35841 39.81297
# Shear Modulus (GPa) = 14.46454 26.07143 20.26799
#
# Velocity S-wave (km/s) = 2.87652 3.86187 3.40503
# Velocity P-wave (km/s) = 4.63491 7.41520 6.18335
#
# Compressibility (1/GPa) = 0.05474198
#
# Stress axis : x y z
#
# Youngs Moduli (GPa) = 17.59133 101.05718 17.26759
#
# Poissons Ratio (x) = 1.23456 0.22436
# Poissons Ratio (y) = 0.21490 0.16829
# Poissons Ratio (z) = 0.22856 0.98493
#
# Static dielectric constant tensor:
#      x y z
#    x 1.587000 0.000000 0.000000 
#    y 0.000000 1.647650 0.000000 
#    z 0.000000 0.000000 1.589340 
# 
# From -- ./inp_files/4334.got.cif
#   From: 2010.05.17/outbox.cif.g08.bks.cpg/sg58_3_cif.got.tgz:4334.got - 2010.06.03 14:20:14.
