data_PCOD9442533
_publ_section_title
;
Structure prediction by ZEFSAII (Michael W. Deem and Ramdas Pophale) SiO2 
 PCOD9442533
Probable space group: P N N M
;
_chemical_formula_sum "Si O2"
_cell_formula_units_Z 64
_cell_length_a 24.814179
_cell_length_b 15.815698
_cell_length_c 7.926914
_cell_angle_alpha 90.000000
_cell_angle_beta 90.000000
_cell_angle_gamma 90.000000
_cell_volume 3110.945628
_symmetry_space_group_name_H-M "P N N M"
_symmetry_group_IT_number 58
_symmetry_cell_setting 'orthorhombic'
loop_
_space_group_symop_operation_xyz
x,y,z
-x,-y,z
1/2+x,1/2-y,1/2-z
1/2-x,1/2+y,1/2-z
-x,-y,-z
x,y,-z
1/2-x,1/2+y,1/2+z
1/2+x,1/2-y,1/2+z
loop_
_atom_site_type_symbol
_atom_site_label
_atom_site_fract_x
_atom_site_fract_y
_atom_site_fract_z
Si Si1 0.363030 0.150170 0.298821
Si Si2 0.438257 0.995759 0.706481
Si Si3 0.366590 0.338329 0.203840
Si Si4 0.366590 0.838329 0.296160
Si Si5 0.938257 0.004241 0.293519
Si Si6 0.363031 0.650171 0.798821
Si Si7 0.750000 0.608933 0.195411
Si Si8 0.750000 0.920836 0.192739
O O1 0.358952 0.143338 0.500000
O O2 0.403567 0.076978 0.239358
O O3 0.381972 0.243711 0.252418
O O4 0.303645 0.132396 0.226878
O O5 0.438599 0.995844 0.500000
O O6 0.500000 0.000000 0.762558
O O7 0.407514 0.910903 0.761878
O O8 0.407514 0.410903 0.261877
O O9 0.306180 0.358141 0.269739
O O10 0.364976 0.343919 0.000000
O O11 0.364975 0.843921 0.500000
O O12 0.381972 0.743712 0.247587
O O13 0.306180 0.858141 0.230260
O O14 0.938599 0.004156 0.500000
O O15 0.903567 0.923022 0.239358
O O16 0.000000 0.000000 0.237441
O O17 0.303646 0.632397 0.726882
O O18 0.358954 0.643341 0.000000
O O19 0.750000 0.507103 0.200765
O O20 0.750000 0.636368 0.000000
O O21 0.750001 0.949001 0.000000
#
# Coordination Sequence:
#
# PCOD9442533 Si02
#       8
#     8   8   8   8   8   8   8   8
#     4  11  22  38  60  87 118 153 194 238 287 344
#     4   9  19  37  60  84 115 158 199 235 284 344
#     4  10  20  36  59  86 119 155 193 236 287 344
#     4  10  20  36  59  86 119 155 193 236 287 344
#     4   9  19  37  60  84 115 158 199 235 284 344
#     4  11  22  38  60  87 118 153 194 238 287 344
#     4  10  19  36  59  84 114 154 191 229 288 349
#     4  12  23  36  59  88 118 150 189 237 292 349
#
# _framework density 20.572523
#
# number of rings (size 3 to 8) (size 9 to 14) (size 15 to 20)
#    0.000    1.750    2.500    2.625    0.000    3.000 
#    0.000    0.000    0.000    5.250    0.000    0.000 
#    0.000    0.000    0.000    0.000    0.000    0.000 
#
# Total GULP energy -357652.092519 kJ/mol
# GULP energy per Si atom -5588.313946 kJ/mol
# Density = 2.052570 g / cm^3
# Si number density = 20.572523 Si / 1000 Ang^3
#
#
#
# Elastic Constant Matrix: (Units=GPa)
#
#
# Indices 1 2 3 4 5 6 
#
# 1 182.0256 98.1091 18.3281 0.0000 0.0000 0.0000
# 2 98.1091 182.4442 -3.2001 0.0000 0.0000 0.0000
# 3 18.3281 -3.2001 25.5164 0.0000 0.0000 0.0000
# 4 0.0000 0.0000 0.0000 20.3993 0.0000 0.0000
# 5 0.0000 0.0000 0.0000 0.0000 -6.4956 0.0000
# 6 0.0000 0.0000 0.0000 0.0000 0.0000 0.0504
#
#
#
# Elastic Compliance Matrix: (Units=1/GPa)
#
#
# Indices 1 2 3 4 5 6 
#
# 1 0.008812 -0.004860 -0.006939 0.000000 0.000000 0.000000
# 2 -0.004860 0.008174 0.004516 0.000000 0.000000 0.000000
# 3 -0.006939 0.004516 0.044741 0.000000 0.000000 0.000000
# 4 0.000000 0.000000 0.000000 0.049021 0.000000 0.000000
# 5 0.000000 0.000000 0.000000 0.000000 -0.153950 0.000000
# 6 0.000000 0.000000 0.000000 0.000000 0.000000 19.845025
#
#
# Mechanical properties :
#
#
# Convention : Reuss Voigt Hill
#
# Bulk Modulus (GPa) = 21.20407 68.49562 44.84984
# Shear Modulus (GPa) = 0.25212 21.24075 10.74643
#
# Velocity S-wave (km/s) = 0.35045 3.21671 2.28802
# Velocity P-wave (km/s) = 3.23931 6.86755 5.36919
#
# Compressibility (1/GPa) = 0.04716076
#
# Stress axis : x y z
#
# Youngs Moduli (GPa) = 113.47978 122.33865 22.35074
#
# Poissons Ratio (x) = 0.59462 0.15510
# Poissons Ratio (y) = 0.55156 -0.10094
# Poissons Ratio (z) = 0.78746 -0.55252
#
# Static dielectric constant tensor:
#      x y z
#    x 1.715050 0.000000 0.000000 
#    y 0.000000 1.706130 0.000000 
#    z 0.000000 0.000000 1.744020 
# 
# From -- ./inp_files/10021.got.cif
#   From: 2010.05.17/outbox.cif.g08.bks.cpg/sg58_6_cif.got.tgz:10021.got - 2010.06.03 14:20:14.
