data_PCOD9442352
_publ_section_title
;
Structure prediction by ZEFSAII (Michael W. Deem and Ramdas Pophale) SiO2 
 PCOD9442352
Probable space group: P N N M
;
_chemical_formula_sum "Si O2"
_cell_formula_units_Z 64
_cell_length_a 20.014308
_cell_length_b 21.045777
_cell_length_c 8.561008
_cell_angle_alpha 90.000000
_cell_angle_beta 90.000000
_cell_angle_gamma 90.000000
_cell_volume 3606.039221
_symmetry_space_group_name_H-M "P N N M"
_symmetry_group_IT_number 58
_symmetry_cell_setting 'orthorhombic'
loop_
_space_group_symop_operation_xyz
x,y,z
-x,-y,z
1/2+x,1/2-y,1/2-z
1/2-x,1/2+y,1/2-z
-x,-y,-z
x,y,-z
1/2-x,1/2+y,1/2+z
1/2+x,1/2-y,1/2+z
loop_
_atom_site_type_symbol
_atom_site_label
_atom_site_fract_x
_atom_site_fract_y
_atom_site_fract_z
Si Si1 0.282659 0.563927 0.687915
Si Si2 0.711541 0.571751 0.185057
Si Si3 0.571145 0.756778 0.185109
Si Si4 0.572502 0.613916 0.686865
Si Si5 0.075750 0.115686 0.189216
Si Si6 0.708255 0.192234 0.186851
Si Si7 0.203549 0.684702 0.812377
Si Si8 0.570644 0.235802 0.313242
O O1 0.281968 0.564344 0.500000
O O2 0.262710 0.495129 0.749866
O O3 0.358868 0.578610 0.742526
O O4 0.236427 0.620366 0.750340
O O5 0.634038 0.579025 0.233917
O O6 0.751181 0.630896 0.257949
O O7 0.717614 0.574131 0.000000
O O8 0.578184 0.688816 0.272431
O O9 0.631192 0.801257 0.240614
O O10 0.498647 0.783225 0.232653
O O11 0.574712 0.745973 0.000000
O O12 0.577580 0.605756 0.500000
O O13 0.498021 0.593542 0.739495
O O14 0.082686 0.190064 0.231810
O O15 0.075068 0.112844 0.000000
O O16 0.749368 0.255574 0.233193
O O17 0.634921 0.196747 0.260549
O O18 0.702939 0.191894 0.000000
O O19 0.199175 0.683324 0.000000
O O20 0.562756 0.233473 0.500000
#
# Coordination Sequence:
#
# PCOD9442352 Si02
#       8
#     8   8   8   8   8   8   8   8
#     4  11  22  39  59  82 114 154 196 240 291 348
#     4  12  25  39  55  81 116 156 197 241 292 346
#     4  11  21  34  56  87 118 151 191 237 288 341
#     4  10  19  35  55  80 112 152 196 239 286 340
#     4   8  17  32  54  80 110 149 190 229 278 338
#     4  11  22  37  60  87 115 150 193 242 290 341
#     4  11  22  37  59  87 117 150 192 242 291 340
#     4  10  19  35  58  86 118 150 187 236 290 343
#
# _framework density 17.748004999999999
#
# number of rings (size 3 to 8) (size 9 to 14) (size 15 to 20)
#    0.000    1.500    2.500    4.875    0.000    1.500 
#    0.000    4.375    0.000    0.750    0.000    5.250 
#    0.000    0.000    0.000    0.000    0.000    0.000 
#
# Total GULP energy -357589.270883 kJ/mol
# GULP energy per Si atom -5587.332358 kJ/mol
# Density = 1.770761 g / cm^3
# Si number density = 17.748005 Si / 1000 Ang^3
#
#
#
# Elastic Constant Matrix: (Units=GPa)
#
#
# Indices 1 2 3 4 5 6 
#
# 1 86.4521 22.8703 10.9095 0.0000 0.0000 0.0000
# 2 22.8703 66.9958 6.1459 0.0000 0.0000 0.0000
# 3 10.9095 6.1459 42.2303 0.0000 0.0000 0.0000
# 4 0.0000 0.0000 0.0000 19.9463 0.0000 0.0000
# 5 0.0000 0.0000 0.0000 0.0000 26.5565 0.0000
# 6 0.0000 0.0000 0.0000 0.0000 0.0000 20.9061
#
#
#
# Elastic Compliance Matrix: (Units=1/GPa)
#
#
# Indices 1 2 3 4 5 6 
#
# 1 0.013024 -0.004193 -0.002754 0.000000 0.000000 0.000000
# 2 -0.004193 0.016478 -0.001315 0.000000 0.000000 0.000000
# 3 -0.002754 -0.001315 0.024583 0.000000 0.000000 0.000000
# 4 0.000000 0.000000 0.000000 0.050135 0.000000 0.000000
# 5 0.000000 0.000000 0.000000 0.000000 0.037656 0.000000
# 6 0.000000 0.000000 0.000000 0.000000 0.000000 0.047833
#
#
# Mechanical properties :
#
#
# Convention : Reuss Voigt Hill
#
# Bulk Modulus (GPa) = 26.62406 30.61441 28.61923
# Shear Modulus (GPa) = 22.85685 23.86529 23.36107
#
# Velocity S-wave (km/s) = 3.59256 3.67096 3.63197
# Velocity P-wave (km/s) = 5.67824 5.93758 5.80936
#
# Compressibility (1/GPa) = 0.03756001
#
# Stress axis : x y z
#
# Youngs Moduli (GPa) = 76.78145 60.68550 40.67921
#
# Poissons Ratio (x) = 0.25447 0.11204
# Poissons Ratio (y) = 0.32197 0.05349
# Poissons Ratio (z) = 0.21148 0.07979
#
# Static dielectric constant tensor:
#      x y z
#    x 1.612310 0.000000 0.000000 
#    y 0.000000 1.588160 0.000000 
#    z 0.000000 0.000000 1.592470 
# 
# From -- ./inp_files/9319.got.cif
#   From: 2010.05.17/outbox.cif.g08.bks.cpg/sg58_5_cif.got.tgz:9319.got - 2010.06.03 14:20:14.
