data_PCOD9442099
_publ_section_title
;
Structure prediction by ZEFSAII (Michael W. Deem and Ramdas Pophale) SiO2 
 PCOD9442099
Probable space group: P N N M
;
_chemical_formula_sum "Si O2"
_cell_formula_units_Z 58
_cell_length_a 4.917949
_cell_length_b 18.244675
_cell_length_c 25.219199
_cell_angle_alpha 90.000000
_cell_angle_beta 90.000000
_cell_angle_gamma 90.000000
_cell_volume 2262.827462
_symmetry_space_group_name_H-M "P N N M"
_symmetry_group_IT_number 58
_symmetry_cell_setting 'orthorhombic'
loop_
_space_group_symop_operation_xyz
x,y,z
-x,-y,z
1/2+x,1/2-y,1/2-z
1/2-x,1/2+y,1/2-z
-x,-y,-z
x,y,-z
1/2-x,1/2+y,1/2+z
1/2+x,1/2-y,1/2+z
loop_
_atom_site_type_symbol
_atom_site_label
_atom_site_fract_x
_atom_site_fract_y
_atom_site_fract_z
Si Si1 0.043757 0.105232 0.696311
Si Si2 0.727401 0.818135 0.436281
Si Si3 0.428616 0.669740 0.564256
Si Si4 0.542810 0.079681 0.767860
Si Si5 0.263894 0.404554 0.090845
Si Si6 0.928638 0.262352 0.283729
Si Si7 0.000000 0.000000 0.500000
Si Si8 0.921024 0.580914 0.564728
O O1 0.847102 0.089890 0.746463
O O2 0.889320 0.072187 0.646504
O O3 0.036360 0.192895 0.684112
O O4 0.337816 0.082370 0.717010
O O5 0.685852 0.826312 0.500000
O O6 0.587510 0.742568 0.418662
O O7 0.547368 0.879855 0.407533
O O8 0.044655 0.835440 0.428029
O O9 0.425506 0.674311 0.500000
O O10 0.127721 0.646103 0.580036
O O11 0.619856 0.602596 0.580987
O O12 0.469017 0.153665 0.799885
O O13 0.500000 0.000000 0.792811
O O14 0.309429 0.463748 0.046127
O O15 0.615975 0.246626 0.269353
O O16 0.924989 0.579828 0.500000
O O17 0.000000 0.500000 0.582175
#
# Coordination Sequence:
#
# PCOD9442099 Si02
#       8
#     8   8   8   8   8   8   2   8
#     4  10  21  37  55  83 115 157 197 239 286 356
#     4  11  21  40  54  72  97 138 198 250 294 340
#     4   9  17  27  46  64  88 123 161 212 264 324
#     4  10  19  33  56  89 121 148 186 233 293 355
#     4  12  25  40  57  75 106 152 203 253 303 343
#     4   8  16  32  54  79 116 150 181 224 278 345
#     4  12  28  42  56  78 112 154 206 262 312 338
#     4   9  15  24  39  68  97 115 137 183 258 337
#
# _framework density 25.631651000000002
#
# number of rings (size 3 to 8) (size 9 to 14) (size 15 to 20)
#    0.000    2.069    1.379    2.483    1.931    4.966 
#    0.000    0.000    0.000    0.000    0.000    5.793 
#    0.000    0.000    0.000    0.138    0.000    0.000 
#
# Total GULP energy -323722.251135 kJ/mol
# GULP energy per Si atom -5581.418123 kJ/mol
# Density = 2.557331 g / cm^3
# Si number density = 25.631651 Si / 1000 Ang^3
#
#
#
# Elastic Constant Matrix: (Units=GPa)
#
#
# Indices 1 2 3 4 5 6 
#
# 1 107.6465 5.3389 0.9365 0.0000 0.0000 0.0000
# 2 5.3389 133.3826 0.4553 0.0000 0.0000 0.0000
# 3 0.9365 0.4553 61.4279 0.0000 0.0000 0.0000
# 4 0.0000 0.0000 0.0000 -84.9259 0.0000 0.0000
# 5 0.0000 0.0000 0.0000 0.0000 6.7374 0.0000
# 6 0.0000 0.0000 0.0000 0.0000 0.0000 35.8669
#
#
#
# Elastic Compliance Matrix: (Units=1/GPa)
#
#
# Indices 1 2 3 4 5 6 
#
# 1 0.009309 -0.000372 -0.000139 0.000000 0.000000 0.000000
# 2 -0.000372 0.007512 -0.000050 0.000000 0.000000 0.000000
# 3 -0.000139 -0.000050 0.016282 0.000000 0.000000 0.000000
# 4 0.000000 0.000000 0.000000 -0.011775 0.000000 0.000000
# 5 0.000000 0.000000 0.000000 0.000000 0.148426 0.000000
# 6 0.000000 0.000000 0.000000 0.000000 0.000000 0.027881
#
#
# Mechanical properties :
#
#
# Convention : Reuss Voigt Hill
#
# Bulk Modulus (GPa) = 31.26884 35.10205 33.18545
# Shear Modulus (GPa) = 23.87565 11.25076 17.56320
#
# Velocity S-wave (km/s) = 3.05534 2.09736 2.62050
# Velocity P-wave (km/s) = 4.96716 4.42603 4.70438
#
# Compressibility (1/GPa) = 0.03198072
#
# Stress axis : x y z
#
# Youngs Moduli (GPa) = 107.41904 133.11512 61.41852
#
# Poissons Ratio (x) = 0.04954 0.00855
# Poissons Ratio (y) = 0.03998 0.00307
# Poissons Ratio (z) = 0.01495 0.00666
#
# Static dielectric constant tensor:
#      x y z
#    x 1.914940 0.000000 0.000000 
#    y 0.000000 2.131640 0.000000 
#    z 0.000000 0.000000 2.004250 
# 
# From -- ./inp_files/34252.got.cif
#   From: 2010.05.17/outbox.cif.g08.bks.cpg/sg58_18_cif.got.tgz:34252.got - 2010.06.03 14:20:14.
