data_PCOD9442100
_publ_section_title
;
Structure prediction by ZEFSAII (Michael W. Deem and Ramdas Pophale) SiO2 
 PCOD9442100
Probable space group: P N N M
;
_chemical_formula_sum "Si O2"
_cell_formula_units_Z 40
_cell_length_a 9.224409
_cell_length_b 18.396759
_cell_length_c 12.545336
_cell_angle_alpha 90.000000
_cell_angle_beta 90.000000
_cell_angle_gamma 90.000000
_cell_volume 2128.933850
_symmetry_space_group_name_H-M "P N N M"
_symmetry_group_IT_number 58
_symmetry_cell_setting 'orthorhombic'
loop_
_space_group_symop_operation_xyz
x,y,z
-x,-y,z
1/2+x,1/2-y,1/2-z
1/2-x,1/2+y,1/2-z
-x,-y,-z
x,y,-z
1/2-x,1/2+y,1/2+z
1/2+x,1/2-y,1/2+z
loop_
_atom_site_type_symbol
_atom_site_label
_atom_site_fract_x
_atom_site_fract_y
_atom_site_fract_z
Si Si1 0.821204 0.355355 0.124642
Si Si2 0.947934 0.603786 0.711028
Si Si3 0.553508 0.420847 0.260020
Si Si4 0.180759 0.817471 0.127152
Si Si5 0.303685 0.027621 0.115081
O O1 0.675186 0.384193 0.183589
O O2 0.839836 0.268653 0.138094
O O3 0.965841 0.387394 0.179630
O O4 0.812273 0.372437 0.000000
O O5 0.840978 0.665908 0.672494
O O6 0.849480 0.531467 0.702736
O O7 0.078383 0.590673 0.627556
O O8 0.500000 0.500000 0.217247
O O9 0.429805 0.365673 0.301042
O O10 0.646046 0.442958 0.364144
O O11 0.169372 0.835188 0.000000
O O12 0.316319 0.992624 0.000000
#
# Coordination Sequence:
#
# PCOD9442100 Si02
#       5
#     8   8   8   8   8
#     4  10  24  42  57  80 118 168 208 237 285 351
#     4  10  19  34  56  82 113 151 186 236 286 348
#     4  11  22  37  61  91 121 150 196 251 300 345
#     4  11  21  37  63  90 120 151 188 246 311 365
#     4  10  19  33  56  90 120 143 181 238 307 358
#
# _framework density 18.788747000000001
#
# number of rings (size 3 to 8) (size 9 to 14) (size 15 to 20)
#    0.000    1.600    2.000    4.200    0.000    1.200 
#    0.000    9.000    0.000    8.400    0.000    0.000 
#    0.000    0.000    0.000    0.000    0.000    0.000 
#
# Total GULP energy -222789.031223 kJ/mol
# GULP energy per Si atom -5569.725781 kJ/mol
# Density = 1.874598 g / cm^3
# Si number density = 18.788747 Si / 1000 Ang^3
#
#
#
# Elastic Constant Matrix: (Units=GPa)
#
#
# Indices 1 2 3 4 5 6 
#
# 1 106.5802 47.0335 50.6592 0.0000 0.0000 0.0000
# 2 47.0335 85.7400 56.9822 0.0000 0.0000 0.0000
# 3 50.6592 56.9822 116.0040 0.0000 0.0000 0.0000
# 4 0.0000 0.0000 0.0000 17.7075 0.0000 0.0000
# 5 0.0000 0.0000 0.0000 0.0000 12.6224 0.0000
# 6 0.0000 0.0000 0.0000 0.0000 0.0000 36.9390
#
#
#
# Elastic Compliance Matrix: (Units=1/GPa)
#
#
# Indices 1 2 3 4 5 6 
#
# 1 0.013164 -0.005049 -0.003269 0.000000 0.000000 0.000000
# 2 -0.005049 0.019253 -0.007252 0.000000 0.000000 0.000000
# 3 -0.003269 -0.007252 0.013610 0.000000 0.000000 0.000000
# 4 0.000000 0.000000 0.000000 0.056473 0.000000 0.000000
# 5 0.000000 0.000000 0.000000 0.000000 0.079224 0.000000
# 6 0.000000 0.000000 0.000000 0.000000 0.000000 0.027072
#
#
# Mechanical properties :
#
#
# Convention : Reuss Voigt Hill
#
# Bulk Modulus (GPa) = 67.17145 68.63045 67.90095
# Shear Modulus (GPa) = 20.41661 23.69707 22.05684
#
# Velocity S-wave (km/s) = 3.30000 3.55524 3.43000
# Velocity P-wave (km/s) = 7.09567 7.31162 7.20445
#
# Compressibility (1/GPa) = 0.01488728
#
# Stress axis : x y z
#
# Youngs Moduli (GPa) = 75.96209 51.94112 73.47444
#
# Poissons Ratio (x) = 0.26225 0.24017
# Poissons Ratio (y) = 0.38354 0.53284
# Poissons Ratio (z) = 0.24831 0.37668
#
# Static dielectric constant tensor:
#      x y z
#    x 1.663270 0.000000 0.000000 
#    y 0.000000 1.704730 0.000000 
#    z 0.000000 0.000000 1.650250 
# 
# From -- ./inp_files/12686.got.cif
#   From: 2010.05.17/outbox.cif.g08.bks.cpg/sg58_7_cif.got.tgz:12686.got - 2010.06.03 14:20:14.
