data_PCOD9442632
_publ_section_title
;
Structure prediction by ZEFSAII (Michael W. Deem and Ramdas Pophale) SiO2 
 PCOD9442632
Probable space group: P N N M
;
_chemical_formula_sum "Si O2"
_cell_formula_units_Z 64
_cell_length_a 14.804064
_cell_length_b 22.999876
_cell_length_c 7.504666
_cell_angle_alpha 90.000000
_cell_angle_beta 90.000000
_cell_angle_gamma 90.000000
_cell_volume 2555.276006
_symmetry_space_group_name_H-M "P N N M"
_symmetry_group_IT_number 58
_symmetry_cell_setting 'orthorhombic'
loop_
_space_group_symop_operation_xyz
x,y,z
-x,-y,z
1/2+x,1/2-y,1/2-z
1/2-x,1/2+y,1/2-z
-x,-y,-z
x,y,-z
1/2-x,1/2+y,1/2+z
1/2+x,1/2-y,1/2+z
loop_
_atom_site_type_symbol
_atom_site_label
_atom_site_fract_x
_atom_site_fract_y
_atom_site_fract_z
Si Si1 0.780732 0.557770 0.285250
Si Si2 0.531139 0.287309 0.781056
Si Si3 0.663939 0.713761 0.199862
Si Si4 0.161011 0.109008 0.708720
Si Si5 0.921159 0.460391 0.213447
Si Si6 0.139449 0.324112 0.295740
Si Si7 0.596959 0.513978 0.299044
Si Si8 0.637548 0.842722 0.708423
O O1 0.775253 0.563765 0.500000
O O2 0.831069 0.497703 0.244057
O O3 0.840726 0.611950 0.216258
O O4 0.676596 0.554394 0.220118
O O5 0.431355 0.306884 0.720903
O O6 0.600625 0.337275 0.728340
O O7 0.570362 0.224348 0.720118
O O8 0.529340 0.285247 0.000000
O O9 0.759091 0.703604 0.294514
O O10 0.642781 0.782354 0.193786
O O11 0.675292 0.690948 0.000000
O O12 0.140065 0.098567 0.500000
O O13 0.141999 0.049496 0.806877
O O14 0.263682 0.128953 0.718191
O O15 0.924205 0.394499 0.280807
O O16 0.000000 0.500000 0.287950
O O17 0.930772 0.455025 0.000000
O O18 0.111522 0.332496 0.500000
O O19 0.500000 0.500000 0.212374
O O20 0.578299 0.535885 0.500000
O O21 0.617817 0.830638 0.500000
#
# Coordination Sequence:
#
# PCOD9442632 Si02
#       8
#     8   8   8   8   8   8   8   8
#     4  10  22  38  59  84 114 155 194 230 281 342
#     4   9  20  38  57  80 112 146 185 232 279 333
#     4  11  23  37  58  88 114 142 186 242 287 326
#     4  10  19  37  62  82 105 148 196 232 275 337
#     4  10  22  39  59  85 118 152 189 238 289 335
#     4  10  21  41  61  79 114 158 191 225 281 349
#     4  10  22  38  55  84 120 148 184 238 288 330
#     4  10  20  38  61  82 111 153 191 229 285 346
#
# _framework density 25.046218
#
# number of rings (size 3 to 8) (size 9 to 14) (size 15 to 20)
#    0.000    2.000    2.500    0.375    3.500    2.000 
#    0.000    1.875    0.000    0.000    0.000    0.000 
#    0.000    0.000    0.000    0.000    0.000    0.000 
#
# Total GULP energy -357599.834396 kJ/mol
# GULP energy per Si atom -5587.497412 kJ/mol
# Density = 2.498921 g / cm^3
# Si number density = 25.046218 Si / 1000 Ang^3
#
#
#
# Elastic Constant Matrix: (Units=GPa)
#
#
# Indices 1 2 3 4 5 6 
#
# 1 79.1644 -16.2801 3.8054 0.0000 0.0000 0.0000
# 2 -16.2801 68.7954 -1.0127 0.0000 0.0000 0.0000
# 3 3.8054 -1.0127 72.9310 0.0000 0.0000 0.0000
# 4 0.0000 0.0000 0.0000 9.6582 0.0000 0.0000
# 5 0.0000 0.0000 0.0000 0.0000-6225.0879 0.0000
# 6 0.0000 0.0000 0.0000 0.0000 0.0000 38.7701
#
#
#
# Elastic Compliance Matrix: (Units=1/GPa)
#
#
# Indices 1 2 3 4 5 6 
#
# 1 0.013309 0.003140 -0.000651 0.000000 0.000000 0.000000
# 2 0.003140 0.015280 0.000048 0.000000 0.000000 0.000000
# 3 -0.000651 0.000048 0.013746 0.000000 0.000000 0.000000
# 4 0.000000 0.000000 0.000000 0.103539 0.000000 0.000000
# 5 0.000000 0.000000 0.000000 0.000000 -0.000161 0.000000
# 6 0.000000 0.000000 0.000000 0.000000 0.000000 0.025793
#
#
# Mechanical properties :
#
#
# Convention : Reuss Voigt Hill
#
# Bulk Modulus (GPa) = 21.09278 21.54623 21.31951
# Shear Modulus (GPa) = 27.43723 -1219.70669 -596.13473
#
# Velocity S-wave (km/s) = 3.31337 -22.09162 -15.44444
# Velocity P-wave (km/s) = 4.80393 25.33966 17.59290
#
# Compressibility (1/GPa) = 0.04740959
#
# Stress axis : x y z
#
# Youngs Moduli (GPa) = 75.13746 65.44671 72.74723
#
# Poissons Ratio (x) = -0.20550 0.04735
# Poissons Ratio (y) = -0.23592 -0.00352
# Poissons Ratio (z) = 0.04890 -0.00316
#
# Static dielectric constant tensor:
#      x y z
#    x 2.029450 0.000000 0.000000 
#    y 0.000000 1.968320 0.000000 
#    z 0.000000 0.000000 1.961190 
# 
# From -- ./inp_files/6804.got.cif
#   From: 2010.05.17/outbox.cif.g08.bks.cpg/sg58_4_cif.got.tgz:6804.got - 2010.06.03 14:20:14.
