data_PCOD9442659
_publ_section_title
;
Structure prediction by ZEFSAII (Michael W. Deem and Ramdas Pophale) SiO2 
 PCOD9442659
Probable space group: P N N M
;
_chemical_formula_sum "Si O2"
_cell_formula_units_Z 32
_cell_length_a 5.360036
_cell_length_b 7.724300
_cell_length_c 35.711814
_cell_angle_alpha 90.000000
_cell_angle_beta 90.000000
_cell_angle_gamma 90.000000
_cell_volume 1478.559310
_symmetry_space_group_name_H-M "P N N M"
_symmetry_group_IT_number 58
_symmetry_cell_setting 'orthorhombic'
loop_
_space_group_symop_operation_xyz
x,y,z
-x,-y,z
1/2+x,1/2-y,1/2-z
1/2-x,1/2+y,1/2-z
-x,-y,-z
x,y,-z
1/2-x,1/2+y,1/2+z
1/2+x,1/2-y,1/2+z
loop_
_atom_site_type_symbol
_atom_site_label
_atom_site_fract_x
_atom_site_fract_y
_atom_site_fract_z
Si Si1 0.750135 0.384256 0.957379
Si Si2 0.142387 0.170613 0.237798
Si Si3 0.755694 0.812921 0.150363
Si Si4 0.245770 0.295844 0.381281
O O1 0.500000 0.500000 0.953767
O O2 0.739177 0.240537 0.925206
O O3 0.000000 0.500000 0.952304
O O4 0.756634 0.315870 0.000000
O O5 0.406853 0.198733 0.258278
O O6 0.216767 0.154809 0.194322
O O7 0.000000 0.000000 0.251766
O O8 0.499448 0.723596 0.138933
O O9 0.000513 0.719737 0.135365
O O10 0.750169 0.000869 0.129849
#
# Coordination Sequence:
#
# PCOD9442659 Si02
#       4
#     8   8   8   8
#     4  10  21  38  59  91 131 166 203 255 313 379
#     4  12  25  44  70  94 130 174 216 277 348 398
#     4  10  21  39  64  83 119 155 208 261 310 373
#     4  10  19  37  65  86 116 168 202 250 318 367
#
# _framework density 21.642690999999999
#
# number of rings (size 3 to 8) (size 9 to 14) (size 15 to 20)
#    0.000    1.500    2.500    3.750    3.500    0.000 
#    0.000   17.500    0.000    0.000    0.000    0.000 
#    0.000    0.000    0.000    0.000    0.000    0.000 
#
# Total GULP energy -178558.147874 kJ/mol
# GULP energy per Si atom -5579.942121 kJ/mol
# Density = 2.159343 g / cm^3
# Si number density = 21.642691 Si / 1000 Ang^3
#
#
#
# Elastic Constant Matrix: (Units=GPa)
#
#
# Indices 1 2 3 4 5 6 
#
# 1 217.6444 23.3893 40.4809 0.0000 0.0000 0.0000
# 2 23.3893 56.3347 42.9285 0.0000 0.0000 0.0000
# 3 40.4809 42.9285 119.4374 0.0000 0.0000 0.0000
# 4 0.0000 0.0000 0.0000 45.4305 0.0000 0.0000
# 5 0.0000 0.0000 0.0000 0.0000 42.9692 0.0000
# 6 0.0000 0.0000 0.0000 0.0000 0.0000 8.8824
#
#
#
# Elastic Compliance Matrix: (Units=1/GPa)
#
#
# Indices 1 2 3 4 5 6 
#
# 1 0.004950 -0.001070 -0.001293 0.000000 0.000000 0.000000
# 2 -0.001070 0.024678 -0.008507 0.000000 0.000000 0.000000
# 3 -0.001293 -0.008507 0.011869 0.000000 0.000000 0.000000
# 4 0.000000 0.000000 0.000000 0.022012 0.000000 0.000000
# 5 0.000000 0.000000 0.000000 0.000000 0.023272 0.000000
# 6 0.000000 0.000000 0.000000 0.000000 0.000000 0.112582
#
#
# Mechanical properties :
#
#
# Convention : Reuss Voigt Hill
#
# Bulk Modulus (GPa) = 50.61698 67.44599 59.03148
# Shear Modulus (GPa) = 21.95981 38.56427 30.26204
#
# Velocity S-wave (km/s) = 3.18882 4.22579 3.74338
# Velocity P-wave (km/s) = 6.08247 7.41895 6.78370
#
# Compressibility (1/GPa) = 0.01975622
#
# Stress axis : x y z
#
# Youngs Moduli (GPa) = 202.01396 40.52203 84.25582
#
# Poissons Ratio (x) = 0.04335 0.10897
# Poissons Ratio (y) = 0.21610 0.71679
# Poissons Ratio (z) = 0.26126 0.34473
#
# Static dielectric constant tensor:
#      x y z
#    x 1.861870 0.000000 0.000000 
#    y 0.000000 1.819000 0.000000 
#    z 0.000000 0.000000 1.752200 
# 
# From -- ./inp_files/33938.got.cif
#   From: 2010.05.17/outbox.cif.g08.bks.cpg/sg58_17_cif.got.tgz:33938.got - 2010.06.03 14:20:14.
