data_PCOD9442230
_publ_section_title
;
Structure prediction by ZEFSAII (Michael W. Deem and Ramdas Pophale) SiO2 
 PCOD9442230
Probable space group: P N N M
;
_chemical_formula_sum "Si O2"
_cell_formula_units_Z 64
_cell_length_a 11.196956
_cell_length_b 35.387660
_cell_length_c 8.805152
_cell_angle_alpha 90.000000
_cell_angle_beta 90.000000
_cell_angle_gamma 90.000000
_cell_volume 3488.901231
_symmetry_space_group_name_H-M "P N N M"
_symmetry_group_IT_number 58
_symmetry_cell_setting 'orthorhombic'
loop_
_space_group_symop_operation_xyz
x,y,z
-x,-y,z
1/2+x,1/2-y,1/2-z
1/2-x,1/2+y,1/2-z
-x,-y,-z
x,y,-z
1/2-x,1/2+y,1/2+z
1/2+x,1/2-y,1/2+z
loop_
_atom_site_type_symbol
_atom_site_label
_atom_site_fract_x
_atom_site_fract_y
_atom_site_fract_z
Si Si1 0.849578 0.152685 0.824659
Si Si2 0.863581 0.012312 0.824727
Si Si3 0.626236 0.360076 0.321570
Si Si4 0.246022 0.564427 0.316857
Si Si5 0.383839 0.266612 0.180920
Si Si6 0.157762 0.221900 0.318062
Si Si7 0.981424 0.544602 0.679419
Si Si8 0.246900 0.418740 0.822561
O O1 0.850911 0.190424 0.725450
O O2 0.762589 0.120334 0.766164
O O3 0.983446 0.135913 0.815404
O O4 0.825590 0.162622 0.000000
O O5 0.842957 0.050392 0.733194
O O6 0.792757 0.976127 0.760648
O O7 0.824547 0.019214 0.000000
O O8 0.000000 0.000000 0.827383
O O9 0.658985 0.355226 0.500000
O O10 0.687569 0.398170 0.261525
O O11 0.658469 0.321807 0.234222
O O12 0.266753 0.563062 0.500000
O O13 0.105513 0.565611 0.290589
O O14 0.277103 0.241635 0.252486
O O15 0.524876 0.261962 0.230650
O O16 0.381727 0.261403 0.000000
O O17 0.160983 0.224455 0.500000
O O18 0.952846 0.548625 0.500000
O O19 0.877323 0.561723 0.779119
O O20 0.000000 0.500000 0.706901
O O21 0.258322 0.411789 0.000000
#
# Coordination Sequence:
#
# PCOD9442230 Si02
#       8
#     8   8   8   8   8   8   8   8
#     4  10  20  37  61  85 112 148 190 232 282 339
#     4  10  19  34  57  81 105 138 185 233 277 333
#     4   9  18  35  60  87 112 142 183 236 287 332
#     4   9  17  32  55  81 105 137 184 233 280 329
#     4  10  21  39  63  91 122 154 193 240 288 343
#     4  10  21  38  61  90 122 158 194 231 286 352
#     4  10  19  36  58  75 102 147 195 237 279 333
#     4  12  24  36  52  78 114 148 186 232 283 338
#
# _framework density 18.343885
#
# number of rings (size 3 to 8) (size 9 to 14) (size 15 to 20)
#    0.000    2.000    1.250    3.000    0.000    4.500 
#    2.250    1.250    0.000    0.000    0.000    0.000 
#    0.000    0.000    0.000    0.000    0.000    0.000 
#
# Total GULP energy -357012.121396 kJ/mol
# GULP energy per Si atom -5578.314397 kJ/mol
# Density = 1.830213 g / cm^3
# Si number density = 18.343885 Si / 1000 Ang^3
#
#
#
# Elastic Constant Matrix: (Units=GPa)
#
#
# Indices 1 2 3 4 5 6 
#
# 1 44.9418 11.1929 13.8245 0.0000 0.0000 0.0000
# 2 11.1929 48.0856 7.6103 0.0000 0.0000 0.0000
# 3 13.8245 7.6103 35.4972 0.0000 0.0000 0.0000
# 4 0.0000 0.0000 0.0000 24.4139 0.0000 0.0000
# 5 0.0000 0.0000 0.0000 0.0000 18.7729 0.0000
# 6 0.0000 0.0000 0.0000 0.0000 0.0000 34.0711
#
#
#
# Elastic Compliance Matrix: (Units=1/GPa)
#
#
# Indices 1 2 3 4 5 6 
#
# 1 0.026247 -0.004649 -0.009225 0.000000 0.000000 0.000000
# 2 -0.004649 0.022350 -0.002981 0.000000 0.000000 0.000000
# 3 -0.009225 -0.002981 0.032403 0.000000 0.000000 0.000000
# 4 0.000000 0.000000 0.000000 0.040960 0.000000 0.000000
# 5 0.000000 0.000000 0.000000 0.000000 0.053268 0.000000
# 6 0.000000 0.000000 0.000000 0.000000 0.000000 0.029350
#
#
# Mechanical properties :
#
#
# Convention : Reuss Voigt Hill
#
# Bulk Modulus (GPa) = 21.14655 21.53113 21.33884
# Shear Modulus (GPa) = 19.68095 21.84472 20.76284
#
# Velocity S-wave (km/s) = 3.27905 3.45461 3.36797
# Velocity P-wave (km/s) = 5.08813 5.26074 5.17516
#
# Compressibility (1/GPa) = 0.04728905
#
# Stress axis : x y z
#
# Youngs Moduli (GPa) = 38.10009 44.74214 30.86128
#
# Poissons Ratio (x) = 0.20803 0.28470
# Poissons Ratio (y) = 0.17714 0.09200
# Poissons Ratio (z) = 0.35148 0.13338
#
# Static dielectric constant tensor:
#      x y z
#    x 1.655880 0.000000 0.000000 
#    y 0.000000 1.606410 0.000000 
#    z 0.000000 0.000000 1.635000 
# 
# From -- ./inp_files/4722.got.cif
#   From: 2010.05.17/outbox.cif.g08.bks.cpg/sg58_3_cif.got.tgz:4722.got - 2010.06.03 14:20:14.
