data_PCOD9442503
_publ_section_title
;
Structure prediction by ZEFSAII (Michael W. Deem and Ramdas Pophale) SiO2 
 PCOD9442503
Probable space group: P N N M
;
_chemical_formula_sum "Si O2"
_cell_formula_units_Z 48
_cell_length_a 12.517453
_cell_length_b 22.514741
_cell_length_c 7.541288
_cell_angle_alpha 90.000000
_cell_angle_beta 90.000000
_cell_angle_gamma 90.000000
_cell_volume 2125.340174
_symmetry_space_group_name_H-M "P N N M"
_symmetry_group_IT_number 58
_symmetry_cell_setting 'orthorhombic'
loop_
_space_group_symop_operation_xyz
x,y,z
-x,-y,z
1/2+x,1/2-y,1/2-z
1/2-x,1/2+y,1/2-z
-x,-y,-z
x,y,-z
1/2-x,1/2+y,1/2+z
1/2+x,1/2-y,1/2+z
loop_
_atom_site_type_symbol
_atom_site_label
_atom_site_fract_x
_atom_site_fract_y
_atom_site_fract_z
Si Si1 0.357474 0.175152 0.282106
Si Si2 0.378390 0.514685 0.285601
Si Si3 0.872809 0.851199 0.297528
Si Si4 0.238730 0.402174 0.284519
Si Si5 0.001063 0.567049 0.207859
Si Si6 0.401009 0.303801 0.705216
O O1 0.359209 0.171669 0.500000
O O2 0.234191 0.178196 0.224423
O O3 0.416305 0.115588 0.217687
O O4 0.410558 0.236990 0.223918
O O5 0.500000 0.500000 0.234601
O O6 0.375030 0.518446 0.500000
O O7 0.350695 0.578707 0.210945
O O8 0.299803 0.462310 0.228957
O O9 0.885407 0.831914 0.500000
O O10 0.985473 0.836712 0.210100
O O11 0.239306 0.401503 0.500000
O O12 0.117095 0.405498 0.224215
O O13 0.309076 0.346502 0.218674
O O14 0.000000 0.500000 0.284503
O O15 0.027992 0.560366 0.000000
O O16 0.370781 0.296309 0.500000
#
# Coordination Sequence:
#
# PCOD9442503 Si02
#       6
#     8   8   8   8   8   8
#     4   9  21  39  59  82 115 158 193 230 289 350
#     4  10  19  36  57  81 115 154 189 225 284 346
#     4  11  22  37  60  89 115 144 192 243 285 334
#     4  10  21  36  59  85 114 152 194 238 284 341
#     4  10  21  39  61  85 117 154 192 237 293 349
#     4  10  21  40  59  80 116 159 192 231 291 347
#
# _framework density 22.584620000000001
#
# number of rings (size 3 to 8) (size 9 to 14) (size 15 to 20)
#    0.000    2.000    1.667    1.500    2.333    3.333 
#    0.000    3.333    0.000    0.000    0.000    0.000 
#    0.000    0.000    0.000    0.000    0.000    0.000 
#
# Total GULP energy -268169.367517 kJ/mol
# GULP energy per Si atom -5586.861823 kJ/mol
# Density = 2.253322 g / cm^3
# Si number density = 22.584620 Si / 1000 Ang^3
#
#
#
# Elastic Constant Matrix: (Units=GPa)
#
#
# Indices 1 2 3 4 5 6 
#
# 1 92.7460 34.3038 -10.7261 0.0000 0.0000 0.0000
# 2 34.3038 139.7642 2.1351 0.0000 0.0000 0.0000
# 3 -10.7261 2.1351 49.4009 0.0000 0.0000 0.0000
# 4 0.0000 0.0000 0.0000 3.3093 0.0000 0.0000
# 5 0.0000 0.0000 0.0000 0.0000 30.9402 0.0000
# 6 0.0000 0.0000 0.0000 0.0000 0.0000 16.6939
#
#
#
# Elastic Compliance Matrix: (Units=1/GPa)
#
#
# Indices 1 2 3 4 5 6 
#
# 1 0.012231 -0.003044 0.002787 0.000000 0.000000 0.000000
# 2 -0.003044 0.007917 -0.001003 0.000000 0.000000 0.000000
# 3 0.002787 -0.001003 0.020891 0.000000 0.000000 0.000000
# 4 0.000000 0.000000 0.000000 0.302175 0.000000 0.000000
# 5 0.000000 0.000000 0.000000 0.000000 0.032320 0.000000
# 6 0.000000 0.000000 0.000000 0.000000 0.000000 0.059902
#
#
# Mechanical properties :
#
#
# Convention : Reuss Voigt Hill
#
# Bulk Modulus (GPa) = 25.96191 37.03740 31.49966
# Shear Modulus (GPa) = 11.09146 27.26857 19.18001
#
# Velocity S-wave (km/s) = 2.21850 3.47853 2.91735
# Velocity P-wave (km/s) = 4.25237 5.70689 5.03245
#
# Compressibility (1/GPa) = 0.03851796
#
# Stress axis : x y z
#
# Youngs Moduli (GPa) = 81.76279 126.30310 47.86735
#
# Poissons Ratio (x) = 0.38452 -0.13341
# Poissons Ratio (y) = 0.24892 0.04802
# Poissons Ratio (z) = -0.22788 0.12671
#
# Static dielectric constant tensor:
#      x y z
#    x 1.796160 0.000000 0.000000 
#    y 0.000000 1.839170 0.000000 
#    z 0.000000 0.000000 1.852990 
# 
# From -- ./inp_files/4201.got.cif
#   From: 2010.05.17/outbox.cif.g08.bks.cpg/sg58_3_cif.got.tgz:4201.got - 2010.06.03 14:20:14.
