data_PCOD9442418
_publ_section_title
;
Structure prediction by ZEFSAII (Michael W. Deem and Ramdas Pophale) SiO2 
 PCOD9442418
Probable space group: P N N M
;
_chemical_formula_sum "Si O2"
_cell_formula_units_Z 48
_cell_length_a 17.067628
_cell_length_b 18.370579
_cell_length_c 7.801904
_cell_angle_alpha 90.000000
_cell_angle_beta 90.000000
_cell_angle_gamma 90.000000
_cell_volume 2446.226211
_symmetry_space_group_name_H-M "P N N M"
_symmetry_group_IT_number 58
_symmetry_cell_setting 'orthorhombic'
loop_
_space_group_symop_operation_xyz
x,y,z
-x,-y,z
1/2+x,1/2-y,1/2-z
1/2-x,1/2+y,1/2-z
-x,-y,-z
x,y,-z
1/2-x,1/2+y,1/2+z
1/2+x,1/2-y,1/2+z
loop_
_atom_site_type_symbol
_atom_site_label
_atom_site_fract_x
_atom_site_fract_y
_atom_site_fract_z
Si Si1 0.321244 0.904492 0.705675
Si Si2 0.340421 0.341166 0.701301
Si Si3 0.254395 0.557494 0.210030
Si Si4 0.141563 0.680591 0.797962
Si Si5 0.086501 0.992435 0.299512
Si Si6 0.503749 0.082977 0.202294
O O1 0.318950 0.901334 0.500000
O O2 0.252611 0.853405 0.776055
O O3 0.408569 0.888759 0.766688
O O4 0.297316 0.986895 0.758507
O O5 0.359914 0.345647 0.500000
O O6 0.363081 0.262132 0.772815
O O7 0.382980 0.409657 0.787560
O O8 0.211557 0.630019 0.271923
O O9 0.342572 0.541758 0.271653
O O10 0.255353 0.558463 0.000000
O O11 0.062095 0.634847 0.779745
O O12 0.157730 0.689940 0.000000
O O13 0.080361 0.012490 0.500000
O O14 0.000000 0.000000 0.222546
O O15 0.500000 0.000000 0.271780
O O16 0.488116 0.079689 0.000000
#
# Coordination Sequence:
#
# PCOD9442418 Si02
#       6
#     8   8   8   8   8   8
#     4  10  19  35  59  79 105 147 186 217 263 328
#     4  10  21  36  55  80 114 145 179 232 284 321
#     4   8  15  30  54  77  98 137 184 218 254 317
#     4  10  20  36  55  77 111 151 185 219 273 336
#     4   9  18  35  58  81 104 140 191 231 268 328
#     4  11  22  34  54  86 117 142 180 231 278 319
#
# _framework density 19.622060999999999
#
# number of rings (size 3 to 8) (size 9 to 14) (size 15 to 20)
#    0.000    2.333    1.667    2.500    0.000    2.333 
#    3.000    0.000    0.000    0.000    0.000    0.000 
#    0.000    0.000    0.000    0.000    0.000    0.000 
#
# Total GULP energy -267786.142823 kJ/mol
# GULP energy per Si atom -5578.877975 kJ/mol
# Density = 1.957740 g / cm^3
# Si number density = 19.622061 Si / 1000 Ang^3
#
#
#
# Elastic Constant Matrix: (Units=GPa)
#
#
# Indices 1 2 3 4 5 6 
#
# 1 144.0266 45.0823 -21.4681 0.0000 0.0000 0.0000
# 2 45.0823 71.2593 -15.1842 0.0000 0.0000 0.0000
# 3 -21.4681 -15.1842 24.3444 0.0000 0.0000 0.0000
# 4 0.0000 0.0000 0.0000 13.8374 0.0000 0.0000
# 5 0.0000 0.0000 0.0000 0.0000 10.3328 0.0000
# 6 0.0000 0.0000 0.0000 0.0000 0.0000 20.3692
#
#
#
# Elastic Compliance Matrix: (Units=1/GPa)
#
#
# Indices 1 2 3 4 5 6 
#
# 1 0.009188 -0.004713 0.005163 0.000000 0.000000 0.000000
# 2 -0.004713 0.018601 0.007446 0.000000 0.000000 0.000000
# 3 0.005163 0.007446 0.050275 0.000000 0.000000 0.000000
# 4 0.000000 0.000000 0.000000 0.072268 0.000000 0.000000
# 5 0.000000 0.000000 0.000000 0.000000 0.096779 0.000000
# 6 0.000000 0.000000 0.000000 0.000000 0.000000 0.049094
#
#
# Mechanical properties :
#
#
# Convention : Reuss Voigt Hill
#
# Bulk Modulus (GPa) = 10.65446 28.49892 19.57669
# Shear Modulus (GPa) = 16.04123 24.32124 20.18123
#
# Velocity S-wave (km/s) = 2.86231 3.52445 3.21050
# Velocity P-wave (km/s) = 4.04542 5.57833 4.87254
#
# Compressibility (1/GPa) = 0.09385745
#
# Stress axis : x y z
#
# Youngs Moduli (GPa) = 108.83973 53.75946 19.89073
#
# Poissons Ratio (x) = 0.25334 -0.10269
# Poissons Ratio (y) = 0.51291 -0.14811
# Poissons Ratio (z) = -0.56193 -0.40032
#
# Static dielectric constant tensor:
#      x y z
#    x 1.686080 0.000000 0.000000 
#    y 0.000000 1.689670 0.000000 
#    z 0.000000 0.000000 1.712540 
# 
# From -- ./inp_files/7880.got.cif
#   From: 2010.05.17/outbox.cif.g08.bks.cpg/sg58_4_cif.got.tgz:7880.got - 2010.06.03 14:20:14.
