data_PCOD9442018
_publ_section_title
;
Structure prediction by ZEFSAII (Michael W. Deem and Ramdas Pophale) SiO2 
 PCOD9442018
Probable space group: P N N M
;
_chemical_formula_sum "Si O2"
_cell_formula_units_Z 64
_cell_length_a 25.078976
_cell_length_b 14.931609
_cell_length_c 8.922620
_cell_angle_alpha 90.000000
_cell_angle_beta 90.000000
_cell_angle_gamma 90.000000
_cell_volume 3341.248727
_symmetry_space_group_name_H-M "P N N M"
_symmetry_group_IT_number 58
_symmetry_cell_setting 'orthorhombic'
loop_
_space_group_symop_operation_xyz
x,y,z
-x,-y,z
1/2+x,1/2-y,1/2-z
1/2-x,1/2+y,1/2-z
-x,-y,-z
x,y,-z
1/2-x,1/2+y,1/2+z
1/2+x,1/2-y,1/2+z
loop_
_atom_site_type_symbol
_atom_site_label
_atom_site_fract_x
_atom_site_fract_y
_atom_site_fract_z
Si Si1 0.257370 0.138754 0.180791
Si Si2 0.170930 0.002554 0.179703
Si Si3 0.902767 0.248601 0.829464
Si Si4 0.139506 0.552368 0.172942
Si Si5 0.949908 0.563567 0.320521
Si Si6 0.473116 0.744998 0.321617
Si Si7 0.301230 0.325235 0.823794
Si Si8 0.445584 0.548231 0.682899
O O1 0.201577 0.093530 0.221415
O O2 0.305220 0.079866 0.249241
O O3 0.265170 0.241749 0.229551
O O4 0.262862 0.137786 0.000000
O O5 0.109572 0.002605 0.231955
O O6 0.204104 0.919201 0.241946
O O7 0.170285 0.997276 0.000000
O O8 0.894707 0.355439 0.824890
O O9 0.861231 0.206937 0.714719
O O10 0.963857 0.227211 0.800223
O O11 0.889317 0.218298 0.000000
O O12 0.104204 0.478674 0.255470
O O13 0.148651 0.527519 0.000000
O O14 0.948310 0.562912 0.500000
O O15 0.957878 0.664178 0.261688
O O16 0.000000 0.500000 0.273394
O O17 0.464643 0.758413 0.500000
O O18 0.444787 0.653004 0.274813
O O19 0.293727 0.337059 0.000000
O O20 0.500000 0.500000 0.733752
O O21 0.446638 0.545674 0.500000
#
# Coordination Sequence:
#
# PCOD9442018 Si02
#       8
#     8   8   8   8   8   8   8   8
#     4   9  20  38  57  79 112 147 184 233 287 342
#     4  10  20  38  61  83 112 150 187 229 287 348
#     4   9  17  30  52  79 107 141 186 234 277 327
#     4  10  19  33  55  80 107 143 192 243 278 324
#     4  11  22  34  51  78 118 161 192 227 285 350
#     4  10  19  33  54  82 113 147 191 238 280 333
#     4  10  20  34  55  82 110 142 185 235 281 333
#     4   9  18  34  59  87 113 144 186 235 286 342
#
# _framework density 19.154516999999998
#
# number of rings (size 3 to 8) (size 9 to 14) (size 15 to 20)
#    0.000    2.250    1.250    1.875    0.000    4.500 
#    2.250    0.625    0.000    1.500    0.000    0.000 
#    0.000    0.000    0.000    0.000    0.000    0.000 
#
# Total GULP energy -357090.289883 kJ/mol
# GULP energy per Si atom -5579.535779 kJ/mol
# Density = 1.911092 g / cm^3
# Si number density = 19.154517 Si / 1000 Ang^3
#
#
#
# Elastic Constant Matrix: (Units=GPa)
#
#
# Indices 1 2 3 4 5 6 
#
# 1 73.2026 41.8531 16.9896 0.0000 0.0000 0.0000
# 2 41.8531 119.1440 22.6302 0.0000 0.0000 0.0000
# 3 16.9896 22.6302 18.7145 0.0000 0.0000 0.0000
# 4 0.0000 0.0000 0.0000 22.2336 0.0000 0.0000
# 5 0.0000 0.0000 0.0000 0.0000 15.3567 0.0000
# 6 0.0000 0.0000 0.0000 0.0000 0.0000 28.8346
#
#
#
# Elastic Compliance Matrix: (Units=1/GPa)
#
#
# Indices 1 2 3 4 5 6 
#
# 1 0.018928 -0.004395 -0.011869 0.000000 0.000000 0.000000
# 2 -0.004395 0.011916 -0.010420 0.000000 0.000000 0.000000
# 3 -0.011869 -0.010420 0.076810 0.000000 0.000000 0.000000
# 4 0.000000 0.000000 0.000000 0.044977 0.000000 0.000000
# 5 0.000000 0.000000 0.000000 0.000000 0.065118 0.000000
# 6 0.000000 0.000000 0.000000 0.000000 0.000000 0.034681
#
#
# Mechanical properties :
#
#
# Convention : Reuss Voigt Hill
#
# Bulk Modulus (GPa) = 18.42076 41.55631 29.98854
# Shear Modulus (GPa) = 15.43718 21.92418 18.68068
#
# Velocity S-wave (km/s) = 2.84197 3.38686 3.12631
# Velocity P-wave (km/s) = 4.51739 6.08579 5.35928
#
# Compressibility (1/GPa) = 0.05428657
#
# Stress axis : x y z
#
# Youngs Moduli (GPa) = 52.83150 83.92022 13.01913
#
# Poissons Ratio (x) = 0.36880 0.15453
# Poissons Ratio (y) = 0.23217 0.13566
# Poissons Ratio (z) = 0.62708 0.87443
#
# Static dielectric constant tensor:
#      x y z
#    x 1.658950 0.000000 0.000000 
#    y 0.000000 1.685580 0.000000 
#    z 0.000000 0.000000 1.647480 
# 
# From -- ./inp_files/10031.got.cif
#   From: 2010.05.17/outbox.cif.g08.bks.cpg/sg58_6_cif.got.tgz:10031.got - 2010.06.03 14:20:14.
