data_PCOD9442932
_publ_section_title
;
Structure prediction by ZEFSAII (Michael W. Deem and Ramdas Pophale) SiO2 
 PCOD9442932
Probable space group: P N N M
;
_chemical_formula_sum "Si O2"
_cell_formula_units_Z 58
_cell_length_a 15.775378
_cell_length_b 23.682019
_cell_length_c 7.585520
_cell_angle_alpha 90.000000
_cell_angle_beta 90.000000
_cell_angle_gamma 90.000000
_cell_volume 2833.895668
_symmetry_space_group_name_H-M "P N N M"
_symmetry_group_IT_number 58
_symmetry_cell_setting 'orthorhombic'
loop_
_space_group_symop_operation_xyz
x,y,z
-x,-y,z
1/2+x,1/2-y,1/2-z
1/2-x,1/2+y,1/2-z
-x,-y,-z
x,y,-z
1/2-x,1/2+y,1/2+z
1/2+x,1/2-y,1/2+z
loop_
_atom_site_type_symbol
_atom_site_label
_atom_site_fract_x
_atom_site_fract_y
_atom_site_fract_z
Si Si1 0.361326 0.902607 0.784253
Si Si2 0.444134 0.115245 0.215014
Si Si3 0.370218 0.578903 0.693873
Si Si4 0.500000 0.500000 0.500000
Si Si5 0.096478 0.741723 0.288148
Si Si6 0.783124 0.714550 0.288656
Si Si7 0.073166 0.200898 0.292852
Si Si8 0.802506 0.474596 0.716174
O O1 0.459492 0.896946 0.730322
O O2 0.309842 0.847501 0.724534
O O3 0.321292 0.961689 0.725918
O O4 0.360848 0.902883 0.000000
O O5 0.414914 0.177299 0.274643
O O6 0.378186 0.067154 0.269409
O O7 0.444191 0.115354 0.000000
O O8 0.340353 0.599923 0.500000
O O9 0.441751 0.532656 0.650697
O O10 0.408344 0.634801 0.777750
O O11 0.287521 0.550401 0.776884
O O12 0.091656 0.739478 0.500000
O O13 0.187333 0.767679 0.246834
O O14 0.017687 0.779200 0.220462
O O15 0.791386 0.712697 0.500000
O O16 0.849934 0.761108 0.220208
O O17 0.070049 0.213893 0.500000
O O18 0.800471 0.476474 0.500000
#
# Coordination Sequence:
#
# PCOD9442932 Si02
#       8
#     8   8   8   2   8   8   8   8
#     4   9  16  28  46  72 105 135 165 215 271 318
#     4   9  15  27  47  72 103 134 169 216 260 319
#     4   9  19  35  53  78 107 139 178 231 268 323
#     4   8  20  36  54  72 114 132 174 238 280 306
#     4  10  20  34  53  77 109 144 182 220 272 326
#     4  10  20  34  52  79 110 142 180 225 275 325
#     4  10  20  36  55  77 111 147 185 227 273 333
#     4   9  16  26  47  76 100 131 175 215 269 317
#
# _framework density 20.466525000000001
#
# number of rings (size 3 to 8) (size 9 to 14) (size 15 to 20)
#    0.414    2.207    1.379    1.241    0.000    4.966 
#    2.483    0.345    0.000    0.828    0.000    0.000 
#    0.000    5.517    0.000    0.000    0.000    0.000 
#
# Total GULP energy -322929.032445 kJ/mol
# GULP energy per Si atom -5567.741939 kJ/mol
# Density = 2.041994 g / cm^3
# Si number density = 20.466525 Si / 1000 Ang^3
#
#
#
# Elastic Constant Matrix: (Units=GPa)
#
#
# Indices 1 2 3 4 5 6 
#
# 1 182.8205 124.6772 4.3174 0.0000 0.0000 0.0000
# 2 124.6772 176.0882 5.0241 0.0000 0.0000 0.0000
# 3 4.3174 5.0241 39.7178 0.0000 0.0000 0.0000
# 4 0.0000 0.0000 0.0000 0.3874 0.0000 0.0000
# 5 0.0000 0.0000 0.0000 0.0000 14.7010 0.0000
# 6 0.0000 0.0000 0.0000 0.0000 0.0000 35.9411
#
#
#
# Elastic Compliance Matrix: (Units=1/GPa)
#
#
# Indices 1 2 3 4 5 6 
#
# 1 0.010579 -0.007484 -0.000203 0.000000 0.000000 0.000000
# 2 -0.007484 0.010995 -0.000577 0.000000 0.000000 0.000000
# 3 -0.000203 -0.000577 0.025273 0.000000 0.000000 0.000000
# 4 0.000000 0.000000 0.000000 2.581510 0.000000 0.000000
# 5 0.000000 0.000000 0.000000 0.000000 0.068023 0.000000
# 6 0.000000 0.000000 0.000000 0.000000 0.000000 0.027823
#
#
# Mechanical properties :
#
#
# Convention : Reuss Voigt Hill
#
# Bulk Modulus (GPa) = 32.98521 74.07377 53.52949
# Shear Modulus (GPa) = 1.81763 27.84640 14.83202
#
# Velocity S-wave (km/s) = 0.94341 3.69261 2.69494
# Velocity P-wave (km/s) = 4.16393 7.37914 5.99125
#
# Compressibility (1/GPa) = 0.03031662
#
# Stress axis : x y z
#
# Youngs Moduli (GPa) = 94.52971 90.95354 39.56831
#
# Poissons Ratio (x) = 0.68073 0.00804
# Poissons Ratio (y) = 0.70749 0.02284
# Poissons Ratio (z) = 0.01921 0.05250
#
# Static dielectric constant tensor:
#      x y z
#    x 1.711190 0.000000 0.000000 
#    y 0.000000 1.703430 0.000000 
#    z 0.000000 0.000000 1.812530 
# 
# From -- ./inp_files/6706.got.cif
#   From: 2010.05.17/outbox.cif.g08.bks.cpg/sg58_4_cif.got.tgz:6706.got - 2010.06.03 14:20:14.
