data_PCOD9442693
_publ_section_title
;
Structure prediction by ZEFSAII (Michael W. Deem and Ramdas Pophale) SiO2 
 PCOD9442693
Probable space group: P N N M
;
_chemical_formula_sum "Si O2"
_cell_formula_units_Z 64
_cell_length_a 11.839265
_cell_length_b 18.674743
_cell_length_c 14.480645
_cell_angle_alpha 90.000000
_cell_angle_beta 90.000000
_cell_angle_gamma 90.000000
_cell_volume 3201.601554
_symmetry_space_group_name_H-M "P N N M"
_symmetry_group_IT_number 58
_symmetry_cell_setting 'orthorhombic'
loop_
_space_group_symop_operation_xyz
x,y,z
-x,-y,z
1/2+x,1/2-y,1/2-z
1/2-x,1/2+y,1/2-z
-x,-y,-z
x,y,-z
1/2-x,1/2+y,1/2+z
1/2+x,1/2-y,1/2+z
loop_
_atom_site_type_symbol
_atom_site_label
_atom_site_fract_x
_atom_site_fract_y
_atom_site_fract_z
Si Si1 0.648988 0.260166 0.645674
Si Si2 0.857942 0.336707 0.604185
Si Si3 0.970776 0.580372 0.718253
Si Si4 0.503643 0.694597 0.097501
Si Si5 0.422373 0.430818 0.214510
Si Si6 0.072293 0.846257 0.104901
Si Si7 0.185244 0.295718 0.649929
Si Si8 0.316090 0.902745 0.393561
O O1 0.725079 0.326018 0.611530
O O2 0.522092 0.288218 0.634908
O O3 0.683907 0.240262 0.749468
O O4 0.673311 0.183663 0.598608
O O5 0.889136 0.362778 0.500000
O O6 0.903037 0.255427 0.611758
O O7 0.914957 0.377720 0.689312
O O8 0.878223 0.627561 0.661889
O O9 0.919450 0.578474 0.822511
O O10 0.000000 0.500000 0.689601
O O11 0.508468 0.636407 0.175130
O O12 0.391090 0.740734 0.094759
O O13 0.525550 0.657519 0.000000
O O14 0.500000 0.500000 0.198933
O O15 0.414046 0.411627 0.322811
O O16 0.300464 0.426286 0.160588
O O17 0.192367 0.806998 0.110822
O O18 0.049119 0.868971 0.000000
O O19 0.319983 0.930671 0.500000
#
# Coordination Sequence:
#
# PCOD9442693 Si02
#       8
#     8   8   8   8   8   8   8   8
#     4  11  21  39  67  96 131 169 216 273 332 388
#     4  10  20  37  66  97 126 165 218 269 320 387
#     4  10  23  41  65  92 131 171 214 262 328 396
#     4  10  19  38  66  95 124 163 217 276 326 381
#     4  12  25  42  64  93 132 182 220 267 328 394
#     4  12  24  42  68  99 133 172 219 273 337 394
#     4  10  21  40  67  94 131 172 214 274 330 382
#     4  11  23  42  66  94 131 170 218 272 331 393
#
# _framework density 19.989995
#
# number of rings (size 3 to 8) (size 9 to 14) (size 15 to 20)
#    0.000    1.250    5.000    1.875    3.500    3.250 
#    0.000    0.000    0.000    0.000    0.000    0.000 
#    0.000    0.000    0.000    0.000    0.000    0.000 
#
# Total GULP energy -356476.965607 kJ/mol
# GULP energy per Si atom -5569.952588 kJ/mol
# Density = 1.994450 g / cm^3
# Si number density = 19.989995 Si / 1000 Ang^3
#
#
#
# Elastic Constant Matrix: (Units=GPa)
#
#
# Indices 1 2 3 4 5 6 
#
# 1 93.2634 28.0119 9.6732 0.0000 0.0000 0.0000
# 2 28.0119 46.6601 32.5308 0.0000 0.0000 0.0000
# 3 9.6732 32.5308 126.0905 0.0000 0.0000 0.0000
# 4 0.0000 0.0000 0.0000 9.8766 0.0000 0.0000
# 5 0.0000 0.0000 0.0000 0.0000 26.7523 0.0000
# 6 0.0000 0.0000 0.0000 0.0000 0.0000 21.0060
#
#
#
# Elastic Compliance Matrix: (Units=1/GPa)
#
#
# Indices 1 2 3 4 5 6 
#
# 1 0.013244 -0.008831 0.001262 0.000000 0.000000 0.000000
# 2 -0.008831 0.032020 -0.007584 0.000000 0.000000 0.000000
# 3 0.001262 -0.007584 0.009791 0.000000 0.000000 0.000000
# 4 0.000000 0.000000 0.000000 0.101249 0.000000 0.000000
# 5 0.000000 0.000000 0.000000 0.000000 0.037380 0.000000
# 6 0.000000 0.000000 0.000000 0.000000 0.000000 0.047605
#
#
# Mechanical properties :
#
#
# Convention : Reuss Voigt Hill
#
# Bulk Modulus (GPa) = 40.40358 45.16064 42.78211
# Shear Modulus (GPa) = 17.86714 24.58019 21.22367
#
# Velocity S-wave (km/s) = 2.99290 3.51040 3.26193
# Velocity P-wave (km/s) = 5.67442 6.25070 5.96952
#
# Compressibility (1/GPa) = 0.02475028
#
# Stress axis : x y z
#
# Youngs Moduli (GPa) = 75.50728 31.23020 102.13968
#
# Poissons Ratio (x) = 0.27579 -0.12893
# Poissons Ratio (y) = 0.66679 0.77459
# Poissons Ratio (z) = -0.09531 0.23684
#
# Static dielectric constant tensor:
#      x y z
#    x 1.750420 0.000000 0.000000 
#    y 0.000000 1.675550 0.000000 
#    z 0.000000 0.000000 1.805020 
# 
# From -- ./inp_files/21511.got.cif
#   From: 2010.05.17/outbox.cif.g08.bks.cpg/sg58_11_cif.got.tgz:21511.got - 2010.06.03 14:20:14.
