data_PCOD9442444
_publ_section_title
;
Structure prediction by ZEFSAII (Michael W. Deem and Ramdas Pophale) SiO2 
 PCOD9442444
Probable space group: P N N M
;
_chemical_formula_sum "Si O2"
_cell_formula_units_Z 64
_cell_length_a 12.937956
_cell_length_b 28.674658
_cell_length_c 9.188028
_cell_angle_alpha 90.000000
_cell_angle_beta 90.000000
_cell_angle_gamma 90.000000
_cell_volume 3408.679955
_symmetry_space_group_name_H-M "P N N M"
_symmetry_group_IT_number 58
_symmetry_cell_setting 'orthorhombic'
loop_
_space_group_symop_operation_xyz
x,y,z
-x,-y,z
1/2+x,1/2-y,1/2-z
1/2-x,1/2+y,1/2-z
-x,-y,-z
x,y,-z
1/2-x,1/2+y,1/2+z
1/2+x,1/2-y,1/2+z
loop_
_atom_site_type_symbol
_atom_site_label
_atom_site_fract_x
_atom_site_fract_y
_atom_site_fract_z
Si Si1 0.524782 0.446162 0.662236
Si Si2 0.630822 0.113867 0.174682
Si Si3 0.910699 0.188543 0.661564
Si Si4 0.780903 0.715644 0.325661
Si Si5 0.039807 0.552274 0.175163
Si Si6 0.145103 0.184072 0.323749
Si Si7 0.271184 0.585386 0.175527
Si Si8 0.826481 0.086022 0.661323
O O1 0.500000 0.500000 0.645013
O O2 0.524918 0.424224 0.500000
O O3 0.633633 0.438661 0.742024
O O4 0.430306 0.430150 0.762001
O O5 0.655953 0.168276 0.214491
O O6 0.529656 0.091441 0.246379
O O7 0.726106 0.083254 0.237950
O O8 0.627126 0.110948 0.000000
O O9 0.919742 0.210604 0.500000
O O10 0.836984 0.215780 0.769876
O O11 0.849081 0.140646 0.644374
O O12 0.025172 0.176312 0.715296
O O13 0.780617 0.715755 0.500000
O O14 0.827539 0.764300 0.270748
O O15 0.160351 0.562529 0.209338
O O16 0.000000 0.500000 0.214734
O O17 0.027642 0.556750 0.000000
O O18 0.149330 0.185002 0.500000
O O19 0.216751 0.140316 0.282020
O O20 0.286277 0.582130 0.000000
O O21 0.810428 0.065225 0.500000
#
# Coordination Sequence:
#
# PCOD9442444 Si02
#       8
#     8   8   8   8   8   8   8   8
#     4  11  24  38  55  86 122 148 180 234 297 353
#     4  10  21  37  57  84 118 155 193 240 298 352
#     4   9  17  32  53  77 107 140 182 232 279 330
#     4   9  19  34  54  81 113 149 189 233 289 351
#     4  10  23  41  60  85 115 154 206 256 294 345
#     4   9  17  34  57  80 109 148 188 234 287 342
#     4  10  21  40  62  84 113 153 200 242 289 348
#     4  10  19  35  60  84 109 147 191 233 281 337
#
# _framework density 18.775596
#
# number of rings (size 3 to 8) (size 9 to 14) (size 15 to 20)
#    0.000    2.250    1.250    1.125    1.750    3.750 
#    0.000    1.250    0.000    0.000    0.000    0.000 
#    0.000    0.000    0.000    0.000    0.000    0.000 
#
# Total GULP energy -356347.953868 kJ/mol
# GULP energy per Si atom -5567.936779 kJ/mol
# Density = 1.873286 g / cm^3
# Si number density = 18.775596 Si / 1000 Ang^3
#
#
#
# Elastic Constant Matrix: (Units=GPa)
#
#
# Indices 1 2 3 4 5 6 
#
# 1 90.5654 44.0985 31.2339 0.0000 0.0000 0.0000
# 2 44.0985 87.8102 31.7709 0.0000 0.0000 0.0000
# 3 31.2339 31.7709 47.6172 0.0000 0.0000 0.0000
# 4 0.0000 0.0000 0.0000 20.8165 0.0000 0.0000
# 5 0.0000 0.0000 0.0000 0.0000 24.9284 0.0000
# 6 0.0000 0.0000 0.0000 0.0000 0.0000 18.2317
#
#
#
# Elastic Compliance Matrix: (Units=1/GPa)
#
#
# Indices 1 2 3 4 5 6 
#
# 1 0.016140 -0.005636 -0.006827 0.000000 0.000000 0.000000
# 2 -0.005636 0.016980 -0.007633 0.000000 0.000000 0.000000
# 3 -0.006827 -0.007633 0.030571 0.000000 0.000000 0.000000
# 4 0.000000 0.000000 0.000000 0.048039 0.000000 0.000000
# 5 0.000000 0.000000 0.000000 0.000000 0.040115 0.000000
# 6 0.000000 0.000000 0.000000 0.000000 0.000000 0.054850
#
#
# Mechanical properties :
#
#
# Convention : Reuss Voigt Hill
#
# Bulk Modulus (GPa) = 42.55064 48.91105 45.73084
# Shear Modulus (GPa) = 19.62943 20.72126 20.17535
#
# Velocity S-wave (km/s) = 3.23689 3.32569 3.28159
# Velocity P-wave (km/s) = 6.05656 6.39170 6.22638
#
# Compressibility (1/GPa) = 0.02350141
#
# Stress axis : x y z
#
# Youngs Moduli (GPa) = 61.95667 58.89258 32.71022
#
# Poissons Ratio (x) = 0.33190 0.22331
# Poissons Ratio (y) = 0.34917 0.24967
# Poissons Ratio (z) = 0.42297 0.44951
#
# Static dielectric constant tensor:
#      x y z
#    x 1.748440 0.000000 0.000000 
#    y 0.000000 0.868990 0.000000 
#    z 0.000000 0.000000 1.686760 
# 
# From -- ./inp_files/4708.got.cif
#   From: 2010.05.17/outbox.cif.g08.bks.cpg/sg58_3_cif.got.tgz:4708.got - 2010.06.03 14:20:14.
