data_PCOD9442893
_publ_section_title
;
Structure prediction by ZEFSAII (Michael W. Deem and Ramdas Pophale) SiO2 
 PCOD9442893
Probable space group: P N N M
;
_chemical_formula_sum "Si O2"
_cell_formula_units_Z 56
_cell_length_a 19.488296
_cell_length_b 18.478242
_cell_length_c 8.980796
_cell_angle_alpha 90.000000
_cell_angle_beta 90.000000
_cell_angle_gamma 90.000000
_cell_volume 3234.069505
_symmetry_space_group_name_H-M "P N N M"
_symmetry_group_IT_number 58
_symmetry_cell_setting 'orthorhombic'
loop_
_space_group_symop_operation_xyz
x,y,z
-x,-y,z
1/2+x,1/2-y,1/2-z
1/2-x,1/2+y,1/2-z
-x,-y,-z
x,y,-z
1/2-x,1/2+y,1/2+z
1/2+x,1/2-y,1/2+z
loop_
_atom_site_type_symbol
_atom_site_label
_atom_site_fract_x
_atom_site_fract_y
_atom_site_fract_z
Si Si1 0.927791 0.465995 0.820305
Si Si2 0.458070 0.338771 0.821722
Si Si3 0.748217 0.357023 0.323520
Si Si4 0.854677 0.047402 0.176811
Si Si5 0.893995 0.311821 0.322710
Si Si6 0.218640 0.490967 0.823387
Si Si7 0.599405 0.380956 0.324411
O O1 0.917243 0.386094 0.753937
O O2 0.861447 0.515158 0.779347
O O3 0.000000 0.500000 0.773073
O O4 0.927324 0.460403 0.000000
O O5 0.406381 0.397203 0.752767
O O6 0.434447 0.258842 0.771878
O O7 0.534693 0.356286 0.769096
O O8 0.453538 0.341928 0.000000
O O9 0.750175 0.378954 0.500000
O O10 0.811629 0.303324 0.299407
O O11 0.764434 0.426294 0.222327
O O12 0.669570 0.336327 0.294666
O O13 0.777566 0.053854 0.240645
O O14 0.881410 0.965149 0.204973
O O15 0.854038 0.057651 0.000000
O O16 0.904123 0.320002 0.500000
O O17 0.225057 0.480540 0.000000
O O18 0.582984 0.375064 0.500000
#
# Coordination Sequence:
#
# PCOD9442893 Si02
#       7
#     8   8   8   8   8   8   8
#     4   9  18  33  54  79 103 129 165 208 251 296
#     4  11  22  33  48  73 105 135 164 205 253 297
#     4   8  15  31  52  69  90 123 161 198 238 291
#     4  10  20  34  51  71  98 133 172 208 246 299
#     4   9  19  35  52  72  99 132 168 204 249 301
#     4   9  16  28  49  75  99 122 155 200 245 288
#     4   9  18  32  51  73  95 126 168 207 245 295
#
# _framework density 17.315645
#
# number of rings (size 3 to 8) (size 9 to 14) (size 15 to 20)
#    0.000    2.714    0.000    2.571    0.000    6.571 
#    0.000    1.429    0.000    6.857    0.000    0.000 
#    0.000    0.000    0.000    0.000    0.000    0.000 
#
# Total GULP energy -311926.360525 kJ/mol
# GULP energy per Si atom -5570.113581 kJ/mol
# Density = 1.727623 g / cm^3
# Si number density = 17.315645 Si / 1000 Ang^3
#
#
#
# Elastic Constant Matrix: (Units=GPa)
#
#
# Indices 1 2 3 4 5 6 
#
# 1 174.1194 60.5206 55.6500 0.0000 0.0000 0.0000
# 2 60.5206 52.7487 29.0931 0.0000 0.0000 0.0000
# 3 55.6500 29.0931 36.5892 0.0000 0.0000 0.0000
# 4 0.0000 0.0000 0.0000 16.4201 0.0000 0.0000
# 5 0.0000 0.0000 0.0000 0.0000 28.4526 0.0000
# 6 0.0000 0.0000 0.0000 0.0000 0.0000 13.0588
#
#
#
# Elastic Compliance Matrix: (Units=1/GPa)
#
#
# Indices 1 2 3 4 5 6 
#
# 1 0.012416 -0.006822 -0.013460 0.000000 0.000000 0.000000
# 2 -0.006822 0.037514 -0.019453 0.000000 0.000000 0.000000
# 3 -0.013460 -0.019453 0.063270 0.000000 0.000000 0.000000
# 4 0.000000 0.000000 0.000000 0.060901 0.000000 0.000000
# 5 0.000000 0.000000 0.000000 0.000000 0.035146 0.000000
# 6 0.000000 0.000000 0.000000 0.000000 0.000000 0.076576
#
#
# Mechanical properties :
#
#
# Convention : Reuss Voigt Hill
#
# Bulk Modulus (GPa) = 29.64659 61.55385 45.60022
# Shear Modulus (GPa) = 13.27892 19.46589 16.37240
#
# Velocity S-wave (km/s) = 2.77225 3.35652 3.07828
# Velocity P-wave (km/s) = 5.23504 7.11666 6.24710
#
# Compressibility (1/GPa) = 0.03373069
#
# Stress axis : x y z
#
# Youngs Moduli (GPa) = 80.53902 26.65696 15.80525
#
# Poissons Ratio (x) = 0.18185 0.21274
# Poissons Ratio (y) = 0.54942 0.30745
# Poissons Ratio (z) = 1.08408 0.51855
#
# Static dielectric constant tensor:
#      x y z
#    x 1.624390 0.000000 0.000000 
#    y 0.000000 1.561820 0.000000 
#    z 0.000000 0.000000 1.578570 
# 
# From -- ./inp_files/8163.got.cif
#   From: 2010.05.17/outbox.cif.g08.bks.cpg/sg58_5_cif.got.tgz:8163.got - 2010.06.03 14:20:14.
