data_PCOD9442071
_publ_section_title
;
Structure prediction by ZEFSAII (Michael W. Deem and Ramdas Pophale) SiO2 
 PCOD9442071
Probable space group: P N N M
;
_chemical_formula_sum "Si O2"
_cell_formula_units_Z 48
_cell_length_a 30.151928
_cell_length_b 10.462890
_cell_length_c 8.768500
_cell_angle_alpha 90.000000
_cell_angle_beta 90.000000
_cell_angle_gamma 90.000000
_cell_volume 2766.253989
_symmetry_space_group_name_H-M "P N N M"
_symmetry_group_IT_number 58
_symmetry_cell_setting 'orthorhombic'
loop_
_space_group_symop_operation_xyz
x,y,z
-x,-y,z
1/2+x,1/2-y,1/2-z
1/2-x,1/2+y,1/2-z
-x,-y,-z
x,y,-z
1/2-x,1/2+y,1/2+z
1/2+x,1/2-y,1/2+z
loop_
_atom_site_type_symbol
_atom_site_label
_atom_site_fract_x
_atom_site_fract_y
_atom_site_fract_z
Si Si1 0.380365 0.517850 0.317376
Si Si2 0.477270 0.129442 0.183845
Si Si3 0.614969 0.762464 0.816214
Si Si4 0.027094 0.127465 0.816316
Si Si5 0.284319 0.515696 0.182648
Si Si6 0.716085 0.781046 0.816578
O O1 0.376806 0.518308 0.500000
O O2 0.391733 0.374890 0.261337
O O3 0.421541 0.607419 0.272737
O O4 0.332978 0.550737 0.245672
O O5 0.425697 0.146706 0.227807
O O6 0.504351 0.250661 0.242869
O O7 0.500000 0.000000 0.240182
O O8 0.478702 0.129124 0.000000
O O9 0.664533 0.807877 0.776945
O O10 0.614171 0.744372 0.000000
O O11 0.024765 0.137895 0.000000
O O12 0.000000 0.000000 0.772520
O O13 0.275103 0.367354 0.228858
O O14 0.248518 0.616258 0.242527
O O15 0.285634 0.517578 0.000000
O O16 0.720582 0.788329 0.000000
#
# Coordination Sequence:
#
# PCOD9442071 Si02
#       6
#     8   8   8   8   8   8
#     4  10  19  33  56  81 108 139 178 225 271 317
#     4  10  21  36  54  79 113 147 181 222 268 318
#     4   9  18  34  55  78 108 144 182 221 265 318
#     4  10  20  35  55  81 109 139 180 224 264 315
#     4  10  21  37  57  82 110 139 179 223 267 323
#     4   9  19  36  56  78 108 141 178 224 269 318
#
# _framework density 17.351984999999999
#
# number of rings (size 3 to 8) (size 9 to 14) (size 15 to 20)
#    0.000    2.333    1.667    2.000    0.000    5.333 
#    3.000    0.000    0.000    0.000    0.000    0.000 
#    0.000    0.000    0.000    0.000    0.000    0.000 
#
# Total GULP energy -267725.044008 kJ/mol
# GULP energy per Si atom -5577.605083 kJ/mol
# Density = 1.731249 g / cm^3
# Si number density = 17.351985 Si / 1000 Ang^3
#
#
#
# Elastic Constant Matrix: (Units=GPa)
#
#
# Indices 1 2 3 4 5 6 
#
# 1 167.3132 98.6234 40.4593 0.0000 0.0000 0.0000
# 2 98.6234 112.4583 26.2128 0.0000 0.0000 0.0000
# 3 40.4593 26.2128 17.7633 0.0000 0.0000 0.0000
# 4 0.0000 0.0000 0.0000 31.6300 0.0000 0.0000
# 5 0.0000 0.0000 0.0000 0.0000 27.8153 0.0000
# 6 0.0000 0.0000 0.0000 0.0000 0.0000 34.7422
#
#
#
# Elastic Compliance Matrix: (Units=1/GPa)
#
#
# Indices 1 2 3 4 5 6 
#
# 1 0.018305 -0.009656 -0.027444 0.000000 0.000000 0.000000
# 2 -0.009656 0.018648 -0.005525 0.000000 0.000000 0.000000
# 3 -0.027444 -0.005525 0.126957 0.000000 0.000000 0.000000
# 4 0.000000 0.000000 0.000000 0.031616 0.000000 0.000000
# 5 0.000000 0.000000 0.000000 0.000000 0.035951 0.000000
# 6 0.000000 0.000000 0.000000 0.000000 0.000000 0.028783
#
#
# Mechanical properties :
#
#
# Convention : Reuss Voigt Hill
#
# Bulk Modulus (GPa) = 12.71284 69.79176 41.25230
# Shear Modulus (GPa) = 13.45059 27.65345 20.55202
#
# Velocity S-wave (km/s) = 2.78719 3.99642 3.44527
# Velocity P-wave (km/s) = 4.20717 7.84880 6.29698
#
# Compressibility (1/GPa) = 0.07866066
#
# Stress axis : x y z
#
# Youngs Moduli (GPa) = 54.62914 53.62408 7.87669
#
# Poissons Ratio (x) = 0.51782 0.21617
# Poissons Ratio (y) = 0.52752 0.04352
# Poissons Ratio (z) = 1.49924 0.29625
#
# Static dielectric constant tensor:
#      x y z
#    x 1.600160 0.000000 0.000000 
#    y 0.000000 1.561590 0.000000 
#    z 0.000000 0.000000 1.581570 
# 
# From -- ./inp_files/2860.got.cif
#   From: 2010.05.17/outbox.cif.g08.bks.cpg/sg58_2_cif.got.tgz:2860.got - 2010.06.03 14:20:14.
