data_PCOD9442233
_publ_section_title
;
Structure prediction by ZEFSAII (Michael W. Deem and Ramdas Pophale) SiO2 
 PCOD9442233
Probable space group: P N N M
;
_chemical_formula_sum "Si O2"
_cell_formula_units_Z 56
_cell_length_a 14.826099
_cell_length_b 22.724284
_cell_length_c 8.842763
_cell_angle_alpha 90.000000
_cell_angle_beta 90.000000
_cell_angle_gamma 90.000000
_cell_volume 2979.237250
_symmetry_space_group_name_H-M "P N N M"
_symmetry_group_IT_number 58
_symmetry_cell_setting 'orthorhombic'
loop_
_space_group_symop_operation_xyz
x,y,z
-x,-y,z
1/2+x,1/2-y,1/2-z
1/2-x,1/2+y,1/2-z
-x,-y,-z
x,y,-z
1/2-x,1/2+y,1/2+z
1/2+x,1/2-y,1/2+z
loop_
_atom_site_type_symbol
_atom_site_label
_atom_site_fract_x
_atom_site_fract_y
_atom_site_fract_z
Si Si1 0.719578 0.886202 0.180427
Si Si2 0.785686 0.614053 0.317401
Si Si3 0.896235 0.720220 0.820397
Si Si4 0.909535 0.146459 0.181031
Si Si5 0.103462 0.501150 0.315714
Si Si6 0.100187 0.150069 0.679559
Si Si7 0.895134 0.284256 0.821288
O O1 0.656607 0.940328 0.231012
O O2 0.817823 0.887626 0.254467
O O3 0.670149 0.826057 0.228575
O O4 0.728764 0.888276 0.000000
O O5 0.791235 0.619554 0.500000
O O6 0.829312 0.671956 0.245389
O O7 0.679860 0.610373 0.278974
O O8 0.842123 0.557014 0.269681
O O9 0.886217 0.783471 0.742039
O O10 0.999886 0.699986 0.794685
O O11 0.884079 0.727726 0.000000
O O12 0.887915 0.215105 0.215984
O O13 0.001947 0.130176 0.262819
O O14 0.924573 0.143454 0.000000
O O15 0.101664 0.501374 0.500000
O O16 0.000000 0.500000 0.263205
O O17 0.103008 0.150839 0.500000
O O18 0.875523 0.290979 0.000000
#
# Coordination Sequence:
#
# PCOD9442233 Si02
#       7
#     8   8   8   8   8   8   8
#     4  11  21  34  55  80 109 145 183 224 267 314
#     4  10  19  34  57  81 108 144 183 224 269 316
#     4  10  20  34  54  82 114 143 175 219 269 323
#     4   9  19  35  54  78 107 137 175 224 273 322
#     4   9  19  35  55  82 112 141 178 220 261 313
#     4  11  22  36  55  78 107 142 179 221 270 325
#     4   9  18  32  50  77 111 141 174 220 271 323
#
# _framework density 18.796758000000001
#
# number of rings (size 3 to 8) (size 9 to 14) (size 15 to 20)
#    0.000    2.143    0.000    4.714    0.000    5.714 
#    0.000    2.143    0.000    8.143    0.000    0.000 
#    0.000    0.000    0.000    0.000    0.000    0.000 
#
# Total GULP energy -312768.349033 kJ/mol
# GULP energy per Si atom -5585.149090 kJ/mol
# Density = 1.875398 g / cm^3
# Si number density = 18.796758 Si / 1000 Ang^3
#
#
#
# Elastic Constant Matrix: (Units=GPa)
#
#
# Indices 1 2 3 4 5 6 
#
# 1 180.9352 71.5318 62.5528 0.0000 0.0000 0.0000
# 2 71.5318 42.0523 21.8603 0.0000 0.0000 0.0000
# 3 62.5528 21.8603 52.8707 0.0000 0.0000 0.0000
# 4 0.0000 0.0000 0.0000 14.9053 0.0000 0.0000
# 5 0.0000 0.0000 0.0000 0.0000 30.7307 0.0000
# 6 0.0000 0.0000 0.0000 0.0000 0.0000 32.9612
#
#
#
# Elastic Compliance Matrix: (Units=1/GPa)
#
#
# Indices 1 2 3 4 5 6 
#
# 1 0.022855 -0.031616 -0.013968 0.000000 0.000000 0.000000
# 2 -0.031616 0.074024 0.006799 0.000000 0.000000 0.000000
# 3 -0.013968 0.006799 0.032630 0.000000 0.000000 0.000000
# 4 0.000000 0.000000 0.000000 0.067090 0.000000 0.000000
# 5 0.000000 0.000000 0.000000 0.000000 0.032541 0.000000
# 6 0.000000 0.000000 0.000000 0.000000 0.000000 0.030339
#
#
# Mechanical properties :
#
#
# Convention : Reuss Voigt Hill
#
# Bulk Modulus (GPa) = 19.25364 65.30532 42.27948
# Shear Modulus (GPa) = 14.10985 23.71365 18.91175
#
# Velocity S-wave (km/s) = 2.74278 3.55573 3.17538
# Velocity P-wave (km/s) = 4.50508 7.18859 5.99882
#
# Compressibility (1/GPa) = 0.05193823
#
# Stress axis : x y z
#
# Youngs Moduli (GPa) = 43.75397 13.50905 30.64707
#
# Poissons Ratio (x) = 0.42710 0.42809
# Poissons Ratio (y) = 1.38331 -0.20836
# Poissons Ratio (z) = 0.61118 -0.09184
#
# Static dielectric constant tensor:
#      x y z
#    x 1.664130 0.000000 0.000000 
#    y 0.000000 1.627570 0.000000 
#    z 0.000000 0.000000 1.630010 
# 
# From -- ./inp_files/6248.got.cif
#   From: 2010.05.17/outbox.cif.g08.bks.cpg/sg58_4_cif.got.tgz:6248.got - 2010.06.03 14:20:14.
