data_PCOD9442269
_publ_section_title
;
Structure prediction by ZEFSAII (Michael W. Deem and Ramdas Pophale) SiO2 
 PCOD9442269
Probable space group: P N N M
;
_chemical_formula_sum "Si O2"
_cell_formula_units_Z 48
_cell_length_a 15.613703
_cell_length_b 13.694954
_cell_length_c 10.896921
_cell_angle_alpha 90.000000
_cell_angle_beta 90.000000
_cell_angle_gamma 90.000000
_cell_volume 2330.077114
_symmetry_space_group_name_H-M "P N N M"
_symmetry_group_IT_number 58
_symmetry_cell_setting 'orthorhombic'
loop_
_space_group_symop_operation_xyz
x,y,z
-x,-y,z
1/2+x,1/2-y,1/2-z
1/2-x,1/2+y,1/2-z
-x,-y,-z
x,y,-z
1/2-x,1/2+y,1/2+z
1/2+x,1/2-y,1/2+z
loop_
_atom_site_type_symbol
_atom_site_label
_atom_site_fract_x
_atom_site_fract_y
_atom_site_fract_z
Si Si1 0.788248 0.706780 0.363800
Si Si2 0.416562 0.071225 0.637897
Si Si3 0.100886 0.471302 0.366984
Si Si4 0.822761 0.836942 0.143610
Si Si5 0.365898 0.447416 0.640546
Si Si6 0.481409 0.283049 0.356737
O O1 0.786340 0.753397 0.500000
O O2 0.875919 0.642845 0.355394
O O3 0.773889 0.777311 0.248987
O O4 0.714764 0.624754 0.361704
O O5 0.379876 0.075817 0.500000
O O6 0.445834 0.178210 0.682382
O O7 0.500000 0.000000 0.627282
O O8 0.362488 0.024016 0.747145
O O9 0.136870 0.502161 0.500000
O O10 0.000000 0.500000 0.370641
O O11 0.917120 0.788382 0.144745
O O12 0.838541 0.947560 0.188095
O O13 0.792489 0.833348 0.000000
O O14 0.392567 0.471988 0.500000
O O15 0.440280 0.380994 0.699773
O O16 0.454980 0.286736 0.500000
#
# Coordination Sequence:
#
# PCOD9442269 Si02
#       6
#     8   8   8   8   8   8
#     4  10  21  36  52  75 110 144 171 209 269 327
#     4   9  16  26  44  73 102 124 156 207 256 293
#     4   9  17  29  45  66  95 133 170 199 238 300
#     4  10  19  34  58  81 100 131 180 226 257 302
#     4   9  19  35  54  77 105 139 177 215 261 318
#     4   9  17  31  53  79 105 135 175 223 267 304
#
# _framework density 20.600176999999999
#
# number of rings (size 3 to 8) (size 9 to 14) (size 15 to 20)
#    0.000    2.667    0.000    2.500    0.000    5.333 
#    0.000    0.833    0.000    4.000    0.000    0.000 
#    0.000    0.000    0.000    0.000    0.000    0.000 
#
# Total GULP energy -267219.418287 kJ/mol
# GULP energy per Si atom -5567.071214 kJ/mol
# Density = 2.055329 g / cm^3
# Si number density = 20.600177 Si / 1000 Ang^3
#
#
#
# Elastic Constant Matrix: (Units=GPa)
#
#
# Indices 1 2 3 4 5 6 
#
# 1 33.2505 -2.9893 6.6619 0.0000 0.0000 0.0000
# 2 -2.9893 99.2710 53.7129 0.0000 0.0000 0.0000
# 3 6.6619 53.7129 134.0842 0.0000 0.0000 0.0000
# 4 0.0000 0.0000 0.0000 5.8394 0.0000 0.0000
# 5 0.0000 0.0000 0.0000 0.0000 7.1325 0.0000
# 6 0.0000 0.0000 0.0000 0.0000 0.0000 27.1461
#
#
#
# Elastic Compliance Matrix: (Units=1/GPa)
#
#
# Indices 1 2 3 4 5 6 
#
# 1 0.030762 0.002238 -0.002425 0.000000 0.000000 0.000000
# 2 0.002238 0.013024 -0.005328 0.000000 0.000000 0.000000
# 3 -0.002425 -0.005328 0.009713 0.000000 0.000000 0.000000
# 4 0.000000 0.000000 0.000000 0.171250 0.000000 0.000000
# 5 0.000000 0.000000 0.000000 0.000000 0.140204 0.000000
# 6 0.000000 0.000000 0.000000 0.000000 0.000000 0.036838
#
#
# Mechanical properties :
#
#
# Convention : Reuss Voigt Hill
#
# Bulk Modulus (GPa) = 23.54679 42.37518 32.96098
# Shear Modulus (GPa) = 11.71024 21.97161 16.84093
#
# Velocity S-wave (km/s) = 2.38681 3.26939 2.86232
# Velocity P-wave (km/s) = 4.36475 5.90481 5.19220
#
# Compressibility (1/GPa) = 0.04246864
#
# Stress axis : x y z
#
# Youngs Moduli (GPa) = 32.50776 76.78164 102.95449
#
# Poissons Ratio (x) = -0.17187 0.24967
# Poissons Ratio (y) = -0.07277 0.54859
# Poissons Ratio (z) = 0.07883 0.40913
#
# Static dielectric constant tensor:
#      x y z
#    x 1.817470 0.000000 0.000000 
#    y 0.000000 1.785140 0.000000 
#    z 0.000000 0.000000 1.790070 
# 
# From -- ./inp_files/16352.got.cif
#   From: 2010.05.17/outbox.cif.g08.bks.cpg/sg58_9_cif.got.tgz:16352.got - 2010.06.03 14:20:14.
