data_PCOD9442691
_publ_section_title
;
Structure prediction by ZEFSAII (Michael W. Deem and Ramdas Pophale) SiO2 
 PCOD9442691
Probable space group: P N N M
;
_chemical_formula_sum "Si O2"
_cell_formula_units_Z 48
_cell_length_a 8.645427
_cell_length_b 9.307297
_cell_length_c 28.228448
_cell_angle_alpha 90.000000
_cell_angle_beta 90.000000
_cell_angle_gamma 90.000000
_cell_volume 2271.417785
_symmetry_space_group_name_H-M "P N N M"
_symmetry_group_IT_number 58
_symmetry_cell_setting 'orthorhombic'
loop_
_space_group_symop_operation_xyz
x,y,z
-x,-y,z
1/2+x,1/2-y,1/2-z
1/2-x,1/2+y,1/2-z
-x,-y,-z
x,y,-z
1/2-x,1/2+y,1/2+z
1/2+x,1/2-y,1/2+z
loop_
_atom_site_type_symbol
_atom_site_label
_atom_site_fract_x
_atom_site_fract_y
_atom_site_fract_z
Si Si1 0.673067 0.546343 0.405964
Si Si2 0.840782 0.585079 0.692868
Si Si3 0.288471 0.698910 0.050937
Si Si4 0.185816 0.971251 0.626705
Si Si5 0.165312 0.077750 0.725248
Si Si6 0.350514 0.223684 0.944887
O O1 0.500000 0.500000 0.395375
O O2 0.751886 0.596597 0.356960
O O3 0.669292 0.673776 0.443787
O O4 0.781021 0.427769 0.430361
O O5 0.850512 0.749459 0.714641
O O6 0.756228 0.474740 0.728674
O O7 0.000000 0.500000 0.683154
O O8 0.250639 0.591030 0.092178
O O9 0.462384 0.762231 0.057111
O O10 0.286428 0.626156 0.000000
O O11 0.208515 0.826128 0.597644
O O12 0.243084 0.000026 0.679484
O O13 0.000000 0.000000 0.628846
O O14 0.000000 0.000000 0.730013
O O15 0.309987 0.258267 0.000000
#
# Coordination Sequence:
#
# PCOD9442691 Si02
#       6
#     8   8   8   8   8   8
#     4  12  26  41  61  91 132 173 222 265 324 385
#     4  12  26  45  72  98 132 173 218 273 332 396
#     4  10  19  38  65  94 126 166 215 268 322 386
#     4   9  19  37  65  96 129 161 212 266 323 386
#     4  11  24  44  70 103 133 169 217 271 334 396
#     4  10  21  38  65  97 127 170 219 268 324 388
#
# _framework density 21.132175
#
# number of rings (size 3 to 8) (size 9 to 14) (size 15 to 20)
#    0.000    1.333    1.667    4.000    7.000    4.667 
#    0.000    0.833    0.000    2.000    0.000    0.000 
#    0.000    0.000    0.000    0.000    0.000    0.000 
#
# Total GULP energy -267707.995712 kJ/mol
# GULP energy per Si atom -5577.249911 kJ/mol
# Density = 2.108408 g / cm^3
# Si number density = 21.132175 Si / 1000 Ang^3
#
#
#
# Elastic Constant Matrix: (Units=GPa)
#
#
# Indices 1 2 3 4 5 6 
#
# 1 38.5134 0.6345 14.9856 0.0000 0.0000 0.0000
# 2 0.6345 64.5412 -1.8941 0.0000 0.0000 0.0000
# 3 14.9856 -1.8941 105.2469 0.0000 0.0000 0.0000
# 4 0.0000 0.0000 0.0000 39.2910 0.0000 0.0000
# 5 0.0000 0.0000 0.0000 0.0000 22.4127 0.0000
# 6 0.0000 0.0000 0.0000 0.0000 0.0000 8.1536
#
#
#
# Elastic Compliance Matrix: (Units=1/GPa)
#
#
# Indices 1 2 3 4 5 6 
#
# 1 0.027497 -0.000385 -0.003922 0.000000 0.000000 0.000000
# 2 -0.000385 0.015508 0.000334 0.000000 0.000000 0.000000
# 3 -0.003922 0.000334 0.010066 0.000000 0.000000 0.000000
# 4 0.000000 0.000000 0.000000 0.025451 0.000000 0.000000
# 5 0.000000 0.000000 0.000000 0.000000 0.044618 0.000000
# 6 0.000000 0.000000 0.000000 0.000000 0.000000 0.122646
#
#
# Mechanical properties :
#
#
# Convention : Reuss Voigt Hill
#
# Bulk Modulus (GPa) = 22.16129 26.19481 24.17805
# Shear Modulus (GPa) = 18.60300 26.94315 22.77308
#
# Velocity S-wave (km/s) = 2.97023 3.57456 3.28632
# Velocity P-wave (km/s) = 4.71941 5.42764 5.08587
#
# Compressibility (1/GPa) = 0.04512374
#
# Stress axis : x y z
#
# Youngs Moduli (GPa) = 36.36699 64.48467 99.34495
#
# Poissons Ratio (x) = 0.02485 0.38965
# Poissons Ratio (y) = 0.01402 -0.03318
# Poissons Ratio (z) = 0.14264 -0.02154
#
# Static dielectric constant tensor:
#      x y z
#    x 1.770490 0.000000 0.000000 
#    y 0.000000 1.812720 0.000000 
#    z 0.000000 0.000000 1.760360 
# 
# From -- ./inp_files/34580.got.cif
#   From: 2010.05.17/outbox.cif.g08.bks.cpg/sg58_18_cif.got.tgz:34580.got - 2010.06.03 14:20:14.
