data_PCOD9442616
_publ_section_title
;
Structure prediction by ZEFSAII (Michael W. Deem and Ramdas Pophale) SiO2 
 PCOD9442616
Probable space group: P N N M
;
_chemical_formula_sum "Si O2"
_cell_formula_units_Z 64
_cell_length_a 28.939754
_cell_length_b 12.568318
_cell_length_c 8.497837
_cell_angle_alpha 90.000000
_cell_angle_beta 90.000000
_cell_angle_gamma 90.000000
_cell_volume 3090.867529
_symmetry_space_group_name_H-M "P N N M"
_symmetry_group_IT_number 58
_symmetry_cell_setting 'orthorhombic'
loop_
_space_group_symop_operation_xyz
x,y,z
-x,-y,z
1/2+x,1/2-y,1/2-z
1/2-x,1/2+y,1/2-z
-x,-y,-z
x,y,-z
1/2-x,1/2+y,1/2+z
1/2+x,1/2-y,1/2+z
loop_
_atom_site_type_symbol
_atom_site_label
_atom_site_fract_x
_atom_site_fract_y
_atom_site_fract_z
Si Si1 0.214450 0.439508 0.816712
Si Si2 0.565587 0.353073 0.312376
Si Si3 0.125674 0.325681 0.311266
Si Si4 0.927579 0.471457 0.684228
Si Si5 0.309253 0.365527 0.681957
Si Si6 0.023688 0.731940 0.311906
Si Si7 0.171808 0.643576 0.679428
Si Si8 0.911894 0.087363 0.810602
O O1 0.174848 0.357463 0.760672
O O2 0.265400 0.397072 0.784091
O O3 0.205671 0.546830 0.719112
O O4 0.207360 0.461902 0.000000
O O5 0.570751 0.351332 0.500000
O O6 0.608044 0.289854 0.235780
O O7 0.520085 0.289185 0.263344
O O8 0.563927 0.476743 0.264604
O O9 0.128581 0.336488 0.500000
O O10 0.087335 0.412995 0.252733
O O11 0.939280 0.487927 0.500000
O O12 0.965270 0.387974 0.747904
O O13 0.879440 0.405771 0.692645
O O14 0.298607 0.388085 0.500000
O O15 0.319846 0.241069 0.705780
O O16 0.357480 0.421866 0.724289
O O17 0.017435 0.725730 0.500000
O O18 0.066106 0.811000 0.273583
O O19 0.177931 0.680331 0.500000
O O20 0.916888 0.102336 0.000000
#
# Coordination Sequence:
#
# PCOD9442616 Si02
#       8
#     8   8   8   8   8   8   8   8
#     4  11  23  39  60  89 122 159 198 245 304 369
#     4  11  24  41  58  84 125 167 203 247 309 367
#     4  10  21  41  63  86 118 158 203 253 307 363
#     4   8  17  34  59  86 115 149 189 245 302 353
#     4  11  22  38  61  89 116 154 204 252 302 362
#     4  11  21  37  62  91 118 154 204 252 306 366
#     4  10  19  37  60  85 117 154 192 246 305 358
#     4  10  23  41  60  84 120 159 200 251 304 359
#
# _framework density 20.706161999999999
#
# number of rings (size 3 to 8) (size 9 to 14) (size 15 to 20)
#    0.000    1.750    1.250    4.125    0.000    4.500 
#    0.000    8.125    0.000    0.000    0.000    0.000 
#    0.000    0.000    0.000    0.000    0.000    0.000 
#
# Total GULP energy -357552.868765 kJ/mol
# GULP energy per Si atom -5586.763574 kJ/mol
# Density = 2.065903 g / cm^3
# Si number density = 20.706162 Si / 1000 Ang^3
#
#
#
# Elastic Constant Matrix: (Units=GPa)
#
#
# Indices 1 2 3 4 5 6 
#
# 1 45.0716 3.3453 3.2163 0.0000 0.0000 0.0000
# 2 3.3453 61.7478 -0.4118 0.0000 0.0000 0.0000
# 3 3.2163 -0.4118 29.9933 0.0000 0.0000 0.0000
# 4 0.0000 0.0000 0.0000 32.4186 0.0000 0.0000
# 5 0.0000 0.0000 0.0000 0.0000 25.3474 0.0000
# 6 0.0000 0.0000 0.0000 0.0000 0.0000 23.5372
#
#
#
# Elastic Compliance Matrix: (Units=1/GPa)
#
#
# Indices 1 2 3 4 5 6 
#
# 1 0.022451 -0.001233 -0.002425 0.000000 0.000000 0.000000
# 2 -0.001233 0.016264 0.000355 0.000000 0.000000 0.000000
# 3 -0.002425 0.000355 0.033606 0.000000 0.000000 0.000000
# 4 0.000000 0.000000 0.000000 0.030847 0.000000 0.000000
# 5 0.000000 0.000000 0.000000 0.000000 0.039452 0.000000
# 6 0.000000 0.000000 0.000000 0.000000 0.000000 0.042486
#
#
# Mechanical properties :
#
#
# Convention : Reuss Voigt Hill
#
# Bulk Modulus (GPa) = 15.21650 16.56802 15.89226
# Shear Modulus (GPa) = 23.40665 24.97150 24.18907
#
# Velocity S-wave (km/s) = 3.36582 3.47651 3.42161
# Velocity P-wave (km/s) = 4.74022 4.91260 4.82718
#
# Compressibility (1/GPa) = 0.06571813
#
# Stress axis : x y z
#
# Youngs Moduli (GPa) = 44.54061 61.48528 29.75686
#
# Poissons Ratio (x) = 0.07578 0.07215
# Poissons Ratio (y) = 0.05490 -0.01058
# Poissons Ratio (z) = 0.10799 -0.02186
#
# Static dielectric constant tensor:
#      x y z
#    x 1.761970 0.000000 0.000000 
#    y 0.000000 1.736610 0.000000 
#    z 0.000000 0.000000 1.699060 
# 
# From -- ./inp_files/11055.got.cif
#   From: 2010.05.17/outbox.cif.g08.bks.cpg/sg58_6_cif.got.tgz:11055.got - 2010.06.03 14:20:14.
