data_PCOD9442739
_publ_section_title
;
Structure prediction by ZEFSAII (Michael W. Deem and Ramdas Pophale) SiO2 
 PCOD9442739
Probable space group: P N N M
;
_chemical_formula_sum "Si O2"
_cell_formula_units_Z 48
_cell_length_a 22.558992
_cell_length_b 12.404487
_cell_length_c 7.279894
_cell_angle_alpha 90.000000
_cell_angle_beta 90.000000
_cell_angle_gamma 90.000000
_cell_volume 2037.152561
_symmetry_space_group_name_H-M "P N N M"
_symmetry_group_IT_number 58
_symmetry_cell_setting 'orthorhombic'
loop_
_space_group_symop_operation_xyz
x,y,z
-x,-y,z
1/2+x,1/2-y,1/2-z
1/2-x,1/2+y,1/2-z
-x,-y,-z
x,y,-z
1/2-x,1/2+y,1/2+z
1/2+x,1/2-y,1/2+z
loop_
_atom_site_type_symbol
_atom_site_label
_atom_site_fract_x
_atom_site_fract_y
_atom_site_fract_z
Si Si1 0.362733 0.282970 0.790838
Si Si2 0.162651 0.552825 0.709341
Si Si3 0.768960 0.644515 0.276412
Si Si4 0.431533 0.489069 0.775860
Si Si5 0.883115 0.782662 0.724184
Si Si6 0.543908 0.087642 0.791063
O O1 0.357764 0.164593 0.704386
O O2 0.295454 0.324612 0.790483
O O3 0.403029 0.377299 0.710795
O O4 0.384773 0.266767 0.000000
O O5 0.181374 0.579215 0.500000
O O6 0.213047 0.475520 0.788070
O O7 0.106215 0.474740 0.699922
O O8 0.768543 0.643661 0.500000
O O9 0.820410 0.729381 0.220826
O O10 0.500000 0.500000 0.723356
O O11 0.394991 0.595215 0.718782
O O12 0.429273 0.487843 0.000000
O O13 0.884072 0.778904 0.500000
O O14 0.937081 0.703720 0.785157
O O15 0.500000 0.000000 0.704850
O O16 0.521230 0.106906 0.000000
#
# Coordination Sequence:
#
# PCOD9442739 Si02
#       6
#     8   8   8   8   8   8
#     4  10  20  31  48  72  97 122 154 196 238 282
#     4   8  16  29  42  64  94 120 150 190 232 274
#     4   9  18  33  50  67  93 127 159 192 233 278
#     4   9  18  29  43  67  99 128 152 191 246 289
#     4   8  15  27  42  63  90 121 156 189 227 280
#     4   8  13  21  39  61  85 118 150 182 223 273
#
# _framework density 23.562298999999999
#
# number of rings (size 3 to 8) (size 9 to 14) (size 15 to 20)
#    0.000    3.333    0.000    2.000    4.667    0.000 
#    0.000    0.000    0.000    0.500    0.000    0.000 
#    0.000    4.000    0.000    0.000    0.000    0.000 
#
# Total GULP energy -267777.142781 kJ/mol
# GULP energy per Si atom -5578.690475 kJ/mol
# Density = 2.350867 g / cm^3
# Si number density = 23.562299 Si / 1000 Ang^3
#
#
#
# Elastic Constant Matrix: (Units=GPa)
#
#
# Indices 1 2 3 4 5 6 
#
# 1 58.4695 27.7663 -5.4711 0.0000 0.0000 0.0000
# 2 27.7663 179.8502 5.9333 0.0000 0.0000 0.0000
# 3 -5.4711 5.9333 103.0620 0.0000 0.0000 0.0000
# 4 0.0000 0.0000 0.0000 -20.5012 0.0000 0.0000
# 5 0.0000 0.0000 0.0000 0.0000 176.9689 0.0000
# 6 0.0000 0.0000 0.0000 0.0000 0.0000 22.2011
#
#
#
# Elastic Compliance Matrix: (Units=1/GPa)
#
#
# Indices 1 2 3 4 5 6 
#
# 1 0.018592 -0.002908 0.001154 0.000000 0.000000 0.000000
# 2 -0.002908 0.006026 -0.000501 0.000000 0.000000 0.000000
# 3 0.001154 -0.000501 0.009793 0.000000 0.000000 0.000000
# 4 0.000000 0.000000 0.000000 -0.048778 0.000000 0.000000
# 5 0.000000 0.000000 0.000000 0.000000 0.005651 0.000000
# 6 0.000000 0.000000 0.000000 0.000000 0.000000 0.045043
#
#
# Mechanical properties :
#
#
# Convention : Reuss Voigt Hill
#
# Bulk Modulus (GPa) = 33.44452 44.20431 38.82441
# Shear Modulus (GPa) = 98.41710 56.61064 77.51387
#
# Velocity S-wave (km/s) = 6.46990 4.90694 5.74185
# Velocity P-wave (km/s) = 8.36885 7.13481 7.77635
#
# Compressibility (1/GPa) = 0.02990026
#
# Stress axis : x y z
#
# Youngs Moduli (GPa) = 53.78615 165.95463 102.11331
#
# Poissons Ratio (x) = 0.48267 -0.11788
# Poissons Ratio (y) = 0.15643 0.05119
# Poissons Ratio (z) = -0.06209 0.08319
#
# Static dielectric constant tensor:
#      x y z
#    x 1.836250 0.000000 0.000000 
#    y 0.000000 1.906050 0.000000 
#    z 0.000000 0.000000 1.847660 
# 
# From -- ./inp_files/4170.got.cif
#   From: 2010.05.17/outbox.cif.g08.bks.cpg/sg58_3_cif.got.tgz:4170.got - 2010.06.03 14:20:14.
