data_PCOD9442706
_publ_section_title
;
Structure prediction by ZEFSAII (Michael W. Deem and Ramdas Pophale) SiO2 
 PCOD9442706
Probable space group: P N N M
;
_chemical_formula_sum "Si O2"
_cell_formula_units_Z 40
_cell_length_a 10.475304
_cell_length_b 23.448196
_cell_length_c 8.410728
_cell_angle_alpha 90.000000
_cell_angle_beta 90.000000
_cell_angle_gamma 90.000000
_cell_volume 2065.901730
_symmetry_space_group_name_H-M "P N N M"
_symmetry_group_IT_number 58
_symmetry_cell_setting 'orthorhombic'
loop_
_space_group_symop_operation_xyz
x,y,z
-x,-y,z
1/2+x,1/2-y,1/2-z
1/2-x,1/2+y,1/2-z
-x,-y,-z
x,y,-z
1/2-x,1/2+y,1/2+z
1/2+x,1/2-y,1/2+z
loop_
_atom_site_type_symbol
_atom_site_label
_atom_site_fract_x
_atom_site_fract_y
_atom_site_fract_z
Si Si1 0.489673 0.191042 0.810871
Si Si2 0.737541 0.119150 0.193577
Si Si3 0.246415 0.124449 0.313651
Si Si4 0.495280 0.318345 0.311411
Si Si5 0.849933 0.495211 0.307825
O O1 0.615047 0.156308 0.756893
O O2 0.364349 0.165723 0.728887
O O3 0.505376 0.257416 0.773176
O O4 0.476194 0.182314 0.000000
O O5 0.869125 0.148065 0.245014
O O6 0.718250 0.053747 0.243100
O O7 0.737715 0.118966 0.000000
O O8 0.219896 0.127670 0.500000
O O9 0.121197 0.145036 0.221505
O O10 0.288600 0.060950 0.265639
O O11 0.482589 0.308161 0.500000
O O12 0.842438 0.490455 0.500000
O O13 0.000000 0.500000 0.267155
#
# Coordination Sequence:
#
# PCOD9442706 Si02
#       5
#     8   8   8   8   8
#     4  11  21  40  66  92 121 159 204 254 307 368
#     4   9  20  38  63  90 117 152 200 253 309 368
#     4  12  25  40  59  90 127 165 205 249 298 363
#     4  11  23  40  61  91 126 161 200 251 310 368
#     4  10  19  39  67  89 113 155 206 257 311 369
#
# _framework density 19.362003999999999
#
# number of rings (size 3 to 8) (size 9 to 14) (size 15 to 20)
#    0.000    1.400    2.000    4.200    0.000    2.800 
#    0.000    9.000    0.000    0.000    0.000    0.000 
#    0.000    0.000    0.000    0.000    0.000    0.000 
#
# Total GULP energy -223659.570393 kJ/mol
# GULP energy per Si atom -5591.489260 kJ/mol
# Density = 1.931794 g / cm^3
# Si number density = 19.362004 Si / 1000 Ang^3
#
#
#
# Elastic Constant Matrix: (Units=GPa)
#
#
# Indices 1 2 3 4 5 6 
#
# 1 93.3052 19.9526 -12.1084 0.0000 0.0000 0.0000
# 2 19.9526 103.7614 -8.7653 0.0000 0.0000 0.0000
# 3 -12.1084 -8.7653 17.0718 0.0000 0.0000 0.0000
# 4 0.0000 0.0000 0.0000 32.9754 0.0000 0.0000
# 5 0.0000 0.0000 0.0000 0.0000 -3.9762 0.0000
# 6 0.0000 0.0000 0.0000 0.0000 0.0000 -39.8452
#
#
#
# Elastic Compliance Matrix: (Units=1/GPa)
#
#
# Indices 1 2 3 4 5 6 
#
# 1 0.012075 -0.001671 0.007706 0.000000 0.000000 0.000000
# 2 -0.001671 0.010306 0.004106 0.000000 0.000000 0.000000
# 3 0.007706 0.004106 0.066150 0.000000 0.000000 0.000000
# 4 0.000000 0.000000 0.000000 0.030326 0.000000 0.000000
# 5 0.000000 0.000000 0.000000 0.000000 -0.251495 0.000000
# 6 0.000000 0.000000 0.000000 0.000000 0.000000 -0.025097
#
#
# Mechanical properties :
#
#
# Convention : Reuss Voigt Hill
#
# Bulk Modulus (GPa) = 9.18997 23.58847 16.38922
# Shear Modulus (GPa) = -35.27408 12.16808 -11.55300
#
# Velocity S-wave (km/s) = -4.27291 2.50961 -2.44536
# Velocity P-wave (km/s) = 4.42572 4.53948 0.71410
#
# Compressibility (1/GPa) = 0.10881423
#
# Stress axis : x y z
#
# Youngs Moduli (GPa) = 82.81634 97.03392 15.11708
#
# Poissons Ratio (x) = 0.16214 -0.11650
# Poissons Ratio (y) = 0.13838 -0.06207
# Poissons Ratio (z) = -0.63822 -0.39844
#
# Static dielectric constant tensor:
#      x y z
#    x 1.645480 0.000000 0.000000 
#    y 0.000000 1.644880 0.000000 
#    z 0.000000 0.000000 1.669160 
# 
# From -- ./inp_files/2439.got.cif
#   From: 2010.05.17/outbox.cif.g08.bks.cpg/sg58_2_cif.got.tgz:2439.got - 2010.06.03 14:20:14.
