data_PCOD9442926
_publ_section_title
;
Structure prediction by ZEFSAII (Michael W. Deem and Ramdas Pophale) SiO2 
 PCOD9442926
Probable space group: P N N M
;
_chemical_formula_sum "Si O2"
_cell_formula_units_Z 48
_cell_length_a 23.335493
_cell_length_b 12.278924
_cell_length_c 7.684501
_cell_angle_alpha 90.000000
_cell_angle_beta 90.000000
_cell_angle_gamma 90.000000
_cell_volume 2201.876535
_symmetry_space_group_name_H-M "P N N M"
_symmetry_group_IT_number 58
_symmetry_cell_setting 'orthorhombic'
loop_
_space_group_symop_operation_xyz
x,y,z
-x,-y,z
1/2+x,1/2-y,1/2-z
1/2-x,1/2+y,1/2-z
-x,-y,-z
x,y,-z
1/2-x,1/2+y,1/2+z
1/2+x,1/2-y,1/2+z
loop_
_atom_site_type_symbol
_atom_site_label
_atom_site_fract_x
_atom_site_fract_y
_atom_site_fract_z
Si Si1 0.955688 0.583513 0.300155
Si Si2 0.066172 0.988328 0.713000
Si Si3 0.274783 0.849343 0.699468
Si Si4 0.648500 0.702265 0.213650
Si Si5 0.112211 0.217792 0.706906
Si Si6 0.660663 0.946028 0.197816
O O1 0.976744 0.604646 0.500000
O O2 0.935850 0.698200 0.220872
O O3 0.897097 0.515937 0.309557
O O4 0.000000 0.500000 0.215447
O O5 0.066103 0.986275 0.500000
O O6 0.098442 0.878916 0.771605
O O7 0.101818 0.095501 0.769343
O O8 0.000000 0.000000 0.767183
O O9 0.270658 0.816773 0.500000
O O10 0.211272 0.837166 0.773303
O O11 0.325168 0.771733 0.771479
O O12 0.294581 0.974678 0.710556
O O13 0.645640 0.827866 0.269859
O O14 0.646002 0.700772 0.000000
O O15 0.102395 0.216000 0.500000
O O16 0.681797 0.931005 0.000000
#
# Coordination Sequence:
#
# PCOD9442926 Si02
#       6
#     8   8   8   8   8   8
#     4   8  14  24  44  72  96 121 156 201 246 288
#     4   9  18  31  51  81 110 135 170 219 271 313
#     4  10  20  34  52  75 104 137 172 211 258 305
#     4   9  19  32  49  75 105 135 166 212 264 311
#     4   9  18  32  52  78 105 134 170 211 256 310
#     4   9  18  33  51  73 101 129 167 210 252 306
#
# _framework density 21.799588
#
# number of rings (size 3 to 8) (size 9 to 14) (size 15 to 20)
#    0.000    3.000    0.000    1.500    4.667    0.000 
#    0.000    0.833    0.000    9.500    0.000    0.000 
#    0.000    0.000    0.000    0.000    0.000    0.000 
#
# Total GULP energy -267490.544508 kJ/mol
# GULP energy per Si atom -5572.719677 kJ/mol
# Density = 2.174997 g / cm^3
# Si number density = 21.799588 Si / 1000 Ang^3
#
#
#
# Elastic Constant Matrix: (Units=GPa)
#
#
# Indices 1 2 3 4 5 6 
#
# 1 62.4736 33.1467 -0.8364 0.0000 0.0000 0.0000
# 2 33.1467 148.1995 0.2889 0.0000 0.0000 0.0000
# 3 -0.8364 0.2889 30.6451 0.0000 0.0000 0.0000
# 4 0.0000 0.0000 0.0000 2.4396 0.0000 0.0000
# 5 0.0000 0.0000 0.0000 0.0000 11.9735 0.0000
# 6 0.0000 0.0000 0.0000 0.0000 0.0000 15.0240
#
#
#
# Elastic Compliance Matrix: (Units=1/GPa)
#
#
# Indices 1 2 3 4 5 6 
#
# 1 0.018171 -0.004065 0.000534 0.000000 0.000000 0.000000
# 2 -0.004065 0.007657 -0.000183 0.000000 0.000000 0.000000
# 3 0.000534 -0.000183 0.032648 0.000000 0.000000 0.000000
# 4 0.000000 0.000000 0.000000 0.409897 0.000000 0.000000
# 5 0.000000 0.000000 0.000000 0.000000 0.083518 0.000000
# 6 0.000000 0.000000 0.000000 0.000000 0.000000 0.066560
#
#
# Mechanical properties :
#
#
# Convention : Reuss Voigt Hill
#
# Bulk Modulus (GPa) = 19.58945 34.05742 26.82343
# Shear Modulus (GPa) = 7.77732 19.80201 13.78966
#
# Velocity S-wave (km/s) = 1.89087 3.01718 2.51781
# Velocity P-wave (km/s) = 3.71118 5.27207 4.55892
#
# Compressibility (1/GPa) = 0.05104788
#
# Stress axis : x y z
#
# Youngs Moduli (GPa) = 55.03337 130.59530 30.62977
#
# Poissons Ratio (x) = 0.53089 -0.01636
# Poissons Ratio (y) = 0.22372 0.00561
# Poissons Ratio (z) = -0.02940 0.02392
#
# Static dielectric constant tensor:
#      x y z
#    x 1.787970 0.000000 0.000000 
#    y 0.000000 1.816590 0.000000 
#    z 0.000000 0.000000 1.836190 
# 
# From -- ./inp_files/4219.got.cif
#   From: 2010.05.17/outbox.cif.g08.bks.cpg/sg58_3_cif.got.tgz:4219.got - 2010.06.03 14:20:14.
