data_PCOD9442824
_publ_section_title
;
Structure prediction by ZEFSAII (Michael W. Deem and Ramdas Pophale) SiO2 
 PCOD9442824
Probable space group: P N N M
;
_chemical_formula_sum "Si O2"
_cell_formula_units_Z 64
_cell_length_a 12.905858
_cell_length_b 28.686766
_cell_length_c 9.199483
_cell_angle_alpha 90.000000
_cell_angle_beta 90.000000
_cell_angle_gamma 90.000000
_cell_volume 3405.900014
_symmetry_space_group_name_H-M "P N N M"
_symmetry_group_IT_number 58
_symmetry_cell_setting 'orthorhombic'
loop_
_space_group_symop_operation_xyz
x,y,z
-x,-y,z
1/2+x,1/2-y,1/2-z
1/2-x,1/2+y,1/2-z
-x,-y,-z
x,y,-z
1/2-x,1/2+y,1/2+z
1/2+x,1/2-y,1/2+z
loop_
_atom_site_type_symbol
_atom_site_label
_atom_site_fract_x
_atom_site_fract_y
_atom_site_fract_z
Si Si1 0.164079 0.192191 0.824504
Si Si2 0.831484 0.078155 0.666223
Si Si3 0.241288 0.092308 0.173515
Si Si4 0.717505 0.211420 0.174405
Si Si5 0.889855 0.628437 0.167719
Si Si6 0.965670 0.447160 0.324237
Si Si7 0.433183 0.339980 0.673191
Si Si8 0.615750 0.480860 0.170097
O O1 0.231898 0.146578 0.785583
O O2 0.201589 0.237981 0.742625
O O3 0.044232 0.180987 0.785309
O O4 0.169178 0.198912 0.000000
O O5 0.869890 0.074563 0.500000
O O6 0.721386 0.103009 0.665340
O O7 0.909416 0.110412 0.754382
O O8 0.818064 0.025644 0.720987
O O9 0.347413 0.066158 0.215162
O O10 0.146536 0.064045 0.241092
O O11 0.233359 0.090659 0.000000
O O12 0.633996 0.176011 0.245608
O O13 0.833651 0.192399 0.208865
O O14 0.706297 0.211609 0.000000
O O15 0.965511 0.592631 0.248382
O O16 0.921360 0.637192 0.000000
O O17 0.976126 0.443782 0.500000
O O18 0.000000 0.500000 0.283042
O O19 0.434387 0.346088 0.500000
O O20 0.500000 0.500000 0.187892
O O21 0.634728 0.471470 0.000000
#
# Coordination Sequence:
#
# PCOD9442824 Si02
#       8
#     8   8   8   8   8   8   8   8
#     4  10  21  38  56  77 108 140 176 224 273 322
#     4   9  18  32  51  77 106 135 172 215 258 309
#     4  10  22  37  54  79 109 144 185 227 275 330
#     4  10  21  37  57  81 106 137 180 224 273 330
#     4  10  20  35  56  80 106 140 182 225 270 320
#     4  10  21  37  56  81 116 154 191 233 280 333
#     4   9  19  35  55  78 104 135 172 216 264 317
#     4  10  20  33  51  77 108 139 173 216 264 318
#
# _framework density 18.790921999999998
#
# number of rings (size 3 to 8) (size 9 to 14) (size 15 to 20)
#    0.000    2.250    0.000    2.250    0.000    4.500 
#    0.000    2.500    0.000    0.000    0.000    0.000 
#    0.000    0.000    0.000    0.000    0.000    0.000 
#
# Total GULP energy -357050.336762 kJ/mol
# GULP energy per Si atom -5578.911512 kJ/mol
# Density = 1.874815 g / cm^3
# Si number density = 18.790922 Si / 1000 Ang^3
#
#
#
# Elastic Constant Matrix: (Units=GPa)
#
#
# Indices 1 2 3 4 5 6 
#
# 1 77.7711 48.4962 33.3103 0.0000 0.0000 0.0000
# 2 48.4962 155.5423 47.9729 0.0000 0.0000 0.0000
# 3 33.3103 47.9729 27.9598 0.0000 0.0000 0.0000
# 4 0.0000 0.0000 0.0000 36.5327 0.0000 0.0000
# 5 0.0000 0.0000 0.0000 0.0000 19.4020 0.0000
# 6 0.0000 0.0000 0.0000 0.0000 0.0000 28.5899
#
#
#
# Elastic Compliance Matrix: (Units=1/GPa)
#
#
# Indices 1 2 3 4 5 6 
#
# 1 0.026981 0.003190 -0.037617 0.000000 0.000000 0.000000
# 2 0.003190 0.014032 -0.027876 0.000000 0.000000 0.000000
# 3 -0.037617 -0.027876 0.128411 0.000000 0.000000 0.000000
# 4 0.000000 0.000000 0.000000 0.027373 0.000000 0.000000
# 5 0.000000 0.000000 0.000000 0.000000 0.051541 0.000000
# 6 0.000000 0.000000 0.000000 0.000000 0.000000 0.034977
#
#
# Mechanical properties :
#
#
# Convention : Reuss Voigt Hill
#
# Bulk Modulus (GPa) = 22.31305 57.87020 40.09162
# Shear Modulus (GPa) = 11.82420 25.67116 18.74768
#
# Velocity S-wave (km/s) = 2.51121 3.70015 3.16206
# Velocity P-wave (km/s) = 4.50648 7.00847 5.89181
#
# Compressibility (1/GPa) = 0.04481683
#
# Stress axis : x y z
#
# Youngs Moduli (GPa) = 37.06307 71.26365 7.78752
#
# Poissons Ratio (x) = -0.22730 0.29294
# Poissons Ratio (y) = -0.11821 0.21709
# Poissons Ratio (z) = 1.39419 1.98658
#
# Static dielectric constant tensor:
#      x y z
#    x 1.672310 0.000000 0.000000 
#    y 0.000000 1.647410 0.000000 
#    z 0.000000 0.000000 1.631460 
# 
# From -- ./inp_files/4782.got.cif
#   From: 2010.05.17/outbox.cif.g08.bks.cpg/sg58_3_cif.got.tgz:4782.got - 2010.06.03 14:20:14.
