data_PCOD9442498
_publ_section_title
;
Structure prediction by ZEFSAII (Michael W. Deem and Ramdas Pophale) SiO2 
 PCOD9442498
Probable space group: P N N M
;
_chemical_formula_sum "Si O2"
_cell_formula_units_Z 64
_cell_length_a 7.369722
_cell_length_b 30.101038
_cell_length_c 13.453115
_cell_angle_alpha 90.000000
_cell_angle_beta 90.000000
_cell_angle_gamma 90.000000
_cell_volume 2984.389013
_symmetry_space_group_name_H-M "P N N M"
_symmetry_group_IT_number 58
_symmetry_cell_setting 'orthorhombic'
loop_
_space_group_symop_operation_xyz
x,y,z
-x,-y,z
1/2+x,1/2-y,1/2-z
1/2-x,1/2+y,1/2-z
-x,-y,-z
x,y,-z
1/2-x,1/2+y,1/2+z
1/2+x,1/2-y,1/2+z
loop_
_atom_site_type_symbol
_atom_site_label
_atom_site_fract_x
_atom_site_fract_y
_atom_site_fract_z
Si Si1 0.379893 0.846014 0.884972
Si Si2 0.781143 0.506163 0.889285
Si Si3 0.681183 0.729300 0.270576
Si Si4 0.202865 0.121735 0.892023
Si Si5 0.318669 0.904860 0.293299
Si Si6 0.037470 0.839887 0.612764
Si Si7 0.874183 0.781931 0.110553
Si Si8 0.751786 0.909923 0.681762
O O1 0.332731 0.801935 0.821745
O O2 0.594651 0.856748 0.888642
O O3 0.297798 0.886037 0.818401
O O4 0.319395 0.843033 0.000000
O O5 0.748675 0.545326 0.811171
O O6 0.704471 0.457702 0.864724
O O7 0.000000 0.500000 0.890451
O O8 0.725025 0.520331 0.000000
O O9 0.566623 0.698474 0.193919
O O10 0.745956 0.768272 0.200060
O O11 0.556035 0.744403 0.361602
O O12 0.079869 0.165777 0.885497
O O13 0.186547 0.091279 0.796832
O O14 0.178221 0.100543 0.000000
O O15 0.205541 0.873007 0.365571
O O16 0.533576 0.903429 0.319273
O O17 0.040924 0.823374 0.500000
O O18 0.858224 0.869403 0.631367
O O19 0.806477 0.772240 0.000000
#
# Coordination Sequence:
#
# PCOD9442498 Si02
#       8
#     8   8   8   8   8   8   8   8
#     4   9  18  35  59  82 108 147 189 231 284 340
#     4   9  17  31  53  80 113 154 194 234 286 340
#     4  11  22  38  58  83 116 142 189 240 284 356
#     4   9  18  35  58  80 105 144 188 232 284 340
#     4   9  20  35  55  81 117 152 190 240 282 338
#     4  11  22  36  56  84 113 149 192 236 285 342
#     4  11  22  38  60  82 112 149 184 235 297 346
#     4  10  19  36  56  81 113 153 192 237 284 345
#
# _framework density 21.444925999999999
#
# number of rings (size 3 to 8) (size 9 to 14) (size 15 to 20)
#    0.000    2.125    1.250    2.250    0.000    2.000 
#    0.000    3.750    0.000    3.750    0.000    2.625 
#    0.000    0.000    0.000    0.000    0.000    0.000 
#
# Total GULP energy -357219.328241 kJ/mol
# GULP energy per Si atom -5581.552004 kJ/mol
# Density = 2.139612 g / cm^3
# Si number density = 21.444926 Si / 1000 Ang^3
#
#
#
# Elastic Constant Matrix: (Units=GPa)
#
#
# Indices 1 2 3 4 5 6 
#
# 1 48.1754 4.2619 12.6535 0.0000 0.0000 0.0000
# 2 4.2619 53.7879 23.2372 0.0000 0.0000 0.0000
# 3 12.6535 23.2372 130.9154 0.0000 0.0000 0.0000
# 4 0.0000 0.0000 0.0000 25.3633 0.0000 0.0000
# 5 0.0000 0.0000 0.0000 0.0000 24.6802 0.0000
# 6 0.0000 0.0000 0.0000 0.0000 0.0000 20.5267
#
#
#
# Elastic Compliance Matrix: (Units=1/GPa)
#
#
# Indices 1 2 3 4 5 6 
#
# 1 0.021335 -0.000866 -0.001908 0.000000 0.000000 0.000000
# 2 -0.000866 0.020171 -0.003497 0.000000 0.000000 0.000000
# 3 -0.001908 -0.003497 0.008444 0.000000 0.000000 0.000000
# 4 0.000000 0.000000 0.000000 0.039427 0.000000 0.000000
# 5 0.000000 0.000000 0.000000 0.000000 0.040518 0.000000
# 6 0.000000 0.000000 0.000000 0.000000 0.000000 0.048717
#
#
# Mechanical properties :
#
#
# Convention : Reuss Voigt Hill
#
# Bulk Modulus (GPa) = 26.73251 34.79822 30.76537
# Shear Modulus (GPa) = 24.55514 26.96244 25.75879
#
# Velocity S-wave (km/s) = 3.38750 3.54967 3.46954
# Velocity P-wave (km/s) = 5.27190 5.74998 5.51612
#
# Compressibility (1/GPa) = 0.03740763
#
# Stress axis : x y z
#
# Youngs Moduli (GPa) = 46.87057 49.57682 118.43272
#
# Poissons Ratio (x) = 0.04294 0.22602
# Poissons Ratio (y) = 0.04059 0.41411
# Poissons Ratio (z) = 0.08945 0.17335
#
# Static dielectric constant tensor:
#      x y z
#    x 1.899980 0.000000 0.000000 
#    y 0.000000 1.756630 0.000000 
#    z 0.000000 0.000000 1.750260 
# 
# From -- ./inp_files/13423.got.cif
#   From: 2010.05.17/outbox.cif.g08.bks.cpg/sg58_7_cif.got.tgz:13423.got - 2010.06.03 14:20:14.
