data_PCOD9442508
_publ_section_title
;
Structure prediction by ZEFSAII (Michael W. Deem and Ramdas Pophale) SiO2 
 PCOD9442508
Probable space group: P N N M
;
_chemical_formula_sum "Si O2"
_cell_formula_units_Z 64
_cell_length_a 10.422508
_cell_length_b 14.340819
_cell_length_c 18.966906
_cell_angle_alpha 90.000000
_cell_angle_beta 90.000000
_cell_angle_gamma 90.000000
_cell_volume 2834.932243
_symmetry_space_group_name_H-M "P N N M"
_symmetry_group_IT_number 58
_symmetry_cell_setting 'orthorhombic'
loop_
_space_group_symop_operation_xyz
x,y,z
-x,-y,z
1/2+x,1/2-y,1/2-z
1/2-x,1/2+y,1/2-z
-x,-y,-z
x,y,-z
1/2-x,1/2+y,1/2+z
1/2+x,1/2-y,1/2+z
loop_
_atom_site_type_symbol
_atom_site_label
_atom_site_fract_x
_atom_site_fract_y
_atom_site_fract_z
Si Si1 0.302166 0.164761 0.577799
Si Si2 0.450991 0.409059 0.167027
Si Si3 0.538398 0.365320 0.681443
Si Si4 0.364370 0.241237 0.918953
Si Si5 0.286797 0.374529 0.583698
Si Si6 0.085563 0.321719 0.121332
Si Si7 0.184318 0.500639 0.811064
Si Si8 0.310680 0.050765 0.151792
O O1 0.260928 0.132242 0.500000
O O2 0.243852 0.266821 0.593023
O O3 0.456497 0.182699 0.575772
O O4 0.284545 0.087882 0.638174
O O5 0.500000 0.500000 0.126383
O O6 0.528302 0.396942 0.238587
O O7 0.447867 0.317546 0.121219
O O8 0.309648 0.435009 0.194185
O O9 0.413933 0.383479 0.633095
O O10 0.561524 0.254456 0.681977
O O11 0.661492 0.416622 0.650339
O O12 0.217735 0.284496 0.913555
O O13 0.376247 0.140550 0.882720
O O14 0.398346 0.233420 0.000000
O O15 0.314839 0.386913 0.500000
O O16 0.188077 0.453542 0.609719
O O17 0.092549 0.425978 0.150935
O O18 0.149895 0.534418 0.732906
#
# Coordination Sequence:
#
# PCOD9442508 Si02
#       8
#     8   8   8   8   8   8   8   8
#     4  10  22  38  58  87 125 159 195 245 304 371
#     4  11  21  40  61  86 119 158 205 252 291 357
#     4  10  19  36  57  86 119 152 194 242 300 356
#     4  10  23  38  59  91 121 158 201 253 311 356
#     4  10  20  34  58  86 119 159 194 237 299 368
#     4   9  21  36  61  86 121 154 194 245 307 373
#     4  11  22  35  57  92 117 159 200 242 305 352
#     4  11  21  35  58  85 125 155 195 251 298 361
#
# _framework density 22.575496000000001
#
# number of rings (size 3 to 8) (size 9 to 14) (size 15 to 20)
#    0.000    1.750    2.500    1.500    3.500    8.250 
#    0.000    0.000    0.000    0.000    0.000    0.875 
#    0.000    0.000    0.000    0.000    0.000    0.000 
#
# Total GULP energy -357488.938662 kJ/mol
# GULP energy per Si atom -5585.764667 kJ/mol
# Density = 2.252411 g / cm^3
# Si number density = 22.575496 Si / 1000 Ang^3
#
#
#
# Elastic Constant Matrix: (Units=GPa)
#
#
# Indices 1 2 3 4 5 6 
#
# 1 23.4726 11.5635 -1.1492 0.0000 0.0000 0.0000
# 2 11.5635 207.9314 100.1762 0.0000 0.0000 0.0000
# 3 -1.1492 100.1762 142.7376 0.0000 0.0000 0.0000
# 4 0.0000 0.0000 0.0000 32.6550 0.0000 0.0000
# 5 0.0000 0.0000 0.0000 0.0000 -4.7570 0.0000
# 6 0.0000 0.0000 0.0000 0.0000 0.0000 34.1680
#
#
#
# Elastic Compliance Matrix: (Units=1/GPa)
#
#
# Indices 1 2 3 4 5 6 
#
# 1 0.044740 -0.004021 0.003182 0.000000 0.000000 0.000000
# 2 -0.004021 0.007628 -0.005386 0.000000 0.000000 0.000000
# 3 0.003182 -0.005386 0.010811 0.000000 0.000000 0.000000
# 4 0.000000 0.000000 0.000000 0.030623 0.000000 0.000000
# 5 0.000000 0.000000 0.000000 0.000000 -0.210217 0.000000
# 6 0.000000 0.000000 0.000000 0.000000 0.000000 0.029267
#
#
# Mechanical properties :
#
#
# Convention : Reuss Voigt Hill
#
# Bulk Modulus (GPa) = 19.71238 66.14697 42.92968
# Shear Modulus (GPa) = -86.52003 29.98327 -28.26838
#
# Velocity S-wave (km/s) = -6.19742 3.64831 -3.54244
# Velocity P-wave (km/s) = 6.51613 6.86373 1.52495
#
# Compressibility (1/GPa) = 0.05072954
#
# Stress axis : x y z
#
# Youngs Moduli (GPa) = 22.35155 131.10407 92.49696
#
# Poissons Ratio (x) = 0.52721 -0.29436
# Poissons Ratio (y) = 0.08988 0.49815
# Poissons Ratio (z) = -0.07113 0.70607
#
# Static dielectric constant tensor:
#      x y z
#    x 1.959880 0.000000 0.000000 
#    y 0.000000 1.861770 0.000000 
#    z 0.000000 0.000000 1.756200 
# 
# From -- ./inp_files/26356.got.cif
#   From: 2010.05.17/outbox.cif.g08.bks.cpg/sg58_14_cif.got.tgz:26356.got - 2010.06.03 14:20:14.
