data_PCOD9442968
_publ_section_title
;
Structure prediction by ZEFSAII (Michael W. Deem and Ramdas Pophale) SiO2 
 PCOD9442968
Probable space group: P N N M
;
_chemical_formula_sum "Si O2"
_cell_formula_units_Z 64
_cell_length_a 9.175997
_cell_length_b 15.004922
_cell_length_c 24.985647
_cell_angle_alpha 90.000000
_cell_angle_beta 90.000000
_cell_angle_gamma 90.000000
_cell_volume 3440.151787
_symmetry_space_group_name_H-M "P N N M"
_symmetry_group_IT_number 58
_symmetry_cell_setting 'orthorhombic'
loop_
_space_group_symop_operation_xyz
x,y,z
-x,-y,z
1/2+x,1/2-y,1/2-z
1/2-x,1/2+y,1/2-z
-x,-y,-z
x,y,-z
1/2-x,1/2+y,1/2+z
1/2+x,1/2-y,1/2+z
loop_
_atom_site_type_symbol
_atom_site_label
_atom_site_fract_x
_atom_site_fract_y
_atom_site_fract_z
Si Si1 0.447962 0.328522 0.177250
Si Si2 0.730782 0.874247 0.345523
Si Si3 0.498539 0.193546 0.271309
Si Si4 0.690465 0.268631 0.631688
Si Si5 0.286019 0.963184 0.274370
Si Si6 0.670826 0.473126 0.662530
Si Si7 0.352288 0.437790 0.440830
Si Si8 0.567886 0.771629 0.439043
O O1 0.595684 0.368100 0.153790
O O2 0.491764 0.252560 0.219290
O O3 0.344480 0.279999 0.134656
O O4 0.350906 0.400750 0.209135
O O5 0.660765 0.815387 0.297482
O O6 0.657455 0.834922 0.398757
O O7 0.689660 0.973086 0.325482
O O8 0.599187 0.238198 0.316261
O O9 0.575412 0.098789 0.262496
O O10 0.692617 0.374541 0.638871
O O11 0.597639 0.234919 0.581610
O O12 0.245188 0.015322 0.220110
O O13 0.500000 0.500000 0.670659
O O14 0.727106 0.535807 0.614160
O O15 0.500000 0.500000 0.440519
O O16 0.285705 0.453875 0.500000
O O17 0.383139 0.332377 0.436529
O O18 0.580180 0.801600 0.500000
#
# Coordination Sequence:
#
# PCOD9442968 Si02
#       8
#     8   8   8   8   8   8   8   8
#     4  11  22  35  55  83 122 157 190 240 308 370
#     4  11  22  37  58  82 118 158 202 249 298 364
#     4  10  21  35  55  80 118 156 197 235 290 362
#     4  10  20  34  53  85 114 149 194 250 298 357
#     4  11  22  35  56  86 122 156 197 242 299 368
#     4  11  18  29  54  86 121 154 196 242 305 380
#     4   9  17  30  54  86 115 149 204 260 300 356
#     4  10  21  39  62  85 112 157 214 264 307 361
#
# _framework density 18.603829000000001
#
# number of rings (size 3 to 8) (size 9 to 14) (size 15 to 20)
#    0.000    1.625    2.500    5.250    3.500    0.000 
#    0.000    0.625    0.000   15.000    0.000    1.750 
#    0.000    0.000    0.000    0.000    0.000    0.000 
#
# Total GULP energy -356921.985860 kJ/mol
# GULP energy per Si atom -5576.906029 kJ/mol
# Density = 1.856149 g / cm^3
# Si number density = 18.603829 Si / 1000 Ang^3
#
#
#
# Elastic Constant Matrix: (Units=GPa)
#
#
# Indices 1 2 3 4 5 6 
#
# 1 69.1720 17.3877 22.7050 0.0000 0.0000 0.0000
# 2 17.3877 73.6860 41.9075 0.0000 0.0000 0.0000
# 3 22.7050 41.9075 111.9729 0.0000 0.0000 0.0000
# 4 0.0000 0.0000 0.0000 29.2754 0.0000 0.0000
# 5 0.0000 0.0000 0.0000 0.0000 -4.9602 0.0000
# 6 0.0000 0.0000 0.0000 0.0000 0.0000 28.4442
#
#
#
# Elastic Compliance Matrix: (Units=1/GPa)
#
#
# Indices 1 2 3 4 5 6 
#
# 1 0.015821 -0.002425 -0.002301 0.000000 0.000000 0.000000
# 2 -0.002425 0.017613 -0.006100 0.000000 0.000000 0.000000
# 3 -0.002301 -0.006100 0.011680 0.000000 0.000000 0.000000
# 4 0.000000 0.000000 0.000000 0.034158 0.000000 0.000000
# 5 0.000000 0.000000 0.000000 0.000000 -0.201605 0.000000
# 6 0.000000 0.000000 0.000000 0.000000 0.000000 0.035157
#
#
# Mechanical properties :
#
#
# Convention : Reuss Voigt Hill
#
# Bulk Modulus (GPa) = 42.62015 46.53683 44.57849
# Shear Modulus (GPa) = -86.64915 22.07392 -32.28762
#
# Velocity S-wave (km/s) = -6.83206 3.44834 -4.17050
# Velocity P-wave (km/s) = 6.26714 6.39716 0.90736
#
# Compressibility (1/GPa) = 0.02346308
#
# Stress axis : x y z
#
# Youngs Moduli (GPa) = 63.20547 56.77749 85.61454
#
# Poissons Ratio (x) = 0.13768 0.19696
# Poissons Ratio (y) = 0.15327 0.52225
# Poissons Ratio (z) = 0.14541 0.34635
#
# Static dielectric constant tensor:
#      x y z
#    x 1.674370 0.000000 0.000000 
#    y 0.000000 1.695200 0.000000 
#    z 0.000000 0.000000 1.636600 
# 
# From -- ./inp_files/31634.got.cif
#   From: 2010.05.17/outbox.cif.g08.bks.cpg/sg58_16_cif.got.tgz:31634.got - 2010.06.03 14:20:14.
