data_PCOD9442760
_publ_section_title
;
Structure prediction by ZEFSAII (Michael W. Deem and Ramdas Pophale) SiO2 
 PCOD9442760
Probable space group: P N N M
;
_chemical_formula_sum "Si O2"
_cell_formula_units_Z 56
_cell_length_a 16.284275
_cell_length_b 14.931175
_cell_length_c 9.685036
_cell_angle_alpha 90.000000
_cell_angle_beta 90.000000
_cell_angle_gamma 90.000000
_cell_volume 2354.852193
_symmetry_space_group_name_H-M "P N N M"
_symmetry_group_IT_number 58
_symmetry_cell_setting 'orthorhombic'
loop_
_space_group_symop_operation_xyz
x,y,z
-x,-y,z
1/2+x,1/2-y,1/2-z
1/2-x,1/2+y,1/2-z
-x,-y,-z
x,y,-z
1/2-x,1/2+y,1/2+z
1/2+x,1/2-y,1/2+z
loop_
_atom_site_type_symbol
_atom_site_label
_atom_site_fract_x
_atom_site_fract_y
_atom_site_fract_z
Si Si1 0.062933 0.832207 0.340619
Si Si2 0.076308 0.088299 0.158840
Si Si3 0.639382 0.207726 0.644133
Si Si4 0.505528 0.141201 0.796498
Si Si5 0.728369 0.445767 0.839883
Si Si6 0.364536 0.005263 0.150492
Si Si7 0.718439 0.735881 0.338447
O O1 0.077557 0.861965 0.500000
O O2 0.143463 0.799787 0.255682
O O3 0.008542 0.898289 0.244006
O O4 0.008734 0.740531 0.351873
O O5 0.113261 0.188665 0.145323
O O6 0.144959 0.041862 0.253787
O O7 0.070012 0.055619 0.000000
O O8 0.682977 0.187621 0.500000
O O9 0.552919 0.156102 0.653226
O O10 0.698448 0.195855 0.774115
O O11 0.420668 0.089569 0.805756
O O12 0.571272 0.074935 0.863337
O O13 0.797371 0.505202 0.767672
O O14 0.763467 0.343207 0.829898
O O15 0.715568 0.464727 0.000000
O O16 0.326131 0.023173 0.000000
O O17 0.706034 0.713647 0.500000
#
# Coordination Sequence:
#
# PCOD9442760 Si02
#       7
#     8   8   8   8   8   8   8
#     4  11  19  31  52  76 104 135 170 212 257 304
#     4   9  18  32  50  71  97 129 166 210 260 308
#     4   9  19  34  51  70  97 132 171 214 259 304
#     4  10  21  33  51  75 103 140 179 213 248 300
#     4  10  20  33  48  70  99 132 172 213 255 301
#     4  11  21  34  51  73 103 143 182 210 248 300
#     4  10  20  32  49  73 101 132 168 211 259 309
#
# _framework density 23.780687
#
# number of rings (size 3 to 8) (size 9 to 14) (size 15 to 20)
#    0.000    2.000    1.429    3.429    0.000    7.429 
#    0.000    1.429    0.000    0.000    0.000    1.000 
#    0.000    6.857    0.000    0.000    0.000    0.000 
#
# Total GULP energy -312502.613096 kJ/mol
# GULP energy per Si atom -5580.403805 kJ/mol
# Density = 2.372656 g / cm^3
# Si number density = 23.780687 Si / 1000 Ang^3
#
#
#
# Elastic Constant Matrix: (Units=GPa)
#
#
# Indices 1 2 3 4 5 6 
#
# 1 85.8134 13.6186 94.8680 0.0000 0.0000 0.0000
# 2 13.6186 51.2601 19.1029 0.0000 0.0000 0.0000
# 3 94.8680 19.1029 218.2439 0.0000 0.0000 0.0000
# 4 0.0000 0.0000 0.0000 -1.0765 0.0000 0.0000
# 5 0.0000 0.0000 0.0000 0.0000 46.5672 0.0000
# 6 0.0000 0.0000 0.0000 0.0000 0.0000 37.9664
#
#
#
# Elastic Compliance Matrix: (Units=1/GPa)
#
#
# Indices 1 2 3 4 5 6 
#
# 1 0.022724 -0.002436 -0.009665 0.000000 0.000000 0.000000
# 2 -0.002436 0.020427 -0.000729 0.000000 0.000000 0.000000
# 3 -0.009665 -0.000729 0.008847 0.000000 0.000000 0.000000
# 4 0.000000 0.000000 0.000000 -0.928913 0.000000 0.000000
# 5 0.000000 0.000000 0.000000 0.000000 0.021474 0.000000
# 6 0.000000 0.000000 0.000000 0.000000 0.000000 0.026339
#
#
# Mechanical properties :
#
#
# Convention : Reuss Voigt Hill
#
# Bulk Modulus (GPa) = 37.96615 67.83294 52.89955
# Shear Modulus (GPa) = -6.29198 31.87327 12.79064
#
# Velocity S-wave (km/s) = -1.62837 3.66498 2.32169
# Velocity P-wave (km/s) = 3.53049 6.81878 5.42955
#
# Compressibility (1/GPa) = 0.02633925
#
# Stress axis : x y z
#
# Youngs Moduli (GPa) = 44.00585 48.95432 113.03235
#
# Poissons Ratio (x) = 0.11923 1.09243
# Poissons Ratio (y) = 0.10718 0.08243
# Poissons Ratio (z) = 0.42531 0.03570
#
# Static dielectric constant tensor:
#      x y z
#    x 1.881830 0.000000 0.000000 
#    y 0.000000 1.956330 0.000000 
#    z 0.000000 0.000000 1.977320 
# 
# From -- ./inp_files/8196.got.cif
#   From: 2010.05.17/outbox.cif.g08.bks.cpg/sg58_5_cif.got.tgz:8196.got - 2010.06.03 14:20:14.
