data_PCOD9442753
_publ_section_title
;
Structure prediction by ZEFSAII (Michael W. Deem and Ramdas Pophale) SiO2 
 PCOD9442753
Probable space group: P N N M
;
_chemical_formula_sum "Si O2"
_cell_formula_units_Z 48
_cell_length_a 17.283409
_cell_length_b 18.161243
_cell_length_c 7.409595
_cell_angle_alpha 90.000000
_cell_angle_beta 90.000000
_cell_angle_gamma 90.000000
_cell_volume 2325.784368
_symmetry_space_group_name_H-M "P N N M"
_symmetry_group_IT_number 58
_symmetry_cell_setting 'orthorhombic'
loop_
_space_group_symop_operation_xyz
x,y,z
-x,-y,z
1/2+x,1/2-y,1/2-z
1/2-x,1/2+y,1/2-z
-x,-y,-z
x,y,-z
1/2-x,1/2+y,1/2+z
1/2+x,1/2-y,1/2+z
loop_
_atom_site_type_symbol
_atom_site_label
_atom_site_fract_x
_atom_site_fract_y
_atom_site_fract_z
Si Si1 0.655416 0.154721 0.791948
Si Si2 0.243123 0.563184 0.779858
Si Si3 0.085338 0.500425 0.206212
Si Si4 0.183459 0.907607 0.717922
Si Si5 0.865180 0.818691 0.279055
Si Si6 0.988630 0.084704 0.279877
O O1 0.618164 0.082777 0.703152
O O2 0.747962 0.144453 0.783269
O O3 0.634085 0.234496 0.717675
O O4 0.630698 0.151496 0.000000
O O5 0.155532 0.549125 0.715106
O O6 0.292897 0.490915 0.728703
O O7 0.289126 0.635610 0.722974
O O8 0.240777 0.563113 0.000000
O O9 0.000000 0.500000 0.289937
O O10 0.075463 0.526776 0.000000
O O11 0.184884 0.905757 0.500000
O O12 0.096740 0.890144 0.777259
O O13 0.864279 0.817491 0.500000
O O14 0.940910 0.863944 0.222254
O O15 0.989746 0.084632 0.500000
O O16 0.000000 0.000000 0.224314
#
# Coordination Sequence:
#
# PCOD9442753 Si02
#       6
#     8   8   8   8   8   8
#     4  10  20  32  47  69 103 136 157 189 245 304
#     4   8  13  25  47  70  91 118 155 197 236 276
#     4   9  18  34  55  75  92 121 171 217 242 270
#     4   9  16  29  51  73  92 121 163 203 235 275
#     4   9  16  27  44  71 101 126 156 196 245 293
#     4   9  14  24  48  78  97 117 158 208 242 274
#
# _framework density 20.638197999999999
#
# number of rings (size 3 to 8) (size 9 to 14) (size 15 to 20)
#    0.000    3.000    1.667    1.500    0.000    0.333 
#    3.000    0.000    0.000    9.500    0.000    0.000 
#    0.000    0.000    0.000    0.000    0.000    0.000 
#
# Total GULP energy -267727.291841 kJ/mol
# GULP energy per Si atom -5577.651913 kJ/mol
# Density = 2.059122 g / cm^3
# Si number density = 20.638198 Si / 1000 Ang^3
#
#
#
# Elastic Constant Matrix: (Units=GPa)
#
#
# Indices 1 2 3 4 5 6 
#
# 1 170.3449 43.7165 -3.8752 0.0000 0.0000 0.0000
# 2 43.7165 75.2939 -7.8251 0.0000 0.0000 0.0000
# 3 -3.8752 -7.8251 66.2999 0.0000 0.0000 0.0000
# 4 0.0000 0.0000 0.0000 9.7551 0.0000 0.0000
# 5 0.0000 0.0000 0.0000 0.0000 -4.8345 0.0000
# 6 0.0000 0.0000 0.0000 0.0000 0.0000 24.5224
#
#
#
# Elastic Compliance Matrix: (Units=1/GPa)
#
#
# Indices 1 2 3 4 5 6 
#
# 1 0.006899 -0.004013 -0.000070 0.000000 0.000000 0.000000
# 2 -0.004013 0.015780 0.001628 0.000000 0.000000 0.000000
# 3 -0.000070 0.001628 0.015271 0.000000 0.000000 0.000000
# 4 0.000000 0.000000 0.000000 0.102511 0.000000 0.000000
# 5 0.000000 0.000000 0.000000 0.000000 -0.206848 0.000000
# 6 0.000000 0.000000 0.000000 0.000000 0.000000 0.040779
#
#
# Mechanical properties :
#
#
# Convention : Reuss Voigt Hill
#
# Bulk Modulus (GPa) = 30.26672 41.77457 36.02065
# Shear Modulus (GPa) = -516.28051 24.55011 -245.86520
#
# Velocity S-wave (km/s) = -15.83353 3.45272 -10.92656
# Velocity P-wave (km/s) = 17.87654 6.01501 11.90357
#
# Compressibility (1/GPa) = 0.03303959
#
# Stress axis : x y z
#
# Youngs Moduli (GPa) = 144.95585 63.37010 65.48359
#
# Poissons Ratio (x) = 0.25429 0.00461
# Poissons Ratio (y) = 0.58167 -0.10660
# Poissons Ratio (z) = 0.01020 -0.10316
#
# Static dielectric constant tensor:
#      x y z
#    x 1.741230 0.000000 0.000000 
#    y 0.000000 1.688820 0.000000 
#    z 0.000000 0.000000 1.792810 
# 
# From -- ./inp_files/7874.got.cif
#   From: 2010.05.17/outbox.cif.g08.bks.cpg/sg58_4_cif.got.tgz:7874.got - 2010.06.03 14:20:14.
