data_PCOD9442853
_publ_section_title
;
Structure prediction by ZEFSAII (Michael W. Deem and Ramdas Pophale) SiO2 
 PCOD9442853
Probable space group: P N N M
;
_chemical_formula_sum "Si O2"
_cell_formula_units_Z 64
_cell_length_a 15.575954
_cell_length_b 21.111654
_cell_length_c 8.712551
_cell_angle_alpha 90.000000
_cell_angle_beta 90.000000
_cell_angle_gamma 90.000000
_cell_volume 2864.984316
_symmetry_space_group_name_H-M "P N N M"
_symmetry_group_IT_number 58
_symmetry_cell_setting 'orthorhombic'
loop_
_space_group_symop_operation_xyz
x,y,z
-x,-y,z
1/2+x,1/2-y,1/2-z
1/2-x,1/2+y,1/2-z
-x,-y,-z
x,y,-z
1/2-x,1/2+y,1/2+z
1/2+x,1/2-y,1/2+z
loop_
_atom_site_type_symbol
_atom_site_label
_atom_site_fract_x
_atom_site_fract_y
_atom_site_fract_z
Si Si1 0.973082 0.093450 0.176512
Si Si2 0.991168 0.756591 0.828391
Si Si3 0.349373 0.570581 0.179749
Si Si4 0.072821 0.573317 0.683028
Si Si5 0.679229 0.279279 0.822086
Si Si6 0.105409 0.435656 0.819054
Si Si7 0.284709 0.446188 0.317758
Si Si8 0.847895 0.297122 0.677103
O O1 0.876322 0.082484 0.233786
O O2 0.992799 0.168048 0.171382
O O3 0.050734 0.063480 0.272275
O O4 0.976828 0.070406 0.000000
O O5 0.893054 0.746437 0.780059
O O6 0.058765 0.730913 0.707352
O O7 0.008366 0.731735 0.000000
O O8 0.327998 0.644577 0.205461
O O9 0.294785 0.520679 0.277345
O O10 0.337201 0.556817 0.000000
O O11 0.073993 0.560531 0.500000
O O12 0.095311 0.510161 0.775459
O O13 0.138791 0.629222 0.717739
O O14 0.976526 0.593951 0.732287
O O15 0.776246 0.263276 0.778394
O O16 0.661421 0.267370 0.000000
O O17 0.200165 0.417971 0.761246
O O18 0.097106 0.426322 0.000000
O O19 0.276184 0.437948 0.500000
O O20 0.822665 0.292539 0.500000
#
# Coordination Sequence:
#
# PCOD9442853 Si02
#       8
#     8   8   8   8   8   8   8   8
#     4   9  20  37  55  77 109 151 191 230 281 340
#     4  10  21  40  62  84 114 151 192 244 294 340
#     4  10  20  33  54  84 115 146 187 238 285 332
#     4  10  21  39  61  83 112 150 187 228 282 344
#     4  10  21  38  60  86 116 151 190 238 290 344
#     4  11  22  36  56  84 117 148 185 234 285 334
#     4  11  21  34  53  79 113 153 193 228 276 345
#     4  11  23  39  62  90 115 149 195 240 288 347
#
# _framework density 22.338692999999999
#
# number of rings (size 3 to 8) (size 9 to 14) (size 15 to 20)
#    0.000    1.750    0.000    5.250    0.000    8.500 
#    2.250    0.000    0.000    0.000    0.000    0.000 
#    0.000    0.000    0.000    0.000    0.000    0.000 
#
# Total GULP energy -357885.260493 kJ/mol
# GULP energy per Si atom -5591.957195 kJ/mol
# Density = 2.228785 g / cm^3
# Si number density = 22.338693 Si / 1000 Ang^3
#
#
#
# Elastic Constant Matrix: (Units=GPa)
#
#
# Indices 1 2 3 4 5 6 
#
# 1 123.2654 -4.8048 10.3874 0.0000 0.0000 0.0000
# 2 -4.8048 10.2284 -2.6841 0.0000 0.0000 0.0000
# 3 10.3874 -2.6841 27.4824 0.0000 0.0000 0.0000
# 4 0.0000 0.0000 0.0000 31.3667 0.0000 0.0000
# 5 0.0000 0.0000 0.0000 0.0000 15.1440 0.0000
# 6 0.0000 0.0000 0.0000 0.0000 0.0000 20.6608
#
#
#
# Elastic Compliance Matrix: (Units=1/GPa)
#
#
# Indices 1 2 3 4 5 6 
#
# 1 0.008482 0.003226 -0.002891 0.000000 0.000000 0.000000
# 2 0.003226 0.101566 0.008700 0.000000 0.000000 0.000000
# 3 -0.002891 0.008700 0.038329 0.000000 0.000000 0.000000
# 4 0.000000 0.000000 0.000000 0.031881 0.000000 0.000000
# 5 0.000000 0.000000 0.000000 0.000000 0.066033 0.000000
# 6 0.000000 0.000000 0.000000 0.000000 0.000000 0.048401
#
#
# Mechanical properties :
#
#
# Convention : Reuss Voigt Hill
#
# Bulk Modulus (GPa) = 6.00791 18.53034 12.26912
# Shear Modulus (GPa) = 15.05556 23.97281 19.51419
#
# Velocity S-wave (km/s) = 2.59891 3.27945 2.95881
# Velocity P-wave (km/s) = 3.42068 4.75951 4.14451
#
# Compressibility (1/GPa) = 0.16644719
#
# Stress axis : x y z
#
# Youngs Moduli (GPa) = 117.89775 9.84586 26.08972
#
# Poissons Ratio (x) = -0.03176 0.07542
# Poissons Ratio (y) = -0.38032 -0.22699
# Poissons Ratio (z) = 0.34082 -0.08566
#
# Static dielectric constant tensor:
#      x y z
#    x 1.834310 0.000000 0.000000 
#    y 0.000000 1.861940 0.000000 
#    z 0.000000 0.000000 1.746180 
# 
# From -- ./inp_files/6751.got.cif
#   From: 2010.05.17/outbox.cif.g08.bks.cpg/sg58_4_cif.got.tgz:6751.got - 2010.06.03 14:20:14.
