data_PCOD9442479
_publ_section_title
;
Structure prediction by ZEFSAII (Michael W. Deem and Ramdas Pophale) SiO2 
 PCOD9442479
Probable space group: P N N M
;
_chemical_formula_sum "Si O2"
_cell_formula_units_Z 44
_cell_length_a 7.975946
_cell_length_b 29.422773
_cell_length_c 7.342678
_cell_angle_alpha 90.000000
_cell_angle_beta 90.000000
_cell_angle_gamma 90.000000
_cell_volume 1723.138911
_symmetry_space_group_name_H-M "P N N M"
_symmetry_group_IT_number 58
_symmetry_cell_setting 'orthorhombic'
loop_
_space_group_symop_operation_xyz
x,y,z
-x,-y,z
1/2+x,1/2-y,1/2-z
1/2-x,1/2+y,1/2-z
-x,-y,-z
x,y,-z
1/2-x,1/2+y,1/2+z
1/2+x,1/2-y,1/2+z
loop_
_atom_site_type_symbol
_atom_site_label
_atom_site_fract_x
_atom_site_fract_y
_atom_site_fract_z
Si Si1 0.190607 0.001017 0.220939
Si Si2 0.027202 0.728511 0.281956
Si Si3 0.169681 0.819919 0.714434
Si Si4 0.157455 0.408427 0.709351
Si Si5 0.747934 0.328592 0.000000
Si Si6 0.207984 0.603396 0.283340
O O1 0.265293 0.050267 0.257952
O O2 0.287640 0.956540 0.288952
O O3 0.187600 0.997032 0.000000
O O4 0.000000 0.000000 0.284335
O O5 0.061842 0.725287 0.500000
O O6 0.034756 0.781969 0.230264
O O7 0.846446 0.706076 0.250504
O O8 0.161872 0.702993 0.158705
O O9 0.148909 0.825519 0.500000
O O10 0.199226 0.870321 0.789629
O O11 0.111868 0.417775 0.500000
O O12 0.984373 0.387905 0.783626
O O13 0.682556 0.364162 0.840080
O O14 0.230468 0.610989 0.500000
#
# Coordination Sequence:
#
# PCOD9442479 Si02
#       6
#     8   8   8   8   4   8
#     4   9  19  38  61  90 125 160 200 253 312 376
#     4  11  24  41  65  90 130 166 212 264 315 371
#     4  11  23  42  62  94 124 166 212 261 313 376
#     4  10  19  35  62  88 119 159 204 251 306 365
#     4  12  22  40  64  94 121 170 207 264 301 380
#     4  10  20  38  65  91 120 160 209 253 304 369
#
# _framework density 25.534794000000002
#
# number of rings (size 3 to 8) (size 9 to 14) (size 15 to 20)
#    0.000    1.636    2.727    1.636    2.545    2.182 
#    4.909    1.364    0.000    0.000    0.000    0.000 
#    0.000    0.000    0.000    0.000    0.000    0.000 
#
# Total GULP energy -245189.562377 kJ/mol
# GULP energy per Si atom -5572.490054 kJ/mol
# Density = 2.547668 g / cm^3
# Si number density = 25.534794 Si / 1000 Ang^3
#
#
#
# Elastic Constant Matrix: (Units=GPa)
#
#
# Indices 1 2 3 4 5 6 
#
# 1 72.3708 26.6932 7.2846 0.0000 0.0000 0.0000
# 2 26.6932 149.2640 48.4518 0.0000 0.0000 0.0000
# 3 7.2846 48.4518 124.4231 0.0000 0.0000 0.0000
# 4 0.0000 0.0000 0.0000 5.5976 0.0000 0.0000
# 5 0.0000 0.0000 0.0000 0.0000 2.8508 0.0000
# 6 0.0000 0.0000 0.0000 0.0000 0.0000 34.8461
#
#
#
# Elastic Compliance Matrix: (Units=1/GPa)
#
#
# Indices 1 2 3 4 5 6 
#
# 1 0.014797 -0.002707 0.000188 0.000000 0.000000 0.000000
# 2 -0.002707 0.008164 -0.003021 0.000000 0.000000 0.000000
# 3 0.000188 -0.003021 0.009202 0.000000 0.000000 0.000000
# 4 0.000000 0.000000 0.000000 0.178648 0.000000 0.000000
# 5 0.000000 0.000000 0.000000 0.000000 0.350782 0.000000
# 6 0.000000 0.000000 0.000000 0.000000 0.000000 0.028698
#
#
# Mechanical properties :
#
#
# Convention : Reuss Voigt Hill
#
# Bulk Modulus (GPa) = 47.42977 56.76856 52.09916
# Shear Modulus (GPa) = 8.21827 26.23411 17.22619
#
# Velocity S-wave (km/s) = 1.79595 3.20876 2.60016
# Velocity P-wave (km/s) = 4.78701 6.00069 5.42788
#
# Compressibility (1/GPa) = 0.02108381
#
# Stress axis : x y z
#
# Youngs Moduli (GPa) = 67.57969 122.48552 108.66719
#
# Poissons Ratio (x) = 0.33160 -0.02042
# Poissons Ratio (y) = 0.18295 0.32826
# Poissons Ratio (z) = -0.01270 0.37000
#
# Static dielectric constant tensor:
#      x y z
#    x 2.193760 0.000000 0.000000 
#    y 0.000000 2.049350 0.000000 
#    z 0.000000 0.000000 1.993640 
# 
# From -- ./inp_files/2765.got.cif
#   From: 2010.05.17/outbox.cif.g08.bks.cpg/sg58_2_cif.got.tgz:2765.got - 2010.06.03 14:20:14.
