data_PCOD9442549
_publ_section_title
;
Structure prediction by ZEFSAII (Michael W. Deem and Ramdas Pophale) SiO2 
 PCOD9442549
Probable space group: P N N M
;
_chemical_formula_sum "Si O2"
_cell_formula_units_Z 64
_cell_length_a 31.614527
_cell_length_b 12.131819
_cell_length_c 7.543051
_cell_angle_alpha 90.000000
_cell_angle_beta 90.000000
_cell_angle_gamma 90.000000
_cell_volume 2893.074750
_symmetry_space_group_name_H-M "P N N M"
_symmetry_group_IT_number 58
_symmetry_cell_setting 'orthorhombic'
loop_
_space_group_symop_operation_xyz
x,y,z
-x,-y,z
1/2+x,1/2-y,1/2-z
1/2-x,1/2+y,1/2-z
-x,-y,-z
x,y,-z
1/2-x,1/2+y,1/2+z
1/2+x,1/2-y,1/2+z
loop_
_atom_site_type_symbol
_atom_site_label
_atom_site_fract_x
_atom_site_fract_y
_atom_site_fract_z
Si Si1 0.548594 0.491719 0.214205
Si Si2 0.081483 0.773795 0.285895
Si Si3 0.627777 0.069008 0.793873
Si Si4 0.543431 0.947025 0.216670
Si Si5 0.192134 0.006389 0.217517
Si Si6 0.120691 0.177476 0.208769
Si Si7 0.286873 0.034927 0.798686
Si Si8 0.675851 0.741179 0.704348
O O1 0.500000 0.500000 0.274258
O O2 0.571621 0.603323 0.277035
O O3 0.576232 0.385952 0.265730
O O4 0.547896 0.493099 0.000000
O O5 0.083642 0.776720 0.500000
O O6 0.047461 0.681522 0.236154
O O7 0.126384 0.733098 0.217264
O O8 0.622779 0.200468 0.787231
O O9 0.585411 0.011610 0.721024
O O10 0.672791 0.028442 0.715992
O O11 0.629571 0.033198 0.000000
O O12 0.500000 0.000000 0.279741
O O13 0.543163 0.953250 0.000000
O O14 0.180357 0.882784 0.273335
O O15 0.157780 0.096247 0.277902
O O16 0.240072 0.025687 0.279225
O O17 0.190694 0.009784 0.000000
O O18 0.127438 0.191867 0.000000
O O19 0.298959 0.163276 0.800510
O O20 0.282622 0.991857 0.000000
O O21 0.689633 0.742567 0.500000
#
# Coordination Sequence:
#
# PCOD9442549 Si02
#       8
#     8   8   8   8   8   8   8   8
#     4  10  22  38  61  90 116 147 195 245 281 328
#     4  10  19  36  60  85 112 148 191 234 283 337
#     4  10  21  37  59  83 112 149 192 239 285 336
#     4   9  18  33  57  85 111 143 185 235 287 334
#     4   9  21  39  58  81 115 154 187 233 288 342
#     4  11  23  40  58  81 119 158 189 227 291 354
#     4  10  21  40  61  83 113 151 196 241 288 340
#     4  11  21  37  60  85 115 148 188 237 290 341
#
# _framework density 22.121791000000002
#
# number of rings (size 3 to 8) (size 9 to 14) (size 15 to 20)
#    0.000    2.000    2.500    0.750    3.500    0.750 
#    0.000    1.875    0.000    0.750    0.000    0.000 
#    0.000    0.000    0.000    0.000    0.000    0.000 
#
# Total GULP energy -357467.312483 kJ/mol
# GULP energy per Si atom -5585.426758 kJ/mol
# Density = 2.207144 g / cm^3
# Si number density = 22.121791 Si / 1000 Ang^3
#
#
#
# Elastic Constant Matrix: (Units=GPa)
#
#
# Indices 1 2 3 4 5 6 
#
# 1 112.9202 19.1983 -3.9309 0.0000 0.0000 0.0000
# 2 19.1983 97.5814 -7.9899 0.0000 0.0000 0.0000
# 3 -3.9309 -7.9899 55.0057 0.0000 0.0000 0.0000
# 4 0.0000 0.0000 0.0000 716.4926 0.0000 0.0000
# 5 0.0000 0.0000 0.0000 0.0000 2.2826 0.0000
# 6 0.0000 0.0000 0.0000 0.0000 0.0000 36.8002
#
#
#
# Elastic Compliance Matrix: (Units=1/GPa)
#
#
# Indices 1 2 3 4 5 6 
#
# 1 0.009171 -0.001772 0.000398 0.000000 0.000000 0.000000
# 2 -0.001772 0.010713 0.001430 0.000000 0.000000 0.000000
# 3 0.000398 0.001430 0.018416 0.000000 0.000000 0.000000
# 4 0.000000 0.000000 0.000000 0.001396 0.000000 0.000000
# 5 0.000000 0.000000 0.000000 0.000000 0.438088 0.000000
# 6 0.000000 0.000000 0.000000 0.000000 0.000000 0.027174
#
#
# Mechanical properties :
#
#
# Convention : Reuss Voigt Hill
#
# Bulk Modulus (GPa) = 26.03338 31.11804 28.57571
# Shear Modulus (GPa) = 9.65904 168.33041 88.99472
#
# Velocity S-wave (km/s) = 2.09184 8.73257 6.34955
# Velocity P-wave (km/s) = 4.19859 10.75984 8.16708
#
# Compressibility (1/GPa) = 0.03841223
#
# Stress axis : x y z
#
# Youngs Moduli (GPa) = 109.04074 93.34040 54.30047
#
# Poissons Ratio (x) = 0.16537 -0.02161
# Poissons Ratio (y) = 0.19319 -0.07763
# Poissons Ratio (z) = -0.04340 -0.13344
#
# Static dielectric constant tensor:
#      x y z
#    x 1.809080 0.000000 0.000000 
#    y 0.000000 1.773780 0.000000 
#    z 0.000000 0.000000 1.860190 
# 
# From -- ./inp_files/4690.got.cif
#   From: 2010.05.17/outbox.cif.g08.bks.cpg/sg58_3_cif.got.tgz:4690.got - 2010.06.03 14:20:14.
