data_PCOD9442045
_publ_section_title
;
Structure prediction by ZEFSAII (Michael W. Deem and Ramdas Pophale) SiO2 
 PCOD9442045
Probable space group: P N N M
;
_chemical_formula_sum "Si O2"
_cell_formula_units_Z 48
_cell_length_a 10.073962
_cell_length_b 28.563968
_cell_length_c 7.553005
_cell_angle_alpha 90.000000
_cell_angle_beta 90.000000
_cell_angle_gamma 90.000000
_cell_volume 2173.394774
_symmetry_space_group_name_H-M "P N N M"
_symmetry_group_IT_number 58
_symmetry_cell_setting 'orthorhombic'
loop_
_space_group_symop_operation_xyz
x,y,z
-x,-y,z
1/2+x,1/2-y,1/2-z
1/2-x,1/2+y,1/2-z
-x,-y,-z
x,y,-z
1/2-x,1/2+y,1/2+z
1/2+x,1/2-y,1/2+z
loop_
_atom_site_type_symbol
_atom_site_label
_atom_site_fract_x
_atom_site_fract_y
_atom_site_fract_z
Si Si1 0.148877 0.290005 0.210814
Si Si2 0.301881 0.892651 0.716070
Si Si3 0.947582 0.450457 0.215952
Si Si4 0.546924 0.551763 0.783344
Si Si5 0.334974 0.206742 0.790785
Si Si6 0.704692 0.393592 0.212824
O O1 0.207277 0.339336 0.278605
O O2 0.234288 0.246402 0.282326
O O3 0.988853 0.288879 0.232870
O O4 0.168909 0.290304 0.000000
O O5 0.296715 0.892189 0.500000
O O6 0.445985 0.911485 0.766114
O O7 0.190113 0.929354 0.774137
O O8 0.000000 0.500000 0.279034
O O9 0.804186 0.434194 0.275867
O O10 0.943659 0.452562 0.000000
O O11 0.500000 0.500000 0.726117
O O12 0.441052 0.591436 0.727771
O O13 0.549621 0.549886 0.000000
O O14 0.268207 0.156284 0.756984
O O15 0.340986 0.212512 0.000000
O O16 0.701533 0.395235 0.000000
#
# Coordination Sequence:
#
# PCOD9442045 Si02
#       6
#     8   8   8   8   8   8
#     4  10  22  40  59  82 110 146 189 231 280 334
#     4   9  16  29  48  73 108 139 172 222 273 324
#     4   9  15  25  47  78 106 136 177 225 271 318
#     4   9  17  28  48  83 116 142 181 232 279 324
#     4  11  24  39  59  85 113 145 188 236 281 339
#     4  10  19  33  55  81 113 148 181 226 283 335
#
# _framework density 22.085263999999999
#
# number of rings (size 3 to 8) (size 9 to 14) (size 15 to 20)
#    0.000    2.333    1.667    1.500    2.333    5.333 
#    0.000    0.000    0.000    1.000    0.000    0.000 
#    0.000    0.000    0.000    0.000    0.000    0.000 
#
# Total GULP energy -267902.910784 kJ/mol
# GULP energy per Si atom -5581.310641 kJ/mol
# Density = 2.203500 g / cm^3
# Si number density = 22.085264 Si / 1000 Ang^3
#
#
#
# Elastic Constant Matrix: (Units=GPa)
#
#
# Indices 1 2 3 4 5 6 
#
# 1 70.0753 -2.8537 -4.6789 0.0000 0.0000 0.0000
# 2 -2.8537 93.5211 -3.6774 0.0000 0.0000 0.0000
# 3 -4.6789 -3.6774 51.8613 0.0000 0.0000 0.0000
# 4 0.0000 0.0000 0.0000 6.8640 0.0000 0.0000
# 5 0.0000 0.0000 0.0000 0.0000 5.1826 0.0000
# 6 0.0000 0.0000 0.0000 0.0000 0.0000 40.5632
#
#
#
# Elastic Compliance Matrix: (Units=1/GPa)
#
#
# Indices 1 2 3 4 5 6 
#
# 1 0.014379 0.000491 0.001332 0.000000 0.000000 0.000000
# 2 0.000491 0.010739 0.000806 0.000000 0.000000 0.000000
# 3 0.001332 0.000806 0.019460 0.000000 0.000000 0.000000
# 4 0.000000 0.000000 0.000000 0.145688 0.000000 0.000000
# 5 0.000000 0.000000 0.000000 0.000000 0.192955 0.000000
# 6 0.000000 0.000000 0.000000 0.000000 0.000000 0.024653
#
#
# Mechanical properties :
#
#
# Convention : Reuss Voigt Hill
#
# Bulk Modulus (GPa) = 20.06565 21.44865 20.75715
# Shear Modulus (GPa) = 11.92668 25.63312 18.77990
#
# Velocity S-wave (km/s) = 2.32637 3.41052 2.91922
# Velocity P-wave (km/s) = 4.03996 5.02411 4.55867
#
# Compressibility (1/GPa) = 0.04983642
#
# Stress axis : x y z
#
# Youngs Moduli (GPa) = 69.54440 93.11465 51.38875
#
# Poissons Ratio (x) = -0.04573 -0.06846
# Poissons Ratio (y) = -0.03416 -0.04141
# Poissons Ratio (z) = -0.09264 -0.07503
#
# Static dielectric constant tensor:
#      x y z
#    x 1.779930 0.000000 0.000000 
#    y 0.000000 1.821350 0.000000 
#    z 0.000000 0.000000 1.849760 
# 
# From -- ./inp_files/2999.got.cif
#   From: 2010.05.17/outbox.cif.g08.bks.cpg/sg58_2_cif.got.tgz:2999.got - 2010.06.03 14:20:14.
