data_PCOD9442640
_publ_section_title
;
Structure prediction by ZEFSAII (Michael W. Deem and Ramdas Pophale) SiO2 
 PCOD9442640
Probable space group: P N N M
;
_chemical_formula_sum "Si O2"
_cell_formula_units_Z 40
_cell_length_a 7.062163
_cell_length_b 18.599603
_cell_length_c 14.331287
_cell_angle_alpha 90.000000
_cell_angle_beta 90.000000
_cell_angle_gamma 90.000000
_cell_volume 1882.463677
_symmetry_space_group_name_H-M "P N N M"
_symmetry_group_IT_number 58
_symmetry_cell_setting 'orthorhombic'
loop_
_space_group_symop_operation_xyz
x,y,z
-x,-y,z
1/2+x,1/2-y,1/2-z
1/2-x,1/2+y,1/2-z
-x,-y,-z
x,y,-z
1/2-x,1/2+y,1/2+z
1/2+x,1/2-y,1/2+z
loop_
_atom_site_type_symbol
_atom_site_label
_atom_site_fract_x
_atom_site_fract_y
_atom_site_fract_z
Si Si1 0.267440 0.769378 0.103372
Si Si2 0.319449 0.691436 0.394146
Si Si3 0.718688 0.162961 0.705191
Si Si4 0.848712 0.394438 0.891995
Si Si5 0.084784 0.071754 0.757637
O O1 0.352070 0.808947 0.193198
O O2 0.258356 0.683241 0.113559
O O3 0.045683 0.792141 0.104668
O O4 0.341496 0.787199 0.000000
O O5 0.260967 0.678730 0.500000
O O6 0.233565 0.764414 0.352064
O O7 0.300625 0.622653 0.328266
O O8 0.554400 0.120724 0.651348
O O9 0.904594 0.116157 0.720518
O O10 0.724333 0.446226 0.827814
O O11 0.861311 0.415169 0.000000
O O12 0.000000 0.000000 0.802500
#
# Coordination Sequence:
#
# PCOD9442640 Si02
#       5
#     8   8   8   8   8
#     4   8  15  30  56  87 115 145 189 248 291 338
#     4   9  18  35  61  88 115 156 204 245 293 358
#     4  10  19  37  62  87 119 157 203 246 297 358
#     4  10  21  37  57  82 116 154 198 245 297 356
#     4  11  24  39  59  91 126 156 195 252 311 363
#
# _framework density 21.248749
#
# number of rings (size 3 to 8) (size 9 to 14) (size 15 to 20)
#    0.000    2.400    2.000    1.800    0.000    3.200 
#    0.000    4.000    0.000    0.000    0.000    7.000 
#    0.000    0.000    0.000    0.000    0.000    0.000 
#
# Total GULP energy -223468.711741 kJ/mol
# GULP energy per Si atom -5586.717794 kJ/mol
# Density = 2.120039 g / cm^3
# Si number density = 21.248749 Si / 1000 Ang^3
#
#
#
# Elastic Constant Matrix: (Units=GPa)
#
#
# Indices 1 2 3 4 5 6 
#
# 1 71.3727 18.8676 14.1740 0.0000 0.0000 0.0000
# 2 18.8676 54.2193 27.5018 0.0000 0.0000 0.0000
# 3 14.1740 27.5018 127.5681 0.0000 0.0000 0.0000
# 4 0.0000 0.0000 0.0000 7.8261 0.0000 0.0000
# 5 0.0000 0.0000 0.0000 0.0000 25.0717 0.0000
# 6 0.0000 0.0000 0.0000 0.0000 0.0000 22.1381
#
#
#
# Elastic Compliance Matrix: (Units=1/GPa)
#
#
# Indices 1 2 3 4 5 6 
#
# 1 0.015475 -0.005067 -0.000627 0.000000 0.000000 0.000000
# 2 -0.005067 0.022367 -0.004259 0.000000 0.000000 0.000000
# 3 -0.000627 -0.004259 0.008827 0.000000 0.000000 0.000000
# 4 0.000000 0.000000 0.000000 0.127778 0.000000 0.000000
# 5 0.000000 0.000000 0.000000 0.000000 0.039886 0.000000
# 6 0.000000 0.000000 0.000000 0.000000 0.000000 0.045171
#
#
# Mechanical properties :
#
#
# Convention : Reuss Voigt Hill
#
# Bulk Modulus (GPa) = 37.36534 41.58297 39.47416
# Shear Modulus (GPa) = 17.34121 23.84828 20.59474
#
# Velocity S-wave (km/s) = 2.85985 3.35377 3.11661
# Velocity P-wave (km/s) = 5.34115 5.88295 5.61859
#
# Compressibility (1/GPa) = 0.02676277
#
# Stress axis : x y z
#
# Youngs Moduli (GPa) = 64.62045 44.70827 113.29117
#
# Poissons Ratio (x) = 0.22654 0.07104
# Poissons Ratio (y) = 0.32743 0.48251
# Poissons Ratio (z) = 0.04052 0.19042
#
# Static dielectric constant tensor:
#      x y z
#    x 1.808950 0.000000 0.000000 
#    y 0.000000 1.751420 0.000000 
#    z 0.000000 0.000000 1.781540 
# 
# From -- ./inp_files/16207.got.cif
#   From: 2010.05.17/outbox.cif.g08.bks.cpg/sg58_9_cif.got.tgz:16207.got - 2010.06.03 14:20:14.
