data_PCOD9442054
_publ_section_title
;
Structure prediction by ZEFSAII (Michael W. Deem and Ramdas Pophale) SiO2 
 PCOD9442054
Probable space group: P N N M
;
_chemical_formula_sum "Si O2"
_cell_formula_units_Z 64
_cell_length_a 12.793836
_cell_length_b 29.792325
_cell_length_c 7.504039
_cell_angle_alpha 90.000000
_cell_angle_beta 90.000000
_cell_angle_gamma 90.000000
_cell_volume 2860.225398
_symmetry_space_group_name_H-M "P N N M"
_symmetry_group_IT_number 58
_symmetry_cell_setting 'orthorhombic'
loop_
_space_group_symop_operation_xyz
x,y,z
-x,-y,z
1/2+x,1/2-y,1/2-z
1/2-x,1/2+y,1/2-z
-x,-y,-z
x,y,-z
1/2-x,1/2+y,1/2+z
1/2+x,1/2-y,1/2+z
loop_
_atom_site_type_symbol
_atom_site_label
_atom_site_fract_x
_atom_site_fract_y
_atom_site_fract_z
Si Si1 0.355714 0.119558 0.290834
Si Si2 0.211355 0.336631 0.284708
Si Si3 0.119248 0.133089 0.215331
Si Si4 0.015561 0.949266 0.217609
Si Si5 0.390172 0.019046 0.712778
Si Si6 0.991500 0.299471 0.790450
Si Si7 0.250412 0.433935 0.286229
Si Si8 0.062848 0.799165 0.781680
O O1 0.381101 0.115610 0.500000
O O2 0.237882 0.137575 0.275128
O O3 0.364148 0.068826 0.216552
O O4 0.434118 0.156667 0.213025
O O5 0.211595 0.336396 0.500000
O O6 0.115318 0.306098 0.226427
O O7 0.195292 0.388240 0.222943
O O8 0.325306 0.319286 0.226728
O O9 0.073658 0.084996 0.274788
O O10 0.035440 0.170292 0.274025
O O11 0.120190 0.133672 0.000000
O O12 0.129706 0.933012 0.274789
O O13 0.014705 0.949243 0.000000
O O14 0.000000 0.000000 0.276980
O O15 0.400383 0.022961 0.500000
O O16 0.500000 0.000000 0.783919
O O17 0.303928 0.980779 0.742553
O O18 0.953459 0.251712 0.718905
O O19 0.965283 0.298247 0.000000
O O20 0.252571 0.431549 0.500000
O O21 0.062507 0.799940 0.000000
#
# Coordination Sequence:
#
# PCOD9442054 Si02
#       8
#     8   8   8   8   8   8   8   8
#     4  10  22  38  55  81 116 151 188 231 277 329
#     4  10  20  37  60  86 114 141 183 238 284 328
#     4  10  19  35  58  81 110 145 184 228 279 339
#     4   9  16  28  49  77 105 136 173 214 267 327
#     4  10  21  37  55  76 109 152 192 227 272 330
#     4  10  22  39  59  81 111 151 190 227 280 342
#     4  10  19  33  55  83 110 138 180 232 281 330
#     4   9  19  37  59  83 110 144 182 231 287 334
#
# _framework density 22.375858000000001
#
# number of rings (size 3 to 8) (size 9 to 14) (size 15 to 20)
#    0.000    2.250    1.250    1.500    1.750    3.750 
#    0.000    1.875    0.000    2.250    0.000    0.000 
#    0.000    0.000    0.000    0.000    0.000    0.000 
#
# Total GULP energy -357589.845999 kJ/mol
# GULP energy per Si atom -5587.341344 kJ/mol
# Density = 2.232493 g / cm^3
# Si number density = 22.375858 Si / 1000 Ang^3
#
#
#
# Elastic Constant Matrix: (Units=GPa)
#
#
# Indices 1 2 3 4 5 6 
#
# 1 90.3854 41.6396 -14.4938 0.0000 0.0000 0.0000
# 2 41.6396 159.8631 4.5303 0.0000 0.0000 0.0000
# 3 -14.4938 4.5303 57.0610 0.0000 0.0000 0.0000
# 4 0.0000 0.0000 0.0000 -2.2181 0.0000 0.0000
# 5 0.0000 0.0000 0.0000 0.0000 17.3800 0.0000
# 6 0.0000 0.0000 0.0000 0.0000 0.0000 35.9907
#
#
#
# Elastic Compliance Matrix: (Units=1/GPa)
#
#
# Indices 1 2 3 4 5 6 
#
# 1 0.013294 -0.003566 0.003660 0.000000 0.000000 0.000000
# 2 -0.003566 0.007226 -0.001480 0.000000 0.000000 0.000000
# 3 0.003660 -0.001480 0.018572 0.000000 0.000000 0.000000
# 4 0.000000 0.000000 0.000000 -0.450841 0.000000 0.000000
# 5 0.000000 0.000000 0.000000 0.000000 0.057537 0.000000
# 6 0.000000 0.000000 0.000000 0.000000 0.000000 0.027785
#
#
# Mechanical properties :
#
#
# Convention : Reuss Voigt Hill
#
# Bulk Modulus (GPa) = 27.53322 41.18462 34.35892
# Shear Modulus (GPa) = -16.04890 28.60608 6.27859
#
# Velocity S-wave (km/s) = -2.68104 3.57940 1.67692
# Velocity P-wave (km/s) = 1.65759 5.96059 4.37471
#
# Compressibility (1/GPa) = 0.03631977
#
# Stress axis : x y z
#
# Youngs Moduli (GPa) = 75.22444 138.38543 53.84396
#
# Poissons Ratio (x) = 0.49352 -0.19706
# Poissons Ratio (y) = 0.26827 0.07967
# Poissons Ratio (z) = -0.27531 0.20475
#
# Static dielectric constant tensor:
#      x y z
#    x 1.787250 0.000000 0.000000 
#    y 0.000000 1.828580 0.000000 
#    z 0.000000 0.000000 1.873510 
# 
# From -- ./inp_files/4750.got.cif
#   From: 2010.05.17/outbox.cif.g08.bks.cpg/sg58_3_cif.got.tgz:4750.got - 2010.06.03 14:20:14.
