data_PCOD9442708
_publ_section_title
;
Structure prediction by ZEFSAII (Michael W. Deem and Ramdas Pophale) SiO2 
 PCOD9442708
Probable space group: P N N M
;
_chemical_formula_sum "Si O2"
_cell_formula_units_Z 38
_cell_length_a 7.308377
_cell_length_b 13.459408
_cell_length_c 14.523218
_cell_angle_alpha 90.000000
_cell_angle_beta 90.000000
_cell_angle_gamma 90.000000
_cell_volume 1428.597076
_symmetry_space_group_name_H-M "P N N M"
_symmetry_group_IT_number 58
_symmetry_cell_setting 'orthorhombic'
loop_
_space_group_symop_operation_xyz
x,y,z
-x,-y,z
1/2+x,1/2-y,1/2-z
1/2-x,1/2+y,1/2-z
-x,-y,-z
x,y,-z
1/2-x,1/2+y,1/2+z
1/2+x,1/2-y,1/2+z
loop_
_atom_site_type_symbol
_atom_site_label
_atom_site_fract_x
_atom_site_fract_y
_atom_site_fract_z
Si Si1 0.236459 0.994975 0.327783
Si Si2 0.119387 0.635942 0.332490
Si Si3 0.682734 0.640881 0.331298
Si Si4 0.000000 0.000000 0.500000
Si Si5 0.595393 0.202635 0.609327
Si Si6 0.271123 0.500004 0.500000
O O1 0.402281 0.846341 0.170516
O O2 0.136392 0.039102 0.416721
O O3 0.373859 0.912869 0.371734
O O4 0.316360 0.073260 0.255755
O O5 0.375564 0.419966 0.240920
O O6 0.233227 0.735500 0.350132
O O7 0.170465 0.566757 0.419503
O O8 0.577184 0.743127 0.345648
O O9 0.641482 0.573988 0.420382
O O10 0.591473 0.217410 0.500000
#
# Coordination Sequence:
#
# PCOD9442708 Si02
#       6
#     8   8   8   2   8   4
#     4  11  26  49  79 117 172 232 283 352 433 518
#     4  11  24  48  81 118 169 217 276 355 435 514
#     4  11  24  46  77 114 161 212 279 353 417 506
#     4  12  24  52  78 114 182 240 290 344 438 528
#     4  12  26  46  80 125 163 218 295 351 424 516
#     4  10  19  39  74 113 154 204 259 335 437 496
#
# _framework density 26.599523000000001
#
# number of rings (size 3 to 8) (size 9 to 14) (size 15 to 20)
#    0.000    0.842    3.158    5.053    2.947    3.368 
#    0.000    4.211    9.263    0.000    0.000    0.000 
#    0.000    0.000    0.000    0.000    0.000    0.000 
#
# Total GULP energy -211679.060678 kJ/mol
# GULP energy per Si atom -5570.501597 kJ/mol
# Density = 2.653898 g / cm^3
# Si number density = 26.599523 Si / 1000 Ang^3
#
#
#
# Elastic Constant Matrix: (Units=GPa)
#
#
# Indices 1 2 3 4 5 6 
#
# 1 109.6030 46.7027 49.4591 0.0000 0.0000 0.0000
# 2 46.7027 142.1639 49.3067 0.0000 0.0000 0.0000
# 3 49.4591 49.3067 289.1250 0.0000 0.0000 0.0000
# 4 0.0000 0.0000 0.0000 87.6268 0.0000 0.0000
# 5 0.0000 0.0000 0.0000 0.0000 432.5900 0.0000
# 6 0.0000 0.0000 0.0000 0.0000 0.0000 38.9997
#
#
#
# Elastic Compliance Matrix: (Units=1/GPa)
#
#
# Indices 1 2 3 4 5 6 
#
# 1 0.011087 -0.003172 -0.001356 0.000000 0.000000 0.000000
# 2 -0.003172 0.008384 -0.000887 0.000000 0.000000 0.000000
# 3 -0.001356 -0.000887 0.003842 0.000000 0.000000 0.000000
# 4 0.000000 0.000000 0.000000 0.011412 0.000000 0.000000
# 5 0.000000 0.000000 0.000000 0.000000 0.002312 0.000000
# 6 0.000000 0.000000 0.000000 0.000000 0.000000 0.025641
#
#
# Mechanical properties :
#
#
# Convention : Reuss Voigt Hill
#
# Bulk Modulus (GPa) = 80.10755 92.42541 86.26648
# Shear Modulus (GPa) = 64.37580 138.20486 101.29033
#
# Velocity S-wave (km/s) = 4.92488 7.21599 6.17757
# Velocity P-wave (km/s) = 7.90701 10.21027 9.13155
#
# Compressibility (1/GPa) = 0.01248322
#
# Stress axis : x y z
#
# Youngs Moduli (GPa) = 90.19362 119.27617 260.28726
#
# Poissons Ratio (x) = 0.37836 0.35286
# Poissons Ratio (y) = 0.28611 0.23091
# Poissons Ratio (z) = 0.12227 0.10581
#
# Static dielectric constant tensor:
#      x y z
#    x 2.315140 0.000000 0.000000 
#    y 0.000000 2.116300 0.000000 
#    z 0.000000 0.000000 1.947800 
# 
# From -- ./inp_files/20952.got.cif
#   From: 2010.05.17/outbox.cif.g08.bks.cpg/sg58_11_cif.got.tgz:20952.got - 2010.06.03 14:20:14.
