data_PCOD9442341
_publ_section_title
;
Structure prediction by ZEFSAII (Michael W. Deem and Ramdas Pophale) SiO2 
 PCOD9442341
Probable space group: P N N M
;
_chemical_formula_sum "Si O2"
_cell_formula_units_Z 24
_cell_length_a 7.307029
_cell_length_b 5.383539
_cell_length_c 25.430728
_cell_angle_alpha 90.000000
_cell_angle_beta 90.000000
_cell_angle_gamma 90.000000
_cell_volume 1000.385728
_symmetry_space_group_name_H-M "P N N M"
_symmetry_group_IT_number 58
_symmetry_cell_setting 'orthorhombic'
loop_
_space_group_symop_operation_xyz
x,y,z
-x,-y,z
1/2+x,1/2-y,1/2-z
1/2-x,1/2+y,1/2-z
-x,-y,-z
x,y,-z
1/2-x,1/2+y,1/2+z
1/2+x,1/2-y,1/2+z
loop_
_atom_site_type_symbol
_atom_site_label
_atom_site_fract_x
_atom_site_fract_y
_atom_site_fract_z
Si Si1 0.707930 0.421608 0.219405
Si Si2 0.284944 0.724080 0.561677
Si Si3 0.799437 0.275384 0.895415
O O1 0.500000 0.500000 0.207400
O O2 0.792460 0.672718 0.244618
O O3 0.805845 0.340106 0.165756
O O4 0.274557 0.673424 0.500000
O O5 0.210056 0.490597 0.593799
O O6 0.497678 0.749373 0.579773
O O7 0.207065 0.992576 0.575795
#
# Coordination Sequence:
#
# PCOD9442341 Si02
#       3
#     8   8   8
#     4  12  28  45  68  96 136 182 236 282 343 402
#     4  10  19  34  65  98 129 170 223 270 327 408
#     4  10  20  35  59  90 131 164 216 274 332 377
#
# _framework density 23.990745
#
# number of rings (size 3 to 8) (size 9 to 14) (size 15 to 20)
#    0.000    1.333    0.000    8.000   14.000    0.000 
#    0.000    0.000    0.000   11.000    0.000    0.000 
#    0.000    0.000    0.000    0.000    0.000    0.000 
#
# Total GULP energy -134224.567694 kJ/mol
# GULP energy per Si atom -5592.690321 kJ/mol
# Density = 2.393614 g / cm^3
# Si number density = 23.990745 Si / 1000 Ang^3
#
#
#
# Elastic Constant Matrix: (Units=GPa)
#
#
# Indices 1 2 3 4 5 6 
#
# 1 70.0486 14.1001 1.8963 0.0000 0.0000 0.0000
# 2 14.1001 255.0244 57.7820 0.0000 0.0000 0.0000
# 3 1.8963 57.7820 145.0299 0.0000 0.0000 0.0000
# 4 0.0000 0.0000 0.0000 53.5744 0.0000 0.0000
# 5 0.0000 0.0000 0.0000 0.0000 -24.9032 0.0000
# 6 0.0000 0.0000 0.0000 0.0000 0.0000 -1.9792
#
#
#
# Elastic Compliance Matrix: (Units=1/GPa)
#
#
# Indices 1 2 3 4 5 6 
#
# 1 0.014439 -0.000831 0.000142 0.000000 0.000000 0.000000
# 2 -0.000831 0.004358 -0.001725 0.000000 0.000000 0.000000
# 3 0.000142 -0.001725 0.007581 0.000000 0.000000 0.000000
# 4 0.000000 0.000000 0.000000 0.018666 0.000000 0.000000
# 5 0.000000 0.000000 0.000000 0.000000 -0.040155 0.000000
# 6 0.000000 0.000000 0.000000 0.000000 0.000000 -0.505267
#
#
# Mechanical properties :
#
#
# Convention : Reuss Voigt Hill
#
# Bulk Modulus (GPa) = 46.40337 68.62885 57.51611
# Shear Modulus (GPa) = -10.23818 31.76004 10.76093
#
# Velocity S-wave (km/s) = -2.06805 3.64242 2.12019
# Velocity P-wave (km/s) = 3.69889 6.80868 5.47904
#
# Compressibility (1/GPa) = 0.02155016
#
# Stress axis : x y z
#
# Youngs Moduli (GPa) = 69.25620 229.46007 131.91360
#
# Poissons Ratio (x) = 0.19057 -0.01875
# Poissons Ratio (y) = 0.05752 0.22761
# Poissons Ratio (z) = -0.00984 0.39592
#
# Static dielectric constant tensor:
#      x y z
#    x 1.885660 0.000000 0.000000 
#    y 0.000000 1.999680 0.000000 
#    z 0.000000 0.000000 1.847960 
# 
# From -- ./inp_files/31153.got.cif
#   From: 2010.05.17/outbox.cif.g08.bks.cpg/sg58_16_cif.got.tgz:31153.got - 2010.06.03 14:20:14.
