data_PCOD9442378
_publ_section_title
;
Structure prediction by ZEFSAII (Michael W. Deem and Ramdas Pophale) SiO2 
 PCOD9442378
Probable space group: P N N M
;
_chemical_formula_sum "Si O2"
_cell_formula_units_Z 64
_cell_length_a 14.778190
_cell_length_b 25.467168
_cell_length_c 8.041359
_cell_angle_alpha 90.000000
_cell_angle_beta 90.000000
_cell_angle_gamma 90.000000
_cell_volume 3026.434997
_symmetry_space_group_name_H-M "P N N M"
_symmetry_group_IT_number 58
_symmetry_cell_setting 'orthorhombic'
loop_
_space_group_symop_operation_xyz
x,y,z
-x,-y,z
1/2+x,1/2-y,1/2-z
1/2-x,1/2+y,1/2-z
-x,-y,-z
x,y,-z
1/2-x,1/2+y,1/2+z
1/2+x,1/2-y,1/2+z
loop_
_atom_site_type_symbol
_atom_site_label
_atom_site_fract_x
_atom_site_fract_y
_atom_site_fract_z
Si Si1 0.283277 0.047530 0.297610
Si Si2 0.441167 0.212454 0.798699
Si Si3 0.157997 0.434197 0.194550
Si Si4 0.727375 0.284115 0.307202
Si Si5 0.450760 0.328064 0.201885
Si Si6 0.878258 0.881997 0.692464
Si Si7 0.755919 0.672100 0.308114
Si Si8 0.972856 0.402388 0.698721
O O1 0.283518 0.048867 0.500000
O O2 0.192568 0.076266 0.235396
O O3 0.372242 0.078445 0.239248
O O4 0.294326 0.987216 0.244434
O O5 0.333715 0.211403 0.762095
O O6 0.476066 0.268934 0.739280
O O7 0.482890 0.157887 0.739604
O O8 0.449716 0.212346 0.000000
O O9 0.190412 0.381454 0.282926
O O10 0.050357 0.437657 0.220628
O O11 0.178367 0.428318 0.000000
O O12 0.670855 0.325364 0.201745
O O13 0.704619 0.222847 0.285535
O O14 0.217576 0.200895 0.000000
O O15 0.522650 0.370597 0.265484
O O16 0.347279 0.337154 0.250606
O O17 0.454707 0.327765 0.000000
O O18 0.891148 0.897116 0.500000
O O19 0.755935 0.687115 0.500000
O O20 0.984932 0.403609 0.500000
#
# Coordination Sequence:
#
# PCOD9442378 Si02
#       8
#     8   8   8   8   8   8   8   8
#     4  10  22  40  59  84 119 155 200 245 290 346
#     4   8  16  31  51  79 115 150 179 221 279 339
#     4  11  24  41  59  81 114 157 199 247 298 350
#     4  10  19  35  57  84 118 154 186 228 290 347
#     4   9  19  37  59  84 119 154 188 233 290 347
#     4  10  20  35  60  90 117 154 198 241 286 341
#     4  11  23  40  60  85 115 149 196 246 292 348
#     4  11  21  35  57  87 120 154 195 240 291 350
#
# _framework density 21.146993999999999
#
# number of rings (size 3 to 8) (size 9 to 14) (size 15 to 20)
#    0.000    2.000    1.250    3.375    1.750    3.000 
#    0.000    1.250    0.000    3.750    0.000    0.000 
#    0.000    0.000    0.000    0.000    0.000    0.000 
#
# Total GULP energy -357445.286787 kJ/mol
# GULP energy per Si atom -5585.082606 kJ/mol
# Density = 2.109886 g / cm^3
# Si number density = 21.146994 Si / 1000 Ang^3
#
#
#
# Elastic Constant Matrix: (Units=GPa)
#
#
# Indices 1 2 3 4 5 6 
#
# 1 29.5010 3.9234 -3.7357 0.0000 0.0000 0.0000
# 2 3.9234 67.6732 -4.7672 0.0000 0.0000 0.0000
# 3 -3.7357 -4.7672 26.2506 0.0000 0.0000 0.0000
# 4 0.0000 0.0000 0.0000 -6.1983 0.0000 0.0000
# 5 0.0000 0.0000 0.0000 0.0000 14.8079 0.0000
# 6 0.0000 0.0000 0.0000 0.0000 0.0000 32.1747
#
#
#
# Elastic Compliance Matrix: (Units=1/GPa)
#
#
# Indices 1 2 3 4 5 6 
#
# 1 0.034708 -0.001686 0.004633 0.000000 0.000000 0.000000
# 2 -0.001686 0.015050 0.002493 0.000000 0.000000 0.000000
# 3 0.004633 0.002493 0.039206 0.000000 0.000000 0.000000
# 4 0.000000 0.000000 0.000000 -0.161333 0.000000 0.000000
# 5 0.000000 0.000000 0.000000 0.000000 0.067532 0.000000
# 6 0.000000 0.000000 0.000000 0.000000 0.000000 0.031080
#
#
# Mechanical properties :
#
#
# Convention : Reuss Voigt Hill
#
# Bulk Modulus (GPa) = 10.01544 12.69620 11.35582
# Shear Modulus (GPa) = 102.78682 16.69046 59.73864
#
# Velocity S-wave (km/s) = 6.97936 2.81242 5.32077
# Velocity P-wave (km/s) = 8.34835 4.06978 6.56727
#
# Compressibility (1/GPa) = 0.09984585
#
# Stress axis : x y z
#
# Youngs Moduli (GPa) = 28.81173 66.44394 25.50599
#
# Poissons Ratio (x) = 0.11201 -0.11817
# Poissons Ratio (y) = 0.04857 -0.06359
# Poissons Ratio (z) = -0.13349 -0.16566
#
# Static dielectric constant tensor:
#      x y z
#    x 1.773070 0.000000 0.000000 
#    y 0.000000 1.769840 0.000000 
#    z 0.000000 0.000000 1.749250 
# 
# From -- ./inp_files/6776.got.cif
#   From: 2010.05.17/outbox.cif.g08.bks.cpg/sg58_4_cif.got.tgz:6776.got - 2010.06.03 14:20:14.
