data_PCOD9442683
_publ_section_title
;
Structure prediction by ZEFSAII (Michael W. Deem and Ramdas Pophale) SiO2 
 PCOD9442683
Probable space group: P N N M
;
_chemical_formula_sum "Si O2"
_cell_formula_units_Z 48
_cell_length_a 11.107408
_cell_length_b 9.199040
_cell_length_c 22.677758
_cell_angle_alpha 90.000000
_cell_angle_beta 90.000000
_cell_angle_gamma 90.000000
_cell_volume 2317.156402
_symmetry_space_group_name_H-M "P N N M"
_symmetry_group_IT_number 58
_symmetry_cell_setting 'orthorhombic'
loop_
_space_group_symop_operation_xyz
x,y,z
-x,-y,z
1/2+x,1/2-y,1/2-z
1/2-x,1/2+y,1/2-z
-x,-y,-z
x,y,-z
1/2-x,1/2+y,1/2+z
1/2+x,1/2-y,1/2+z
loop_
_atom_site_type_symbol
_atom_site_label
_atom_site_fract_x
_atom_site_fract_y
_atom_site_fract_z
Si Si1 0.419475 0.367085 0.842738
Si Si2 0.490879 0.831738 0.384970
Si Si3 0.084038 0.304728 0.250137
Si Si4 0.273046 0.520620 0.258003
Si Si5 0.244134 0.693336 0.431838
Si Si6 0.869189 0.069380 0.116668
O O1 0.500000 0.500000 0.867559
O O2 0.499552 0.268327 0.798789
O O3 0.322343 0.449798 0.801800
O O4 0.354356 0.267430 0.890295
O O5 0.472839 0.810795 0.314636
O O6 0.371851 0.769410 0.416195
O O7 0.609560 0.736884 0.399265
O O8 0.500000 0.000000 0.398665
O O9 0.138230 0.462298 0.265290
O O10 0.197152 0.190788 0.244916
O O11 0.344886 0.458282 0.314232
O O12 0.215798 0.710842 0.500000
O O13 0.268508 0.524070 0.416297
O O14 0.000000 0.000000 0.103513
#
# Coordination Sequence:
#
# PCOD9442683 Si02
#       6
#     8   8   8   8   8   8
#     4  10  21  38  64  97 132 173 212 269 331 391
#     4  11  23  37  63 100 128 163 217 287 338 387
#     4  11  22  35  60  97 134 162 209 263 337 394
#     4  11  18  35  60  89 130 164 204 267 327 389
#     4  11  24  44  65  90 133 185 223 254 320 408
#     4  10  19  38  62  88 126 169 215 266 328 388
#
# _framework density 20.715045
#
# number of rings (size 3 to 8) (size 9 to 14) (size 15 to 20)
#    0.000    1.333    6.667    0.500    2.333    5.000 
#    0.000    0.000    0.000    2.000    0.000    0.000 
#    0.000    0.000    0.000    0.000    0.000    0.000 
#
# Total GULP energy -268239.085799 kJ/mol
# GULP energy per Si atom -5588.314287 kJ/mol
# Density = 2.066790 g / cm^3
# Si number density = 20.715045 Si / 1000 Ang^3
#
#
#
# Elastic Constant Matrix: (Units=GPa)
#
#
# Indices 1 2 3 4 5 6 
#
# 1 59.4930 35.2525 13.5762 0.0000 0.0000 0.0000
# 2 35.2525 124.1407 27.0559 0.0000 0.0000 0.0000
# 3 13.5762 27.0559 66.1724 0.0000 0.0000 0.0000
# 4 0.0000 0.0000 0.0000 6.6067 0.0000 0.0000
# 5 0.0000 0.0000 0.0000 0.0000 11.7126 0.0000
# 6 0.0000 0.0000 0.0000 0.0000 0.0000 28.3401
#
#
#
# Elastic Compliance Matrix: (Units=1/GPa)
#
#
# Indices 1 2 3 4 5 6 
#
# 1 0.020447 -0.005371 -0.001999 0.000000 0.000000 0.000000
# 2 -0.005371 0.010254 -0.003091 0.000000 0.000000 0.000000
# 3 -0.001999 -0.003091 0.016786 0.000000 0.000000 0.000000
# 4 0.000000 0.000000 0.000000 0.151361 0.000000 0.000000
# 5 0.000000 0.000000 0.000000 0.000000 0.085378 0.000000
# 6 0.000000 0.000000 0.000000 0.000000 0.000000 0.035286
#
#
# Mechanical properties :
#
#
# Convention : Reuss Voigt Hill
#
# Bulk Modulus (GPa) = 37.64190 44.61948 41.13069
# Shear Modulus (GPa) = 14.31481 20.92666 17.62074
#
# Velocity S-wave (km/s) = 2.63161 3.18184 2.91971
# Velocity P-wave (km/s) = 5.23875 5.92328 5.59150
#
# Compressibility (1/GPa) = 0.02656614
#
# Stress axis : x y z
#
# Youngs Moduli (GPa) = 48.90612 97.52168 59.57386
#
# Poissons Ratio (x) = 0.52377 0.11910
# Poissons Ratio (y) = 0.26266 0.18413
# Poissons Ratio (z) = 0.09777 0.30141
#
# Static dielectric constant tensor:
#      x y z
#    x 1.787530 0.000000 0.000000 
#    y 0.000000 1.807490 0.000000 
#    z 0.000000 0.000000 1.693650 
# 
# From -- ./inp_files/31905.got.cif
#   From: 2010.05.17/outbox.cif.g08.bks.cpg/sg58_16_cif.got.tgz:31905.got - 2010.06.03 14:20:14.
