data_PCOD9442036
_publ_section_title
;
Structure prediction by ZEFSAII (Michael W. Deem and Ramdas Pophale) SiO2 
 PCOD9442036
Probable space group: P N N M
;
_chemical_formula_sum "Si O2"
_cell_formula_units_Z 64
_cell_length_a 19.675742
_cell_length_b 20.767740
_cell_length_c 7.761623
_cell_angle_alpha 90.000000
_cell_angle_beta 90.000000
_cell_angle_gamma 90.000000
_cell_volume 3171.559778
_symmetry_space_group_name_H-M "P N N M"
_symmetry_group_IT_number 58
_symmetry_cell_setting 'orthorhombic'
loop_
_space_group_symop_operation_xyz
x,y,z
-x,-y,z
1/2+x,1/2-y,1/2-z
1/2-x,1/2+y,1/2-z
-x,-y,-z
x,y,-z
1/2-x,1/2+y,1/2+z
1/2+x,1/2-y,1/2+z
loop_
_atom_site_type_symbol
_atom_site_label
_atom_site_fract_x
_atom_site_fract_y
_atom_site_fract_z
Si Si1 0.327436 0.093751 0.796542
Si Si2 0.064657 0.042017 0.288744
Si Si3 0.771548 0.643820 0.202073
Si Si4 0.022587 0.568128 0.198228
Si Si5 0.088545 0.184045 0.702140
Si Si6 0.258152 0.712495 0.709906
Si Si7 0.079072 0.325668 0.299100
Si Si8 0.287784 0.490364 0.790758
O O1 0.396787 0.073739 0.707362
O O2 0.300504 0.163443 0.738450
O O3 0.267374 0.042915 0.765914
O O4 0.341463 0.096819 0.000000
O O5 0.065026 0.043132 0.500000
O O6 0.062018 0.116227 0.227091
O O7 0.136597 0.010830 0.235754
O O8 0.000000 0.000000 0.234934
O O9 0.750117 0.714020 0.271167
O O10 0.853426 0.642735 0.218641
O O11 0.736346 0.579891 0.273475
O O12 0.754627 0.644829 0.000000
O O13 0.000000 0.500000 0.276349
O O14 0.984926 0.628170 0.282793
O O15 0.999517 0.568850 0.000000
O O16 0.070405 0.183825 0.500000
O O17 0.170149 0.185578 0.722409
O O18 0.066590 0.253808 0.774398
O O19 0.262364 0.712503 0.500000
O O20 0.096134 0.317576 0.500000
O O21 0.287167 0.489780 0.000000
#
# Coordination Sequence:
#
# PCOD9442036 Si02
#       8
#     8   8   8   8   8   8   8   8
#     4  11  22  35  55  81 109 141 176 222 273 321
#     4   9  17  31  52  80 107 136 177 224 266 308
#     4   9  18  33  53  79 107 141 180 218 260 312
#     4  11  24  40  56  76 105 143 183 223 267 321
#     4   9  17  32  55  80 105 137 178 218 258 312
#     4   9  18  33  52  76 105 137 173 214 262 315
#     4  10  20  34  54  82 110 142 177 219 269 317
#     4  10  19  33  55  80 106 139 180 222 265 315
#
# _framework density 20.179345000000001
#
# number of rings (size 3 to 8) (size 9 to 14) (size 15 to 20)
#    0.000    2.250    1.250    1.875    0.000    5.500 
#    2.250    0.000    0.000    1.500    0.000    0.000 
#    0.000    0.000    0.000    0.000    0.000    0.000 
#
# Total GULP energy -357152.188870 kJ/mol
# GULP energy per Si atom -5580.502951 kJ/mol
# Density = 2.013342 g / cm^3
# Si number density = 20.179345 Si / 1000 Ang^3
#
#
#
# Elastic Constant Matrix: (Units=GPa)
#
#
# Indices 1 2 3 4 5 6 
#
# 1 108.1271 83.2082 -9.6394 0.0000 0.0000 0.0000
# 2 83.2082 155.1913 4.5666 0.0000 0.0000 0.0000
# 3 -9.6394 4.5666 28.4532 0.0000 0.0000 0.0000
# 4 0.0000 0.0000 0.0000 29.3470 0.0000 0.0000
# 5 0.0000 0.0000 0.0000 0.0000 117.8273 0.0000
# 6 0.0000 0.0000 0.0000 0.0000 0.0000 31.4203
#
#
#
# Elastic Compliance Matrix: (Units=1/GPa)
#
#
# Indices 1 2 3 4 5 6 
#
# 1 0.017137 -0.009403 0.007315 0.000000 0.000000 0.000000
# 2 -0.009403 0.011634 -0.005053 0.000000 0.000000 0.000000
# 3 0.007315 -0.005053 0.038435 0.000000 0.000000 0.000000
# 4 0.000000 0.000000 0.000000 0.034075 0.000000 0.000000
# 5 0.000000 0.000000 0.000000 0.000000 0.008487 0.000000
# 6 0.000000 0.000000 0.000000 0.000000 0.000000 0.031827
#
#
# Mechanical properties :
#
#
# Convention : Reuss Voigt Hill
#
# Bulk Modulus (GPa) = 18.89556 49.78251 34.33904
# Shear Modulus (GPa) = 28.81546 49.96131 39.38838
#
# Velocity S-wave (km/s) = 3.78295 4.98120 4.42284
# Velocity P-wave (km/s) = 5.33526 7.60308 6.56779
#
# Compressibility (1/GPa) = 0.05292248
#
# Stress axis : x y z
#
# Youngs Moduli (GPa) = 58.35404 85.95405 26.01823
#
# Poissons Ratio (x) = 0.80826 -0.19032
# Poissons Ratio (y) = 0.54873 0.13147
# Poissons Ratio (z) = -0.42685 0.43432
#
# Static dielectric constant tensor:
#      x y z
#    x 1.653640 0.000000 0.000000 
#    y 0.000000 1.750290 0.000000 
#    z 0.000000 0.000000 1.752490 
# 
# From -- ./inp_files/8420.got.cif
#   From: 2010.05.17/outbox.cif.g08.bks.cpg/sg58_5_cif.got.tgz:8420.got - 2010.06.03 14:20:14.
