data_PCOD9442597
_publ_section_title
;
Structure prediction by ZEFSAII (Michael W. Deem and Ramdas Pophale) SiO2 
 PCOD9442597
Probable space group: P N N M
;
_chemical_formula_sum "Si O2"
_cell_formula_units_Z 40
_cell_length_a 5.467440
_cell_length_b 13.350005
_cell_length_c 22.323596
_cell_angle_alpha 90.000000
_cell_angle_beta 90.000000
_cell_angle_gamma 90.000000
_cell_volume 1629.407115
_symmetry_space_group_name_H-M "P N N M"
_symmetry_group_IT_number 58
_symmetry_cell_setting 'orthorhombic'
loop_
_space_group_symop_operation_xyz
x,y,z
-x,-y,z
1/2+x,1/2-y,1/2-z
1/2-x,1/2+y,1/2-z
-x,-y,-z
x,y,-z
1/2-x,1/2+y,1/2+z
1/2+x,1/2-y,1/2+z
loop_
_atom_site_type_symbol
_atom_site_label
_atom_site_fract_x
_atom_site_fract_y
_atom_site_fract_z
Si Si1 0.144982 0.313896 0.249653
Si Si2 0.016985 0.121931 0.932224
Si Si3 0.769210 0.883890 0.429232
Si Si4 0.515837 0.116452 0.121198
Si Si5 0.231200 0.387889 0.119917
O O1 0.398822 0.252767 0.257818
O O2 0.179135 0.380438 0.190267
O O3 0.097007 0.374278 0.310224
O O4 0.742451 0.157390 0.917622
O O5 0.238770 0.153471 0.888863
O O6 0.086964 0.147650 0.000000
O O7 0.000000 0.000000 0.928461
O O8 0.814240 0.883855 0.500000
O O9 0.501348 0.842359 0.414332
O O10 0.004139 0.841786 0.394566
O O11 0.750413 0.998661 0.404884
O O12 0.500000 0.000000 0.104305
#
# Coordination Sequence:
#
# PCOD9442597 Si02
#       5
#     8   8   8   8   8
#     4  12  26  43  59  83 129 175 205 248 310 373
#     4   9  17  33  59  90 117 144 183 250 314 349
#     4  10  19  36  65 100 123 146 201 271 319 363
#     4  10  21  37  62  91 116 150 208 258 293 358
#     4  10  20  35  59  87 119 164 195 243 306 371
#
# _framework density 24.548808999999999
#
# number of rings (size 3 to 8) (size 9 to 14) (size 15 to 20)
#    0.000    1.800    0.000    6.000    2.800    2.400 
#    7.200    0.000    0.000   31.200    0.000    0.000 
#    0.000    0.000    0.000    0.000    0.000    0.000 
#
# Total GULP energy -223867.910711 kJ/mol
# GULP energy per Si atom -5596.697768 kJ/mol
# Density = 2.449293 g / cm^3
# Si number density = 24.548809 Si / 1000 Ang^3
#
#
#
# Elastic Constant Matrix: (Units=GPa)
#
#
# Indices 1 2 3 4 5 6 
#
# 1 220.7020 28.2645 40.6106 0.0000 0.0000 0.0000
# 2 28.2645 51.4117 -22.1518 0.0000 0.0000 0.0000
# 3 40.6106 -22.1518 145.6165 0.0000 0.0000 0.0000
# 4 0.0000 0.0000 0.0000 20.2328 0.0000 0.0000
# 5 0.0000 0.0000 0.0000 0.0000 51.6532 0.0000
# 6 0.0000 0.0000 0.0000 0.0000 0.0000 -74.5231
#
#
#
# Elastic Compliance Matrix: (Units=1/GPa)
#
#
# Indices 1 2 3 4 5 6 
#
# 1 0.005415 -0.003882 -0.002101 0.000000 0.000000 0.000000
# 2 -0.003882 0.023598 0.004672 0.000000 0.000000 0.000000
# 3 -0.002101 0.004672 0.008164 0.000000 0.000000 0.000000
# 4 0.000000 0.000000 0.000000 0.049425 0.000000 0.000000
# 5 0.000000 0.000000 0.000000 0.000000 0.019360 0.000000
# 6 0.000000 0.000000 0.000000 0.000000 0.000000 -0.013419
#
#
# Mechanical properties :
#
#
# Convention : Reuss Voigt Hill
#
# Bulk Modulus (GPa) = 28.93788 56.79740 42.86764
# Shear Modulus (GPa) = 46.86832 24.20636 35.53734
#
# Velocity S-wave (km/s) = 4.37417 3.14355 3.80889
# Velocity P-wave (km/s) = 6.10939 6.03014 6.06989
#
# Compressibility (1/GPa) = 0.03455679
#
# Stress axis : x y z
#
# Youngs Moduli (GPa) = 184.68367 42.37610 122.48914
#
# Poissons Ratio (x) = 0.16450 0.25730
# Poissons Ratio (y) = 0.71692 -0.57233
# Poissons Ratio (z) = 0.38795 -0.19800
#
# Static dielectric constant tensor:
#      x y z
#    x 1.997970 0.000000 0.000000 
#    y 0.000000 1.798820 0.000000 
#    z 0.000000 0.000000 1.841170 
# 
# From -- ./inp_files/24186.got.cif
#   From: 2010.05.17/outbox.cif.g08.bks.cpg/sg58_13_cif.got.tgz:24186.got - 2010.06.03 14:20:14.
