data_PCOD9442505
_publ_section_title
;
Structure prediction by ZEFSAII (Michael W. Deem and Ramdas Pophale) SiO2 
 PCOD9442505
Probable space group: P N N M
;
_chemical_formula_sum "Si O2"
_cell_formula_units_Z 34
_cell_length_a 23.941672
_cell_length_b 7.183910
_cell_length_c 7.340119
_cell_angle_alpha 90.000000
_cell_angle_beta 90.000000
_cell_angle_gamma 90.000000
_cell_volume 1262.462423
_symmetry_space_group_name_H-M "P N N M"
_symmetry_group_IT_number 58
_symmetry_cell_setting 'orthorhombic'
loop_
_space_group_symop_operation_xyz
x,y,z
-x,-y,z
1/2+x,1/2-y,1/2-z
1/2-x,1/2+y,1/2-z
-x,-y,-z
x,y,-z
1/2-x,1/2+y,1/2+z
1/2+x,1/2-y,1/2+z
loop_
_atom_site_type_symbol
_atom_site_label
_atom_site_fract_x
_atom_site_fract_y
_atom_site_fract_z
Si Si1 0.561772 0.049156 0.222098
Si Si2 0.586714 0.479789 0.212040
Si Si3 0.324542 0.067849 0.205201
Si Si4 0.297725 0.650812 0.280912
Si Si5 0.000000 0.000000 0.000000
O O1 0.574418 0.263729 0.270847
O O2 0.613452 0.920648 0.285756
O O3 0.500000 0.000000 0.284299
O O4 0.562556 0.038906 0.000000
O O5 0.653782 0.499323 0.238443
O O6 0.543147 0.578598 0.340900
O O7 0.574093 0.507277 0.000000
O O8 0.317308 0.844155 0.197610
O O9 0.265288 0.123565 0.288803
O O10 0.326281 0.143286 0.000000
O O11 0.295742 0.663784 0.500000
#
# Coordination Sequence:
#
# PCOD9442505 Si02
#       5
#     8   8   8   8   2
#     4   8  15  33  58  83 113 152 194 238 294 353
#     4  10  21  38  61  83 118 157 191 241 297 347
#     4   9  19  34  56  82 114 154 197 243 296 350
#     4  10  19  36  57  83 117 155 197 247 296 350
#     4  12  22  40  58  86 116 160 196 230 294 356
#
# _framework density 26.931495000000002
#
# number of rings (size 3 to 8) (size 9 to 14) (size 15 to 20)
#    0.000    2.588    1.176    2.471    0.000    1.882 
#    4.235    0.588    0.000    0.000    0.000    0.000 
#    0.000    0.000    0.000    0.000    0.000    0.000 
#
# Total GULP energy -189595.607050 kJ/mol
# GULP energy per Si atom -5576.341384 kJ/mol
# Density = 2.687020 g / cm^3
# Si number density = 26.931495 Si / 1000 Ang^3
#
#
#
# Elastic Constant Matrix: (Units=GPa)
#
#
# Indices 1 2 3 4 5 6 
#
# 1 290.5344 44.0990 34.2197 0.0000 0.0000 0.0000
# 2 44.0990 47.5188 0.0766 0.0000 0.0000 0.0000
# 3 34.2197 0.0766 170.9283 0.0000 0.0000 0.0000
# 4 0.0000 0.0000 0.0000 -56.3434 0.0000 0.0000
# 5 0.0000 0.0000 0.0000 0.0000 14.9451 0.0000
# 6 0.0000 0.0000 0.0000 0.0000 0.0000 51.3013
#
#
#
# Elastic Compliance Matrix: (Units=1/GPa)
#
#
# Indices 1 2 3 4 5 6 
#
# 1 0.004119 -0.003821 -0.000823 0.000000 0.000000 0.000000
# 2 -0.003821 0.024589 0.000754 0.000000 0.000000 0.000000
# 3 -0.000823 0.000754 0.006015 0.000000 0.000000 0.000000
# 4 0.000000 0.000000 0.000000 -0.017748 0.000000 0.000000
# 5 0.000000 0.000000 0.000000 0.000000 0.066912 0.000000
# 6 0.000000 0.000000 0.000000 0.000000 0.000000 0.019493
#
#
# Mechanical properties :
#
#
# Convention : Reuss Voigt Hill
#
# Bulk Modulus (GPa) = 37.11564 73.97468 55.54516
# Shear Modulus (GPa) = 41.61813 30.68633 36.15223
#
# Velocity S-wave (km/s) = 3.93534 3.37919 3.66782
# Velocity P-wave (km/s) = 5.87031 6.53855 6.21342
#
# Compressibility (1/GPa) = 0.02694282
#
# Stress axis : x y z
#
# Youngs Moduli (GPa) = 242.78672 40.66828 166.25636
#
# Poissons Ratio (x) = 0.15540 0.13681
# Poissons Ratio (y) = 0.92771 -0.12535
# Poissons Ratio (z) = 0.19978 -0.03066
#
# Static dielectric constant tensor:
#      x y z
#    x 2.255210 0.000000 0.000000 
#    y 0.000000 2.202440 0.000000 
#    z 0.000000 0.000000 1.983800 
# 
# From -- ./inp_files/8674.got.cif
#   From: 2010.05.17/outbox.cif.g08.bks.cpg/sg58_5_cif.got.tgz:8674.got - 2010.06.03 14:20:14.
