data_PCOD9442297
_publ_section_title
;
Structure prediction by ZEFSAII (Michael W. Deem and Ramdas Pophale) SiO2 
 PCOD9442297
Probable space group: P N N M
;
_chemical_formula_sum "Si O2"
_cell_formula_units_Z 64
_cell_length_a 19.056310
_cell_length_b 20.147954
_cell_length_c 7.652582
_cell_angle_alpha 90.000000
_cell_angle_beta 90.000000
_cell_angle_gamma 90.000000
_cell_volume 2938.175626
_symmetry_space_group_name_H-M "P N N M"
_symmetry_group_IT_number 58
_symmetry_cell_setting 'orthorhombic'
loop_
_space_group_symop_operation_xyz
x,y,z
-x,-y,z
1/2+x,1/2-y,1/2-z
1/2-x,1/2+y,1/2-z
-x,-y,-z
x,y,-z
1/2-x,1/2+y,1/2+z
1/2+x,1/2-y,1/2+z
loop_
_atom_site_type_symbol
_atom_site_label
_atom_site_fract_x
_atom_site_fract_y
_atom_site_fract_z
Si Si1 0.522235 0.290586 0.702058
Si Si2 0.253768 0.380483 0.714367
Si Si3 0.951585 0.940610 0.295656
Si Si4 0.396084 0.831282 0.203996
Si Si5 0.828761 0.371574 0.711107
Si Si6 0.866382 0.224608 0.207759
Si Si7 0.979460 0.425680 0.286247
Si Si8 0.208347 0.029207 0.788056
O O1 0.522116 0.270810 0.500000
O O2 0.534568 0.368854 0.714100
O O3 0.582868 0.245583 0.783909
O O4 0.445539 0.274270 0.780472
O O5 0.254440 0.378383 0.500000
O O6 0.179641 0.350837 0.776616
O O7 0.318076 0.334791 0.775740
O O8 0.264162 0.456711 0.765191
O O9 0.968817 0.933525 0.500000
O O10 0.870380 0.959154 0.274858
O O11 0.000000 0.000000 0.223278
O O12 0.461062 0.874329 0.275429
O O13 0.392417 0.849192 0.000000
O O14 0.828705 0.373986 0.500000
O O15 0.829380 0.294939 0.763880
O O16 0.902153 0.403858 0.772032
O O17 0.762282 0.414063 0.771820
O O18 0.873918 0.213736 0.000000
O O19 0.977937 0.424391 0.500000
O O20 0.000000 0.500000 0.234130
O O21 0.206694 0.030525 0.000000
#
# Coordination Sequence:
#
# PCOD9442297 Si02
#       8
#     8   8   8   8   8   8   8   8
#     4  11  23  39  60  86 119 158 200 246 298 355
#     4   9  19  36  59  85 112 151 198 240 291 352
#     4  11  25  43  64  89 117 152 199 253 307 359
#     4  10  19  34  58  87 118 154 196 245 292 345
#     4  10  20  34  55  86 118 150 190 239 285 339
#     4  10  21  37  57  81 115 157 196 240 293 353
#     4   9  16  29  53  83 114 149 188 231 280 335
#     4  10  21  39  62  89 121 155 197 243 294 358
#
# _framework density 21.782225
#
# number of rings (size 3 to 8) (size 9 to 14) (size 15 to 20)
#    0.000    2.000    1.250    2.250    1.750    6.000 
#    0.000    1.250    0.000    3.000    0.000    0.000 
#    0.000    0.000    0.000    0.000    0.000    0.000 
#
# Total GULP energy -357701.632763 kJ/mol
# GULP energy per Si atom -5589.088012 kJ/mol
# Density = 2.173265 g / cm^3
# Si number density = 21.782225 Si / 1000 Ang^3
#
#
#
# Elastic Constant Matrix: (Units=GPa)
#
#
# Indices 1 2 3 4 5 6 
#
# 1 113.5435 41.5916 -4.8036 0.0000 0.0000 0.0000
# 2 41.5916 121.9755 -14.6975 0.0000 0.0000 0.0000
# 3 -4.8036 -14.6975 38.6652 0.0000 0.0000 0.0000
# 4 0.0000 0.0000 0.0000 -20.5436 0.0000 0.0000
# 5 0.0000 0.0000 0.0000 0.0000 9.1706 0.0000
# 6 0.0000 0.0000 0.0000 0.0000 0.0000 41.5665
#
#
#
# Elastic Compliance Matrix: (Units=1/GPa)
#
#
# Indices 1 2 3 4 5 6 
#
# 1 0.010064 -0.003439 -0.000057 0.000000 0.000000 0.000000
# 2 -0.003439 0.009767 0.003285 0.000000 0.000000 0.000000
# 3 -0.000057 0.003285 0.027105 0.000000 0.000000 0.000000
# 4 0.000000 0.000000 0.000000 -0.048677 0.000000 0.000000
# 5 0.000000 0.000000 0.000000 0.000000 0.109045 0.000000
# 6 0.000000 0.000000 0.000000 0.000000 0.000000 0.024058
#
#
# Mechanical properties :
#
#
# Convention : Reuss Voigt Hill
#
# Bulk Modulus (GPa) = 21.49800 35.37391 28.43595
# Shear Modulus (GPa) = 33.94741 22.84495 28.39618
#
# Velocity S-wave (km/s) = 3.95206 3.24201 3.61451
# Velocity P-wave (km/s) = 5.54220 5.50357 5.52292
#
# Compressibility (1/GPa) = 0.04651595
#
# Stress axis : x y z
#
# Youngs Moduli (GPa) = 99.36034 102.38816 36.89381
#
# Poissons Ratio (x) = 0.35207 0.00209
# Poissons Ratio (y) = 0.34166 -0.12121
# Poissons Ratio (z) = 0.00564 -0.33638
#
# Static dielectric constant tensor:
#      x y z
#    x 1.776220 0.000000 0.000000 
#    y 0.000000 1.780470 0.000000 
#    z 0.000000 0.000000 1.817820 
# 
# From -- ./inp_files/8256.got.cif
#   From: 2010.05.17/outbox.cif.g08.bks.cpg/sg58_5_cif.got.tgz:8256.got - 2010.06.03 14:20:14.
