data_PCOD9442317
_publ_section_title
;
Structure prediction by ZEFSAII (Michael W. Deem and Ramdas Pophale) SiO2 
 PCOD9442317
Probable space group: P N N M
;
_chemical_formula_sum "Si O2"
_cell_formula_units_Z 48
_cell_length_a 11.364933
_cell_length_b 14.943049
_cell_length_c 14.801560
_cell_angle_alpha 90.000000
_cell_angle_beta 90.000000
_cell_angle_gamma 90.000000
_cell_volume 2513.700840
_symmetry_space_group_name_H-M "P N N M"
_symmetry_group_IT_number 58
_symmetry_cell_setting 'orthorhombic'
loop_
_space_group_symop_operation_xyz
x,y,z
-x,-y,z
1/2+x,1/2-y,1/2-z
1/2-x,1/2+y,1/2-z
-x,-y,-z
x,y,-z
1/2-x,1/2+y,1/2+z
1/2+x,1/2-y,1/2+z
loop_
_atom_site_type_symbol
_atom_site_label
_atom_site_fract_x
_atom_site_fract_y
_atom_site_fract_z
Si Si1 0.267923 0.187834 0.670992
Si Si2 0.440669 0.210537 0.500000
Si Si3 0.085507 0.910657 0.500000
Si Si4 0.192001 0.883642 0.807702
Si Si5 0.139342 0.446546 0.000000
Si Si6 0.588671 0.584516 0.500000
Si Si7 0.130980 0.516001 0.206835
Si Si8 0.988631 0.892519 0.680163
O O1 0.352728 0.196380 0.584238
O O2 0.243521 0.288662 0.699117
O O3 0.143546 0.137866 0.663589
O O4 0.338909 0.118071 0.731514
O O5 0.549456 0.139255 0.500000
O O6 0.473915 0.316553 0.500000
O O7 0.222379 0.928542 0.500000
O O8 0.056341 0.860364 0.591472
O O9 0.000000 0.000000 0.500000
O O10 0.267959 0.953400 0.749384
O O11 0.061790 0.863563 0.767182
O O12 0.168589 0.916222 0.909575
O O13 0.126274 0.497831 0.902910
O O14 0.500000 0.500000 0.500000
O O15 0.000000 0.500000 0.240996
O O16 0.000000 0.000000 0.684834
#
# Coordination Sequence:
#
# PCOD9442317 Si02
#       8
#     8   4   4   8   4   4   8   8
#     4  11  23  38  63  88 133 166 210 260 325 382
#     4  10  22  41  62 103 129 172 207 264 331 392
#     4  10  19  34  59  90 127 157 190 245 319 396
#     4  11  25  42  63  94 121 168 227 265 314 382
#     4  12  20  38  66 101 139 154 198 263 332 410
#     4  10  24  46  68  84 123 174 232 273 299 364
#     4  12  23  40  64  97 133 166 199 264 333 387
#     4  11  20  38  61  90 124 162 205 256 317 386
#
# _framework density 19.095351000000001
#
# number of rings (size 3 to 8) (size 9 to 14) (size 15 to 20)
#    0.000    1.000    5.000    2.750    2.333    0.000 
#    0.000    0.417    0.000    0.000    0.000    0.000 
#    0.000    0.000    0.000    0.000    0.000    0.000 
#
# Total GULP energy -267247.884775 kJ/mol
# GULP energy per Si atom -5567.664266 kJ/mol
# Density = 1.905189 g / cm^3
# Si number density = 19.095351 Si / 1000 Ang^3
#
#
#
# Elastic Constant Matrix: (Units=GPa)
#
#
# Indices 1 2 3 4 5 6 
#
# 1 116.8481 25.2939 17.1298 0.0000 0.0000 0.0000
# 2 25.2939 127.1740 19.0647 0.0000 0.0000 0.0000
# 3 17.1298 19.0647 86.9887 0.0000 0.0000 0.0000
# 4 0.0000 0.0000 0.0000 11.6062 0.0000 0.0000
# 5 0.0000 0.0000 0.0000 0.0000 -1.7643 0.0000
# 6 0.0000 0.0000 0.0000 0.0000 0.0000 31.9836
#
#
#
# Elastic Compliance Matrix: (Units=1/GPa)
#
#
# Indices 1 2 3 4 5 6 
#
# 1 0.009116 -0.001596 -0.001445 0.000000 0.000000 0.000000
# 2 -0.001596 0.008410 -0.001529 0.000000 0.000000 0.000000
# 3 -0.001445 -0.001529 0.012115 0.000000 0.000000 0.000000
# 4 0.000000 0.000000 0.000000 0.086161 0.000000 0.000000
# 5 0.000000 0.000000 0.000000 0.000000 -0.566781 0.000000
# 6 0.000000 0.000000 0.000000 0.000000 0.000000 0.031266
#
#
# Mechanical properties :
#
#
# Convention : Reuss Voigt Hill
#
# Bulk Modulus (GPa) = 48.77999 50.44308 49.61153
# Shear Modulus (GPa) = -12.38422 26.33325 6.97452
#
# Velocity S-wave (km/s) = -2.54942 3.71757 1.91322
# Velocity P-wave (km/s) = 4.11520 6.70081 5.56038
#
# Compressibility (1/GPa) = 0.02050021
#
# Stress axis : x y z
#
# Youngs Moduli (GPa) = 109.70277 118.90706 82.53966
#
# Poissons Ratio (x) = 0.18982 0.11928
# Poissons Ratio (y) = 0.17513 0.12619
# Poissons Ratio (z) = 0.15854 0.18178
#
# Static dielectric constant tensor:
#      x y z
#    x 1.779960 0.000000 0.000000 
#    y 0.000000 1.764060 0.000000 
#    z 0.000000 0.000000 1.734840 
# 
# From -- ./inp_files/21235.got.cif
#   From: 2010.05.17/outbox.cif.g08.bks.cpg/sg58_11_cif.got.tgz:21235.got - 2010.06.03 14:20:14.
