data_PCOD9442198
_publ_section_title
;
Structure prediction by ZEFSAII (Michael W. Deem and Ramdas Pophale) SiO2 
 PCOD9442198
Probable space group: P N N M
;
_chemical_formula_sum "Si O2"
_cell_formula_units_Z 48
_cell_length_a 9.037537
_cell_length_b 16.609670
_cell_length_c 16.725351
_cell_angle_alpha 90.000000
_cell_angle_beta 90.000000
_cell_angle_gamma 90.000000
_cell_volume 2510.650921
_symmetry_space_group_name_H-M "P N N M"
_symmetry_group_IT_number 58
_symmetry_cell_setting 'orthorhombic'
loop_
_space_group_symop_operation_xyz
x,y,z
-x,-y,z
1/2+x,1/2-y,1/2-z
1/2-x,1/2+y,1/2-z
-x,-y,-z
x,y,-z
1/2-x,1/2+y,1/2+z
1/2+x,1/2-y,1/2+z
loop_
_atom_site_type_symbol
_atom_site_label
_atom_site_fract_x
_atom_site_fract_y
_atom_site_fract_z
Si Si1 0.874438 0.681687 0.343998
Si Si2 0.056430 0.225581 0.195390
Si Si3 0.172631 0.496916 0.330630
Si Si4 0.806199 0.315443 0.091237
Si Si5 0.608948 0.427911 0.800041
Si Si6 0.309232 0.154692 0.910173
O O1 0.853437 0.716617 0.255376
O O2 0.800816 0.595090 0.352120
O O3 0.809316 0.742079 0.408066
O O4 0.050269 0.677222 0.356353
O O5 0.026706 0.146545 0.252605
O O6 0.162458 0.191581 0.126779
O O7 0.931174 0.279213 0.151683
O O8 0.279880 0.530815 0.263120
O O9 0.193981 0.557908 0.403822
O O10 0.000000 0.500000 0.304780
O O11 0.713683 0.387978 0.132252
O O12 0.855640 0.332334 0.000000
O O13 0.500000 0.500000 0.826816
O O14 0.332587 0.181369 0.000000
#
# Coordination Sequence:
#
# PCOD9442198 Si02
#       6
#     8   8   8   8   8   8
#     4  10  19  34  56  80 106 142 187 225 267 326
#     4  10  20  37  57  79 107 146 189 224 266 327
#     4   9  18  33  55  79 106 142 181 223 271 328
#     4  11  22  35  54  80 110 142 179 231 282 320
#     4  10  21  37  57  80 108 146 191 228 268 327
#     4  10  20  33  52  81 114 142 173 223 281 329
#
# _framework density 19.118548000000001
#
# number of rings (size 3 to 8) (size 9 to 14) (size 15 to 20)
#    0.000    2.000    0.000    6.000    0.000    5.333 
#    0.000    0.000    0.000   11.000    0.000    0.000 
#    0.000    0.000    0.000    0.000    0.000    0.000 
#
# Total GULP energy -267381.384567 kJ/mol
# GULP energy per Si atom -5570.445512 kJ/mol
# Density = 1.907503 g / cm^3
# Si number density = 19.118548 Si / 1000 Ang^3
#
#
#
# Elastic Constant Matrix: (Units=GPa)
#
#
# Indices 1 2 3 4 5 6 
#
# 1 58.3508 19.5775 27.2470 0.0000 0.0000 0.0000
# 2 19.5775 43.6395 20.0802 0.0000 0.0000 0.0000
# 3 27.2470 20.0802 87.0733 0.0000 0.0000 0.0000
# 4 0.0000 0.0000 0.0000 9.8636 0.0000 0.0000
# 5 0.0000 0.0000 0.0000 0.0000 16.8936 0.0000
# 6 0.0000 0.0000 0.0000 0.0000 0.0000 33.2161
#
#
#
# Elastic Compliance Matrix: (Units=1/GPa)
#
#
# Indices 1 2 3 4 5 6 
#
# 1 0.022078 -0.007524 -0.005173 0.000000 0.000000 0.000000
# 2 -0.007524 0.028199 -0.004149 0.000000 0.000000 0.000000
# 3 -0.005173 -0.004149 0.014060 0.000000 0.000000 0.000000
# 4 0.000000 0.000000 0.000000 0.101382 0.000000 0.000000
# 5 0.000000 0.000000 0.000000 0.000000 0.059194 0.000000
# 6 0.000000 0.000000 0.000000 0.000000 0.000000 0.030106
#
#
# Mechanical properties :
#
#
# Convention : Reuss Voigt Hill
#
# Bulk Modulus (GPa) = 32.63170 35.87478 34.25324
# Shear Modulus (GPa) = 16.72648 20.13859 18.43253
#
# Velocity S-wave (km/s) = 2.96105 3.24906 3.10839
# Velocity P-wave (km/s) = 5.36615 5.73414 5.55319
#
# Compressibility (1/GPa) = 0.03064504
#
# Stress axis : x y z
#
# Youngs Moduli (GPa) = 45.29419 35.46174 71.12269
#
# Poissons Ratio (x) = 0.26682 0.36795
# Poissons Ratio (y) = 0.34080 0.29507
# Poissons Ratio (z) = 0.23433 0.14712
#
# Static dielectric constant tensor:
#      x y z
#    x 1.713550 0.000000 0.000000 
#    y 0.000000 1.694320 0.000000 
#    z 0.000000 0.000000 1.631800 
# 
# From -- ./inp_files/19834.got.cif
#   From: 2010.05.17/outbox.cif.g08.bks.cpg/sg58_10_cif.got.tgz:19834.got - 2010.06.03 14:20:14.
