data_PCOD9442182
_publ_section_title
;
Structure prediction by ZEFSAII (Michael W. Deem and Ramdas Pophale) SiO2 
 PCOD9442182
Probable space group: P N N M
;
_chemical_formula_sum "Si O2"
_cell_formula_units_Z 40
_cell_length_a 10.017445
_cell_length_b 19.065704
_cell_length_c 12.613441
_cell_angle_alpha 90.000000
_cell_angle_beta 90.000000
_cell_angle_gamma 90.000000
_cell_volume 2409.036571
_symmetry_space_group_name_H-M "P N N M"
_symmetry_group_IT_number 58
_symmetry_cell_setting 'orthorhombic'
loop_
_space_group_symop_operation_xyz
x,y,z
-x,-y,z
1/2+x,1/2-y,1/2-z
1/2-x,1/2+y,1/2-z
-x,-y,-z
x,y,-z
1/2-x,1/2+y,1/2+z
1/2+x,1/2-y,1/2+z
loop_
_atom_site_type_symbol
_atom_site_label
_atom_site_fract_x
_atom_site_fract_y
_atom_site_fract_z
Si Si1 0.480392 0.682601 0.624023
Si Si2 0.710966 0.188992 0.123002
Si Si3 0.476447 0.845617 0.309919
Si Si4 0.136458 0.042384 0.500000
Si Si5 0.289887 0.647335 0.811977
Si Si6 0.113723 0.441853 0.000000
O O1 0.453602 0.668266 0.500000
O O2 0.636312 0.666251 0.646676
O O3 0.469767 0.766239 0.644793
O O4 0.378091 0.646524 0.705161
O O5 0.606047 0.153775 0.201452
O O6 0.701347 0.273096 0.142369
O O7 0.684052 0.174944 0.000000
O O8 0.631881 0.864986 0.294784
O O9 0.408569 0.894761 0.396632
O O10 0.155954 0.092526 0.601998
O O11 0.249502 0.983273 0.500000
O O12 0.000000 0.000000 0.500000
O O13 0.000000 0.500000 0.000000
#
# Coordination Sequence:
#
# PCOD9442182 Si02
#       6
#     8   8   8   4   8   4
#     4   9  18  33  55  81 114 143 176 235 282 328
#     4   9  18  33  57  81 112 143 177 236 279 326
#     4  10  19  34  55  82 109 144 190 225 277 327
#     4  12  26  38  56  82 116 154 184 232 272 334
#     4  10  19  36  53  80 115 144 183 226 282 323
#     4  12  22  38  60  78 112 154 186 224 270 331
#
# _framework density 16.604147999999999
#
# number of rings (size 3 to 8) (size 9 to 14) (size 15 to 20)
#    0.000    2.000    4.000    0.000    2.800    0.800 
#    0.000    0.000    0.000    2.400    0.000    0.000 
#    0.000    0.000    0.000    0.000    0.000    0.000 
#
# Total GULP energy -223098.693129 kJ/mol
# GULP energy per Si atom -5577.467328 kJ/mol
# Density = 1.656636 g / cm^3
# Si number density = 16.604148 Si / 1000 Ang^3
#
#
#
# Elastic Constant Matrix: (Units=GPa)
#
#
# Indices 1 2 3 4 5 6 
#
# 1 152.3817 59.2847 105.2386 0.0000 0.0000 0.0000
# 2 59.2847 50.8228 48.0850 0.0000 0.0000 0.0000
# 3 105.2386 48.0850 157.6054 0.0000 0.0000 0.0000
# 4 0.0000 0.0000 0.0000 15.2728 0.0000 0.0000
# 5 0.0000 0.0000 0.0000 0.0000 33.2788 0.0000
# 6 0.0000 0.0000 0.0000 0.0000 0.0000 29.6448
#
#
#
# Elastic Compliance Matrix: (Units=1/GPa)
#
#
# Indices 1 2 3 4 5 6 
#
# 1 0.016213 -0.012187 -0.007107 0.000000 0.000000 0.000000
# 2 -0.012187 0.036823 -0.003096 0.000000 0.000000 0.000000
# 3 -0.007107 -0.003096 0.012035 0.000000 0.000000 0.000000
# 4 0.000000 0.000000 0.000000 0.065476 0.000000 0.000000
# 5 0.000000 0.000000 0.000000 0.000000 0.030049 0.000000
# 6 0.000000 0.000000 0.000000 0.000000 0.000000 0.033733
#
#
# Mechanical properties :
#
#
# Convention : Reuss Voigt Hill
#
# Bulk Modulus (GPa) = 49.29005 87.33628 68.31316
# Shear Modulus (GPa) = 20.33566 25.51938 22.92752
#
# Velocity S-wave (km/s) = 3.50342 3.92462 3.71998
# Velocity P-wave (km/s) = 6.79081 8.55863 7.72545
#
# Compressibility (1/GPa) = 0.02028807
#
# Stress axis : x y z
#
# Youngs Moduli (GPa) = 61.68070 27.15731 83.08755
#
# Poissons Ratio (x) = 0.33098 0.59053
# Poissons Ratio (y) = 0.75173 0.25728
# Poissons Ratio (z) = 0.43838 0.08409
#
# Static dielectric constant tensor:
#      x y z
#    x 1.545470 0.000000 0.000000 
#    y 0.000000 1.542040 0.000000 
#    z 0.000000 0.000000 1.542550 
# 
# From -- ./inp_files/12917.got.cif
#   From: 2010.05.17/outbox.cif.g08.bks.cpg/sg58_7_cif.got.tgz:12917.got - 2010.06.03 14:20:14.
