data_PCOD9442335
_publ_section_title
;
Structure prediction by ZEFSAII (Michael W. Deem and Ramdas Pophale) SiO2 
 PCOD9442335
Probable space group: P N N M
;
_chemical_formula_sum "Si O2"
_cell_formula_units_Z 64
_cell_length_a 31.369220
_cell_length_b 12.334948
_cell_length_c 8.429676
_cell_angle_alpha 90.000000
_cell_angle_beta 90.000000
_cell_angle_gamma 90.000000
_cell_volume 3261.759422
_symmetry_space_group_name_H-M "P N N M"
_symmetry_group_IT_number 58
_symmetry_cell_setting 'orthorhombic'
loop_
_space_group_symop_operation_xyz
x,y,z
-x,-y,z
1/2+x,1/2-y,1/2-z
1/2-x,1/2+y,1/2-z
-x,-y,-z
x,y,-z
1/2-x,1/2+y,1/2+z
1/2+x,1/2-y,1/2+z
loop_
_atom_site_type_symbol
_atom_site_label
_atom_site_fract_x
_atom_site_fract_y
_atom_site_fract_z
Si Si1 0.925769 0.780984 0.184934
Si Si2 0.451800 0.491398 0.812815
Si Si3 0.694688 0.509627 0.187443
Si Si4 0.673291 0.277180 0.315142
Si Si5 0.372937 0.086170 0.305913
Si Si6 0.790631 0.551002 0.806013
Si Si7 0.955611 0.552854 0.806080
Si Si8 0.879447 0.165177 0.188891
O O1 0.876434 0.746711 0.189363
O O2 0.952092 0.677964 0.244817
O O3 0.931399 0.891579 0.278795
O O4 0.936571 0.802660 0.000000
O O5 0.500000 0.500000 0.748412
O O6 0.421887 0.398282 0.742147
O O7 0.454025 0.472013 0.000000
O O8 0.680213 0.387560 0.222425
O O9 0.743249 0.520657 0.246668
O O10 0.661303 0.593823 0.260996
O O11 0.694668 0.529124 0.000000
O O12 0.684205 0.297446 0.500000
O O13 0.699205 0.173790 0.256010
O O14 0.372879 0.086036 0.500000
O O15 0.376432 0.210913 0.252000
O O16 0.328866 0.028618 0.255023
O O17 0.414294 0.016473 0.256344
O O18 0.791412 0.549941 0.000000
O O19 0.000000 0.500000 0.755964
O O20 0.954830 0.554768 0.000000
O O21 0.880162 0.169740 0.000000
#
# Coordination Sequence:
#
# PCOD9442335 Si02
#       8
#     8   8   8   8   8   8   8   8
#     4  10  19  34  61  88 112 145 190 241 283 332
#     4  11  25  42  59  81 116 157 191 231 285 342
#     4  11  23  37  57  83 116 156 193 233 288 346
#     4  10  19  36  60  83 110 147 194 242 284 331
#     4   9  18  34  54  81 116 149 184 231 287 339
#     4   9  19  36  56  81 115 154 190 234 291 342
#     4   9  17  30  53  87 118 143 181 235 288 332
#     4  11  23  38  60  86 115 149 190 240 283 335
#
# _framework density 19.621312
#
# number of rings (size 3 to 8) (size 9 to 14) (size 15 to 20)
#    0.000    2.000    2.500    1.125    3.500    1.000 
#    0.000    0.625    0.000    3.375    0.000    0.000 
#    0.000    0.000    0.000    0.000    0.000    0.000 
#
# Total GULP energy -357259.433616 kJ/mol
# GULP energy per Si atom -5582.178650 kJ/mol
# Density = 1.957665 g / cm^3
# Si number density = 19.621312 Si / 1000 Ang^3
#
#
#
# Elastic Constant Matrix: (Units=GPa)
#
#
# Indices 1 2 3 4 5 6 
#
# 1 94.3877 19.2337 10.8876 0.0000 0.0000 0.0000
# 2 19.2337 93.6402 3.5719 0.0000 0.0000 0.0000
# 3 10.8876 3.5719 13.2967 0.0000 0.0000 0.0000
# 4 0.0000 0.0000 0.0000 -8.2380 0.0000 0.0000
# 5 0.0000 0.0000 0.0000 0.0000 3.0249 0.0000
# 6 0.0000 0.0000 0.0000 0.0000 0.0000 34.1454
#
#
#
# Elastic Compliance Matrix: (Units=1/GPa)
#
#
# Indices 1 2 3 4 5 6 
#
# 1 0.012106 -0.002130 -0.009340 0.000000 0.000000 0.000000
# 2 -0.002130 0.011165 -0.001255 0.000000 0.000000 0.000000
# 3 -0.009340 -0.001255 0.083192 0.000000 0.000000 0.000000
# 4 0.000000 0.000000 0.000000 -0.121389 0.000000 0.000000
# 5 0.000000 0.000000 0.000000 0.000000 0.330590 0.000000
# 6 0.000000 0.000000 0.000000 0.000000 0.000000 0.029287
#
#
# Mechanical properties :
#
#
# Convention : Reuss Voigt Hill
#
# Bulk Modulus (GPa) = 12.34395 29.85679 21.10037
# Shear Modulus (GPa) = 12.58160 16.96188 14.77174
#
# Velocity S-wave (km/s) = 2.53498 2.94336 2.74677
# Velocity P-wave (km/s) = 3.85654 5.17694 4.56474
#
# Compressibility (1/GPa) = 0.08101136
#
# Stress axis : x y z
#
# Youngs Moduli (GPa) = 82.60285 89.56879 12.02040
#
# Poissons Ratio (x) = 0.19081 0.11228
# Poissons Ratio (y) = 0.17597 0.01508
# Poissons Ratio (z) = 0.77155 0.11239
#
# Static dielectric constant tensor:
#      x y z
#    x 1.715190 0.000000 0.000000 
#    y 0.000000 1.665970 0.000000 
#    z 0.000000 0.000000 1.677340 
# 
# From -- ./inp_files/10977.got.cif
#   From: 2010.05.17/outbox.cif.g08.bks.cpg/sg58_6_cif.got.tgz:10977.got - 2010.06.03 14:20:14.
