data_PCOD9442723
_publ_section_title
;
Structure prediction by ZEFSAII (Michael W. Deem and Ramdas Pophale) SiO2 
 PCOD9442723
Probable space group: P N N M
;
_chemical_formula_sum "Si O2"
_cell_formula_units_Z 48
_cell_length_a 8.929830
_cell_length_b 8.484030
_cell_length_c 26.740236
_cell_angle_alpha 90.000000
_cell_angle_beta 90.000000
_cell_angle_gamma 90.000000
_cell_volume 2025.865565
_symmetry_space_group_name_H-M "P N N M"
_symmetry_group_IT_number 58
_symmetry_cell_setting 'orthorhombic'
loop_
_space_group_symop_operation_xyz
x,y,z
-x,-y,z
1/2+x,1/2-y,1/2-z
1/2-x,1/2+y,1/2-z
-x,-y,-z
x,y,-z
1/2-x,1/2+y,1/2+z
1/2+x,1/2-y,1/2+z
loop_
_atom_site_type_symbol
_atom_site_label
_atom_site_fract_x
_atom_site_fract_y
_atom_site_fract_z
Si Si1 0.631180 0.890637 0.406235
Si Si2 0.870985 0.791195 0.275274
Si Si3 0.090761 0.652562 0.650969
Si Si4 0.448260 0.679961 0.945185
Si Si5 0.146613 0.918839 0.842472
Si Si6 0.167805 0.441638 0.195636
O O1 0.769872 0.837262 0.439399
O O2 0.589735 0.721848 0.380378
O O3 0.689300 0.012710 0.362465
O O4 0.500000 0.000000 0.429261
O O5 0.752319 0.684870 0.306839
O O6 0.849548 0.728704 0.219306
O O7 0.795981 0.960435 0.277434
O O8 0.029619 0.770222 0.304567
O O9 0.249470 0.566479 0.639034
O O10 0.000000 0.500000 0.667358
O O11 0.021223 0.724383 0.600309
O O12 0.500000 0.500000 0.941783
O O13 0.487780 0.744310 0.000000
O O14 0.000000 0.000000 0.820643
O O15 0.000000 0.500000 0.206854
#
# Coordination Sequence:
#
# PCOD9442723 Si02
#       6
#     8   8   8   8   8   8
#     4  10  22  42  62  91 132 172 208 263 335 390
#     4  10  21  39  60  91 130 175 218 264 319 391
#     4  10  19  43  64  91 127 168 220 269 329 393
#     4  11  24  43  68  96 125 167 224 280 339 400
#     4  10  21  38  63  93 126 172 210 268 324 390
#     4  10  20  38  57  89 129 164 215 263 320 389
#
# _framework density 23.693576
#
# number of rings (size 3 to 8) (size 9 to 14) (size 15 to 20)
#    0.000    1.833    5.000    1.500    2.333    4.667 
#    6.000    0.833    0.000    1.000    0.000    0.000 
#    0.000    0.000    0.000    0.000    0.000    0.000 
#
# Total GULP energy -267416.340846 kJ/mol
# GULP energy per Si atom -5571.173768 kJ/mol
# Density = 2.363965 g / cm^3
# Si number density = 23.693576 Si / 1000 Ang^3
#
#
#
# Elastic Constant Matrix: (Units=GPa)
#
#
# Indices 1 2 3 4 5 6 
#
# 1 115.4938 62.9748 11.3763 0.0000 0.0000 0.0000
# 2 62.9748 113.4479 49.0811 0.0000 0.0000 0.0000
# 3 11.3763 49.0811 62.9737 0.0000 0.0000 0.0000
# 4 0.0000 0.0000 0.0000 5.7127 0.0000 0.0000
# 5 0.0000 0.0000 0.0000 0.0000 -21.4359 0.0000
# 6 0.0000 0.0000 0.0000 0.0000 0.0000 42.0057
#
#
#
# Elastic Compliance Matrix: (Units=1/GPa)
#
#
# Indices 1 2 3 4 5 6 
#
# 1 0.013422 -0.009658 0.005103 0.000000 0.000000 0.000000
# 2 -0.009658 0.020249 -0.014037 0.000000 0.000000 0.000000
# 3 0.005103 -0.014037 0.025898 0.000000 0.000000 0.000000
# 4 0.000000 0.000000 0.000000 0.175047 0.000000 0.000000
# 5 0.000000 0.000000 0.000000 0.000000 -0.046651 0.000000
# 6 0.000000 0.000000 0.000000 0.000000 0.000000 0.023806
#
#
# Mechanical properties :
#
#
# Convention : Reuss Voigt Hill
#
# Bulk Modulus (GPa) = 44.67425 59.86442 52.26933
# Shear Modulus (GPa) = 19.49944 16.48872 17.99408
#
# Velocity S-wave (km/s) = 2.87188 2.64088 2.75880
# Velocity P-wave (km/s) = 5.46744 5.88387 5.67947
#
# Compressibility (1/GPa) = 0.02238426
#
# Stress axis : x y z
#
# Youngs Moduli (GPa) = 74.50372 49.38592 38.61301
#
# Poissons Ratio (x) = 0.47698 -0.19704
# Poissons Ratio (y) = 0.71958 0.54200
# Poissons Ratio (z) = -0.38018 0.69322
#
# Static dielectric constant tensor:
#      x y z
#    x 2.066860 0.000000 0.000000 
#    y 0.000000 1.964060 0.000000 
#    z 0.000000 0.000000 1.939120 
# 
# From -- ./inp_files/34550.got.cif
#   From: 2010.05.17/outbox.cif.g08.bks.cpg/sg58_18_cif.got.tgz:34550.got - 2010.06.03 14:20:14.
