data_PCOD9442216
_publ_section_title
;
Structure prediction by ZEFSAII (Michael W. Deem and Ramdas Pophale) SiO2 
 PCOD9442216
Probable space group: P N N M
;
_chemical_formula_sum "Si O2"
_cell_formula_units_Z 56
_cell_length_a 20.634206
_cell_length_b 11.751672
_cell_length_c 12.881873
_cell_angle_alpha 90.000000
_cell_angle_beta 90.000000
_cell_angle_gamma 90.000000
_cell_volume 3123.679278
_symmetry_space_group_name_H-M "P N N M"
_symmetry_group_IT_number 58
_symmetry_cell_setting 'orthorhombic'
loop_
_space_group_symop_operation_xyz
x,y,z
-x,-y,z
1/2+x,1/2-y,1/2-z
1/2-x,1/2+y,1/2-z
-x,-y,-z
x,y,-z
1/2-x,1/2+y,1/2+z
1/2+x,1/2-y,1/2+z
loop_
_atom_site_type_symbol
_atom_site_label
_atom_site_fract_x
_atom_site_fract_y
_atom_site_fract_z
Si Si1 0.012295 0.633563 0.383986
Si Si2 0.685396 0.669315 0.116816
Si Si3 0.926274 0.005739 0.692213
Si Si4 0.367811 0.160742 0.272138
Si Si5 0.171740 0.424430 0.877700
Si Si6 0.082007 0.240703 0.232908
Si Si7 0.953851 0.167382 0.882730
O O1 0.021446 0.679916 0.500000
O O2 0.952284 0.690931 0.326022
O O3 0.000000 0.500000 0.390248
O O4 0.074723 0.649491 0.312340
O O5 0.623914 0.585202 0.131333
O O6 0.683364 0.763976 0.207487
O O7 0.751678 0.599155 0.126625
O O8 0.683550 0.718893 0.000000
O O9 0.899012 0.880765 0.717658
O O10 0.936436 0.068937 0.802110
O O11 0.000000 0.000000 0.646961
O O12 0.400349 0.234999 0.363357
O O13 0.345537 0.040443 0.317011
O O14 0.134873 0.318913 0.822828
O O15 0.153078 0.432199 0.000000
O O16 0.023955 0.214656 0.151497
O O17 0.954204 0.128391 0.000000
#
# Coordination Sequence:
#
# PCOD9442216 Si02
#       7
#     8   8   8   8   8   8   8
#     4  10  19  34  56  84 114 144 183 227 279 330
#     4  10  23  40  59  81 108 150 190 228 281 337
#     4   9  20  36  58  85 112 144 186 236 286 321
#     4  10  20  37  58  80 111 148 183 234 277 328
#     4  11  23  37  56  82 113 151 190 228 277 338
#     4  10  20  34  55  86 116 149 182 231 280 329
#     4   9  18  33  56  84 113 146 184 226 278 330
#
# _framework density 17.927576999999999
#
# number of rings (size 3 to 8) (size 9 to 14) (size 15 to 20)
#    0.000    2.143    1.429    2.143    2.000    4.000 
#    0.000    2.143    0.000    3.429    0.000    0.000 
#    0.000    0.000    0.000    0.000    0.000    0.000 
#
# Total GULP energy -312297.790346 kJ/mol
# GULP energy per Si atom -5576.746256 kJ/mol
# Density = 1.788677 g / cm^3
# Si number density = 17.927577 Si / 1000 Ang^3
#
#
#
# Elastic Constant Matrix: (Units=GPa)
#
#
# Indices 1 2 3 4 5 6 
#
# 1 59.8427 29.9782 33.2474 0.0000 0.0000 0.0000
# 2 29.9782 99.4031 15.3934 0.0000 0.0000 0.0000
# 3 33.2474 15.3934 87.2756 0.0000 0.0000 0.0000
# 4 0.0000 0.0000 0.0000 12.5703 0.0000 0.0000
# 5 0.0000 0.0000 0.0000 0.0000 -4.5351 0.0000
# 6 0.0000 0.0000 0.0000 0.0000 0.0000 22.5966
#
#
#
# Elastic Compliance Matrix: (Units=1/GPa)
#
#
# Indices 1 2 3 4 5 6 
#
# 1 0.024294 -0.006059 -0.008186 0.000000 0.000000 0.000000
# 2 -0.006059 0.011854 0.000217 0.000000 0.000000 0.000000
# 3 -0.008186 0.000217 0.014538 0.000000 0.000000 0.000000
# 4 0.000000 0.000000 0.000000 0.079552 0.000000 0.000000
# 5 0.000000 0.000000 0.000000 0.000000 -0.220504 0.000000
# 6 0.000000 0.000000 0.000000 0.000000 0.000000 0.044254
#
#
# Mechanical properties :
#
#
# Convention : Reuss Voigt Hill
#
# Bulk Modulus (GPa) = 44.18824 44.86217 44.52520
# Shear Modulus (GPa) = -480.13851 17.31986 -231.40933
#
# Velocity S-wave (km/s) = -16.38300 3.11159 -11.37367
# Velocity P-wave (km/s) = 18.25290 6.16342 12.14868
#
# Compressibility (1/GPa) = 0.02263045
#
# Stress axis : x y z
#
# Youngs Moduli (GPa) = 41.16306 84.36231 68.78513
#
# Poissons Ratio (x) = 0.51114 0.56307
# Poissons Ratio (y) = 0.24940 -0.01495
# Poissons Ratio (z) = 0.33696 -0.01834
#
# Static dielectric constant tensor:
#      x y z
#    x 1.608360 0.000000 0.000000 
#    y 0.000000 1.633580 0.000000 
#    z 0.000000 0.000000 1.603020 
# 
# From -- ./inp_files/17039.got.cif
#   From: 2010.05.17/outbox.cif.g08.bks.cpg/sg58_9_cif.got.tgz:17039.got - 2010.06.03 14:20:14.
