data_PCOD9442530
_publ_section_title
;
Structure prediction by ZEFSAII (Michael W. Deem and Ramdas Pophale) SiO2 
 PCOD9442530
Probable space group: P N N M
;
_chemical_formula_sum "Si O2"
_cell_formula_units_Z 64
_cell_length_a 24.413036
_cell_length_b 15.985011
_cell_length_c 7.943206
_cell_angle_alpha 90.000000
_cell_angle_beta 90.000000
_cell_angle_gamma 90.000000
_cell_volume 3099.777751
_symmetry_space_group_name_H-M "P N N M"
_symmetry_group_IT_number 58
_symmetry_cell_setting 'orthorhombic'
loop_
_space_group_symop_operation_xyz
x,y,z
-x,-y,z
1/2+x,1/2-y,1/2-z
1/2-x,1/2+y,1/2-z
-x,-y,-z
x,y,-z
1/2-x,1/2+y,1/2+z
1/2+x,1/2-y,1/2+z
loop_
_atom_site_type_symbol
_atom_site_label
_atom_site_fract_x
_atom_site_fract_y
_atom_site_fract_z
Si Si1 0.310439 0.505593 0.699885
Si Si2 0.110288 0.344988 0.299728
Si Si3 0.686207 0.001690 0.793098
Si Si4 0.617424 0.339754 0.703799
Si Si5 0.501210 0.598026 0.296385
Si Si6 0.507111 0.904895 0.301949
Si Si7 0.620322 0.654234 0.801343
Si Si8 0.377279 0.161956 0.198815
O O1 0.305296 0.518982 0.500000
O O2 0.248891 0.494696 0.765265
O O3 0.342649 0.586833 0.766792
O O4 0.346516 0.422902 0.725197
O O5 0.104486 0.353241 0.500000
O O6 0.150165 0.418896 0.238879
O O7 0.132575 0.253276 0.258242
O O8 0.049969 0.357468 0.223253
O O9 0.657481 0.916077 0.734412
O O10 0.685600 0.002529 0.000000
O O11 0.617058 0.342617 0.500000
O O12 0.555341 0.359933 0.759968
O O13 0.500000 0.500000 0.250746
O O14 0.503987 0.602844 0.500000
O O15 0.555796 0.639545 0.226418
O O16 0.519305 0.910074 0.500000
O O17 0.558758 0.859888 0.219662
O O18 0.500000 0.000000 0.236208
O O19 0.634726 0.745964 0.730379
O O20 0.631347 0.653305 0.000000
O O21 0.365583 0.166197 0.000000
#
# Coordination Sequence:
#
# PCOD9442530 Si02
#       8
#     8   8   8   8   8   8   8   8
#     4  10  21  41  63  81 109 155 199 236 283 342
#     4  11  22  37  60  87 117 154 190 233 286 343
#     4   9  20  39  62  83 109 152 201 235 276 344
#     4  10  21  37  60  87 115 149 189 237 286 339
#     4  10  19  36  59  83 111 151 194 227 277 347
#     4  11  22  36  58  89 120 151 189 235 285 338
#     4  11  23  36  57  90 119 147 185 239 293 336
#     4  10  21  39  60  85 117 154 192 232 286 346
#
# _framework density 20.646643000000001
#
# number of rings (size 3 to 8) (size 9 to 14) (size 15 to 20)
#    0.000    1.750    2.500    1.875    0.000    5.750 
#    0.000    3.125    0.000    0.000    0.000    0.000 
#    0.000    0.000    0.000    0.000    0.000    0.000 
#
# Total GULP energy -357630.955971 kJ/mol
# GULP energy per Si atom -5587.983687 kJ/mol
# Density = 2.059965 g / cm^3
# Si number density = 20.646643 Si / 1000 Ang^3
#
#
#
# Elastic Constant Matrix: (Units=GPa)
#
#
# Indices 1 2 3 4 5 6 
#
# 1 110.4983 46.4159 -8.3523 0.0000 0.0000 0.0000
# 2 46.4159 160.5589 -6.8972 0.0000 0.0000 0.0000
# 3 -8.3523 -6.8972 11.5293 0.0000 0.0000 0.0000
# 4 0.0000 0.0000 0.0000 22.5449 0.0000 0.0000
# 5 0.0000 0.0000 0.0000 0.0000 -11.1457 0.0000
# 6 0.0000 0.0000 0.0000 0.0000 0.0000 -0.9563
#
#
#
# Elastic Compliance Matrix: (Units=1/GPa)
#
#
# Indices 1 2 3 4 5 6 
#
# 1 0.010697 -0.002832 0.006055 0.000000 0.000000 0.000000
# 2 -0.002832 0.007142 0.002221 0.000000 0.000000 0.000000
# 3 0.006055 0.002221 0.092451 0.000000 0.000000 0.000000
# 4 0.000000 0.000000 0.000000 0.044356 0.000000 0.000000
# 5 0.000000 0.000000 0.000000 0.000000 -0.089720 0.000000
# 6 0.000000 0.000000 0.000000 0.000000 0.000000 -1.045713
#
#
# Mechanical properties :
#
#
# Convention : Reuss Voigt Hill
#
# Bulk Modulus (GPa) = 8.25233 38.32438 23.28835
# Shear Modulus (GPa) = -5.25606 18.84992 6.79693
#
# Velocity S-wave (km/s) = -1.59726 3.02483 1.81636
# Velocity P-wave (km/s) = 0.77714 5.54994 3.96268
#
# Compressibility (1/GPa) = 0.12117793
#
# Stress axis : x y z
#
# Youngs Moduli (GPa) = 93.48076 140.00775 10.81659
#
# Poissons Ratio (x) = 0.39656 -0.06550
# Poissons Ratio (y) = 0.26477 -0.02402
# Poissons Ratio (z) = -0.56604 -0.31095
#
# Static dielectric constant tensor:
#      x y z
#    x 1.699490 0.000000 0.000000 
#    y 0.000000 1.748870 0.000000 
#    z 0.000000 0.000000 1.747060 
# 
# From -- ./inp_files/10067.got.cif
#   From: 2010.05.17/outbox.cif.g08.bks.cpg/sg58_6_cif.got.tgz:10067.got - 2010.06.03 14:20:14.
