data_PCOD9442981
_publ_section_title
;
Structure prediction by ZEFSAII (Michael W. Deem and Ramdas Pophale) SiO2 
 PCOD9442981
Probable space group: P N N M
;
_chemical_formula_sum "Si O2"
_cell_formula_units_Z 64
_cell_length_a 15.639700
_cell_length_b 24.367615
_cell_length_c 7.510750
_cell_angle_alpha 90.000000
_cell_angle_beta 90.000000
_cell_angle_gamma 90.000000
_cell_volume 2862.363261
_symmetry_space_group_name_H-M "P N N M"
_symmetry_group_IT_number 58
_symmetry_cell_setting 'orthorhombic'
loop_
_space_group_symop_operation_xyz
x,y,z
-x,-y,z
1/2+x,1/2-y,1/2-z
1/2-x,1/2+y,1/2-z
-x,-y,-z
x,y,-z
1/2-x,1/2+y,1/2+z
1/2+x,1/2-y,1/2+z
loop_
_atom_site_type_symbol
_atom_site_label
_atom_site_fract_x
_atom_site_fract_y
_atom_site_fract_z
Si Si1 0.196700 0.308909 0.795298
Si Si2 0.315096 0.689262 0.706338
Si Si3 0.352124 0.126904 0.287258
Si Si4 0.597461 0.993697 0.717610
Si Si5 0.751970 0.573371 0.782191
Si Si6 0.062293 0.950492 0.717766
Si Si7 0.504105 0.210179 0.789376
Si Si8 0.497626 0.331932 0.798415
O O1 0.213486 0.248559 0.717918
O O2 0.238693 0.363675 0.718848
O O3 0.093084 0.312095 0.790110
O O4 0.226166 0.306715 0.000000
O O5 0.339917 0.697901 0.500000
O O6 0.236617 0.648912 0.715370
O O7 0.399307 0.667179 0.800561
O O8 0.346124 0.125859 0.500000
O O9 0.371012 0.065820 0.225139
O O10 0.428430 0.167799 0.238202
O O11 0.596698 0.995202 0.500000
O O12 0.500000 0.000000 0.776580
O O13 0.664741 0.039642 0.775616
O O14 0.662245 0.545361 0.732094
O O15 0.753542 0.574626 0.000000
O O16 0.057929 0.950647 0.500000
O O17 0.033186 0.889655 0.779629
O O18 0.000000 0.000000 0.776968
O O19 0.479772 0.271263 0.719975
O O20 0.520397 0.216665 0.000000
O O21 0.462472 0.330798 0.000000
#
# Coordination Sequence:
#
# PCOD9442981 Si02
#       8
#     8   8   8   8   8   8   8   8
#     4   9  18  34  57  80 107 141 181 222 271 326
#     4  10  21  35  54  80 111 145 178 219 273 330
#     4  11  22  34  55  83 111 142 182 224 270 329
#     4   9  18  32  52  81 111 138 177 232 280 318
#     4   9  17  30  53  82 109 139 179 232 280 318
#     4   9  18  30  51  82 109 135 179 236 281 318
#     4  10  20  34  54  80 113 145 176 221 275 329
#     4   9  19  35  56  80 108 140 180 227 276 324
#
# _framework density 22.359147
#
# number of rings (size 3 to 8) (size 9 to 14) (size 15 to 20)
#    0.000    2.500    0.000    1.875    3.500    3.000 
#    0.000    0.000    0.000    7.125    0.000    0.000 
#    0.000    0.000    0.000    0.000    0.000    0.000 
#
# Total GULP energy -357358.908355 kJ/mol
# GULP energy per Si atom -5583.732943 kJ/mol
# Density = 2.230826 g / cm^3
# Si number density = 22.359147 Si / 1000 Ang^3
#
#
#
# Elastic Constant Matrix: (Units=GPa)
#
#
# Indices 1 2 3 4 5 6 
#
# 1 94.8445 60.3759 -2.9461 0.0000 0.0000 0.0000
# 2 60.3759 119.8045 1.7731 0.0000 0.0000 0.0000
# 3 -2.9461 1.7731 66.5051 0.0000 0.0000 0.0000
# 4 0.0000 0.0000 0.0000 9.2519 0.0000 0.0000
# 5 0.0000 0.0000 0.0000 0.0000 8.6613 0.0000
# 6 0.0000 0.0000 0.0000 0.0000 0.0000 34.9411
#
#
#
# Elastic Compliance Matrix: (Units=1/GPa)
#
#
# Indices 1 2 3 4 5 6 
#
# 1 0.015577 -0.007864 0.000900 0.000000 0.000000 0.000000
# 2 -0.007864 0.012320 -0.000677 0.000000 0.000000 0.000000
# 3 0.000900 -0.000677 0.015094 0.000000 0.000000 0.000000
# 4 0.000000 0.000000 0.000000 0.108085 0.000000 0.000000
# 5 0.000000 0.000000 0.000000 0.000000 0.115456 0.000000
# 6 0.000000 0.000000 0.000000 0.000000 0.000000 0.028620
#
#
# Mechanical properties :
#
#
# Convention : Reuss Voigt Hill
#
# Bulk Modulus (GPa) = 36.08784 44.39554 40.24169
# Shear Modulus (GPa) = 15.64113 25.36762 20.50437
#
# Velocity S-wave (km/s) = 2.64775 3.37197 3.03156
# Velocity P-wave (km/s) = 5.05199 5.92106 5.50370
#
# Compressibility (1/GPa) = 0.02771017
#
# Stress axis : x y z
#
# Youngs Moduli (GPa) = 64.19607 81.17014 66.24993
#
# Poissons Ratio (x) = 0.63828 -0.05961
# Poissons Ratio (y) = 0.50481 0.04484
# Poissons Ratio (z) = -0.05776 0.05494
#
# Static dielectric constant tensor:
#      x y z
#    x 1.760250 0.000000 0.000000 
#    y 0.000000 1.814130 0.000000 
#    z 0.000000 0.000000 1.903600 
# 
# From -- ./inp_files/6763.got.cif
#   From: 2010.05.17/outbox.cif.g08.bks.cpg/sg58_4_cif.got.tgz:6763.got - 2010.06.03 14:20:14.
