data_PCOD9442707
_publ_section_title
;
Structure prediction by ZEFSAII (Michael W. Deem and Ramdas Pophale) SiO2 
 PCOD9442707
Probable space group: P N N M
;
_chemical_formula_sum "Si O2"
_cell_formula_units_Z 40
_cell_length_a 15.874250
_cell_length_b 8.406692
_cell_length_c 14.081320
_cell_angle_alpha 90.000000
_cell_angle_beta 90.000000
_cell_angle_gamma 90.000000
_cell_volume 1879.151175
_symmetry_space_group_name_H-M "P N N M"
_symmetry_group_IT_number 58
_symmetry_cell_setting 'orthorhombic'
loop_
_space_group_symop_operation_xyz
x,y,z
-x,-y,z
1/2+x,1/2-y,1/2-z
1/2-x,1/2+y,1/2-z
-x,-y,-z
x,y,-z
1/2-x,1/2+y,1/2+z
1/2+x,1/2-y,1/2+z
loop_
_atom_site_type_symbol
_atom_site_label
_atom_site_fract_x
_atom_site_fract_y
_atom_site_fract_z
Si Si1 0.404460 0.071861 0.392699
Si Si2 0.986198 0.175229 0.766455
Si Si3 0.943815 0.358937 0.604959
Si Si4 0.257702 0.998632 0.110538
Si Si5 0.324813 0.794282 0.723582
O O1 0.376946 0.099497 0.500000
O O2 0.423495 0.230610 0.334880
O O3 0.500000 0.000000 0.395775
O O4 0.340557 0.951582 0.341151
O O5 0.079451 0.245835 0.752127
O O6 0.944665 0.197972 0.663926
O O7 0.000000 0.000000 0.801915
O O8 0.977914 0.331300 0.500000
O O9 0.851685 0.430993 0.601729
O O10 0.000000 0.500000 0.650488
O O11 0.208955 0.143520 0.163268
O O12 0.270382 0.850320 0.184440
O O13 0.229345 0.967198 0.000000
#
# Coordination Sequence:
#
# PCOD9442707 Si02
#       5
#     8   8   8   8   8
#     4   9  18  37  62  88 119 162 213 260 315 381
#     4  11  22  37  62  95 125 163 212 262 320 383
#     4  10  19  39  67  92 122 165 214 263 318 377
#     4  11  24  42  67  97 130 172 216 264 328 389
#     4  11  23  41  65  90 131 171 210 269 328 385
#
# _framework density 21.286207000000001
#
# number of rings (size 3 to 8) (size 9 to 14) (size 15 to 20)
#    0.000    1.600    4.000    1.200    2.800    1.600 
#    0.000    4.000    0.000    0.000    0.000    0.000 
#    0.000    0.000    0.000    0.000    0.000    0.000 
#
# Total GULP energy -222950.585824 kJ/mol
# GULP energy per Si atom -5573.764646 kJ/mol
# Density = 2.123776 g / cm^3
# Si number density = 21.286207 Si / 1000 Ang^3
#
#
#
# Elastic Constant Matrix: (Units=GPa)
#
#
# Indices 1 2 3 4 5 6 
#
# 1 47.6557 4.5934 13.3065 0.0000 0.0000 0.0000
# 2 4.5934 70.5775 43.7410 0.0000 0.0000 0.0000
# 3 13.3065 43.7410 142.9650 0.0000 0.0000 0.0000
# 4 0.0000 0.0000 0.0000 -38.2393 0.0000 0.0000
# 5 0.0000 0.0000 0.0000 0.0000 22.6770 0.0000
# 6 0.0000 0.0000 0.0000 0.0000 0.0000 42.5579
#
#
#
# Elastic Compliance Matrix: (Units=1/GPa)
#
#
# Indices 1 2 3 4 5 6 
#
# 1 0.021546 -0.000197 -0.001945 0.000000 0.000000 0.000000
# 2 -0.000197 0.017486 -0.005332 0.000000 0.000000 0.000000
# 3 -0.001945 -0.005332 0.008807 0.000000 0.000000 0.000000
# 4 0.000000 0.000000 0.000000 -0.026151 0.000000 0.000000
# 5 0.000000 0.000000 0.000000 0.000000 0.044098 0.000000
# 6 0.000000 0.000000 0.000000 0.000000 0.000000 0.023497
#
#
# Mechanical properties :
#
#
# Convention : Reuss Voigt Hill
#
# Bulk Modulus (GPa) = 30.40273 42.72001 36.56137
# Shear Modulus (GPa) = 43.40510 18.70292 31.05401
#
# Velocity S-wave (km/s) = 4.52056 2.96740 3.82367
# Velocity P-wave (km/s) = 6.44679 5.64389 6.05866
#
# Compressibility (1/GPa) = 0.03289179
#
# Stress axis : x y z
#
# Youngs Moduli (GPa) = 46.41245 57.18881 113.54585
#
# Poissons Ratio (x) = 0.01125 0.22087
# Poissons Ratio (y) = 0.00913 0.60538
# Poissons Ratio (z) = 0.09028 0.30491
#
# Static dielectric constant tensor:
#      x y z
#    x 1.784020 0.000000 0.000000 
#    y 0.000000 1.854790 0.000000 
#    z 0.000000 0.000000 1.817980 
# 
# From -- ./inp_files/21886.got.cif
#   From: 2010.05.17/outbox.cif.g08.bks.cpg/sg58_11_cif.got.tgz:21886.got - 2010.06.03 14:20:14.
