data_PCOD9442593
_publ_section_title
;
Structure prediction by ZEFSAII (Michael W. Deem and Ramdas Pophale) SiO2 
 PCOD9442593
Probable space group: P N N M
;
_chemical_formula_sum "Si O2"
_cell_formula_units_Z 56
_cell_length_a 23.520878
_cell_length_b 8.057715
_cell_length_c 13.819271
_cell_angle_alpha 90.000000
_cell_angle_beta 90.000000
_cell_angle_gamma 90.000000
_cell_volume 2619.090862
_symmetry_space_group_name_H-M "P N N M"
_symmetry_group_IT_number 58
_symmetry_cell_setting 'orthorhombic'
loop_
_space_group_symop_operation_xyz
x,y,z
-x,-y,z
1/2+x,1/2-y,1/2-z
1/2-x,1/2+y,1/2-z
-x,-y,-z
x,y,-z
1/2-x,1/2+y,1/2+z
1/2+x,1/2-y,1/2+z
loop_
_atom_site_type_symbol
_atom_site_label
_atom_site_fract_x
_atom_site_fract_y
_atom_site_fract_z
Si Si1 0.269268 0.487387 0.617161
Si Si2 0.949169 0.597668 0.758152
Si Si3 0.724350 0.885810 0.617509
Si Si4 0.860915 0.408371 0.382575
Si Si5 0.040260 0.157596 0.607884
Si Si6 0.150024 0.294372 0.116108
Si Si7 0.345823 0.476837 0.882992
O O1 0.273139 0.484340 0.500000
O O2 0.285593 0.302359 0.652293
O O3 0.202820 0.522818 0.636890
O O4 0.310042 0.639870 0.645981
O O5 0.906622 0.499036 0.685263
O O6 0.982840 0.715992 0.684706
O O7 0.910312 0.698655 0.832063
O O8 0.000000 0.500000 0.809618
O O9 0.726067 0.877611 0.500000
O O10 0.679666 0.029351 0.640690
O O11 0.785470 0.954389 0.650731
O O12 0.871535 0.426240 0.500000
O O13 0.858971 0.212837 0.358192
O O14 0.044432 0.229220 0.500000
O O15 0.102471 0.097942 0.641031
O O16 0.000000 0.000000 0.602998
O O17 0.144484 0.287083 0.000000
O O18 0.343145 0.477060 0.000000
#
# Coordination Sequence:
#
# PCOD9442593 Si02
#       7
#     8   8   8   8   8   8   8
#     4   9  17  35  64  95 125 159 204 260 324 387
#     4  12  26  42  59  91 126 168 223 266 311 379
#     4   9  16  32  61  91 120 156 200 254 316 379
#     4  10  19  36  63  95 130 165 201 253 318 384
#     4  10  21  39  62  88 123 169 208 253 319 383
#     4  10  22  44  65  88 125 167 215 272 324 370
#     4   9  16  31  58  90 126 162 197 245 310 381
#
# _framework density 21.381467000000001
#
# number of rings (size 3 to 8) (size 9 to 14) (size 15 to 20)
#    0.000    2.143    1.429    2.143    0.000    4.857 
#   10.286    0.000    0.000    0.429    0.000    0.000 
#    0.000    0.000    0.000    0.000    0.000    0.000 
#
# Total GULP energy -312899.767567 kJ/mol
# GULP energy per Si atom -5587.495849 kJ/mol
# Density = 2.133280 g / cm^3
# Si number density = 21.381467 Si / 1000 Ang^3
#
#
#
# Elastic Constant Matrix: (Units=GPa)
#
#
# Indices 1 2 3 4 5 6 
#
# 1 71.7133 9.8332 19.0804 0.0000 0.0000 0.0000
# 2 9.8332 103.9998 17.5675 0.0000 0.0000 0.0000
# 3 19.0804 17.5675 80.5808 0.0000 0.0000 0.0000
# 4 0.0000 0.0000 0.0000 1.9139 0.0000 0.0000
# 5 0.0000 0.0000 0.0000 0.0000 18.1131 0.0000
# 6 0.0000 0.0000 0.0000 0.0000 0.0000 19.9591
#
#
#
# Elastic Compliance Matrix: (Units=1/GPa)
#
#
# Indices 1 2 3 4 5 6 
#
# 1 0.014953 -0.000847 -0.003356 0.000000 0.000000 0.000000
# 2 -0.000847 0.010031 -0.001986 0.000000 0.000000 0.000000
# 3 -0.003356 -0.001986 0.013638 0.000000 0.000000 0.000000
# 4 0.000000 0.000000 0.000000 0.522489 0.000000 0.000000
# 5 0.000000 0.000000 0.000000 0.000000 0.055209 0.000000
# 6 0.000000 0.000000 0.000000 0.000000 0.000000 0.050102
#
#
# Mechanical properties :
#
#
# Convention : Reuss Voigt Hill
#
# Bulk Modulus (GPa) = 38.10494 38.80625 38.45559
# Shear Modulus (GPa) = 7.27221 21.98475 14.62848
#
# Velocity S-wave (km/s) = 1.84623 3.21006 2.61849
# Velocity P-wave (km/s) = 4.73338 5.65050 5.21215
#
# Compressibility (1/GPa) = 0.02624332
#
# Stress axis : x y z
#
# Youngs Moduli (GPa) = 66.87402 99.69090 73.32650
#
# Poissons Ratio (x) = 0.08443 0.24609
# Poissons Ratio (y) = 0.05664 0.14565
# Poissons Ratio (z) = 0.22444 0.19802
#
# Static dielectric constant tensor:
#      x y z
#    x 1.796990 0.000000 0.000000 
#    y 0.000000 1.802490 0.000000 
#    z 0.000000 0.000000 1.792420 
# 
# From -- ./inp_files/23231.got.cif
#   From: 2010.05.17/outbox.cif.g08.bks.cpg/sg58_12_cif.got.tgz:23231.got - 2010.06.03 14:20:14.
