data_PCOD9442719
_publ_section_title
;
Structure prediction by ZEFSAII (Michael W. Deem and Ramdas Pophale) SiO2 
 PCOD9442719
Probable space group: P N N M
;
_chemical_formula_sum "Si O2"
_cell_formula_units_Z 64
_cell_length_a 6.968122
_cell_length_b 11.981395
_cell_length_c 30.013513
_cell_angle_alpha 90.000000
_cell_angle_beta 90.000000
_cell_angle_gamma 90.000000
_cell_volume 2505.762834
_symmetry_space_group_name_H-M "P N N M"
_symmetry_group_IT_number 58
_symmetry_cell_setting 'orthorhombic'
loop_
_space_group_symop_operation_xyz
x,y,z
-x,-y,z
1/2+x,1/2-y,1/2-z
1/2-x,1/2+y,1/2-z
-x,-y,-z
x,y,-z
1/2-x,1/2+y,1/2+z
1/2+x,1/2-y,1/2+z
loop_
_atom_site_type_symbol
_atom_site_label
_atom_site_fract_x
_atom_site_fract_y
_atom_site_fract_z
Si Si1 0.721407 0.540993 0.165160
Si Si2 0.282307 0.329090 0.388093
Si Si3 0.887498 0.836704 0.949638
Si Si4 0.220123 0.411393 0.935596
Si Si5 0.279615 0.553593 0.639594
Si Si6 0.840700 0.851731 0.452352
Si Si7 0.174411 0.700029 0.808701
Si Si8 0.612840 0.765130 0.206128
O O1 0.500000 0.500000 0.160216
O O2 0.791517 0.579813 0.117295
O O3 0.828016 0.430840 0.181640
O O4 0.723603 0.649293 0.196179
O O5 0.404346 0.371342 0.430851
O O6 0.175368 0.434611 0.367895
O O7 0.173775 0.225630 0.409472
O O8 0.411755 0.271747 0.349352
O O9 0.885758 0.701397 0.949888
O O10 0.762702 0.879361 0.907445
O O11 0.843756 0.874220 0.000000
O O12 0.438668 0.388617 0.950764
O O13 0.200259 0.540828 0.950045
O O14 0.500000 0.500000 0.646074
O O15 0.208533 0.630584 0.680177
O O16 0.807867 0.794660 0.500000
O O17 0.396292 0.741896 0.809887
O O18 0.104997 0.720318 0.759041
#
# Coordination Sequence:
#
# PCOD9442719 Si02
#       8
#     8   8   8   8   8   8   8   8
#     4  10  19  41  69  95 130 179 220 280 339 408
#     4  11  25  44  62  97 137 177 227 283 351 413
#     4  11  24  43  69  98 132 183 239 291 351 419
#     4  11  19  39  66  98 132 174 232 281 353 412
#     4  10  25  44  71  96 137 186 232 285 348 418
#     4  11  21  37  64  96 136 179 226 287 349 411
#     4  11  26  44  70 102 135 182 231 289 358 418
#     4  11  25  45  73 101 138 180 238 291 348 422
#
# _framework density 25.541125000000001
#
# number of rings (size 3 to 8) (size 9 to 14) (size 15 to 20)
#    0.000    1.250    3.750    2.625    5.250    4.250 
#    0.000    2.500    0.000    1.500    0.000    0.000 
#    0.000    0.000    0.000    0.000    0.000    0.000 
#
# Total GULP energy -357892.076768 kJ/mol
# GULP energy per Si atom -5592.063699 kJ/mol
# Density = 2.548299 g / cm^3
# Si number density = 25.541125 Si / 1000 Ang^3
#
#
#
# Elastic Constant Matrix: (Units=GPa)
#
#
# Indices 1 2 3 4 5 6 
#
# 1 55.4308 28.4080 11.1806 0.0000 0.0000 0.0000
# 2 28.4080 171.1722 66.2478 0.0000 0.0000 0.0000
# 3 11.1806 66.2478 205.4645 0.0000 0.0000 0.0000
# 4 0.0000 0.0000 0.0000 39.1199 0.0000 0.0000
# 5 0.0000 0.0000 0.0000 0.0000 323.1232 0.0000
# 6 0.0000 0.0000 0.0000 0.0000 0.0000 46.3335
#
#
#
# Elastic Compliance Matrix: (Units=1/GPa)
#
#
# Indices 1 2 3 4 5 6 
#
# 1 0.019718 -0.003264 -0.000020 0.000000 0.000000 0.000000
# 2 -0.003264 0.007216 -0.002149 0.000000 0.000000 0.000000
# 3 -0.000020 -0.002149 0.005561 0.000000 0.000000 0.000000
# 4 0.000000 0.000000 0.000000 0.025562 0.000000 0.000000
# 5 0.000000 0.000000 0.000000 0.000000 0.003095 0.000000
# 6 0.000000 0.000000 0.000000 0.000000 0.000000 0.021583
#
#
# Mechanical properties :
#
#
# Convention : Reuss Voigt Hill
#
# Bulk Modulus (GPa) = 46.23914 71.52670 58.88292
# Shear Modulus (GPa) = 49.59807 103.46407 76.53107
#
# Velocity S-wave (km/s) = 4.41147 6.37156 5.47986
# Velocity P-wave (km/s) = 6.64012 9.06611 7.94624
#
# Compressibility (1/GPa) = 0.02162670
#
# Stress axis : x y z
#
# Youngs Moduli (GPa) = 50.71593 138.59035 179.82429
#
# Poissons Ratio (x) = 0.45243 0.00367
# Poissons Ratio (y) = 0.16556 0.38642
# Poissons Ratio (z) = 0.00103 0.29781
#
# Static dielectric constant tensor:
#      x y z
#    x 2.176330 0.000000 0.000000 
#    y 0.000000 2.045920 0.000000 
#    z 0.000000 0.000000 1.945440 
# 
# From -- ./inp_files/34765.got.cif
#   From: 2010.05.17/outbox.cif.g08.bks.cpg/sg58_18_cif.got.tgz:34765.got - 2010.06.03 14:20:14.
