data_PCOD9442179
_publ_section_title
;
Structure prediction by ZEFSAII (Michael W. Deem and Ramdas Pophale) SiO2 
 PCOD9442179
Probable space group: P N N M
;
_chemical_formula_sum "Si O2"
_cell_formula_units_Z 64
_cell_length_a 21.153552
_cell_length_b 16.959211
_cell_length_c 8.088053
_cell_angle_alpha 90.000000
_cell_angle_beta 90.000000
_cell_angle_gamma 90.000000
_cell_volume 2901.569212
_symmetry_space_group_name_H-M "P N N M"
_symmetry_group_IT_number 58
_symmetry_cell_setting 'orthorhombic'
loop_
_space_group_symop_operation_xyz
x,y,z
-x,-y,z
1/2+x,1/2-y,1/2-z
1/2-x,1/2+y,1/2-z
-x,-y,-z
x,y,-z
1/2-x,1/2+y,1/2+z
1/2+x,1/2-y,1/2+z
loop_
_atom_site_type_symbol
_atom_site_label
_atom_site_fract_x
_atom_site_fract_y
_atom_site_fract_z
Si Si1 0.292904 0.109000 0.690427
Si Si2 0.658600 0.449596 0.806793
Si Si3 0.624131 0.025133 0.185961
Si Si4 0.974235 0.645350 0.800653
Si Si5 0.214577 0.342211 0.807107
Si Si6 0.378329 0.713286 0.697302
Si Si7 0.853295 0.119556 0.194987
Si Si8 0.102910 0.718497 0.202145
O O1 0.277408 0.127720 0.500000
O O2 0.228450 0.073309 0.764831
O O3 0.330255 0.183534 0.763172
O O4 0.346902 0.041703 0.697838
O O5 0.617812 0.371063 0.781847
O O6 0.631049 0.528915 0.729116
O O7 0.666706 0.467106 0.000000
O O8 0.558642 0.066661 0.234125
O O9 0.674830 0.095896 0.200989
O O10 0.622008 0.994479 0.000000
O O11 0.930348 0.721104 0.758401
O O12 0.044043 0.666512 0.739920
O O13 0.974557 0.639287 0.000000
O O14 0.188844 0.255461 0.762758
O O15 0.287366 0.360415 0.783210
O O16 0.196870 0.354470 0.000000
O O17 0.381758 0.700812 0.500000
O O18 0.901472 0.189062 0.244164
O O19 0.842203 0.128282 0.000000
O O20 0.102862 0.712813 0.000000
#
# Coordination Sequence:
#
# PCOD9442179 Si02
#       8
#     8   8   8   8   8   8   8   8
#     4  10  20  36  57  82 114 146 184 229 278 340
#     4  11  22  35  55  83 116 149 183 227 284 342
#     4  11  21  33  54  84 115 149 184 228 278 330
#     4   9  19  39  61  80 109 149 195 237 278 330
#     4  10  19  34  55  81 112 147 183 224 282 342
#     4   9  19  34  56  81 106 140 185 235 279 327
#     4  11  21  35  57  84 113 144 185 235 285 337
#     4   9  20  38  60  83 107 148 196 236 277 332
#
# _framework density 22.057030000000001
#
# number of rings (size 3 to 8) (size 9 to 14) (size 15 to 20)
#    0.000    2.000    1.250    3.750    0.000    4.500 
#    0.000    6.250    0.000    3.750    0.000    0.000 
#    0.000    0.000    0.000    0.000    0.000    0.000 
#
# Total GULP energy -357341.884016 kJ/mol
# GULP energy per Si atom -5583.466938 kJ/mol
# Density = 2.200683 g / cm^3
# Si number density = 22.057030 Si / 1000 Ang^3
#
#
#
# Elastic Constant Matrix: (Units=GPa)
#
#
# Indices 1 2 3 4 5 6 
#
# 1 31.9373 -23.1223 -1.4796 0.0000 0.0000 0.0000
# 2 -23.1223 66.4280 -3.7691 0.0000 0.0000 0.0000
# 3 -1.4796 -3.7691 35.5669 0.0000 0.0000 0.0000
# 4 0.0000 0.0000 0.0000 14.6046 0.0000 0.0000
# 5 0.0000 0.0000 0.0000 0.0000 8.0990 0.0000
# 6 0.0000 0.0000 0.0000 0.0000 0.0000 25.8001
#
#
#
# Elastic Compliance Matrix: (Units=1/GPa)
#
#
# Indices 1 2 3 4 5 6 
#
# 1 0.042250 0.014896 0.003336 0.000000 0.000000 0.000000
# 2 0.014896 0.020397 0.002781 0.000000 0.000000 0.000000
# 3 0.003336 0.002781 0.028550 0.000000 0.000000 0.000000
# 4 0.000000 0.000000 0.000000 0.068472 0.000000 0.000000
# 5 0.000000 0.000000 0.000000 0.000000 0.123472 0.000000
# 6 0.000000 0.000000 0.000000 0.000000 0.000000 0.038760
#
#
# Mechanical properties :
#
#
# Convention : Reuss Voigt Hill
#
# Bulk Modulus (GPa) = 7.50623 8.57669 8.04146
# Shear Modulus (GPa) = 15.41872 20.52095 17.96984
#
# Velocity S-wave (km/s) = 2.64680 3.05349 2.85739
# Velocity P-wave (km/s) = 3.57089 4.04086 3.81312
#
# Compressibility (1/GPa) = 0.13322272
#
# Stress axis : x y z
#
# Youngs Moduli (GPa) = 23.66847 49.02773 35.02687
#
# Poissons Ratio (x) = -0.73031 -0.11686
# Poissons Ratio (y) = -0.35256 -0.09742
# Poissons Ratio (z) = -0.07896 -0.13635
#
# Static dielectric constant tensor:
#      x y z
#    x 1.825410 0.000000 0.000000 
#    y 0.000000 1.839800 0.000000 
#    z 0.000000 0.000000 1.789200 
# 
# From -- ./inp_files/9927.got.cif
#   From: 2010.05.17/outbox.cif.g08.bks.cpg/sg58_5_cif.got.tgz:9927.got - 2010.06.03 14:20:14.
