data_PCOD9442633
_publ_section_title
;
Structure prediction by ZEFSAII (Michael W. Deem and Ramdas Pophale) SiO2 
 PCOD9442633
Probable space group: P N N M
;
_chemical_formula_sum "Si O2"
_cell_formula_units_Z 64
_cell_length_a 17.425739
_cell_length_b 13.298575
_cell_length_c 13.636498
_cell_angle_alpha 90.000000
_cell_angle_beta 90.000000
_cell_angle_gamma 90.000000
_cell_volume 3160.087915
_symmetry_space_group_name_H-M "P N N M"
_symmetry_group_IT_number 58
_symmetry_cell_setting 'orthorhombic'
loop_
_space_group_symop_operation_xyz
x,y,z
-x,-y,z
1/2+x,1/2-y,1/2-z
1/2-x,1/2+y,1/2-z
-x,-y,-z
x,y,-z
1/2-x,1/2+y,1/2+z
1/2+x,1/2-y,1/2+z
loop_
_atom_site_type_symbol
_atom_site_label
_atom_site_fract_x
_atom_site_fract_y
_atom_site_fract_z
Si Si1 0.578619 0.529057 0.709018
Si Si2 0.680588 0.829458 0.882463
Si Si3 0.778452 0.632514 0.118671
Si Si4 0.422067 0.234780 0.726112
Si Si5 0.455589 0.894664 0.382219
Si Si6 0.258561 0.467276 0.383098
Si Si7 0.763169 0.258773 0.882298
Si Si8 0.839186 0.950914 0.383435
O O1 0.500000 0.500000 0.657879
O O2 0.573671 0.646130 0.732667
O O3 0.653333 0.511927 0.643680
O O4 0.590763 0.468128 0.809941
O O5 0.739760 0.739462 0.852915
O O6 0.599495 0.807526 0.832372
O O7 0.709684 0.938190 0.847476
O O8 0.675947 0.828192 0.000000
O O9 0.866114 0.609938 0.148732
O O10 0.720771 0.540908 0.142701
O O11 0.780935 0.634633 0.000000
O O12 0.495795 0.188175 0.675455
O O13 0.345765 0.212213 0.661525
O O14 0.458744 0.877248 0.500000
O O15 0.500000 0.000000 0.364105
O O16 0.249771 0.466092 0.500000
O O17 0.240475 0.353918 0.348014
O O18 0.701332 0.344793 0.862724
O O19 0.772396 0.254502 0.000000
O O20 0.856269 0.957513 0.500000
#
# Coordination Sequence:
#
# PCOD9442633 Si02
#       8
#     8   8   8   8   8   8   8   8
#     4  11  24  37  52  83 119 154 194 235 286 347
#     4  10  20  37  60  83 111 154 202 239 279 343
#     4   9  18  33  57  85 110 144 192 240 287 340
#     4  11  21  36  57  85 118 155 185 235 293 352
#     4  10  21  37  59  91 123 149 188 246 309 360
#     4   9  20  37  56  82 113 147 190 239 287 342
#     4   9  18  34  57  84 112 144 185 235 294 349
#     4  10  19  37  62  84 111 149 194 243 289 335
#
# _framework density 20.252600999999999
#
# number of rings (size 3 to 8) (size 9 to 14) (size 15 to 20)
#    0.000    2.125    1.250    1.875    1.750    3.000 
#    0.000    0.000    0.000    0.375    0.000    0.875 
#    0.000    0.000    0.000    0.000    0.000    0.000 
#
# Total GULP energy -357415.819570 kJ/mol
# GULP energy per Si atom -5584.622181 kJ/mol
# Density = 2.020651 g / cm^3
# Si number density = 20.252601 Si / 1000 Ang^3
#
#
#
# Elastic Constant Matrix: (Units=GPa)
#
#
# Indices 1 2 3 4 5 6 
#
# 1 46.6960 -2.3773 -5.6804 0.0000 0.0000 0.0000
# 2 -2.3773 58.1802 8.9454 0.0000 0.0000 0.0000
# 3 -5.6804 8.9454 34.0062 0.0000 0.0000 0.0000
# 4 0.0000 0.0000 0.0000 24.7211 0.0000 0.0000
# 5 0.0000 0.0000 0.0000 0.0000 21.6589 0.0000
# 6 0.0000 0.0000 0.0000 0.0000 0.0000 28.9699
#
#
#
# Elastic Compliance Matrix: (Units=1/GPa)
#
#
# Indices 1 2 3 4 5 6 
#
# 1 0.021866 0.000346 0.003562 0.000000 0.000000 0.000000
# 2 0.000346 0.017918 -0.004656 0.000000 0.000000 0.000000
# 3 0.003562 -0.004656 0.031226 0.000000 0.000000 0.000000
# 4 0.000000 0.000000 0.000000 0.040451 0.000000 0.000000
# 5 0.000000 0.000000 0.000000 0.000000 0.046170 0.000000
# 6 0.000000 0.000000 0.000000 0.000000 0.000000 0.034519
#
#
# Mechanical properties :
#
#
# Convention : Reuss Voigt Hill
#
# Bulk Modulus (GPa) = 14.38570 15.62864 15.00717
# Shear Modulus (GPa) = 23.06085 24.26962 23.66524
#
# Velocity S-wave (km/s) = 3.37807 3.46547 3.42205
# Velocity P-wave (km/s) = 4.72585 4.87301 4.80000
#
# Compressibility (1/GPa) = 0.06951347
#
# Stress axis : x y z
#
# Youngs Moduli (GPa) = 45.73317 55.81002 32.02463
#
# Poissons Ratio (x) = -0.01930 -0.11406
# Poissons Ratio (y) = -0.01582 0.14909
# Poissons Ratio (z) = -0.16288 0.25983
#
# Static dielectric constant tensor:
#      x y z
#    x 1.673130 0.000000 0.000000 
#    y 0.000000 1.731840 0.000000 
#    z 0.000000 0.000000 1.746730 
# 
# From -- ./inp_files/21527.got.cif
#   From: 2010.05.17/outbox.cif.g08.bks.cpg/sg58_11_cif.got.tgz:21527.got - 2010.06.03 14:20:14.
