data_PCOD9442027
_publ_section_title
;
Structure prediction by ZEFSAII (Michael W. Deem and Ramdas Pophale) SiO2 
 PCOD9442027
Probable space group: P N N M
;
_chemical_formula_sum "Si O2"
_cell_formula_units_Z 52
_cell_length_a 8.246879
_cell_length_b 14.464904
_cell_length_c 24.566935
_cell_angle_alpha 90.000000
_cell_angle_beta 90.000000
_cell_angle_gamma 90.000000
_cell_volume 2930.597366
_symmetry_space_group_name_H-M "P N N M"
_symmetry_group_IT_number 58
_symmetry_cell_setting 'orthorhombic'
loop_
_space_group_symop_operation_xyz
x,y,z
-x,-y,z
1/2+x,1/2-y,1/2-z
1/2-x,1/2+y,1/2-z
-x,-y,-z
x,y,-z
1/2-x,1/2+y,1/2+z
1/2+x,1/2-y,1/2+z
loop_
_atom_site_type_symbol
_atom_site_label
_atom_site_fract_x
_atom_site_fract_y
_atom_site_fract_z
Si Si1 0.726748 0.957410 0.316748
Si Si2 0.243971 0.851268 0.616892
Si Si3 0.781625 0.665781 0.300958
Si Si4 0.500000 0.000000 0.218480
Si Si5 0.015982 0.830238 0.708442
Si Si6 0.600127 0.788102 0.613752
Si Si7 0.236580 0.427241 0.000000
Si Si8 0.143884 0.634661 0.000000
O O1 0.643559 0.883203 0.355756
O O2 0.903215 0.916982 0.305017
O O3 0.722247 0.055476 0.347430
O O4 0.629494 0.956332 0.260395
O O5 0.106077 0.802910 0.652442
O O6 0.404639 0.788371 0.613488
O O7 0.196952 0.885018 0.556339
O O8 0.896821 0.578196 0.312066
O O9 0.645771 0.647412 0.255033
O O10 0.687734 0.707522 0.352797
O O11 0.897728 0.745968 0.276507
O O12 0.665755 0.803832 0.553289
O O13 0.244958 0.538949 0.000000
O O14 0.044709 0.399800 0.000000
#
# Coordination Sequence:
#
# PCOD9442027 Si02
#       8
#     8   8   8   4   8   8   4   4
#     4  11  19  32  54  79 109 147 176 226 268 332
#     4  11  18  33  53  83 115 148 179 219 269 342
#     4  11  23  36  53  75 105 151 191 238 279 332
#     4  12  22  36  54  78 110 146 196 236 276 316
#     4  11  22  36  51  77 111 148 188 224 284 329
#     4  10  19  33  55  77 110 144 186 221 282 333
#     4   9  18  28  54  83 111 150 179 213 272 339
#     4   9  16  30  51  81 108 141 185 224 265 352
#
# _framework density 17.743822000000002
#
# number of rings (size 3 to 8) (size 9 to 14) (size 15 to 20)
#    0.000    1.385    4.615    3.231    0.000    0.000 
#    0.000    4.615    0.000    0.462    0.000    0.000 
#    0.000    6.154    0.000    0.000    0.000    0.077 
#
# Total GULP energy -290126.673905 kJ/mol
# GULP energy per Si atom -5579.359114 kJ/mol
# Density = 1.770344 g / cm^3
# Si number density = 17.743822 Si / 1000 Ang^3
#
#
#
# Elastic Constant Matrix: (Units=GPa)
#
#
# Indices 1 2 3 4 5 6 
#
# 1 73.4572 26.2620 24.1303 0.0000 0.0000 0.0000
# 2 26.2620 48.5420 27.9603 0.0000 0.0000 0.0000
# 3 24.1303 27.9603 99.8812 0.0000 0.0000 0.0000
# 4 0.0000 0.0000 0.0000 24.9156 0.0000 0.0000
# 5 0.0000 0.0000 0.0000 0.0000 23.6978 0.0000
# 6 0.0000 0.0000 0.0000 0.0000 0.0000 31.6798
#
#
#
# Elastic Compliance Matrix: (Units=1/GPa)
#
#
# Indices 1 2 3 4 5 6 
#
# 1 0.017158 -0.008221 -0.001844 0.000000 0.000000 0.000000
# 2 -0.008221 0.028500 -0.005992 0.000000 0.000000 0.000000
# 3 -0.001844 -0.005992 0.012135 0.000000 0.000000 0.000000
# 4 0.000000 0.000000 0.000000 0.040136 0.000000 0.000000
# 5 0.000000 0.000000 0.000000 0.000000 0.042198 0.000000
# 6 0.000000 0.000000 0.000000 0.000000 0.000000 0.031566
#
#
# Mechanical properties :
#
#
# Convention : Reuss Voigt Hill
#
# Bulk Modulus (GPa) = 38.94205 42.06505 40.50355
# Shear Modulus (GPa) = 23.54436 25.62715 24.58576
#
# Velocity S-wave (km/s) = 3.64662 3.80450 3.72640
# Velocity P-wave (km/s) = 6.30277 6.56181 6.43359
#
# Compressibility (1/GPa) = 0.02567918
#
# Stress axis : x y z
#
# Youngs Moduli (GPa) = 58.28145 35.08816 82.40790
#
# Poissons Ratio (x) = 0.28845 0.15196
# Poissons Ratio (y) = 0.47911 0.49379
# Poissons Ratio (z) = 0.10747 0.21025
#
# Static dielectric constant tensor:
#      x y z
#    x 1.671940 0.000000 0.000000 
#    y 0.000000 1.616730 0.000000 
#    z 0.000000 0.000000 1.602350 
# 
# From -- ./inp_files/31584.got.cif
#   From: 2010.05.17/outbox.cif.g08.bks.cpg/sg58_16_cif.got.tgz:31584.got - 2010.06.03 14:20:14.
