data_PCOD9442120
_publ_section_title
;
Structure prediction by ZEFSAII (Michael W. Deem and Ramdas Pophale) SiO2 
 PCOD9442120
Probable space group: P N N M
;
_chemical_formula_sum "Si O2"
_cell_formula_units_Z 40
_cell_length_a 15.207952
_cell_length_b 6.922987
_cell_length_c 14.800559
_cell_angle_alpha 90.000000
_cell_angle_beta 90.000000
_cell_angle_gamma 90.000000
_cell_volume 1558.268773
_symmetry_space_group_name_H-M "P N N M"
_symmetry_group_IT_number 58
_symmetry_cell_setting 'orthorhombic'
loop_
_space_group_symop_operation_xyz
x,y,z
-x,-y,z
1/2+x,1/2-y,1/2-z
1/2-x,1/2+y,1/2-z
-x,-y,-z
x,y,-z
1/2-x,1/2+y,1/2+z
1/2+x,1/2-y,1/2+z
loop_
_atom_site_type_symbol
_atom_site_label
_atom_site_fract_x
_atom_site_fract_y
_atom_site_fract_z
Si Si1 0.322534 0.868817 0.201365
Si Si2 0.108832 0.721874 0.597287
Si Si3 0.861442 0.084170 0.894454
Si Si4 0.503727 0.236478 0.734393
Si Si5 0.194094 0.362691 0.902027
O O1 0.225046 0.844944 0.161285
O O2 0.397796 0.715127 0.227839
O O3 0.315347 0.957859 0.303239
O O4 0.367241 0.003318 0.126072
O O5 0.065203 0.731714 0.500000
O O6 0.053162 0.792584 0.679587
O O7 0.202174 0.826313 0.593180
O O8 0.949712 0.169634 0.848627
O O9 0.851887 0.849296 0.896977
O O10 0.856833 0.138460 0.000000
O O11 0.500000 0.000000 0.721417
O O12 0.166220 0.445817 0.000000
#
# Coordination Sequence:
#
# PCOD9442120 Si02
#       5
#     8   8   8   8   8
#     4  10  19  33  58  84 112 148 189 231 289 337
#     4   9  18  35  58  83 109 145 192 235 281 341
#     4  10  21  38  58  84 119 155 193 236 289 349
#     4  10  21  35  58  88 114 148 191 244 284 336
#     4   9  18  34  58  80 109 151 187 227 285 342
#
# _framework density 25.669512000000001
#
# number of rings (size 3 to 8) (size 9 to 14) (size 15 to 20)
#    0.000    2.400    2.000    1.800    0.000    6.400 
#    0.000    5.000    0.000    2.400    0.000   14.000 
#    0.000    0.000    0.000    0.000    0.000    0.000 
#
# Total GULP energy -222829.247727 kJ/mol
# GULP energy per Si atom -5570.731193 kJ/mol
# Density = 2.561109 g / cm^3
# Si number density = 25.669512 Si / 1000 Ang^3
#
#
#
# Elastic Constant Matrix: (Units=GPa)
#
#
# Indices 1 2 3 4 5 6 
#
# 1 124.1112 -1.5648 41.4417 0.0000 0.0000 0.0000
# 2 -1.5648 91.6194 15.1547 0.0000 0.0000 0.0000
# 3 41.4417 15.1547 205.0553 0.0000 0.0000 0.0000
# 4 0.0000 0.0000 0.0000 11.2418 0.0000 0.0000
# 5 0.0000 0.0000 0.0000 0.0000 1383.3703 0.0000
# 6 0.0000 0.0000 0.0000 0.0000 0.0000 17.4655
#
#
#
# Elastic Compliance Matrix: (Units=1/GPa)
#
#
# Indices 1 2 3 4 5 6 
#
# 1 0.008658 0.000443 -0.001783 0.000000 0.000000 0.000000
# 2 0.000443 0.011072 -0.000908 0.000000 0.000000 0.000000
# 3 -0.001783 -0.000908 0.005304 0.000000 0.000000 0.000000
# 4 0.000000 0.000000 0.000000 0.088954 0.000000 0.000000
# 5 0.000000 0.000000 0.000000 0.000000 0.000723 0.000000
# 6 0.000000 0.000000 0.000000 0.000000 0.000000 0.057256
#
#
# Mechanical properties :
#
#
# Convention : Reuss Voigt Hill
#
# Bulk Modulus (GPa) = 48.68693 58.98326 53.83509
# Shear Modulus (GPa) = 27.27644 306.79915 167.03780
#
# Velocity S-wave (km/s) = 3.26329 10.94433 8.07550
# Velocity P-wave (km/s) = 5.76253 13.51785 10.39084
#
# Compressibility (1/GPa) = 0.02053940
#
# Stress axis : x y z
#
# Youngs Moduli (GPa) = 115.49919 90.31438 188.53442
#
# Poissons Ratio (x) = -0.03998 0.33607
# Poissons Ratio (y) = -0.05113 0.17115
# Poissons Ratio (z) = 0.20588 0.08199
#
# Static dielectric constant tensor:
#      x y z
#    x 2.110300 0.000000 0.000000 
#    y 0.000000 2.136970 0.000000 
#    z 0.000000 0.000000 1.872840 
# 
# From -- ./inp_files/14113.got.cif
#   From: 2010.05.17/outbox.cif.g08.bks.cpg/sg58_8_cif.got.tgz:14113.got - 2010.06.03 14:20:14.
