data_PCOD9442556
_publ_section_title
;
Structure prediction by ZEFSAII (Michael W. Deem and Ramdas Pophale) SiO2 
 PCOD9442556
Probable space group: P N N M
;
_chemical_formula_sum "Si O2"
_cell_formula_units_Z 40
_cell_length_a 11.560257
_cell_length_b 12.056173
_cell_length_c 14.080698
_cell_angle_alpha 90.000000
_cell_angle_beta 90.000000
_cell_angle_gamma 90.000000
_cell_volume 1962.461495
_symmetry_space_group_name_H-M "P N N M"
_symmetry_group_IT_number 58
_symmetry_cell_setting 'orthorhombic'
loop_
_space_group_symop_operation_xyz
x,y,z
-x,-y,z
1/2+x,1/2-y,1/2-z
1/2-x,1/2+y,1/2-z
-x,-y,-z
x,y,-z
1/2-x,1/2+y,1/2+z
1/2+x,1/2-y,1/2+z
loop_
_atom_site_type_symbol
_atom_site_label
_atom_site_fract_x
_atom_site_fract_y
_atom_site_fract_z
Si Si1 0.443376 0.735059 0.108506
Si Si2 0.693401 0.085928 0.226536
Si Si3 0.408569 0.792598 0.390557
Si Si4 0.185034 0.632438 0.606217
Si Si5 0.038122 0.883720 0.778224
O O1 0.352930 0.822805 0.151343
O O2 0.567673 0.797036 0.110214
O O3 0.460562 0.636422 0.183999
O O4 0.417632 0.703191 0.000000
O O5 0.619585 0.105813 0.321425
O O6 0.827680 0.108880 0.245706
O O7 0.681187 0.964628 0.182496
O O8 0.425669 0.821262 0.500000
O O9 0.295790 0.711787 0.382657
O O10 0.511376 0.719135 0.346891
O O11 0.192006 0.582201 0.500000
O O12 0.000000 0.000000 0.823827
#
# Coordination Sequence:
#
# PCOD9442556 Si02
#       5
#     8   8   8   8   8
#     4  10  22  39  59  86 118 153 195 240 286 342
#     4  11  21  36  61  85 116 148 196 241 285 338
#     4  10  22  38  57  83 118 155 186 231 291 345
#     4  10  19  36  61  84 109 149 195 238 283 334
#     4  11  22  37  59  88 119 152 190 240 292 340
#
# _framework density 20.382566000000001
#
# number of rings (size 3 to 8) (size 9 to 14) (size 15 to 20)
#    0.000    1.600    4.000    1.200    0.000    4.000 
#    0.000    0.000    0.000    9.600    0.000    0.000 
#    0.000    0.000    0.000    0.000    0.000    0.000 
#
# Total GULP energy -223501.228843 kJ/mol
# GULP energy per Si atom -5587.530721 kJ/mol
# Density = 2.033617 g / cm^3
# Si number density = 20.382566 Si / 1000 Ang^3
#
#
#
# Elastic Constant Matrix: (Units=GPa)
#
#
# Indices 1 2 3 4 5 6 
#
# 1 26.1872 -9.0444 -16.4204 0.0000 0.0000 0.0000
# 2 -9.0444 32.3159 21.2388 0.0000 0.0000 0.0000
# 3 -16.4204 21.2388 127.2426 0.0000 0.0000 0.0000
# 4 0.0000 0.0000 0.0000 19.7661 0.0000 0.0000
# 5 0.0000 0.0000 0.0000 0.0000 16.5912 0.0000
# 6 0.0000 0.0000 0.0000 0.0000 0.0000 18.4794
#
#
#
# Elastic Compliance Matrix: (Units=1/GPa)
#
#
# Indices 1 2 3 4 5 6 
#
# 1 0.044078 0.009657 0.004076 0.000000 0.000000 0.000000
# 2 0.009657 0.036873 -0.004908 0.000000 0.000000 0.000000
# 3 0.004076 -0.004908 0.009204 0.000000 0.000000 0.000000
# 4 0.000000 0.000000 0.000000 0.050592 0.000000 0.000000
# 5 0.000000 0.000000 0.000000 0.000000 0.060273 0.000000
# 6 0.000000 0.000000 0.000000 0.000000 0.000000 0.054114
#
#
# Mechanical properties :
#
#
# Convention : Reuss Voigt Hill
#
# Bulk Modulus (GPa) = 9.27595 19.69931 14.48763
# Shear Modulus (GPa) = 18.28692 23.63213 20.95953
#
# Velocity S-wave (km/s) = 2.99855 3.40873 3.21020
# Velocity P-wave (km/s) = 4.06808 5.01781 4.56769
#
# Compressibility (1/GPa) = 0.10780562
#
# Stress axis : x y z
#
# Youngs Moduli (GPa) = 22.68708 27.11991 108.64446
#
# Poissons Ratio (x) = -0.26191 -0.44286
# Poissons Ratio (y) = -0.21910 0.53328
# Poissons Ratio (z) = -0.09248 0.13312
#
# Static dielectric constant tensor:
#      x y z
#    x 1.702570 0.000000 0.000000 
#    y 0.000000 1.710400 0.000000 
#    z 0.000000 0.000000 1.747780 
# 
# From -- ./inp_files/15378.got.cif
#   From: 2010.05.17/outbox.cif.g08.bks.cpg/sg58_8_cif.got.tgz:15378.got - 2010.06.03 14:20:14.
