data_PCOD9442765
_publ_section_title
;
Structure prediction by ZEFSAII (Michael W. Deem and Ramdas Pophale) SiO2 
 PCOD9442765
Probable space group: P N N M
;
_chemical_formula_sum "Si O2"
_cell_formula_units_Z 40
_cell_length_a 17.145511
_cell_length_b 13.284329
_cell_length_c 7.284414
_cell_angle_alpha 90.000000
_cell_angle_beta 90.000000
_cell_angle_gamma 90.000000
_cell_volume 1659.146275
_symmetry_space_group_name_H-M "P N N M"
_symmetry_group_IT_number 58
_symmetry_cell_setting 'orthorhombic'
loop_
_space_group_symop_operation_xyz
x,y,z
-x,-y,z
1/2+x,1/2-y,1/2-z
1/2-x,1/2+y,1/2-z
-x,-y,-z
x,y,-z
1/2-x,1/2+y,1/2+z
1/2+x,1/2-y,1/2+z
loop_
_atom_site_type_symbol
_atom_site_label
_atom_site_fract_x
_atom_site_fract_y
_atom_site_fract_z
Si Si1 0.091434 0.480267 0.724355
Si Si2 0.889700 0.926573 0.721847
Si Si3 0.320830 0.777458 0.785248
Si Si4 0.066008 0.867754 0.722080
Si Si5 0.157583 0.689849 0.280038
O O1 0.090882 0.478885 0.500000
O O2 0.133480 0.375931 0.785602
O O3 0.145266 0.575533 0.783826
O O4 0.000000 0.500000 0.776830
O O5 0.879407 0.929649 0.500000
O O6 0.843002 0.831973 0.794474
O O7 0.978474 0.898059 0.763878
O O8 0.878811 0.040775 0.786898
O O9 0.227894 0.764932 0.773106
O O10 0.342509 0.775422 0.000000
O O11 0.071360 0.866946 0.500000
O O12 0.083682 0.755509 0.781461
O O13 0.160092 0.683178 0.500000
#
# Coordination Sequence:
#
# PCOD9442765 Si02
#       5
#     8   8   8   8   8
#     4   9  18  34  55  77 102 137 180 218 253 301
#     4   8  14  26  46  70  92 118 159 205 240 277
#     4  10  20  32  50  75 103 133 165 207 255 302
#     4   8  14  26  46  70  92 118 159 205 240 277
#     4  10  20  32  50  75 103 133 165 207 255 302
#
# _framework density 24.108785000000001
#
# number of rings (size 3 to 8) (size 9 to 14) (size 15 to 20)
#    0.000    3.000    0.000    2.400    2.800    4.800 
#    0.000    0.000    0.000    6.000    0.000    2.800 
#    0.000    0.000    0.000    0.000    0.000    0.000 
#
# Total GULP energy -222747.678312 kJ/mol
# GULP energy per Si atom -5568.691958 kJ/mol
# Density = 2.405391 g / cm^3
# Si number density = 24.108785 Si / 1000 Ang^3
#
#
#
# Elastic Constant Matrix: (Units=GPa)
#
#
# Indices 1 2 3 4 5 6 
#
# 1 42.7517 21.2471 -11.3766 0.0000 0.0000 0.0000
# 2 21.2471 118.0048 3.8673 0.0000 0.0000 0.0000
# 3 -11.3766 3.8673 101.0170 0.0000 0.0000 0.0000
# 4 0.0000 0.0000 0.0000 -28.8078 0.0000 0.0000
# 5 0.0000 0.0000 0.0000 0.0000 -0.7541 0.0000
# 6 0.0000 0.0000 0.0000 0.0000 0.0000 43.9239
#
#
#
# Elastic Compliance Matrix: (Units=1/GPa)
#
#
# Indices 1 2 3 4 5 6 
#
# 1 0.026680 -0.004908 0.003193 0.000000 0.000000 0.000000
# 2 -0.004908 0.009388 -0.000912 0.000000 0.000000 0.000000
# 3 0.003193 -0.000912 0.010294 0.000000 0.000000 0.000000
# 4 0.000000 0.000000 0.000000 -0.034713 0.000000 0.000000
# 5 0.000000 0.000000 0.000000 0.000000 -1.326171 0.000000
# 6 0.000000 0.000000 0.000000 0.000000 0.000000 0.022767
#
#
# Mechanical properties :
#
#
# Convention : Reuss Voigt Hill
#
# Bulk Modulus (GPa) = 24.32758 32.13880 28.23319
# Shear Modulus (GPa) = -3.92835 19.40812 7.73989
#
# Velocity S-wave (km/s) = -1.27788 2.84037 1.79370
# Velocity P-wave (km/s) = 2.81698 4.91087 4.00325
#
# Compressibility (1/GPa) = 0.04110560
#
# Stress axis : x y z
#
# Youngs Moduli (GPa) = 37.48140 106.52005 97.14581
#
# Poissons Ratio (x) = 0.52285 -0.31015
# Poissons Ratio (y) = 0.18397 0.08862
# Poissons Ratio (z) = -0.11966 0.09717
#
# Static dielectric constant tensor:
#      x y z
#    x 3.595330 0.000000 0.000000 
#    y 0.000000 1.920430 0.000000 
#    z 0.000000 0.000000 1.948530 
# 
# From -- ./inp_files/8796.got.cif
#   From: 2010.05.17/outbox.cif.g08.bks.cpg/sg58_5_cif.got.tgz:8796.got - 2010.06.03 14:20:14.
