data_PCOD9442012
_publ_section_title
;
Structure prediction by ZEFSAII (Michael W. Deem and Ramdas Pophale) SiO2 
 PCOD9442012
Probable space group: P N N M
;
_chemical_formula_sum "Si O2"
_cell_formula_units_Z 56
_cell_length_a 7.927112
_cell_length_b 14.408084
_cell_length_c 21.716303
_cell_angle_alpha 90.000000
_cell_angle_beta 90.000000
_cell_angle_gamma 90.000000
_cell_volume 2480.316593
_symmetry_space_group_name_H-M "P N N M"
_symmetry_group_IT_number 58
_symmetry_cell_setting 'orthorhombic'
loop_
_space_group_symop_operation_xyz
x,y,z
-x,-y,z
1/2+x,1/2-y,1/2-z
1/2-x,1/2+y,1/2-z
-x,-y,-z
x,y,-z
1/2-x,1/2+y,1/2+z
1/2+x,1/2-y,1/2+z
loop_
_atom_site_type_symbol
_atom_site_label
_atom_site_fract_x
_atom_site_fract_y
_atom_site_fract_z
Si Si1 0.812234 0.497206 0.612204
Si Si2 0.143350 0.113842 0.301276
Si Si3 0.335199 0.951594 0.744321
Si Si4 0.269874 0.699138 0.430207
Si Si5 0.944253 0.817059 0.570109
Si Si6 0.340008 0.279071 0.739186
Si Si7 0.144450 0.821768 0.904879
O O1 0.833131 0.530828 0.682467
O O2 0.752269 0.391632 0.611423
O O3 0.681669 0.569735 0.582203
O O4 0.000000 0.500000 0.583895
O O5 0.176756 0.008848 0.281669
O O6 0.126016 0.118605 0.375164
O O7 0.295118 0.171552 0.267237
O O8 0.991591 0.178856 0.278001
O O9 0.500000 0.000000 0.716924
O O10 0.315071 0.842054 0.735136
O O11 0.225882 0.670870 0.500000
O O12 0.469039 0.719792 0.429089
O O13 0.131961 0.777571 0.414591
O O14 0.946804 0.854051 0.500000
O O15 0.810771 0.731977 0.572602
O O16 0.366767 0.308941 0.668525
#
# Coordination Sequence:
#
# PCOD9442012 Si02
#       7
#     8   8   8   8   8   8   8
#     4  10  19  33  54  80 118 156 191 240 295 362
#     4  11  22  37  62  90 122 159 194 250 306 362
#     4  10  21  38  60  87 124 154 192 246 309 370
#     4  11  22  33  52  77 110 158 202 241 282 347
#     4  10  23  40  56  80 116 158 203 248 295 355
#     4  10  22  35  59  93 117 155 194 245 311 366
#     4  10  20  36  55  81 115 154 195 245 302 359
#
# _framework density 22.577763999999998
#
# number of rings (size 3 to 8) (size 9 to 14) (size 15 to 20)
#    0.000    1.714    1.429    3.000    6.000    4.286 
#    0.000    0.000    0.000    2.143    0.000    0.000 
#    0.000    0.000    0.000    0.000    0.000    0.000 
#
# Total GULP energy -312385.157241 kJ/mol
# GULP energy per Si atom -5578.306379 kJ/mol
# Density = 2.252638 g / cm^3
# Si number density = 22.577764 Si / 1000 Ang^3
#
#
#
# Elastic Constant Matrix: (Units=GPa)
#
#
# Indices 1 2 3 4 5 6 
#
# 1 123.3844 -0.5486 2.1935 0.0000 0.0000 0.0000
# 2 -0.5486 54.9316 -2.2872 0.0000 0.0000 0.0000
# 3 2.1935 -2.2872 55.7050 0.0000 0.0000 0.0000
# 4 0.0000 0.0000 0.0000 -11.8065 0.0000 0.0000
# 5 0.0000 0.0000 0.0000 0.0000 19.1400 0.0000
# 6 0.0000 0.0000 0.0000 0.0000 0.0000 12.2746
#
#
#
# Elastic Compliance Matrix: (Units=1/GPa)
#
#
# Indices 1 2 3 4 5 6 
#
# 1 0.008111 0.000068 -0.000317 0.000000 0.000000 0.000000
# 2 0.000068 0.018236 0.000746 0.000000 0.000000 0.000000
# 3 -0.000317 0.000746 0.017995 0.000000 0.000000 0.000000
# 4 0.000000 0.000000 0.000000 -0.084699 0.000000 0.000000
# 5 0.000000 0.000000 0.000000 0.000000 0.052247 0.000000
# 6 0.000000 0.000000 0.000000 0.000000 0.000000 0.081469
#
#
# Mechanical properties :
#
#
# Convention : Reuss Voigt Hill
#
# Bulk Modulus (GPa) = 22.05737 25.85960 23.95849
# Shear Modulus (GPa) = 46.52202 19.56583 33.04392
#
# Velocity S-wave (km/s) = 4.54422 2.94700 3.82980
# Velocity P-wave (km/s) = 6.10934 4.80189 5.49464
#
# Compressibility (1/GPa) = 0.04533632
#
# Stress axis : x y z
#
# Youngs Moduli (GPa) = 123.29422 54.83599 55.57156
#
# Poissons Ratio (x) = -0.00372 0.01759
# Poissons Ratio (y) = -0.00836 -0.04146
# Poissons Ratio (z) = 0.03903 -0.04091
#
# Static dielectric constant tensor:
#      x y z
#    x 1.970680 0.000000 0.000000 
#    y 0.000000 1.824910 0.000000 
#    z 0.000000 0.000000 1.837840 
# 
# From -- ./inp_files/28973.got.cif
#   From: 2010.05.17/outbox.cif.g08.bks.cpg/sg58_15_cif.got.tgz:28973.got - 2010.06.03 14:20:14.
