data_PCOD9442973
_publ_section_title
;
Structure prediction by ZEFSAII (Michael W. Deem and Ramdas Pophale) SiO2 
 PCOD9442973
Probable space group: P N N M
;
_chemical_formula_sum "Si O2"
_cell_formula_units_Z 48
_cell_length_a 16.609817
_cell_length_b 18.553457
_cell_length_c 8.980216
_cell_angle_alpha 90.000000
_cell_angle_beta 90.000000
_cell_angle_gamma 90.000000
_cell_volume 2767.428903
_symmetry_space_group_name_H-M "P N N M"
_symmetry_group_IT_number 58
_symmetry_cell_setting 'orthorhombic'
loop_
_space_group_symop_operation_xyz
x,y,z
-x,-y,z
1/2+x,1/2-y,1/2-z
1/2-x,1/2+y,1/2-z
-x,-y,-z
x,y,-z
1/2-x,1/2+y,1/2+z
1/2+x,1/2-y,1/2+z
loop_
_atom_site_type_symbol
_atom_site_label
_atom_site_fract_x
_atom_site_fract_y
_atom_site_fract_z
Si Si1 0.919733 0.549971 0.829929
Si Si2 0.487236 0.171229 0.822753
Si Si3 0.504274 0.326881 0.322986
Si Si4 0.083664 0.954816 0.329165
Si Si5 0.165149 0.591394 0.821109
Si Si6 0.168594 0.084258 0.176374
O O1 0.851733 0.493058 0.783367
O O2 0.000000 0.500000 0.832114
O O3 0.941241 0.617179 0.727502
O O4 0.905443 0.574231 0.000000
O O5 0.500838 0.249826 0.754828
O O6 0.405354 0.138013 0.753562
O O7 0.481425 0.173627 0.000000
O O8 0.491872 0.320293 0.500000
O O9 0.438322 0.380770 0.252640
O O10 0.591398 0.364276 0.299049
O O11 0.109228 0.943379 0.500000
O O12 0.144693 0.006089 0.241413
O O13 0.000000 0.000000 0.332099
O O14 0.252369 0.611573 0.760406
O O15 0.159595 0.597713 0.000000
O O16 0.182951 0.079911 0.000000
#
# Coordination Sequence:
#
# PCOD9442973 Si02
#       6
#     8   8   8   8   8   8
#     4   8  16  32  52  73  98 131 168 204 248 303
#     4  11  21  33  53  79 106 137 174 215 259 312
#     4  10  20  35  54  76 106 141 174 212 258 310
#     4   9  17  31  52  76 101 131 169 209 250 302
#     4  10  20  35  55  77 104 137 173 216 264 311
#     4  10  20  34  54  79 105 135 174 218 263 309
#
# _framework density 17.344619000000002
#
# number of rings (size 3 to 8) (size 9 to 14) (size 15 to 20)
#    0.000    2.333    0.000    4.500    0.000    7.667 
#    0.000    1.667    0.000    6.000    0.000    0.000 
#    0.000    0.000    0.000    0.000    0.000    0.000 
#
# Total GULP energy -267705.792009 kJ/mol
# GULP energy per Si atom -5577.204000 kJ/mol
# Density = 1.730514 g / cm^3
# Si number density = 17.344619 Si / 1000 Ang^3
#
#
#
# Elastic Constant Matrix: (Units=GPa)
#
#
# Indices 1 2 3 4 5 6 
#
# 1 50.6077 29.2566 45.2027 0.0000 0.0000 0.0000
# 2 29.2566 127.1708 87.3585 0.0000 0.0000 0.0000
# 3 45.2027 87.3585 134.0745 0.0000 0.0000 0.0000
# 4 0.0000 0.0000 0.0000 30.0933 0.0000 0.0000
# 5 0.0000 0.0000 0.0000 0.0000 17.7785 0.0000
# 6 0.0000 0.0000 0.0000 0.0000 0.0000 12.7637
#
#
#
# Elastic Compliance Matrix: (Units=1/GPa)
#
#
# Indices 1 2 3 4 5 6 
#
# 1 0.028275 0.000079 -0.009584 0.000000 0.000000 0.000000
# 2 0.000079 0.014235 -0.009302 0.000000 0.000000 0.000000
# 3 -0.009584 -0.009302 0.016750 0.000000 0.000000 0.000000
# 4 0.000000 0.000000 0.000000 0.033230 0.000000 0.000000
# 5 0.000000 0.000000 0.000000 0.000000 0.056248 0.000000
# 6 0.000000 0.000000 0.000000 0.000000 0.000000 0.078347
#
#
# Mechanical properties :
#
#
# Convention : Reuss Voigt Hill
#
# Bulk Modulus (GPa) = 46.19708 70.60986 58.40347
# Shear Modulus (GPa) = 18.38817 22.12944 20.25881
#
# Velocity S-wave (km/s) = 3.25955 3.57580 3.42133
# Velocity P-wave (km/s) = 6.39209 7.60571 7.02516
#
# Compressibility (1/GPa) = 0.02164639
#
# Stress axis : x y z
#
# Youngs Moduli (GPa) = 35.36726 70.24982 59.70009
#
# Poissons Ratio (x) = -0.00554 0.57217
# Poissons Ratio (y) = -0.00279 0.55531
# Poissons Ratio (z) = 0.33896 0.65344
#
# Static dielectric constant tensor:
#      x y z
#    x 1.600330 0.000000 0.000000 
#    y 0.000000 1.575660 0.000000 
#    z 0.000000 0.000000 1.577140 
# 
# From -- ./inp_files/7867.got.cif
#   From: 2010.05.17/outbox.cif.g08.bks.cpg/sg58_4_cif.got.tgz:7867.got - 2010.06.03 14:20:14.
