data_PCOD9442836
_publ_section_title
;
Structure prediction by ZEFSAII (Michael W. Deem and Ramdas Pophale) SiO2 
 PCOD9442836
Probable space group: P N N M
;
_chemical_formula_sum "Si O2"
_cell_formula_units_Z 48
_cell_length_a 17.867731
_cell_length_b 7.167369
_cell_length_c 14.153109
_cell_angle_alpha 90.000000
_cell_angle_beta 90.000000
_cell_angle_gamma 90.000000
_cell_volume 1812.512544
_symmetry_space_group_name_H-M "P N N M"
_symmetry_group_IT_number 58
_symmetry_cell_setting 'orthorhombic'
loop_
_space_group_symop_operation_xyz
x,y,z
-x,-y,z
1/2+x,1/2-y,1/2-z
1/2-x,1/2+y,1/2-z
-x,-y,-z
x,y,-z
1/2-x,1/2+y,1/2+z
1/2+x,1/2-y,1/2+z
loop_
_atom_site_type_symbol
_atom_site_label
_atom_site_fract_x
_atom_site_fract_y
_atom_site_fract_z
Si Si1 0.015481 0.726204 0.679428
Si Si2 0.708661 0.921819 0.396259
Si Si3 0.864140 0.836056 0.302811
Si Si4 0.825686 0.854201 0.101142
Si Si5 0.348880 0.052362 0.108029
Si Si6 0.542773 0.799455 0.606797
O O1 0.098806 0.728473 0.635771
O O2 0.016644 0.769401 0.790741
O O3 0.000000 0.500000 0.664781
O O4 0.944418 0.847353 0.644300
O O5 0.735332 0.862776 0.500000
O O6 0.783765 0.909123 0.336515
O O7 0.632864 0.809269 0.378467
O O8 0.677948 0.130712 0.399403
O O9 0.868227 0.904823 0.195574
O O10 0.855076 0.610825 0.314303
O O11 0.738781 0.906738 0.106836
O O12 0.855856 0.917309 0.000000
O O13 0.369711 0.995850 0.000000
O O14 0.528986 0.723471 0.500000
O O15 0.500000 0.000000 0.603008
#
# Coordination Sequence:
#
# PCOD9442836 Si02
#       6
#     8   8   8   8   8   8
#     4   9  18  30  48  73  99 133 173 212 255 306
#     4  10  20  33  52  79 106 132 168 217 265 306
#     4  11  20  33  54  78 105 135 172 218 263 309
#     4  10  20  34  52  75 104 135 169 212 262 314
#     4  10  21  36  53  74 103 140 177 212 256 313
#     4   9  16  29  50  76 104 132 169 216 261 308
#
# _framework density 26.482575000000001
#
# number of rings (size 3 to 8) (size 9 to 14) (size 15 to 20)
#    0.000    2.167    0.000    5.500    0.000    5.667 
#    0.000    0.833    0.000    3.000    0.000    3.500 
#    0.000   32.000    0.000    0.000    0.000    0.000 
#
# Total GULP energy -267838.907904 kJ/mol
# GULP energy per Si atom -5579.977248 kJ/mol
# Density = 2.642230 g / cm^3
# Si number density = 26.482575 Si / 1000 Ang^3
#
#
#
# Elastic Constant Matrix: (Units=GPa)
#
#
# Indices 1 2 3 4 5 6 
#
# 1 157.3541 24.9006 34.1915 0.0000 0.0000 0.0000
# 2 24.9006 74.8041 6.4521 0.0000 0.0000 0.0000
# 3 34.1915 6.4521 111.2676 0.0000 0.0000 0.0000
# 4 0.0000 0.0000 0.0000 5.1945 0.0000 0.0000
# 5 0.0000 0.0000 0.0000 0.0000 -1.5443 0.0000
# 6 0.0000 0.0000 0.0000 0.0000 0.0000 42.6681
#
#
#
# Elastic Compliance Matrix: (Units=1/GPa)
#
#
# Indices 1 2 3 4 5 6 
#
# 1 0.007154 -0.002203 -0.002070 0.000000 0.000000 0.000000
# 2 -0.002203 0.014114 -0.000142 0.000000 0.000000 0.000000
# 3 -0.002070 -0.000142 0.009632 0.000000 0.000000 0.000000
# 4 0.000000 0.000000 0.000000 0.192510 0.000000 0.000000
# 5 0.000000 0.000000 0.000000 0.000000 -0.647545 0.000000
# 6 0.000000 0.000000 0.000000 0.000000 0.000000 0.023437
#
#
# Mechanical properties :
#
#
# Convention : Reuss Voigt Hill
#
# Bulk Modulus (GPa) = 45.31121 52.72380 49.01750
# Shear Modulus (GPa) = -13.00345 27.78910 7.39283
#
# Velocity S-wave (km/s) = -2.21830 3.24286 1.67262
# Velocity P-wave (km/s) = 3.25359 5.82869 4.72014
#
# Compressibility (1/GPa) = 0.02206960
#
# Stress axis : x y z
#
# Youngs Moduli (GPa) = 139.79060 70.85318 103.82284
#
# Poissons Ratio (x) = 0.15607 0.21496
# Poissons Ratio (y) = 0.30791 0.01470
# Poissons Ratio (z) = 0.28944 0.01003
#
# Static dielectric constant tensor:
#      x y z
#    x 2.128330 0.000000 0.000000 
#    y 0.000000 2.216350 0.000000 
#    z 0.000000 0.000000 2.065860 
# 
# From -- ./inp_files/19789.got.cif
#   From: 2010.05.17/outbox.cif.g08.bks.cpg/sg58_10_cif.got.tgz:19789.got - 2010.06.03 14:20:14.
