data_PCOD9442390
_publ_section_title
;
Structure prediction by ZEFSAII (Michael W. Deem and Ramdas Pophale) SiO2 
 PCOD9442390
Probable space group: P N N M
;
_chemical_formula_sum "Si O2"
_cell_formula_units_Z 32
_cell_length_a 7.560903
_cell_length_b 5.125629
_cell_length_c 37.173124
_cell_angle_alpha 90.000000
_cell_angle_beta 90.000000
_cell_angle_gamma 90.000000
_cell_volume 1440.621510
_symmetry_space_group_name_H-M "P N N M"
_symmetry_group_IT_number 58
_symmetry_cell_setting 'orthorhombic'
loop_
_space_group_symop_operation_xyz
x,y,z
-x,-y,z
1/2+x,1/2-y,1/2-z
1/2-x,1/2+y,1/2-z
-x,-y,-z
x,y,-z
1/2-x,1/2+y,1/2+z
1/2+x,1/2-y,1/2+z
loop_
_atom_site_type_symbol
_atom_site_label
_atom_site_fract_x
_atom_site_fract_y
_atom_site_fract_z
Si Si1 0.302842 0.614985 0.729539
Si Si2 0.715854 0.468486 0.648501
Si Si3 0.624812 0.248473 0.960239
Si Si4 0.290337 0.035766 0.610102
O O1 0.500000 0.500000 0.728461
O O2 0.200894 0.400331 0.753204
O O3 0.236621 0.620196 0.688497
O O4 0.500000 0.500000 0.646907
O O5 0.221855 0.747197 0.619543
O O6 0.781330 0.756309 0.638897
O O7 0.500000 0.500000 0.962558
O O8 0.753841 0.328726 0.928097
O O9 0.500000 0.000000 0.952856
O O10 0.707570 0.206669 0.000000
O O11 0.500000 0.000000 0.613824
#
# Coordination Sequence:
#
# PCOD9442390 Si02
#       4
#     8   8   8   8
#     4  11  22  39  60  83 114 151 190 233 285 341
#     4   9  19  35  56  80 109 144 179 225 283 330
#     4  10  21  37  55  78 112 148 176 214 277 335
#     4  10  19  35  58  81 104 139 188 229 265 321
#
# _framework density 22.212636
#
# number of rings (size 3 to 8) (size 9 to 14) (size 15 to 20)
#    0.000    2.000    0.000    3.750    0.000    4.500 
#    0.000   12.500    0.000    9.000    0.000    0.000 
#    0.000    0.000    0.000    0.000    0.000    0.000 
#
# Total GULP energy -178622.159745 kJ/mol
# GULP energy per Si atom -5581.942492 kJ/mol
# Density = 2.216208 g / cm^3
# Si number density = 22.212636 Si / 1000 Ang^3
#
#
#
# Elastic Constant Matrix: (Units=GPa)
#
#
# Indices 1 2 3 4 5 6 
#
# 1 25.9668 14.6716 3.7888 0.0000 0.0000 0.0000
# 2 14.6716 162.9207 52.2453 0.0000 0.0000 0.0000
# 3 3.7888 52.2453 131.4320 0.0000 0.0000 0.0000
# 4 0.0000 0.0000 0.0000 39.7033 0.0000 0.0000
# 5 0.0000 0.0000 0.0000 0.0000 1617.9358 0.0000
# 6 0.0000 0.0000 0.0000 0.0000 0.0000 20.1983
#
#
#
# Elastic Compliance Matrix: (Units=1/GPa)
#
#
# Indices 1 2 3 4 5 6 
#
# 1 0.040587 -0.003759 0.000324 0.000000 0.000000 0.000000
# 2 -0.003759 0.007383 -0.002826 0.000000 0.000000 0.000000
# 3 0.000324 -0.002826 0.008723 0.000000 0.000000 0.000000
# 4 0.000000 0.000000 0.000000 0.025187 0.000000 0.000000
# 5 0.000000 0.000000 0.000000 0.000000 0.000618 0.000000
# 6 0.000000 0.000000 0.000000 0.000000 0.000000 0.049509
#
#
# Mechanical properties :
#
#
# Convention : Reuss Voigt Hill
#
# Bulk Modulus (GPa) = 22.63957 51.30344 36.97150
# Shear Modulus (GPa) = 31.39669 352.20841 191.80255
#
# Velocity S-wave (km/s) = 3.76368 12.60581 9.30246
# Velocity P-wave (km/s) = 5.39457 15.33042 11.49181
#
# Compressibility (1/GPa) = 0.04417045
#
# Stress axis : x y z
#
# Youngs Moduli (GPa) = 24.63826 135.44945 114.64396
#
# Poissons Ratio (x) = 0.50916 -0.03717
# Poissons Ratio (y) = 0.09262 0.32403
# Poissons Ratio (z) = -0.00799 0.38283
#
# Static dielectric constant tensor:
#      x y z
#    x 1.857840 0.000000 0.000000 
#    y 0.000000 1.781090 0.000000 
#    z 0.000000 0.000000 1.874380 
# 
# From -- ./inp_files/34376.got.cif
#   From: 2010.05.17/outbox.cif.g08.bks.cpg/sg58_18_cif.got.tgz:34376.got - 2010.06.03 14:20:14.
