data_PCOD9442507
_publ_section_title
;
Structure prediction by ZEFSAII (Michael W. Deem and Ramdas Pophale) SiO2 
 PCOD9442507
Probable space group: P N N M
;
_chemical_formula_sum "Si O2"
_cell_formula_units_Z 64
_cell_length_a 7.997485
_cell_length_b 18.584781
_cell_length_c 21.724790
_cell_angle_alpha 90.000000
_cell_angle_beta 90.000000
_cell_angle_gamma 90.000000
_cell_volume 3228.988283
_symmetry_space_group_name_H-M "P N N M"
_symmetry_group_IT_number 58
_symmetry_cell_setting 'orthorhombic'
loop_
_space_group_symop_operation_xyz
x,y,z
-x,-y,z
1/2+x,1/2-y,1/2-z
1/2-x,1/2+y,1/2-z
-x,-y,-z
x,y,-z
1/2-x,1/2+y,1/2+z
1/2+x,1/2-y,1/2+z
loop_
_atom_site_type_symbol
_atom_site_label
_atom_site_fract_x
_atom_site_fract_y
_atom_site_fract_z
Si Si1 0.139079 0.127376 0.643150
Si Si2 0.174972 0.331533 0.068881
Si Si3 0.660154 0.724265 0.814447
Si Si4 0.229284 0.139512 0.224178
Si Si5 0.686804 0.766326 0.568137
Si Si6 0.849265 0.167251 0.186833
Si Si7 0.694504 0.020682 0.634171
Si Si8 0.692620 0.020647 0.220362
O O1 0.262540 0.139470 0.701910
O O2 0.167654 0.178532 0.585520
O O3 0.176832 0.045451 0.625243
O O4 0.973420 0.160753 0.673325
O O5 0.235659 0.280674 0.123385
O O6 0.222936 0.411746 0.090101
O O7 0.976640 0.317340 0.068654
O O8 0.237024 0.316358 0.000000
O O9 0.628908 0.809808 0.805874
O O10 0.734396 0.704861 0.747152
O O11 0.048212 0.168905 0.202347
O O12 0.219044 0.055460 0.208521
O O13 0.702111 0.734612 0.500000
O O14 0.679949 0.709613 0.623659
O O15 0.774135 0.087080 0.184967
O O16 0.500000 0.000000 0.624174
O O17 0.707948 0.039339 0.706762
O O18 0.500000 0.000000 0.207990
#
# Coordination Sequence:
#
# PCOD9442507 Si02
#       8
#     8   8   8   8   8   8   8   8
#     4  10  22  35  58  90 122 159 203 254 304 359
#     4  11  23  39  60  87 126 170 206 245 296 365
#     4  11  22  37  62  90 122 158 206 256 308 359
#     4  10  21  36  58  90 120 157 197 249 314 370
#     4  11  23  38  60  88 119 161 209 251 303 369
#     4  11  21  38  62  86 123 157 200 255 310 365
#     4  10  19  36  57  85 126 164 203 242 296 369
#     4  10  22  34  60  92 119 148 197 259 312 363
#
# _framework density 19.820450000000001
#
# number of rings (size 3 to 8) (size 9 to 14) (size 15 to 20)
#    0.000    1.500    5.000    0.375    1.750    1.750 
#    0.000    0.625    0.000    2.625    0.000    0.000 
#    0.000    0.000    0.000    0.000    0.000    0.000 
#
# Total GULP energy -356427.458171 kJ/mol
# GULP energy per Si atom -5569.179034 kJ/mol
# Density = 1.977534 g / cm^3
# Si number density = 19.820450 Si / 1000 Ang^3
#
#
#
# Elastic Constant Matrix: (Units=GPa)
#
#
# Indices 1 2 3 4 5 6 
#
# 1 34.2988 17.0569 24.8976 0.0000 0.0000 0.0000
# 2 17.0569 117.3524 56.9891 0.0000 0.0000 0.0000
# 3 24.8976 56.9891 137.4780 0.0000 0.0000 0.0000
# 4 0.0000 0.0000 0.0000 22.9237 0.0000 0.0000
# 5 0.0000 0.0000 0.0000 0.0000 16.9776 0.0000
# 6 0.0000 0.0000 0.0000 0.0000 0.0000 27.1687
#
#
#
# Elastic Compliance Matrix: (Units=1/GPa)
#
#
# Indices 1 2 3 4 5 6 
#
# 1 0.034123 -0.002452 -0.005163 0.000000 0.000000 0.000000
# 2 -0.002452 0.010845 -0.004052 0.000000 0.000000 0.000000
# 3 -0.005163 -0.004052 0.009888 0.000000 0.000000 0.000000
# 4 0.000000 0.000000 0.000000 0.043623 0.000000 0.000000
# 5 0.000000 0.000000 0.000000 0.000000 0.058901 0.000000
# 6 0.000000 0.000000 0.000000 0.000000 0.000000 0.036807
#
#
# Mechanical properties :
#
#
# Convention : Reuss Voigt Hill
#
# Bulk Modulus (GPa) = 31.72332 54.11294 42.91813
# Shear Modulus (GPa) = 21.92695 26.09305 24.01000
#
# Velocity S-wave (km/s) = 3.32969 3.63226 3.48426
# Velocity P-wave (km/s) = 5.55180 6.70462 6.15526
#
# Compressibility (1/GPa) = 0.03152256
#
# Stress axis : x y z
#
# Youngs Moduli (GPa) = 29.30572 92.20536 101.12769
#
# Poissons Ratio (x) = 0.22612 0.52214
# Poissons Ratio (y) = 0.07187 0.40973
# Poissons Ratio (z) = 0.15131 0.37358
#
# Static dielectric constant tensor:
#      x y z
#    x 1.825750 0.000000 0.000000 
#    y 0.000000 1.749380 0.000000 
#    z 0.000000 0.000000 1.682530 
# 
# From -- ./inp_files/29110.got.cif
#   From: 2010.05.17/outbox.cif.g08.bks.cpg/sg58_15_cif.got.tgz:29110.got - 2010.06.03 14:20:14.
