data_PCOD9442289
_publ_section_title
;
Structure prediction by ZEFSAII (Michael W. Deem and Ramdas Pophale) SiO2 
 PCOD9442289
Probable space group: P N N M
;
_chemical_formula_sum "Si O2"
_cell_formula_units_Z 64
_cell_length_a 31.445229
_cell_length_b 12.442858
_cell_length_c 7.628416
_cell_angle_alpha 90.000000
_cell_angle_beta 90.000000
_cell_angle_gamma 90.000000
_cell_volume 2984.759032
_symmetry_space_group_name_H-M "P N N M"
_symmetry_group_IT_number 58
_symmetry_cell_setting 'orthorhombic'
loop_
_space_group_symop_operation_xyz
x,y,z
-x,-y,z
1/2+x,1/2-y,1/2-z
1/2-x,1/2+y,1/2-z
-x,-y,-z
x,y,-z
1/2-x,1/2+y,1/2+z
1/2+x,1/2-y,1/2+z
loop_
_atom_site_type_symbol
_atom_site_label
_atom_site_fract_x
_atom_site_fract_y
_atom_site_fract_z
Si Si1 0.792306 0.707380 0.788616
Si Si2 0.374236 0.408524 0.707890
Si Si3 0.067309 0.515056 0.295529
Si Si4 0.452012 0.255052 0.212182
Si Si5 0.835007 0.489640 0.786729
Si Si6 0.455845 0.784839 0.211049
Si Si7 0.871183 0.848879 0.789654
Si Si8 0.695220 0.757501 0.291190
O O1 0.805367 0.587900 0.730518
O O2 0.828673 0.789317 0.723808
O O3 0.744654 0.736341 0.738001
O O4 0.793990 0.708273 0.000000
O O5 0.366903 0.419225 0.500000
O O6 0.417714 0.342192 0.729965
O O7 0.375732 0.529617 0.779338
O O8 0.335703 0.335537 0.780316
O O9 0.054853 0.521579 0.500000
O O10 0.059562 0.634469 0.223271
O O11 0.117387 0.492770 0.279530
O O12 0.045049 0.408223 0.221515
O O13 0.500780 0.273395 0.267343
O O14 0.450072 0.254801 0.000000
O O15 0.818469 0.374419 0.723856
O O16 0.836576 0.489799 0.000000
O O17 0.413057 0.721749 0.255459
O O18 0.457157 0.791983 0.000000
O O19 0.867239 0.853939 0.000000
O O20 0.688070 0.761047 0.500000
#
# Coordination Sequence:
#
# PCOD9442289 Si02
#       8
#     8   8   8   8   8   8   8   8
#     4  10  22  38  58  83 112 145 184 230 279 330
#     4  10  22  40  59  81 112 150 190 231 276 331
#     4  10  19  34  58  86 114 146 184 229 281 335
#     4  10  21  37  58  85 115 147 185 231 282 334
#     4  10  20  37  59  83 112 146 185 233 280 329
#     4  10  21  37  58  85 115 147 185 231 282 334
#     4  10  22  40  59  81 112 150 190 231 276 331
#     4  10  22  38  58  83 112 145 184 230 279 330
#
# _framework density 21.442267999999999
#
# number of rings (size 3 to 8) (size 9 to 14) (size 15 to 20)
#    0.000    2.000    2.500    0.375    1.750    5.000 
#    0.000    2.500    0.000    2.250    0.000    0.000 
#    0.000    0.000    0.000    0.000    0.000    0.000 
#
# Total GULP energy -357500.651269 kJ/mol
# GULP energy per Si atom -5585.947676 kJ/mol
# Density = 2.139346 g / cm^3
# Si number density = 21.442268 Si / 1000 Ang^3
#
#
#
# Elastic Constant Matrix: (Units=GPa)
#
#
# Indices 1 2 3 4 5 6 
#
# 1 92.6327 30.3681 -10.5094 0.0000 0.0000 0.0000
# 2 30.3681 140.2686 8.1471 0.0000 0.0000 0.0000
# 3 -10.5094 8.1471 40.5619 0.0000 0.0000 0.0000
# 4 0.0000 0.0000 0.0000 13.5310 0.0000 0.0000
# 5 0.0000 0.0000 0.0000 0.0000 23.2128 0.0000
# 6 0.0000 0.0000 0.0000 0.0000 0.0000 18.7330
#
#
#
# Elastic Compliance Matrix: (Units=1/GPa)
#
#
# Indices 1 2 3 4 5 6 
#
# 1 0.012151 -0.002847 0.003720 0.000000 0.000000 0.000000
# 2 -0.002847 0.007880 -0.002320 0.000000 0.000000 0.000000
# 3 0.003720 -0.002320 0.026084 0.000000 0.000000 0.000000
# 4 0.000000 0.000000 0.000000 0.073904 0.000000 0.000000
# 5 0.000000 0.000000 0.000000 0.000000 0.043080 0.000000
# 6 0.000000 0.000000 0.000000 0.000000 0.000000 0.053382
#
#
# Mechanical properties :
#
#
# Convention : Reuss Voigt Hill
#
# Bulk Modulus (GPa) = 23.13730 36.60832 29.87281
# Shear Modulus (GPa) = 21.38756 27.45920 24.42338
#
# Velocity S-wave (km/s) = 3.16167 3.58244 3.37861
# Velocity P-wave (km/s) = 4.91346 5.84995 5.40204
#
# Compressibility (1/GPa) = 0.04322026
#
# Stress axis : x y z
#
# Youngs Moduli (GPa) = 82.30051 126.89947 38.33829
#
# Poissons Ratio (x) = 0.36124 -0.14262
# Poissons Ratio (y) = 0.23428 0.08896
# Poissons Ratio (z) = -0.30615 0.29445
#
# Static dielectric constant tensor:
#      x y z
#    x 1.733900 0.000000 0.000000 
#    y 0.000000 1.776630 0.000000 
#    z 0.000000 0.000000 1.827910 
# 
# From -- ./inp_files/4660.got.cif
#   From: 2010.05.17/outbox.cif.g08.bks.cpg/sg58_3_cif.got.tgz:4660.got - 2010.06.03 14:20:14.
