data_PCOD9442896
_publ_section_title
;
Structure prediction by ZEFSAII (Michael W. Deem and Ramdas Pophale) SiO2 
 PCOD9442896
Probable space group: P N N M
;
_chemical_formula_sum "Si O2"
_cell_formula_units_Z 48
_cell_length_a 9.636828
_cell_length_b 31.807283
_cell_length_c 7.537803
_cell_angle_alpha 90.000000
_cell_angle_beta 90.000000
_cell_angle_gamma 90.000000
_cell_volume 2310.497291
_symmetry_space_group_name_H-M "P N N M"
_symmetry_group_IT_number 58
_symmetry_cell_setting 'orthorhombic'
loop_
_space_group_symop_operation_xyz
x,y,z
-x,-y,z
1/2+x,1/2-y,1/2-z
1/2-x,1/2+y,1/2-z
-x,-y,-z
x,y,-z
1/2-x,1/2+y,1/2+z
1/2+x,1/2-y,1/2+z
loop_
_atom_site_type_symbol
_atom_site_label
_atom_site_fract_x
_atom_site_fract_y
_atom_site_fract_z
Si Si1 0.415818 0.541671 0.717069
Si Si2 0.569025 0.209743 0.286646
Si Si3 0.105352 0.881566 0.785664
Si Si4 0.891998 0.212378 0.211875
Si Si5 0.602313 0.965106 0.204895
Si Si6 0.070099 0.384418 0.210003
O O1 0.500000 0.500000 0.767525
O O2 0.414460 0.543340 0.500000
O O3 0.499525 0.582884 0.777178
O O4 0.256976 0.539199 0.780164
O O5 0.553614 0.208149 0.500000
O O6 0.729399 0.218212 0.245815
O O7 0.476956 0.248017 0.216928
O O8 0.536615 0.162573 0.221224
O O9 0.071681 0.834371 0.720447
O O10 0.265353 0.891387 0.739006
O O11 0.099686 0.880847 0.000000
O O12 0.914629 0.211418 0.000000
O O13 0.522234 0.920996 0.208742
O O14 0.500000 0.000000 0.286700
O O15 0.624205 0.978298 0.000000
O O16 0.044680 0.385356 0.000000
#
# Coordination Sequence:
#
# PCOD9442896 Si02
#       6
#     8   8   8   8   8   8
#     4   9  17  30  50  75  99 123 156 202 251 293
#     4   9  19  34  50  72 102 133 166 207 253 297
#     4   9  17  32  53  73  95 127 168 209 246 290
#     4   9  18  32  50  72  97 128 167 207 246 291
#     4  10  20  34  54  78 101 128 165 207 249 295
#     4  10  20  34  51  72 102 136 166 201 249 302
#
# _framework density 20.774747999999999
#
# number of rings (size 3 to 8) (size 9 to 14) (size 15 to 20)
#    0.000    2.667    0.000    1.500    0.000    5.667 
#    0.000    2.500    0.000    2.000    0.000    0.000 
#    0.000    0.000    0.000    0.000    0.000    0.000 
#
# Total GULP energy -267904.049400 kJ/mol
# GULP energy per Si atom -5581.334363 kJ/mol
# Density = 2.072746 g / cm^3
# Si number density = 20.774748 Si / 1000 Ang^3
#
#
#
# Elastic Constant Matrix: (Units=GPa)
#
#
# Indices 1 2 3 4 5 6 
#
# 1 134.6408 123.2368 -7.3155 0.0000 0.0000 0.0000
# 2 123.2368 183.6639 -6.0418 0.0000 0.0000 0.0000
# 3 -7.3155 -6.0418 51.9962 0.0000 0.0000 0.0000
# 4 0.0000 0.0000 0.0000 -48.3671 0.0000 0.0000
# 5 0.0000 0.0000 0.0000 0.0000 1.7158 0.0000
# 6 0.0000 0.0000 0.0000 0.0000 0.0000 55.7426
#
#
#
# Elastic Compliance Matrix: (Units=1/GPa)
#
#
# Indices 1 2 3 4 5 6 
#
# 1 0.019326 -0.012927 0.001217 0.000000 0.000000 0.000000
# 2 -0.012927 0.014113 -0.000179 0.000000 0.000000 0.000000
# 3 0.001217 -0.000179 0.019383 0.000000 0.000000 0.000000
# 4 0.000000 0.000000 0.000000 -0.020675 0.000000 0.000000
# 5 0.000000 0.000000 0.000000 0.000000 0.582820 0.000000
# 6 0.000000 0.000000 0.000000 0.000000 0.000000 0.017940
#
#
# Mechanical properties :
#
#
# Convention : Reuss Voigt Hill
#
# Bulk Modulus (GPa) = 34.43231 65.56223 49.99727
# Shear Modulus (GPa) = 7.50339 19.17971 13.34155
#
# Velocity S-wave (km/s) = 1.90253 3.04175 2.53692
# Velocity P-wave (km/s) = 4.62993 6.63050 5.71838
#
# Compressibility (1/GPa) = 0.02904249
#
# Stress axis : x y z
#
# Youngs Moduli (GPa) = 51.74476 70.85703 51.59273
#
# Poissons Ratio (x) = 0.91599 -0.06278
# Poissons Ratio (y) = 0.66892 0.00923
# Poissons Ratio (z) = -0.06297 0.01268
#
# Static dielectric constant tensor:
#      x y z
#    x 1.691450 0.000000 0.000000 
#    y 0.000000 1.749280 0.000000 
#    z 0.000000 0.000000 1.771330 
# 
# From -- ./inp_files/2888.got.cif
#   From: 2010.05.17/outbox.cif.g08.bks.cpg/sg58_2_cif.got.tgz:2888.got - 2010.06.03 14:20:14.
