data_PCOD9442025
_publ_section_title
;
Structure prediction by ZEFSAII (Michael W. Deem and Ramdas Pophale) SiO2 
 PCOD9442025
Probable space group: P N N M
;
_chemical_formula_sum "Si O2"
_cell_formula_units_Z 48
_cell_length_a 22.415288
_cell_length_b 12.666091
_cell_length_c 7.578506
_cell_angle_alpha 90.000000
_cell_angle_beta 90.000000
_cell_angle_gamma 90.000000
_cell_volume 2151.644541
_symmetry_space_group_name_H-M "P N N M"
_symmetry_group_IT_number 58
_symmetry_cell_setting 'orthorhombic'
loop_
_space_group_symop_operation_xyz
x,y,z
-x,-y,z
1/2+x,1/2-y,1/2-z
1/2-x,1/2+y,1/2-z
-x,-y,-z
x,y,-z
1/2-x,1/2+y,1/2+z
1/2+x,1/2-y,1/2+z
loop_
_atom_site_type_symbol
_atom_site_label
_atom_site_fract_x
_atom_site_fract_y
_atom_site_fract_z
Si Si1 0.934397 0.528761 0.708202
Si Si2 0.112539 0.251996 0.702751
Si Si3 0.172520 0.623693 0.786320
Si Si4 0.301664 0.570845 0.788656
Si Si5 0.136690 0.848722 0.788191
Si Si6 0.996380 0.123978 0.213062
O O1 0.943629 0.550781 0.500000
O O2 0.903322 0.634474 0.784329
O O3 0.887302 0.434664 0.726985
O O4 0.000000 0.500000 0.781203
O O5 0.131451 0.271708 0.500000
O O6 0.161419 0.171917 0.781910
O O7 0.050809 0.187243 0.705746
O O8 0.233628 0.569656 0.724145
O O9 0.172417 0.745853 0.728736
O O10 0.171634 0.620890 0.000000
O O11 0.335366 0.461373 0.755994
O O12 0.299720 0.583160 0.000000
O O13 0.068522 0.838880 0.726061
O O14 0.134224 0.845409 0.000000
O O15 0.000832 0.135496 0.000000
O O16 0.000000 0.000000 0.253273
#
# Coordination Sequence:
#
# PCOD9442025 Si02
#       6
#     8   8   8   8   8   8
#     4  10  22  40  62  89 118 151 195 240 288 349
#     4  10  21  36  57  84 117 155 189 233 290 341
#     4  10  23  40  59  84 114 152 195 236 284 345
#     4  10  22  38  55  82 115 148 192 236 281 342
#     4  10  21  38  60  83 113 150 188 234 288 338
#     4  10  19  33  54  85 116 144 188 237 280 337
#
# _framework density 22.308517999999999
#
# number of rings (size 3 to 8) (size 9 to 14) (size 15 to 20)
#    0.000    2.000    1.667    1.000    2.333    3.333 
#    0.000    0.000    0.000    0.000    0.000    0.000 
#    0.000    0.000    0.000    0.000    0.000    0.000 
#
# Total GULP energy -268138.416010 kJ/mol
# GULP energy per Si atom -5586.217000 kJ/mol
# Density = 2.225774 g / cm^3
# Si number density = 22.308518 Si / 1000 Ang^3
#
#
#
# Elastic Constant Matrix: (Units=GPa)
#
#
# Indices 1 2 3 4 5 6 
#
# 1 136.5130 37.2189 -5.6096 0.0000 0.0000 0.0000
# 2 37.2189 117.1463 -2.4315 0.0000 0.0000 0.0000
# 3 -5.6096 -2.4315 44.2060 0.0000 0.0000 0.0000
# 4 0.0000 0.0000 0.0000 8.9947 0.0000 0.0000
# 5 0.0000 0.0000 0.0000 0.0000 61.7746 0.0000
# 6 0.0000 0.0000 0.0000 0.0000 0.0000 21.8069
#
#
#
# Elastic Compliance Matrix: (Units=1/GPa)
#
#
# Indices 1 2 3 4 5 6 
#
# 1 0.008054 -0.002541 0.000882 0.000000 0.000000 0.000000
# 2 -0.002541 0.009347 0.000192 0.000000 0.000000 0.000000
# 3 0.000882 0.000192 0.022744 0.000000 0.000000 0.000000
# 4 0.000000 0.000000 0.000000 0.111176 0.000000 0.000000
# 5 0.000000 0.000000 0.000000 0.000000 0.016188 0.000000
# 6 0.000000 0.000000 0.000000 0.000000 0.000000 0.045857
#
#
# Mechanical properties :
#
#
# Convention : Reuss Voigt Hill
#
# Bulk Modulus (GPa) = 26.87268 39.58010 33.22639
# Shear Modulus (GPa) = 21.86232 36.42776 29.14504
#
# Velocity S-wave (km/s) = 3.13389 4.04531 3.61841
# Velocity P-wave (km/s) = 5.01668 6.29286 5.69066
#
# Compressibility (1/GPa) = 0.03721251
#
# Stress axis : x y z
#
# Youngs Moduli (GPa) = 124.15822 106.98048 43.96786
#
# Poissons Ratio (x) = 0.27180 -0.03879
# Poissons Ratio (y) = 0.31544 -0.00843
# Poissons Ratio (z) = -0.10955 -0.02051
#
# Static dielectric constant tensor:
#      x y z
#    x 1.803240 0.000000 0.000000 
#    y 0.000000 1.803830 0.000000 
#    z 0.000000 0.000000 1.857620 
# 
# From -- ./inp_files/4210.got.cif
#   From: 2010.05.17/outbox.cif.g08.bks.cpg/sg58_3_cif.got.tgz:4210.got - 2010.06.03 14:20:14.
