data_PCOD9442049
_publ_section_title
;
Structure prediction by ZEFSAII (Michael W. Deem and Ramdas Pophale) SiO2 
 PCOD9442049
Probable space group: P N N M
;
_chemical_formula_sum "Si O2"
_cell_formula_units_Z 64
_cell_length_a 33.536145
_cell_length_b 9.218860
_cell_length_c 11.090605
_cell_angle_alpha 90.000000
_cell_angle_beta 90.000000
_cell_angle_gamma 90.000000
_cell_volume 3428.827180
_symmetry_space_group_name_H-M "P N N M"
_symmetry_group_IT_number 58
_symmetry_cell_setting 'orthorhombic'
loop_
_space_group_symop_operation_xyz
x,y,z
-x,-y,z
1/2+x,1/2-y,1/2-z
1/2-x,1/2+y,1/2-z
-x,-y,-z
x,y,-z
1/2-x,1/2+y,1/2+z
1/2+x,1/2-y,1/2+z
loop_
_atom_site_type_symbol
_atom_site_label
_atom_site_fract_x
_atom_site_fract_y
_atom_site_fract_z
Si Si1 0.792112 0.133192 0.361683
Si Si2 0.158134 0.601601 0.283016
Si Si3 0.015827 0.858940 0.860283
Si Si4 0.797589 0.646188 0.856811
Si Si5 0.400701 0.862463 0.863841
Si Si6 0.540314 0.093866 0.362203
Si Si7 0.396385 0.329592 0.357059
Si Si8 0.647339 0.398383 0.251105
O O1 0.787262 0.091435 0.500000
O O2 0.812875 0.289869 0.352985
O O3 0.747763 0.149090 0.307260
O O4 0.821193 0.011218 0.307045
O O5 0.182352 0.498801 0.193076
O O6 0.132447 0.489304 0.361135
O O7 0.129950 0.710362 0.209237
O O8 0.058084 0.804652 0.813660
O O9 0.978940 0.752298 0.864385
O O10 0.026138 0.894677 0.000000
O O11 0.000000 0.000000 0.794303
O O12 0.825136 0.782984 0.821694
O O13 0.796065 0.643403 0.000000
O O14 0.429444 0.905291 0.750244
O O15 0.379633 0.707519 0.832945
O O16 0.418252 0.856905 0.000000
O O17 0.555898 0.059737 0.500000
O O18 0.500000 0.000000 0.344245
O O19 0.392782 0.308048 0.500000
O O20 0.381728 0.492900 0.325057
#
# Coordination Sequence:
#
# PCOD9442049 Si02
#       8
#     8   8   8   8   8   8   8   8
#     4  10  20  36  55  74 103 143 185 229 276 328
#     4  10  21  35  53  78 108 142 183 226 274 335
#     4   9  17  30  50  76 104 135 173 216 267 323
#     4  10  20  34  54  80 108 139 178 229 284 332
#     4  11  23  38  57  82 114 152 190 229 277 333
#     4  10  21  37  58  83 110 143 185 231 278 329
#     4  10  19  33  55  82 111 142 179 230 285 333
#     4  10  21  35  54  80 110 144 186 229 275 334
#
# _framework density 18.665275000000001
#
# number of rings (size 3 to 8) (size 9 to 14) (size 15 to 20)
#    0.000    2.000    0.000    3.750    0.000    5.250 
#    0.000    0.000    0.000   16.125    0.000    0.000 
#    0.000    0.000    0.000    0.000    0.000    0.000 
#
# Total GULP energy -356355.749328 kJ/mol
# GULP energy per Si atom -5568.058583 kJ/mol
# Density = 1.862279 g / cm^3
# Si number density = 18.665275 Si / 1000 Ang^3
#
#
#
# Elastic Constant Matrix: (Units=GPa)
#
#
# Indices 1 2 3 4 5 6 
#
# 1 81.2505 12.3112 33.2702 0.0000 0.0000 0.0000
# 2 12.3112 87.1513 15.7187 0.0000 0.0000 0.0000
# 3 33.2702 15.7187 78.6411 0.0000 0.0000 0.0000
# 4 0.0000 0.0000 0.0000 7.9587 0.0000 0.0000
# 5 0.0000 0.0000 0.0000 0.0000 35.7990 0.0000
# 6 0.0000 0.0000 0.0000 0.0000 0.0000 -847.4049
#
#
#
# Elastic Compliance Matrix: (Units=1/GPa)
#
#
# Indices 1 2 3 4 5 6 
#
# 1 0.014972 -0.001009 -0.006132 0.000000 0.000000 0.000000
# 2 -0.001009 0.011971 -0.001966 0.000000 0.000000 0.000000
# 3 -0.006132 -0.001966 0.015703 0.000000 0.000000 0.000000
# 4 0.000000 0.000000 0.000000 0.125648 0.000000 0.000000
# 5 0.000000 0.000000 0.000000 0.000000 0.027934 0.000000
# 6 0.000000 0.000000 0.000000 0.000000 0.000000 -0.001180
#
#
# Mechanical properties :
#
#
# Convention : Reuss Voigt Hill
#
# Bulk Modulus (GPa) = 40.93007 41.07146 41.00076
# Shear Modulus (GPa) = 22.58289 -148.34658 -62.88184
#
# Velocity S-wave (km/s) = 3.48212 -8.92468 -5.81054
# Velocity P-wave (km/s) = 6.17600 9.17321 4.79609
#
# Compressibility (1/GPa) = 0.02443191
#
# Stress axis : x y z
#
# Youngs Moduli (GPa) = 66.79356 83.53243 63.68095
#
# Poissons Ratio (x) = 0.08427 0.39051
# Poissons Ratio (y) = 0.06739 0.12520
# Poissons Ratio (z) = 0.40959 0.16422
#
# Static dielectric constant tensor:
#      x y z
#    x 3.217500 0.000000 0.000000 
#    y 0.000000 1.755040 0.000000 
#    z 0.000000 0.000000 1.644310 
# 
# From -- ./inp_files/13444.got.cif
#   From: 2010.05.17/outbox.cif.g08.bks.cpg/sg58_7_cif.got.tgz:13444.got - 2010.06.03 14:20:14.
