data_PCOD9442351
_publ_section_title
;
Structure prediction by ZEFSAII (Michael W. Deem and Ramdas Pophale) SiO2 
 PCOD9442351
Probable space group: P N N M
;
_chemical_formula_sum "Si O2"
_cell_formula_units_Z 56
_cell_length_a 21.201139
_cell_length_b 14.480085
_cell_length_c 9.150959
_cell_angle_alpha 90.000000
_cell_angle_beta 90.000000
_cell_angle_gamma 90.000000
_cell_volume 2809.292205
_symmetry_space_group_name_H-M "P N N M"
_symmetry_group_IT_number 58
_symmetry_cell_setting 'orthorhombic'
loop_
_space_group_symop_operation_xyz
x,y,z
-x,-y,z
1/2+x,1/2-y,1/2-z
1/2-x,1/2+y,1/2-z
-x,-y,-z
x,y,-z
1/2-x,1/2+y,1/2+z
1/2+x,1/2-y,1/2+z
loop_
_atom_site_type_symbol
_atom_site_label
_atom_site_fract_x
_atom_site_fract_y
_atom_site_fract_z
Si Si1 0.650607 0.169407 0.171270
Si Si2 0.366514 0.438442 0.168295
Si Si3 0.256199 0.204621 0.171656
Si Si4 0.612152 0.744088 0.324812
Si Si5 0.058076 0.071102 0.161297
Si Si6 0.252167 0.983767 0.833981
Si Si7 0.975649 0.713811 0.829481
O O1 0.698015 0.240875 0.253529
O O2 0.681437 0.067590 0.184288
O O3 0.580749 0.170710 0.237321
O O4 0.649249 0.194089 0.000000
O O5 0.397352 0.360215 0.268611
O O6 0.395323 0.536559 0.214086
O O7 0.293994 0.441334 0.214171
O O8 0.376560 0.418031 0.000000
O O9 0.322535 0.226110 0.250802
O O10 0.250231 0.093670 0.179533
O O11 0.259065 0.230143 0.000000
O O12 0.617413 0.745676 0.500000
O O13 0.548581 0.799936 0.283658
O O14 0.036708 0.175785 0.178191
O O15 0.088669 0.063168 0.000000
O O16 0.000000 0.000000 0.164205
O O17 0.230557 0.959515 0.000000
O O18 0.969835 0.687105 0.000000
#
# Coordination Sequence:
#
# PCOD9442351 Si02
#       7
#     8   8   8   8   8   8   8
#     4  11  23  40  63  90 123 163 201 249 309 366
#     4  12  23  34  56  89 120 153 198 252 301 355
#     4  11  23  41  65  93 121 159 208 255 303 361
#     4  11  22  40  62  86 120 162 201 245 308 366
#     4  10  19  35  55  78 114 160 196 231 295 370
#     4  10  23  42  62  85 121 163 200 245 308 371
#     4  10  22  39  60  85 119 162 204 250 306 365
#
# _framework density 19.933847
#
# number of rings (size 3 to 8) (size 9 to 14) (size 15 to 20)
#    0.000    1.286    2.857    3.429    0.000    7.143 
#    0.000    0.714    0.000    4.286    0.000    0.000 
#    0.000    0.000    0.000    0.000    0.000    0.000 
#
# Total GULP energy -312725.237111 kJ/mol
# GULP energy per Si atom -5584.379234 kJ/mol
# Density = 1.988848 g / cm^3
# Si number density = 19.933847 Si / 1000 Ang^3
#
#
#
# Elastic Constant Matrix: (Units=GPa)
#
#
# Indices 1 2 3 4 5 6 
#
# 1 107.8175 -5.0249 51.3865 0.0000 0.0000 0.0000
# 2 -5.0249 25.5066 8.4357 0.0000 0.0000 0.0000
# 3 51.3865 8.4357 83.2574 0.0000 0.0000 0.0000
# 4 0.0000 0.0000 0.0000 63.0211 0.0000 0.0000
# 5 0.0000 0.0000 0.0000 0.0000 150.3521 0.0000
# 6 0.0000 0.0000 0.0000 0.0000 0.0000 28.3853
#
#
#
# Elastic Compliance Matrix: (Units=1/GPa)
#
#
# Indices 1 2 3 4 5 6 
#
# 1 0.013917 0.005776 -0.009175 0.000000 0.000000 0.000000
# 2 0.005776 0.042962 -0.007918 0.000000 0.000000 0.000000
# 3 -0.009175 -0.007918 0.018476 0.000000 0.000000 0.000000
# 4 0.000000 0.000000 0.000000 0.015868 0.000000 0.000000
# 5 0.000000 0.000000 0.000000 0.000000 0.006651 0.000000
# 6 0.000000 0.000000 0.000000 0.000000 0.000000 0.035230
#
#
# Mechanical properties :
#
#
# Convention : Reuss Voigt Hill
#
# Bulk Modulus (GPa) = 18.96760 36.24180 27.60470
# Shear Modulus (GPa) = 28.85005 59.13732 43.99368
#
# Velocity S-wave (km/s) = 3.80845 5.45263 4.70295
# Velocity P-wave (km/s) = 5.37355 7.60671 6.58548
#
# Compressibility (1/GPa) = 0.05272149
#
# Stress axis : x y z
#
# Youngs Moduli (GPa) = 71.85539 23.27637 54.12485
#
# Poissons Ratio (x) = -0.13444 0.49658
# Poissons Ratio (y) = -0.41503 0.42855
# Poissons Ratio (z) = 0.65925 0.18430
#
# Static dielectric constant tensor:
#      x y z
#    x 1.741040 0.000000 0.000000 
#    y 0.000000 1.723320 0.000000 
#    z 0.000000 0.000000 1.683010 
# 
# From -- ./inp_files/6419.got.cif
#   From: 2010.05.17/outbox.cif.g08.bks.cpg/sg58_4_cif.got.tgz:6419.got - 2010.06.03 14:20:14.
