data_PCOD9442314
_publ_section_title
;
Structure prediction by ZEFSAII (Michael W. Deem and Ramdas Pophale) SiO2 
 PCOD9442314
Probable space group: P N N M
;
_chemical_formula_sum "Si O2"
_cell_formula_units_Z 64
_cell_length_a 8.203230
_cell_length_b 18.691501
_cell_length_c 21.361596
_cell_angle_alpha 90.000000
_cell_angle_beta 90.000000
_cell_angle_gamma 90.000000
_cell_volume 3275.388078
_symmetry_space_group_name_H-M "P N N M"
_symmetry_group_IT_number 58
_symmetry_cell_setting 'orthorhombic'
loop_
_space_group_symop_operation_xyz
x,y,z
-x,-y,z
1/2+x,1/2-y,1/2-z
1/2-x,1/2+y,1/2-z
-x,-y,-z
x,y,-z
1/2-x,1/2+y,1/2+z
1/2+x,1/2-y,1/2+z
loop_
_atom_site_type_symbol
_atom_site_label
_atom_site_fract_x
_atom_site_fract_y
_atom_site_fract_z
Si Si1 0.816762 0.026339 0.926989
Si Si2 0.636254 0.437211 0.210729
Si Si3 0.325450 0.847293 0.141368
Si Si4 0.661228 0.922200 0.832171
Si Si5 0.774408 0.769401 0.158655
Si Si6 0.871528 0.934677 0.430483
Si Si7 0.480031 0.276330 0.928959
Si Si8 0.440632 0.299192 0.261971
O O1 0.779111 0.107955 0.908953
O O2 0.697183 0.980920 0.883782
O O3 0.788428 0.014027 0.000000
O O4 0.000000 0.000000 0.911869
O O5 0.500000 0.500000 0.216546
O O6 0.772705 0.445667 0.264355
O O7 0.705501 0.438893 0.139545
O O8 0.545699 0.361434 0.227395
O O9 0.477846 0.894111 0.165331
O O10 0.401582 0.775807 0.110664
O O11 0.205167 0.832649 0.198396
O O12 0.769294 0.853769 0.853077
O O13 0.702102 0.729082 0.099314
O O14 0.641491 0.752097 0.211912
O O15 0.947134 0.754942 0.189885
O O16 0.787060 0.937559 0.500000
O O17 0.960618 0.857803 0.428203
O O18 0.000000 0.000000 0.431159
O O19 0.480396 0.250044 0.000000
#
# Coordination Sequence:
#
# PCOD9442314 Si02
#       8
#     8   8   8   8   8   8   8   8
#     4  11  23  40  59  83 121 166 207 249 297 354
#     4  10  19  34  59  88 120 151 193 246 296 357
#     4  11  23  37  57  87 117 161 203 251 297 356
#     4  10  21  34  55  82 118 155 198 242 293 347
#     4  10  20  35  55  82 111 156 190 243 296 348
#     4   9  18  34  58  87 117 151 190 235 299 370
#     4  10  20  37  58  87 119 152 199 242 293 367
#     4  11  21  36  57  83 119 152 199 245 301 353
#
# _framework density 19.539670000000001
#
# number of rings (size 3 to 8) (size 9 to 14) (size 15 to 20)
#    0.000    1.750    1.250    4.875    1.750    3.000 
#    0.000    1.250    0.000    0.000    0.000    1.750 
#    0.000   10.000    0.000    0.000    0.000    0.000 
#
# Total GULP energy -356843.866109 kJ/mol
# GULP energy per Si atom -5575.685408 kJ/mol
# Density = 1.949520 g / cm^3
# Si number density = 19.539670 Si / 1000 Ang^3
#
#
#
# Elastic Constant Matrix: (Units=GPa)
#
#
# Indices 1 2 3 4 5 6 
#
# 1 69.1239 18.3877 40.6971 0.0000 0.0000 0.0000
# 2 18.3877 83.9031 22.4378 0.0000 0.0000 0.0000
# 3 40.6971 22.4378 104.3626 0.0000 0.0000 0.0000
# 4 0.0000 0.0000 0.0000 20.8848 0.0000 0.0000
# 5 0.0000 0.0000 0.0000 0.0000 -19.3588 0.0000
# 6 0.0000 0.0000 0.0000 0.0000 0.0000 16.6987
#
#
#
# Elastic Compliance Matrix: (Units=1/GPa)
#
#
# Indices 1 2 3 4 5 6 
#
# 1 0.019202 -0.002340 -0.006985 0.000000 0.000000 0.000000
# 2 -0.002340 0.012931 -0.001868 0.000000 0.000000 0.000000
# 3 -0.006985 -0.001868 0.012707 0.000000 0.000000 0.000000
# 4 0.000000 0.000000 0.000000 0.047882 0.000000 0.000000
# 5 0.000000 0.000000 0.000000 0.000000 -0.051656 0.000000
# 6 0.000000 0.000000 0.000000 0.000000 0.000000 0.059885
#
#
# Mechanical properties :
#
#
# Convention : Reuss Voigt Hill
#
# Bulk Modulus (GPa) = 44.53397 46.71499 45.62448
# Shear Modulus (GPa) = 38.22055 15.36942 26.79499
#
# Velocity S-wave (km/s) = 4.42752 2.80764 3.70714
# Velocity P-wave (km/s) = 6.99845 5.87112 6.45943
#
# Compressibility (1/GPa) = 0.02245477
#
# Stress axis : x y z
#
# Youngs Moduli (GPa) = 52.07907 77.33478 78.69542
#
# Poissons Ratio (x) = 0.18098 0.54966
# Poissons Ratio (y) = 0.12188 0.14696
# Poissons Ratio (z) = 0.36376 0.14442
#
# Static dielectric constant tensor:
#      x y z
#    x 1.722680 0.000000 0.000000 
#    y 0.000000 1.712810 0.000000 
#    z 0.000000 0.000000 1.718640 
# 
# From -- ./inp_files/29129.got.cif
#   From: 2010.05.17/outbox.cif.g08.bks.cpg/sg58_15_cif.got.tgz:29129.got - 2010.06.03 14:20:14.
