data_PCOD9442066
_publ_section_title
;
Structure prediction by ZEFSAII (Michael W. Deem and Ramdas Pophale) SiO2 
 PCOD9442066
Probable space group: P N N M
;
_chemical_formula_sum "Si O2"
_cell_formula_units_Z 64
_cell_length_a 11.620635
_cell_length_b 20.862502
_cell_length_c 14.404410
_cell_angle_alpha 90.000000
_cell_angle_beta 90.000000
_cell_angle_gamma 90.000000
_cell_volume 3492.140642
_symmetry_space_group_name_H-M "P N N M"
_symmetry_group_IT_number 58
_symmetry_cell_setting 'orthorhombic'
loop_
_space_group_symop_operation_xyz
x,y,z
-x,-y,z
1/2+x,1/2-y,1/2-z
1/2-x,1/2+y,1/2-z
-x,-y,-z
x,y,-z
1/2-x,1/2+y,1/2+z
1/2+x,1/2-y,1/2+z
loop_
_atom_site_type_symbol
_atom_site_label
_atom_site_fract_x
_atom_site_fract_y
_atom_site_fract_z
Si Si1 0.560628 0.433248 0.608192
Si Si2 0.564868 0.818060 0.397479
Si Si3 0.804873 0.612272 0.700983
Si Si4 0.885708 0.235702 0.394620
Si Si5 0.306925 0.868998 0.401556
Si Si6 0.821652 0.476986 0.393744
Si Si7 0.568995 0.862978 0.200905
Si Si8 0.566558 0.683075 0.696608
O O1 0.500000 0.500000 0.635513
O O2 0.529295 0.421061 0.500000
O O3 0.696386 0.444390 0.613423
O O4 0.515916 0.374903 0.669271
O O5 0.619517 0.823916 0.500000
O O6 0.440219 0.851029 0.403673
O O7 0.617354 0.849232 0.304192
O O8 0.548045 0.744096 0.369200
O O9 0.785190 0.591714 0.808436
O O10 0.808205 0.550210 0.637025
O O11 0.697620 0.658417 0.680519
O O12 0.930114 0.645684 0.697934
O O13 0.933052 0.228657 0.500000
O O14 0.765417 0.197008 0.394567
O O15 0.877351 0.310568 0.368808
O O16 0.948380 0.204992 0.304212
O O17 0.274597 0.899886 0.500000
O O18 0.860578 0.473857 0.500000
O O19 0.904921 0.434748 0.330571
#
# Coordination Sequence:
#
# PCOD9442066 Si02
#       8
#     8   8   8   8   8   8   8   8
#     4  10  20  35  54  77 101 129 171 216 256 297
#     4   9  18  33  54  80 104 131 171 219 264 300
#     4  10  20  35  52  75 105 139 170 206 254 307
#     4   9  18  33  52  77 104 136 173 208 253 307
#     4   8  16  32  55  77 100 130 173 218 252 295
#     4  11  23  36  53  75 104 139 173 209 250 306
#     4  10  21  35  52  76 108 139 171 209 254 309
#     4  10  19  33  56  78 103 134 169 215 261 303
#
# _framework density 18.326868000000001
#
# number of rings (size 3 to 8) (size 9 to 14) (size 15 to 20)
#    0.000    2.375    1.250    1.125    1.750    2.000 
#    2.250    0.625    0.000    4.125    0.000    0.000 
#    0.000    0.000    0.000    0.000    0.000    0.000 
#
# Total GULP energy -356449.487836 kJ/mol
# GULP energy per Si atom -5569.523247 kJ/mol
# Density = 1.828516 g / cm^3
# Si number density = 18.326868 Si / 1000 Ang^3
#
#
#
# Elastic Constant Matrix: (Units=GPa)
#
#
# Indices 1 2 3 4 5 6 
#
# 1 22.2416 -9.7079 -0.4706 0.0000 0.0000 0.0000
# 2 -9.7079 50.9004 27.0955 0.0000 0.0000 0.0000
# 3 -0.4706 27.0955 101.0316 0.0000 0.0000 0.0000
# 4 0.0000 0.0000 0.0000 24.3652 0.0000 0.0000
# 5 0.0000 0.0000 0.0000 0.0000 10.6992 0.0000
# 6 0.0000 0.0000 0.0000 0.0000 0.0000 17.6485
#
#
#
# Elastic Compliance Matrix: (Units=1/GPa)
#
#
# Indices 1 2 3 4 5 6 
#
# 1 0.049664 0.010906 -0.002694 0.000000 0.000000 0.000000
# 2 0.010906 0.025313 -0.006738 0.000000 0.000000 0.000000
# 3 -0.002694 -0.006738 0.011692 0.000000 0.000000 0.000000
# 4 0.000000 0.000000 0.000000 0.041042 0.000000 0.000000
# 5 0.000000 0.000000 0.000000 0.000000 0.093465 0.000000
# 6 0.000000 0.000000 0.000000 0.000000 0.000000 0.056662
#
#
# Mechanical properties :
#
#
# Convention : Reuss Voigt Hill
#
# Bulk Modulus (GPa) = 11.15843 23.11195 17.13519
# Shear Modulus (GPa) = 16.40628 21.02638 18.71633
#
# Velocity S-wave (km/s) = 2.99524 3.39085 3.19917
# Velocity P-wave (km/s) = 4.25015 5.28856 4.79753
#
# Compressibility (1/GPa) = 0.08961835
#
# Stress axis : x y z
#
# Youngs Moduli (GPa) = 20.13533 39.50549 85.52596
#
# Poissons Ratio (x) = -0.43084 0.23037
# Poissons Ratio (y) = -0.21959 0.57626
# Poissons Ratio (z) = 0.05423 0.26618
#
# Static dielectric constant tensor:
#      x y z
#    x 1.644970 0.000000 0.000000 
#    y 0.000000 1.599780 0.000000 
#    z 0.000000 0.000000 1.691450 
# 
# From -- ./inp_files/21482.got.cif
#   From: 2010.05.17/outbox.cif.g08.bks.cpg/sg58_11_cif.got.tgz:21482.got - 2010.06.03 14:20:14.
