data_PCOD9442613
_publ_section_title
;
Structure prediction by ZEFSAII (Michael W. Deem and Ramdas Pophale) SiO2 
 PCOD9442613
Probable space group: P N N M
;
_chemical_formula_sum "Si O2"
_cell_formula_units_Z 64
_cell_length_a 25.537574
_cell_length_b 14.923703
_cell_length_c 7.600184
_cell_angle_alpha 90.000000
_cell_angle_beta 90.000000
_cell_angle_gamma 90.000000
_cell_volume 2896.545415
_symmetry_space_group_name_H-M "P N N M"
_symmetry_group_IT_number 58
_symmetry_cell_setting 'orthorhombic'
loop_
_space_group_symop_operation_xyz
x,y,z
-x,-y,z
1/2+x,1/2-y,1/2-z
1/2-x,1/2+y,1/2-z
-x,-y,-z
x,y,-z
1/2-x,1/2+y,1/2+z
1/2+x,1/2-y,1/2+z
loop_
_atom_site_type_symbol
_atom_site_label
_atom_site_fract_x
_atom_site_fract_y
_atom_site_fract_z
Si Si1 0.931615 0.248391 0.283348
Si Si2 0.744277 0.036724 0.715838
Si Si3 0.449021 0.049954 0.210529
Si Si4 0.987625 0.901491 0.293820
Si Si5 0.819068 0.184280 0.294133
Si Si6 0.235190 0.164335 0.289124
Si Si7 0.132387 0.397117 0.788733
Si Si8 0.613965 0.298188 0.707452
O O1 0.931753 0.250847 0.500000
O O2 0.942349 0.349462 0.222414
O O3 0.874254 0.217261 0.221978
O O4 0.975361 0.177815 0.223208
O O5 0.744165 0.037487 0.500000
O O6 0.746367 0.933871 0.770992
O O7 0.794071 0.093314 0.778726
O O8 0.691554 0.086811 0.774139
O O9 0.500000 0.000000 0.282697
O O10 0.400565 0.984809 0.245363
O O11 0.454924 0.057059 0.000000
O O12 0.001107 0.907023 0.500000
O O13 0.927694 0.868599 0.281531
O O14 0.000000 0.000000 0.218333
O O15 0.828656 0.167448 0.500000
O O16 0.774371 0.259956 0.279869
O O17 0.237950 0.167360 0.500000
O O18 0.174808 0.178553 0.237316
O O19 0.107762 0.303877 0.721761
O O20 0.134721 0.388750 0.000000
O O21 0.603982 0.297099 0.500000
#
# Coordination Sequence:
#
# PCOD9442613 Si02
#       8
#     8   8   8   8   8   8   8   8
#     4   9  19  35  58  86 115 153 194 236 291 349
#     4   9  19  35  56  80 111 150 187 234 289 343
#     4  10  20  34  54  82 116 147 181 233 286 330
#     4  10  22  40  64  90 116 154 204 248 288 344
#     4  10  19  37  60  81 116 156 190 231 289 353
#     4  11  22  36  59  89 117 151 199 248 291 345
#     4  10  20  37  58  82 112 150 191 230 284 349
#     4  11  23  40  61  84 118 159 195 241 300 353
#
# _framework density 22.095286000000002
#
# number of rings (size 3 to 8) (size 9 to 14) (size 15 to 20)
#    0.000    2.000    1.250    2.250    1.750    2.500 
#    0.000    3.125    0.000    0.000    0.000    0.000 
#    0.000    0.000    0.000    0.000    0.000    0.000 
#
# Total GULP energy -357621.613025 kJ/mol
# GULP energy per Si atom -5587.837704 kJ/mol
# Density = 2.204500 g / cm^3
# Si number density = 22.095286 Si / 1000 Ang^3
#
#
#
# Elastic Constant Matrix: (Units=GPa)
#
#
# Indices 1 2 3 4 5 6 
#
# 1 45.1238 -104.5447 -7.4162 0.0000 0.0000 0.0000
# 2 -104.5447 -194.0016 10.4239 0.0000 0.0000 0.0000
# 3 -7.4162 10.4239 44.7995 0.0000 0.0000 0.0000
# 4 0.0000 0.0000 0.0000 15.1159 0.0000 0.0000
# 5 0.0000 0.0000 0.0000 0.0000 37.1398 0.0000
# 6 0.0000 0.0000 0.0000 0.0000 0.0000 35.9020
#
#
#
# Elastic Compliance Matrix: (Units=1/GPa)
#
#
# Indices 1 2 3 4 5 6 
#
# 1 0.010234 -0.005357 0.002941 0.000000 0.000000 0.000000
# 2 -0.005357 -0.002287 -0.000355 0.000000 0.000000 0.000000
# 3 0.002941 -0.000355 0.022891 0.000000 0.000000 0.000000
# 4 0.000000 0.000000 0.000000 0.066155 0.000000 0.000000
# 5 0.000000 0.000000 0.000000 0.000000 0.026925 0.000000
# 6 0.000000 0.000000 0.000000 0.000000 0.000000 0.027854
#
#
# Mechanical properties :
#
#
# Convention : Reuss Voigt Hill
#
# Bulk Modulus (GPa) = 39.53213 -34.12803 2.70205
# Shear Modulus (GPa) = 30.16669 17.46214 23.81442
#
# Velocity S-wave (km/s) = 3.69901 2.81430 3.28656
# Velocity P-wave (km/s) = 6.01448 2.21789 3.95316
#
# Compressibility (1/GPa) = 0.02529588
#
# Stress axis : x y z
#
# Youngs Moduli (GPa) = 97.71641 -437.26319 43.68535
#
# Poissons Ratio (x) = -2.34233 -0.12846
# Poissons Ratio (y) = 0.52345 0.01549
# Poissons Ratio (z) = -0.28734 -0.15508
#
# Static dielectric constant tensor:
#      x y z
#    x 1.790040 0.000000 0.000000 
#    y 0.000000 1.787380 0.000000 
#    z 0.000000 0.000000 1.826260 
# 
# From -- ./inp_files/10091.got.cif
#   From: 2010.05.17/outbox.cif.g08.bks.cpg/sg58_6_cif.got.tgz:10091.got - 2010.06.03 14:20:14.
