data_PCOD9442801
_publ_section_title
;
Structure prediction by ZEFSAII (Michael W. Deem and Ramdas Pophale) SiO2 
 PCOD9442801
Probable space group: P N N M
;
_chemical_formula_sum "Si O2"
_cell_formula_units_Z 56
_cell_length_a 14.648242
_cell_length_b 18.601299
_cell_length_c 9.803689
_cell_angle_alpha 90.000000
_cell_angle_beta 90.000000
_cell_angle_gamma 90.000000
_cell_volume 2671.273192
_symmetry_space_group_name_H-M "P N N M"
_symmetry_group_IT_number 58
_symmetry_cell_setting 'orthorhombic'
loop_
_space_group_symop_operation_xyz
x,y,z
-x,-y,z
1/2+x,1/2-y,1/2-z
1/2-x,1/2+y,1/2-z
-x,-y,-z
x,y,-z
1/2-x,1/2+y,1/2+z
1/2+x,1/2-y,1/2+z
loop_
_atom_site_type_symbol
_atom_site_label
_atom_site_fract_x
_atom_site_fract_y
_atom_site_fract_z
Si Si1 0.474543 0.919433 0.345939
Si Si2 0.286936 0.525420 0.344790
Si Si3 0.442062 0.792781 0.156349
Si Si4 0.579324 0.340225 0.655718
Si Si5 0.636929 0.634247 0.653608
Si Si6 0.183660 0.613302 0.848575
Si Si7 0.661574 0.761089 0.154684
O O1 0.433994 0.923718 0.500000
O O2 0.425116 0.866822 0.239549
O O3 0.574880 0.884694 0.361590
O O4 0.500000 0.000000 0.298687
O O5 0.250421 0.533907 0.500000
O O6 0.363327 0.587055 0.324403
O O7 0.329354 0.446876 0.333143
O O8 0.213372 0.541042 0.228425
O O9 0.404327 0.724655 0.239639
O O10 0.552273 0.778193 0.151046
O O11 0.409936 0.797133 0.000000
O O12 0.594178 0.314767 0.500000
O O13 0.472602 0.361605 0.665921
O O14 0.660022 0.660314 0.500000
O O15 0.675881 0.686524 0.768025
O O16 0.206617 0.677065 0.745174
O O17 0.223619 0.619223 0.000000
O O18 0.694324 0.761163 0.000000
#
# Coordination Sequence:
#
# PCOD9442801 Si02
#       7
#     8   8   8   8   8   8   8
#     4   9  18  34  55  75  95 125 167 211 253 300
#     4  10  20  33  50  74 105 137 166 203 251 299
#     4   9  17  29  48  75 101 124 156 201 248 291
#     4   9  17  31  51  73  99 134 172 205 240 290
#     4   9  17  31  52  76 100 130 171 210 243 287
#     4  10  20  34  52  73  98 130 167 207 253 303
#     4   9  17  31  51  72  95 125 162 202 245 295
#
# _framework density 20.963785999999999
#
# number of rings (size 3 to 8) (size 9 to 14) (size 15 to 20)
#    0.000    2.714    0.000    1.714    0.000    7.143 
#    0.000    1.429    0.000    9.429    0.000    0.000 
#    0.000    0.000    0.000    0.000    0.000    0.000 
#
# Total GULP energy -312527.729632 kJ/mol
# GULP energy per Si atom -5580.852315 kJ/mol
# Density = 2.091607 g / cm^3
# Si number density = 20.963786 Si / 1000 Ang^3
#
#
#
# Elastic Constant Matrix: (Units=GPa)
#
#
# Indices 1 2 3 4 5 6 
#
# 1 26.3007 -6.7915 6.6703 0.0000 0.0000 0.0000
# 2 -6.7915 97.7617 69.0655 0.0000 0.0000 0.0000
# 3 6.6703 69.0655 144.9300 0.0000 0.0000 0.0000
# 4 0.0000 0.0000 0.0000 29.0307 0.0000 0.0000
# 5 0.0000 0.0000 0.0000 0.0000 6.9103 0.0000
# 6 0.0000 0.0000 0.0000 0.0000 0.0000 19.6792
#
#
#
# Elastic Compliance Matrix: (Units=1/GPa)
#
#
# Indices 1 2 3 4 5 6 
#
# 1 0.040882 0.006285 -0.004877 0.000000 0.000000 0.000000
# 2 0.006285 0.016387 -0.008098 0.000000 0.000000 0.000000
# 3 -0.004877 -0.008098 0.010984 0.000000 0.000000 0.000000
# 4 0.000000 0.000000 0.000000 0.034446 0.000000 0.000000
# 5 0.000000 0.000000 0.000000 0.000000 0.144712 0.000000
# 6 0.000000 0.000000 0.000000 0.000000 0.000000 0.050815
#
#
# Mechanical properties :
#
#
# Convention : Reuss Voigt Hill
#
# Bulk Modulus (GPa) = 18.22408 45.20900 31.71654
# Shear Modulus (GPa) = 15.15630 24.46057 19.80843
#
# Velocity S-wave (km/s) = 2.69174 3.41955 3.07724
# Velocity P-wave (km/s) = 4.28633 6.09944 5.27142
#
# Compressibility (1/GPa) = 0.05487246
#
# Stress axis : x y z
#
# Youngs Moduli (GPa) = 24.46086 61.02479 91.04542
#
# Poissons Ratio (x) = -0.38356 0.44401
# Poissons Ratio (y) = -0.15375 0.73731
# Poissons Ratio (z) = 0.11929 0.49420
#
# Static dielectric constant tensor:
#      x y z
#    x 1.798220 0.000000 0.000000 
#    y 0.000000 1.729020 0.000000 
#    z 0.000000 0.000000 1.761290 
# 
# From -- ./inp_files/9040.got.cif
#   From: 2010.05.17/outbox.cif.g08.bks.cpg/sg58_5_cif.got.tgz:9040.got - 2010.06.03 14:20:14.
