data_PCOD9442133
_publ_section_title
;
Structure prediction by ZEFSAII (Michael W. Deem and Ramdas Pophale) SiO2 
 PCOD9442133
Probable space group: P N N M
;
_chemical_formula_sum "Si O2"
_cell_formula_units_Z 64
_cell_length_a 12.499118
_cell_length_b 10.820089
_cell_length_c 23.312145
_cell_angle_alpha 90.000000
_cell_angle_beta 90.000000
_cell_angle_gamma 90.000000
_cell_volume 3152.771071
_symmetry_space_group_name_H-M "P N N M"
_symmetry_group_IT_number 58
_symmetry_cell_setting 'orthorhombic'
loop_
_space_group_symop_operation_xyz
x,y,z
-x,-y,z
1/2+x,1/2-y,1/2-z
1/2-x,1/2+y,1/2-z
-x,-y,-z
x,y,-z
1/2-x,1/2+y,1/2+z
1/2+x,1/2-y,1/2+z
loop_
_atom_site_type_symbol
_atom_site_label
_atom_site_fract_x
_atom_site_fract_y
_atom_site_fract_z
Si Si1 0.415358 0.110621 0.566738
Si Si2 0.451066 0.637760 0.563812
Si Si3 0.669037 0.541119 0.232287
Si Si4 0.290784 0.656954 0.138368
Si Si5 0.864953 0.663694 0.269897
Si Si6 0.585742 0.783946 0.175062
Si Si7 0.676765 0.367020 0.675581
Si Si8 0.490392 0.649139 0.933842
O O1 0.379407 0.093796 0.500000
O O2 0.467498 0.247343 0.570314
O O3 0.319531 0.109825 0.612292
O O4 0.500000 0.000000 0.577993
O O5 0.500000 0.500000 0.568474
O O6 0.404870 0.648961 0.500000
O O7 0.364502 0.651329 0.612602
O O8 0.655084 0.445006 0.180335
O O9 0.797062 0.555419 0.241079
O O10 0.613777 0.667618 0.215619
O O11 0.633163 0.488643 0.293110
O O12 0.290495 0.776299 0.179750
O O13 0.369601 0.680324 0.085280
O O14 0.866945 0.761301 0.217962
O O15 0.980932 0.650349 0.298624
O O16 0.694350 0.861676 0.173789
O O17 0.560076 0.723893 0.112890
O O18 0.500000 0.500000 0.928246
O O19 0.513078 0.680740 0.000000
#
# Coordination Sequence:
#
# PCOD9442133 Si02
#       8
#     8   8   8   8   8   8   8   8
#     4  10  23  40  61  91 124 159 199 254 311 357
#     4  10  24  43  63  90 120 158 209 251 297 367
#     4  10  21  38  55  86 117 158 199 245 303 362
#     4  10  20  37  56  86 121 152 199 248 295 371
#     4   9  22  36  57  85 116 156 199 247 301 359
#     4  10  21  39  54  86 120 145 204 251 293 364
#     4  10  23  36  61  85 112 163 196 245 306 356
#     4  10  19  33  59  85 112 155 189 238 307 358
#
# _framework density 20.299600999999999
#
# number of rings (size 3 to 8) (size 9 to 14) (size 15 to 20)
#    0.000    2.125    1.250    0.375    7.000    3.000 
#    0.000    0.000    0.000    0.000    0.000    2.625 
#    0.000    0.000    0.000    0.000    0.000    0.000 
#
# Total GULP energy -356911.156957 kJ/mol
# GULP energy per Si atom -5576.736827 kJ/mol
# Density = 2.025340 g / cm^3
# Si number density = 20.299601 Si / 1000 Ang^3
#
#
#
# Elastic Constant Matrix: (Units=GPa)
#
#
# Indices 1 2 3 4 5 6 
#
# 1 67.9534 -0.1761 52.3828 0.0000 0.0000 0.0000
# 2 -0.1761 41.9667 14.1286 0.0000 0.0000 0.0000
# 3 52.3828 14.1286 121.3538 0.0000 0.0000 0.0000
# 4 0.0000 0.0000 0.0000 -5.7074 0.0000 0.0000
# 5 0.0000 0.0000 0.0000 0.0000 34.3245 0.0000
# 6 0.0000 0.0000 0.0000 0.0000 0.0000 12.7689
#
#
#
# Elastic Compliance Matrix: (Units=1/GPa)
#
#
# Indices 1 2 3 4 5 6 
#
# 1 0.022540 0.003508 -0.010138 0.000000 0.000000 0.000000
# 2 0.003508 0.025346 -0.004465 0.000000 0.000000 0.000000
# 3 -0.010138 -0.004465 0.013136 0.000000 0.000000 0.000000
# 4 0.000000 0.000000 0.000000 -0.175210 0.000000 0.000000
# 5 0.000000 0.000000 0.000000 0.000000 0.029134 0.000000
# 6 0.000000 0.000000 0.000000 0.000000 0.000000 0.078315
#
#
# Mechanical properties :
#
#
# Convention : Reuss Voigt Hill
#
# Bulk Modulus (GPa) = 25.75193 40.43826 33.09510
# Shear Modulus (GPa) = 176.08593 19.27312 97.67952
#
# Velocity S-wave (km/s) = 9.32373 3.08463 6.94431
# Velocity P-wave (km/s) = 11.34119 5.71407 8.97979
#
# Compressibility (1/GPa) = 0.03883205
#
# Stress axis : x y z
#
# Youngs Moduli (GPa) = 44.36573 39.45345 76.12544
#
# Poissons Ratio (x) = -0.13839 0.77174
# Poissons Ratio (y) = -0.15562 0.33990
# Poissons Ratio (z) = 0.44977 0.17616
#
# Static dielectric constant tensor:
#      x y z
#    x 1.744050 0.000000 0.000000 
#    y 0.000000 1.783510 0.000000 
#    z 0.000000 0.000000 1.685150 
# 
# From -- ./inp_files/32079.got.cif
#   From: 2010.05.17/outbox.cif.g08.bks.cpg/sg58_17_cif.got.tgz:32079.got - 2010.06.03 14:20:14.
