data_PCOD9442061
_publ_section_title
;
Structure prediction by ZEFSAII (Michael W. Deem and Ramdas Pophale) SiO2 
 PCOD9442061
Probable space group: P N N M
;
_chemical_formula_sum "Si O2"
_cell_formula_units_Z 56
_cell_length_a 24.654118
_cell_length_b 13.633562
_cell_length_c 8.715975
_cell_angle_alpha 90.000000
_cell_angle_beta 90.000000
_cell_angle_gamma 90.000000
_cell_volume 2929.643555
_symmetry_space_group_name_H-M "P N N M"
_symmetry_group_IT_number 58
_symmetry_cell_setting 'orthorhombic'
loop_
_space_group_symop_operation_xyz
x,y,z
-x,-y,z
1/2+x,1/2-y,1/2-z
1/2-x,1/2+y,1/2-z
-x,-y,-z
x,y,-z
1/2-x,1/2+y,1/2+z
1/2+x,1/2-y,1/2+z
loop_
_atom_site_type_symbol
_atom_site_label
_atom_site_fract_x
_atom_site_fract_y
_atom_site_fract_z
Si Si1 0.559999 0.309848 0.683553
Si Si2 0.727358 0.235002 0.817063
Si Si3 0.666873 0.422179 0.315531
Si Si4 0.169192 0.864455 0.684222
Si Si5 0.942215 0.451240 0.314925
Si Si6 0.129106 0.381757 0.183756
Si Si7 0.554574 0.723932 0.184449
O O1 0.555157 0.312013 0.500000
O O2 0.605597 0.388933 0.728307
O O3 0.585638 0.203770 0.725927
O O4 0.501171 0.321350 0.755035
O O5 0.705637 0.336139 0.745050
O O6 0.786318 0.207445 0.755367
O O7 0.685109 0.151443 0.760793
O O8 0.726643 0.240875 0.000000
O O9 0.669957 0.425977 0.500000
O O10 0.680179 0.526252 0.243285
O O11 0.172575 0.860712 0.500000
O O12 0.108720 0.832479 0.732544
O O13 0.936983 0.455432 0.500000
O O14 0.894899 0.515946 0.240843
O O15 0.941917 0.337909 0.266256
O O16 0.000000 0.500000 0.273667
O O17 0.135496 0.380567 0.000000
O O18 0.552567 0.723600 0.000000
#
# Coordination Sequence:
#
# PCOD9442061 Si02
#       7
#     8   8   8   8   8   8   8
#     4   9  19  35  57  84 116 153 195 241 296 356
#     4  11  23  41  65  89 116 156 202 249 301 359
#     4  10  22  42  65  90 119 155 197 245 297 358
#     4  11  24  42  61  87 122 158 199 250 303 356
#     4  10  19  33  55  85 121 160 201 245 297 359
#     4  10  20  35  57  87 120 158 200 248 300 357
#     4  10  22  37  56  84 120 158 198 248 299 352
#
# _framework density 19.114954999999998
#
# number of rings (size 3 to 8) (size 9 to 14) (size 15 to 20)
#    0.000    1.857    1.429    3.429    0.000    6.571 
#    0.000    7.143    0.000    0.000    0.000    0.000 
#    0.000    0.000    0.000    0.000    0.000    0.000 
#
# Total GULP energy -312911.391961 kJ/mol
# GULP energy per Si atom -5587.703428 kJ/mol
# Density = 1.907145 g / cm^3
# Si number density = 19.114955 Si / 1000 Ang^3
#
#
#
# Elastic Constant Matrix: (Units=GPa)
#
#
# Indices 1 2 3 4 5 6 
#
# 1 117.9788 26.2212 29.6446 0.0000 0.0000 0.0000
# 2 26.2212 65.2150 11.7592 0.0000 0.0000 0.0000
# 3 29.6446 11.7592 45.6028 0.0000 0.0000 0.0000
# 4 0.0000 0.0000 0.0000 -58.9863 0.0000 0.0000
# 5 0.0000 0.0000 0.0000 0.0000 32.4098 0.0000
# 6 0.0000 0.0000 0.0000 0.0000 0.0000 20.6913
#
#
#
# Elastic Compliance Matrix: (Units=1/GPa)
#
#
# Indices 1 2 3 4 5 6 
#
# 1 0.010734 -0.003207 -0.006151 0.000000 0.000000 0.000000
# 2 -0.003207 0.017040 -0.002309 0.000000 0.000000 0.000000
# 3 -0.006151 -0.002309 0.026523 0.000000 0.000000 0.000000
# 4 0.000000 0.000000 0.000000 -0.016953 0.000000 0.000000
# 5 0.000000 0.000000 0.000000 0.000000 0.030855 0.000000
# 6 0.000000 0.000000 0.000000 0.000000 0.000000 0.048329
#
#
# Mechanical properties :
#
#
# Convention : Reuss Voigt Hill
#
# Bulk Modulus (GPa) = 32.29740 40.44963 36.37352
# Shear Modulus (GPa) = 33.29271 9.56773 21.43022
#
# Velocity S-wave (km/s) = 4.17791 2.23969 3.35195
# Velocity P-wave (km/s) = 6.34084 5.28162 5.83531
#
# Compressibility (1/GPa) = 0.03096224
#
# Stress axis : x y z
#
# Youngs Moduli (GPa) = 93.15815 58.68650 37.70381
#
# Poissons Ratio (x) = 0.18820 0.23192
# Poissons Ratio (y) = 0.29875 0.08707
# Poissons Ratio (z) = 0.57302 0.13552
#
# Static dielectric constant tensor:
#      x y z
#    x 1.655240 0.000000 0.000000 
#    y 0.000000 1.649400 0.000000 
#    z 0.000000 0.000000 1.637270 
# 
# From -- ./inp_files/9035.got.cif
#   From: 2010.05.17/outbox.cif.g08.bks.cpg/sg58_5_cif.got.tgz:9035.got - 2010.06.03 14:20:14.
