data_PCOD9442774
_publ_section_title
;
Structure prediction by ZEFSAII (Michael W. Deem and Ramdas Pophale) SiO2 
 PCOD9442774
Probable space group: P N N M
;
_chemical_formula_sum "Si O2"
_cell_formula_units_Z 64
_cell_length_a 15.809604
_cell_length_b 24.317914
_cell_length_c 7.635715
_cell_angle_alpha 90.000000
_cell_angle_beta 90.000000
_cell_angle_gamma 90.000000
_cell_volume 2935.600955
_symmetry_space_group_name_H-M "P N N M"
_symmetry_group_IT_number 58
_symmetry_cell_setting 'orthorhombic'
loop_
_space_group_symop_operation_xyz
x,y,z
-x,-y,z
1/2+x,1/2-y,1/2-z
1/2-x,1/2+y,1/2-z
-x,-y,-z
x,y,-z
1/2-x,1/2+y,1/2+z
1/2+x,1/2-y,1/2+z
loop_
_atom_site_type_symbol
_atom_site_label
_atom_site_fract_x
_atom_site_fract_y
_atom_site_fract_z
Si Si1 0.190640 0.310287 0.711222
Si Si2 0.297688 0.688994 0.788867
Si Si3 0.362535 0.122162 0.793959
Si Si4 0.404535 0.003962 0.209304
Si Si5 0.749434 0.571071 0.796684
Si Si6 0.062971 0.950277 0.284984
Si Si7 0.496065 0.210137 0.785811
Si Si8 0.510081 0.332263 0.786920
O O1 0.192037 0.312342 0.500000
O O2 0.224698 0.250886 0.770015
O O3 0.241259 0.363329 0.773690
O O4 0.091317 0.308014 0.763989
O O5 0.229667 0.646352 0.726005
O O6 0.391682 0.672118 0.734651
O O7 0.297923 0.689912 0.000000
O O8 0.429557 0.165628 0.719920
O O9 0.368231 0.061228 0.720390
O O10 0.382678 0.118646 0.000000
O O11 0.337246 0.955754 0.236385
O O12 0.500000 0.000000 0.279010
O O13 0.412010 0.007289 0.000000
O O14 0.660993 0.547207 0.722850
O O15 0.744998 0.558774 0.000000
O O16 0.062711 0.951005 0.500000
O O17 0.029881 0.889765 0.229190
O O18 0.000000 0.000000 0.230879
O O19 0.474372 0.272647 0.730151
O O20 0.495715 0.211097 0.000000
O O21 0.506119 0.332954 0.000000
#
# Coordination Sequence:
#
# PCOD9442774 Si02
#       8
#     8   8   8   8   8   8   8   8
#     4   9  18  36  57  78 109 148 187 220 268 342
#     4   9  19  33  54  81 108 143 180 220 272 328
#     4  10  20  32  54  82 107 136 177 228 276 324
#     4  10  22  41  61  80 108 154 197 225 272 347
#     4  11  23  35  57  90 114 141 184 241 294 323
#     4   9  19  33  50  77 110 144 184 228 276 330
#     4   8  15  30  53  78 100 136 184 221 258 320
#     4   8  15  30  52  74 101 139 181 219 258 315
#
# _framework density 21.801328000000002
#
# number of rings (size 3 to 8) (size 9 to 14) (size 15 to 20)
#    0.000    2.750    0.000    2.625    3.500    3.250 
#    0.000    1.875    0.000    3.750    0.000    0.000 
#    0.000    0.000    0.000    0.000    0.000    0.000 
#
# Total GULP energy -357051.023387 kJ/mol
# GULP energy per Si atom -5578.922240 kJ/mol
# Density = 2.175171 g / cm^3
# Si number density = 21.801328 Si / 1000 Ang^3
#
#
#
# Elastic Constant Matrix: (Units=GPa)
#
#
# Indices 1 2 3 4 5 6 
#
# 1 83.1830 52.4839 5.1262 0.0000 0.0000 0.0000
# 2 52.4839 102.7856 0.6178 0.0000 0.0000 0.0000
# 3 5.1262 0.6178 36.6133 0.0000 0.0000 0.0000
# 4 0.0000 0.0000 0.0000 4.1400 0.0000 0.0000
# 5 0.0000 0.0000 0.0000 0.0000 8.4970 0.0000
# 6 0.0000 0.0000 0.0000 0.0000 0.0000 30.9458
#
#
#
# Elastic Compliance Matrix: (Units=1/GPa)
#
#
# Indices 1 2 3 4 5 6 
#
# 1 0.017937 -0.009145 -0.002357 0.000000 0.000000 0.000000
# 2 -0.009145 0.014392 0.001037 0.000000 0.000000 0.000000
# 3 -0.002357 0.001037 0.027625 0.000000 0.000000 0.000000
# 4 0.000000 0.000000 0.000000 0.241548 0.000000 0.000000
# 5 0.000000 0.000000 0.000000 0.000000 0.117688 0.000000
# 6 0.000000 0.000000 0.000000 0.000000 0.000000 0.032315
#
#
# Mechanical properties :
#
#
# Convention : Reuss Voigt Hill
#
# Bulk Modulus (GPa) = 25.62423 37.67089 31.64756
# Shear Modulus (GPa) = 10.29992 19.67349 14.98670
#
# Velocity S-wave (km/s) = 2.17594 3.00725 2.62472
# Velocity P-wave (km/s) = 4.25347 5.41985 4.87169
#
# Compressibility (1/GPa) = 0.03902556
#
# Stress axis : x y z
#
# Youngs Moduli (GPa) = 55.75175 69.48251 36.19909
#
# Poissons Ratio (x) = 0.63539 0.08532
# Poissons Ratio (y) = 0.50983 -0.03756
# Poissons Ratio (z) = 0.13141 -0.07209
#
# Static dielectric constant tensor:
#      x y z
#    x 1.605270 0.000000 0.000000 
#    y 0.000000 1.792730 0.000000 
#    z 0.000000 0.000000 1.824770 
# 
# From -- ./inp_files/6761.got.cif
#   From: 2010.05.17/outbox.cif.g08.bks.cpg/sg58_4_cif.got.tgz:6761.got - 2010.06.03 14:20:14.
