data_PCOD9442023
_publ_section_title
;
Structure prediction by ZEFSAII (Michael W. Deem and Ramdas Pophale) SiO2 
 PCOD9442023
Probable space group: P N N M
;
_chemical_formula_sum "Si O2"
_cell_formula_units_Z 56
_cell_length_a 23.727186
_cell_length_b 7.404525
_cell_length_c 13.640835
_cell_angle_alpha 90.000000
_cell_angle_beta 90.000000
_cell_angle_gamma 90.000000
_cell_volume 2396.538412
_symmetry_space_group_name_H-M "P N N M"
_symmetry_group_IT_number 58
_symmetry_cell_setting 'orthorhombic'
loop_
_space_group_symop_operation_xyz
x,y,z
-x,-y,z
1/2+x,1/2-y,1/2-z
1/2-x,1/2+y,1/2-z
-x,-y,-z
x,y,-z
1/2-x,1/2+y,1/2+z
1/2+x,1/2-y,1/2+z
loop_
_atom_site_type_symbol
_atom_site_label
_atom_site_fract_x
_atom_site_fract_y
_atom_site_fract_z
Si Si1 0.761608 0.883350 0.608361
Si Si2 0.751986 0.449731 0.615356
Si Si3 0.051330 0.383615 0.697517
Si Si4 0.394553 0.542279 0.106568
Si Si5 0.337396 0.097143 0.735774
Si Si6 0.134018 0.973121 0.184377
Si Si7 0.463918 0.681357 0.605323
O O1 0.739401 0.917805 0.500000
O O2 0.763801 0.665729 0.622514
O O3 0.827004 0.935703 0.608259
O O4 0.716783 0.982554 0.678493
O O5 0.744529 0.406978 0.500000
O O6 0.805067 0.347227 0.663427
O O7 0.694970 0.430641 0.678917
O O8 0.073127 0.231381 0.622614
O O9 0.108111 0.485624 0.733622
O O10 0.026769 0.297365 0.797959
O O11 0.000000 0.500000 0.655514
O O12 0.401388 0.455252 0.213805
O O13 0.410519 0.463909 0.000000
O O14 0.355112 0.262902 0.665415
O O15 0.098330 0.098029 0.113755
O O16 0.500000 0.500000 0.608856
O O17 0.472827 0.772576 0.500000
#
# Coordination Sequence:
#
# PCOD9442023 Si02
#       7
#     8   8   8   8   8   8   8
#     4   9  18  34  56  82 117 158 200 248 310 367
#     4  10  19  33  54  83 118 157 197 248 307 367
#     4  11  24  40  63  93 125 163 212 262 310 365
#     4  10  20  38  60  84 121 165 207 254 310 368
#     4  11  21  35  60  89 123 158 202 259 308 366
#     4  10  21  36  59  86 121 156 203 251 312 370
#     4  10  22  42  65  87 120 164 205 249 309 376
#
# _framework density 23.367035000000001
#
# number of rings (size 3 to 8) (size 9 to 14) (size 15 to 20)
#    0.000    1.857    2.857    1.286    0.000    2.286 
#    0.000    0.000    0.000   14.571    0.000    0.000 
#    0.000    0.000    0.000    0.000    0.000    0.000 
#
# Total GULP energy -312033.343727 kJ/mol
# GULP energy per Si atom -5572.023995 kJ/mol
# Density = 2.331385 g / cm^3
# Si number density = 23.367035 Si / 1000 Ang^3
#
#
#
# Elastic Constant Matrix: (Units=GPa)
#
#
# Indices 1 2 3 4 5 6 
#
# 1 82.4631 6.3643 -2.7225 0.0000 0.0000 0.0000
# 2 6.3643 27.8475 -5.7569 0.0000 0.0000 0.0000
# 3 -2.7225 -5.7569 108.1168 0.0000 0.0000 0.0000
# 4 0.0000 0.0000 0.0000 501.2814 0.0000 0.0000
# 5 0.0000 0.0000 0.0000 0.0000 11.2957 0.0000
# 6 0.0000 0.0000 0.0000 0.0000 0.0000 23.8642
#
#
#
# Elastic Compliance Matrix: (Units=1/GPa)
#
#
# Indices 1 2 3 4 5 6 
#
# 1 0.012347 -0.002788 0.000162 0.000000 0.000000 0.000000
# 2 -0.002788 0.036939 0.001897 0.000000 0.000000 0.000000
# 3 0.000162 0.001897 0.009354 0.000000 0.000000 0.000000
# 4 0.000000 0.000000 0.000000 0.001995 0.000000 0.000000
# 5 0.000000 0.000000 0.000000 0.000000 0.088529 0.000000
# 6 0.000000 0.000000 0.000000 0.000000 0.000000 0.041904
#
#
# Mechanical properties :
#
#
# Convention : Reuss Voigt Hill
#
# Bulk Modulus (GPa) = 17.48784 23.79966 20.64375
# Shear Modulus (GPa) = 23.63089 121.99111 72.81100
#
# Velocity S-wave (km/s) = 3.18353 7.23325 5.58814
# Velocity P-wave (km/s) = 4.58404 8.94243 7.10565
#
# Compressibility (1/GPa) = 0.05718259
#
# Stress axis : x y z
#
# Youngs Moduli (GPa) = 80.99013 27.07147 106.90220
#
# Poissons Ratio (x) = 0.07548 -0.01737
# Poissons Ratio (y) = 0.22582 -0.20276
# Poissons Ratio (z) = -0.01316 -0.05135
#
# Static dielectric constant tensor:
#      x y z
#    x 1.967880 0.000000 0.000000 
#    y 0.000000 1.954190 0.000000 
#    z 0.000000 0.000000 1.953040 
# 
# From -- ./inp_files/23278.got.cif
#   From: 2010.05.17/outbox.cif.g08.bks.cpg/sg58_12_cif.got.tgz:23278.got - 2010.06.03 14:20:14.
