data_PCOD9442301
_publ_section_title
;
Structure prediction by ZEFSAII (Michael W. Deem and Ramdas Pophale) SiO2 
 PCOD9442301
Probable space group: P N N M
;
_chemical_formula_sum "Si O2"
_cell_formula_units_Z 48
_cell_length_a 14.379693
_cell_length_b 10.147223
_cell_length_c 16.988179
_cell_angle_alpha 90.000000
_cell_angle_beta 90.000000
_cell_angle_gamma 90.000000
_cell_volume 2478.812327
_symmetry_space_group_name_H-M "P N N M"
_symmetry_group_IT_number 58
_symmetry_cell_setting 'orthorhombic'
loop_
_space_group_symop_operation_xyz
x,y,z
-x,-y,z
1/2+x,1/2-y,1/2-z
1/2-x,1/2+y,1/2-z
-x,-y,-z
x,y,-z
1/2-x,1/2+y,1/2+z
1/2+x,1/2-y,1/2+z
loop_
_atom_site_type_symbol
_atom_site_label
_atom_site_fract_x
_atom_site_fract_y
_atom_site_fract_z
Si Si1 0.104573 0.976675 0.843654
Si Si2 0.287695 0.748068 0.682307
Si Si3 0.770869 0.254927 0.865408
Si Si4 0.111146 0.485884 0.094053
Si Si5 0.097197 0.863466 0.666186
Si Si6 0.082537 0.145822 0.413013
O O1 0.166954 0.869887 0.888252
O O2 0.095146 0.912389 0.756291
O O3 0.161113 0.111960 0.836113
O O4 0.000000 0.000000 0.873909
O O5 0.268173 0.756574 0.775891
O O6 0.348908 0.865362 0.645425
O O7 0.183356 0.768857 0.649263
O O8 0.834993 0.383599 0.876796
O O9 0.676610 0.273293 0.912784
O O10 0.000000 0.500000 0.104359
O O11 0.128994 0.467494 0.000000
O O12 0.997355 0.803973 0.645198
O O13 0.106981 0.997839 0.615789
O O14 0.042377 0.142823 0.500000
#
# Coordination Sequence:
#
# PCOD9442301 Si02
#       6
#     8   8   8   8   8   8
#     4  11  20  36  59  87 127 159 202 257 311 370
#     4  11  21  38  62  93 126 165 208 261 313 371
#     4  11  21  38  61  93 126 163 208 259 317 372
#     4  11  24  42  65  92 125 167 216 264 309 371
#     4  10  19  34  58  89 121 156 205 248 305 368
#     4  11  20  36  62  91 123 160 203 257 310 370
#
# _framework density 19.364111000000001
#
# number of rings (size 3 to 8) (size 9 to 14) (size 15 to 20)
#    0.000    1.167    5.000    3.500    0.000    2.000 
#    0.000    2.500    0.000    5.500    0.000    0.000 
#    0.000    0.000    0.000    0.000    0.000    0.000 
#
# Total GULP energy -267897.500763 kJ/mol
# GULP energy per Si atom -5581.197933 kJ/mol
# Density = 1.932004 g / cm^3
# Si number density = 19.364111 Si / 1000 Ang^3
#
#
#
# Elastic Constant Matrix: (Units=GPa)
#
#
# Indices 1 2 3 4 5 6 
#
# 1 173.8770 57.4004 27.3462 0.0000 0.0000 0.0000
# 2 57.4004 62.7961 16.7675 0.0000 0.0000 0.0000
# 3 27.3462 16.7675 68.2025 0.0000 0.0000 0.0000
# 4 0.0000 0.0000 0.0000 -3.0325 0.0000 0.0000
# 5 0.0000 0.0000 0.0000 0.0000 15.3769 0.0000
# 6 0.0000 0.0000 0.0000 0.0000 0.0000 29.7573
#
#
#
# Elastic Compliance Matrix: (Units=1/GPa)
#
#
# Indices 1 2 3 4 5 6 
#
# 1 0.008393 -0.007249 -0.001583 0.000000 0.000000 0.000000
# 2 -0.007249 0.023305 -0.002823 0.000000 0.000000 0.000000
# 3 -0.001583 -0.002823 0.015991 0.000000 0.000000 0.000000
# 4 0.000000 0.000000 0.000000 -0.329761 0.000000 0.000000
# 5 0.000000 0.000000 0.000000 0.000000 0.065033 0.000000
# 6 0.000000 0.000000 0.000000 0.000000 0.000000 0.033605
#
#
# Mechanical properties :
#
#
# Convention : Reuss Voigt Hill
#
# Bulk Modulus (GPa) = 41.01974 56.43375 48.72674
# Shear Modulus (GPa) = -32.89535 21.97777 -5.45879
#
# Velocity S-wave (km/s) = -4.12610 3.37259 -1.68082
# Velocity P-wave (km/s) = 1.21252 6.66128 4.63154
#
# Compressibility (1/GPa) = 0.02437851
#
# Stress axis : x y z
#
# Youngs Moduli (GPa) = 119.14174 42.90954 62.53539
#
# Poissons Ratio (x) = 0.31107 0.09900
# Poissons Ratio (y) = 0.86371 0.17652
# Poissons Ratio (z) = 0.18861 0.12112
#
# Static dielectric constant tensor:
#      x y z
#    x 1.707470 0.000000 0.000000 
#    y 0.000000 1.680670 0.000000 
#    z 0.000000 0.000000 1.770950 
# 
# From -- ./inp_files/26806.got.cif
#   From: 2010.05.17/outbox.cif.g08.bks.cpg/sg58_14_cif.got.tgz:26806.got - 2010.06.03 14:20:14.
