data_PCOD9442490
_publ_section_title
;
Structure prediction by ZEFSAII (Michael W. Deem and Ramdas Pophale) SiO2 
 PCOD9442490
Probable space group: P N N M
;
_chemical_formula_sum "Si O2"
_cell_formula_units_Z 40
_cell_length_a 7.047525
_cell_length_b 22.316644
_cell_length_c 10.356209
_cell_angle_alpha 90.000000
_cell_angle_beta 90.000000
_cell_angle_gamma 90.000000
_cell_volume 1628.794586
_symmetry_space_group_name_H-M "P N N M"
_symmetry_group_IT_number 58
_symmetry_cell_setting 'orthorhombic'
loop_
_space_group_symop_operation_xyz
x,y,z
-x,-y,z
1/2+x,1/2-y,1/2-z
1/2-x,1/2+y,1/2-z
-x,-y,-z
x,y,-z
1/2-x,1/2+y,1/2+z
1/2+x,1/2-y,1/2+z
loop_
_atom_site_type_symbol
_atom_site_label
_atom_site_fract_x
_atom_site_fract_y
_atom_site_fract_z
Si Si1 0.756398 0.449363 0.785468
Si Si2 0.159925 0.895167 0.000000
Si Si3 0.755373 0.441318 0.500000
Si Si4 0.191910 0.921273 0.288655
Si Si5 0.998993 0.239055 0.000000
Si Si6 0.418023 0.191750 0.000000
Si Si7 0.981188 0.668065 0.787325
O O1 0.801628 0.466854 0.637570
O O2 0.536086 0.428050 0.797070
O O3 0.770333 0.515950 0.846752
O O4 0.882728 0.390564 0.808746
O O5 0.249417 0.911596 0.136934
O O6 0.969521 0.933806 0.000000
O O7 0.095916 0.826110 0.000000
O O8 0.843849 0.376102 0.500000
O O9 0.282145 0.859717 0.339080
O O10 0.226367 0.229883 0.000000
O O11 0.948581 0.277994 0.875693
O O12 0.518635 0.193967 0.859793
#
# Coordination Sequence:
#
# PCOD9442490 Si02
#       7
#     8   4   4   8   4   4   8
#     4   9  18  35  61  97 133 165 218 279 330 406
#     4   9  18  34  55  90 125 171 220 269 340 379
#     4   7  13  29  55  82 126 151 195 275 316 363
#     4  10  19  35  64  95 127 171 223 274 337 395
#     4  11  26  43  64  96 141 179 232 282 328 414
#     4   9  21  42  62  93 128 168 232 274 318 404
#     4  11  23  42  66  94 134 177 219 282 341 396
#
# _framework density 24.558038
#
# number of rings (size 3 to 8) (size 9 to 14) (size 15 to 20)
#    0.000    2.400    0.000    3.000    2.800    2.400 
#    0.000    7.000    0.000    2.400    0.000    0.000 
#    0.000    0.000    0.000    0.000    0.000    0.000 
#
# Total GULP energy -222969.966591 kJ/mol
# GULP energy per Si atom -5574.249165 kJ/mol
# Density = 2.450214 g / cm^3
# Si number density = 24.558038 Si / 1000 Ang^3
#
#
#
# Elastic Constant Matrix: (Units=GPa)
#
#
# Indices 1 2 3 4 5 6 
#
# 1 86.9977 31.4582 9.9761 0.0000 0.0000 0.0000
# 2 31.4582 181.2967 48.4330 0.0000 0.0000 0.0000
# 3 9.9761 48.4330 100.5792 0.0000 0.0000 0.0000
# 4 0.0000 0.0000 0.0000 -92.7081 0.0000 0.0000
# 5 0.0000 0.0000 0.0000 0.0000 -9.8804 0.0000
# 6 0.0000 0.0000 0.0000 0.0000 0.0000 39.6660
#
#
#
# Elastic Compliance Matrix: (Units=1/GPa)
#
#
# Indices 1 2 3 4 5 6 
#
# 1 0.012268 -0.002070 -0.000220 0.000000 0.000000 0.000000
# 2 -0.002070 0.006679 -0.003011 0.000000 0.000000 0.000000
# 3 -0.000220 -0.003011 0.011414 0.000000 0.000000 0.000000
# 4 0.000000 0.000000 0.000000 -0.010787 0.000000 0.000000
# 5 0.000000 0.000000 0.000000 0.000000 -0.101211 0.000000
# 6 0.000000 0.000000 0.000000 0.000000 0.000000 0.025210
#
#
# Mechanical properties :
#
#
# Convention : Reuss Voigt Hill
#
# Bulk Modulus (GPa) = 50.60827 60.95648 55.78238
# Shear Modulus (GPa) = -127.43353 6.01592 -60.70880
#
# Velocity S-wave (km/s) = -7.21134 1.56684 -4.97737
# Velocity P-wave (km/s) = 6.97750 5.30553 3.20444
#
# Compressibility (1/GPa) = 0.01975962
#
# Stress axis : x y z
#
# Youngs Moduli (GPa) = 81.51093 149.71398 87.61013
#
# Poissons Ratio (x) = 0.30990 0.01928
# Poissons Ratio (y) = 0.16873 0.26380
# Poissons Ratio (z) = 0.01794 0.45080
#
# Static dielectric constant tensor:
#      x y z
#    x 2.039760 0.000000 0.000000 
#    y 0.000000 2.035990 0.000000 
#    z 0.000000 0.000000 2.070340 
# 
# From -- ./inp_files/12948.got.cif
#   From: 2010.05.17/outbox.cif.g08.bks.cpg/sg58_7_cif.got.tgz:12948.got - 2010.06.03 14:20:14.
