data_PCOD9442591
_publ_section_title
;
Structure prediction by ZEFSAII (Michael W. Deem and Ramdas Pophale) SiO2 
 PCOD9442591
Probable space group: P N N M
;
_chemical_formula_sum "Si O2"
_cell_formula_units_Z 64
_cell_length_a 31.045002
_cell_length_b 11.958123
_cell_length_c 8.704248
_cell_angle_alpha 90.000000
_cell_angle_beta 90.000000
_cell_angle_gamma 90.000000
_cell_volume 3231.364614
_symmetry_space_group_name_H-M "P N N M"
_symmetry_group_IT_number 58
_symmetry_cell_setting 'orthorhombic'
loop_
_space_group_symop_operation_xyz
x,y,z
-x,-y,z
1/2+x,1/2-y,1/2-z
1/2-x,1/2+y,1/2-z
-x,-y,-z
x,y,-z
1/2-x,1/2+y,1/2+z
1/2+x,1/2-y,1/2+z
loop_
_atom_site_type_symbol
_atom_site_label
_atom_site_fract_x
_atom_site_fract_y
_atom_site_fract_z
Si Si1 0.943169 0.740527 0.184453
Si Si2 0.376051 0.362832 0.182717
Si Si3 0.798167 0.280657 0.181220
Si Si4 0.362797 0.624405 0.817465
Si Si5 0.039306 0.751806 0.815922
Si Si6 0.329063 0.997116 0.820419
Si Si7 0.921166 0.484738 0.817684
Si Si8 0.291044 0.776480 0.680592
O O1 0.904462 0.805185 0.265217
O O2 0.939746 0.607511 0.214178
O O3 0.990716 0.780764 0.231862
O O4 0.938979 0.755271 0.000000
O O5 0.338990 0.292673 0.267312
O O6 0.370184 0.494032 0.216448
O O7 0.422768 0.320110 0.235824
O O8 0.371365 0.345904 0.000000
O O9 0.800387 0.398293 0.269873
O O10 0.753651 0.222873 0.228070
O O11 0.800193 0.300756 0.000000
O O12 0.321191 0.674090 0.732638
O O13 0.356636 0.637766 0.000000
O O14 0.047784 0.619762 0.787800
O O15 0.042509 0.768577 0.000000
O O16 0.377943 0.029554 0.779560
O O17 0.316985 0.888321 0.723271
O O18 0.324556 0.973030 0.000000
O O19 0.910241 0.480948 0.000000
O O20 0.282556 0.771704 0.500000
#
# Coordination Sequence:
#
# PCOD9442591 Si02
#       8
#     8   8   8   8   8   8   8   8
#     4  10  21  38  63  94 128 167 213 264 320 383
#     4  11  25  44  64  90 128 170 214 266 323 382
#     4  12  26  45  69  97 130 168 213 265 321 379
#     4  11  25  44  64  90 128 170 214 266 323 382
#     4  10  21  38  63  94 128 167 213 264 320 383
#     4  12  24  41  67  99 133 169 211 259 318 382
#     4  10  19  36  62  94 129 167 208 259 321 379
#     4  12  26  45  69  97 130 168 213 265 321 379
#
# _framework density 19.805875
#
# number of rings (size 3 to 8) (size 9 to 14) (size 15 to 20)
#    0.000    1.000    2.500    4.500    1.750    4.500 
#    0.000    2.500    0.000    2.250    0.000    0.000 
#    0.000    0.000    0.000    0.000    0.000    0.000 
#
# Total GULP energy -358027.278141 kJ/mol
# GULP energy per Si atom -5594.176221 kJ/mol
# Density = 1.976080 g / cm^3
# Si number density = 19.805875 Si / 1000 Ang^3
#
#
#
# Elastic Constant Matrix: (Units=GPa)
#
#
# Indices 1 2 3 4 5 6 
#
# 1 63.9410 -17.7174 1.1538 0.0000 0.0000 0.0000
# 2 -17.7174 45.9318 8.0177 0.0000 0.0000 0.0000
# 3 1.1538 8.0177 24.1826 0.0000 0.0000 0.0000
# 4 0.0000 0.0000 0.0000 41.7236 0.0000 0.0000
# 5 0.0000 0.0000 0.0000 0.0000 38.4716 0.0000
# 6 0.0000 0.0000 0.0000 0.0000 0.0000 18.1849
#
#
#
# Elastic Compliance Matrix: (Units=1/GPa)
#
#
# Indices 1 2 3 4 5 6 
#
# 1 0.017757 0.007427 -0.003310 0.000000 0.000000 0.000000
# 2 0.007427 0.026215 -0.009046 0.000000 0.000000 0.000000
# 3 -0.003310 -0.009046 0.044509 0.000000 0.000000 0.000000
# 4 0.000000 0.000000 0.000000 0.023967 0.000000 0.000000
# 5 0.000000 0.000000 0.000000 0.000000 0.025993 0.000000
# 6 0.000000 0.000000 0.000000 0.000000 0.000000 0.054991
#
#
# Mechanical properties :
#
#
# Convention : Reuss Voigt Hill
#
# Bulk Modulus (GPa) = 12.71864 12.99594 12.85729
# Shear Modulus (GPa) = 21.78668 29.18277 25.48473
#
# Velocity S-wave (km/s) = 3.32024 3.84271 3.59099
# Velocity P-wave (km/s) = 4.59720 5.12488 4.86820
#
# Compressibility (1/GPa) = 0.07862479
#
# Stress axis : x y z
#
# Youngs Moduli (GPa) = 56.31534 38.14556 22.46727
#
# Poissons Ratio (x) = -0.28332 0.07436
# Poissons Ratio (y) = -0.41827 0.20324
# Poissons Ratio (z) = 0.18639 0.34506
#
# Static dielectric constant tensor:
#      x y z
#    x 1.691300 0.000000 0.000000 
#    y 0.000000 1.687280 0.000000 
#    z 0.000000 0.000000 1.666480 
# 
# From -- ./inp_files/10994.got.cif
#   From: 2010.05.17/outbox.cif.g08.bks.cpg/sg58_6_cif.got.tgz:10994.got - 2010.06.03 14:20:14.
