data_PCOD9442376
_publ_section_title
;
Structure prediction by ZEFSAII (Michael W. Deem and Ramdas Pophale) SiO2 
 PCOD9442376
Probable space group: P N N M
;
_chemical_formula_sum "Si O2"
_cell_formula_units_Z 56
_cell_length_a 15.118336
_cell_length_b 22.406108
_cell_length_c 7.541775
_cell_angle_alpha 90.000000
_cell_angle_beta 90.000000
_cell_angle_gamma 90.000000
_cell_volume 2554.724011
_symmetry_space_group_name_H-M "P N N M"
_symmetry_group_IT_number 58
_symmetry_cell_setting 'orthorhombic'
loop_
_space_group_symop_operation_xyz
x,y,z
-x,-y,z
1/2+x,1/2-y,1/2-z
1/2-x,1/2+y,1/2-z
-x,-y,-z
x,y,-z
1/2-x,1/2+y,1/2+z
1/2+x,1/2-y,1/2+z
loop_
_atom_site_type_symbol
_atom_site_label
_atom_site_fract_x
_atom_site_fract_y
_atom_site_fract_z
Si Si1 0.903944 0.264129 0.297228
Si Si2 0.275000 0.011728 0.283079
Si Si3 0.438059 0.680630 0.217133
Si Si4 0.422509 0.544425 0.783068
Si Si5 0.713094 0.232056 0.792649
Si Si6 0.376763 0.893552 0.714813
Si Si7 0.924269 0.398324 0.204129
O O1 0.928982 0.277262 0.500000
O O2 0.809011 0.232810 0.293549
O O3 0.899983 0.328550 0.207161
O O4 0.978727 0.220206 0.223398
O O5 0.272715 0.013426 0.500000
O O6 0.175129 0.024292 0.224926
O O7 0.345186 0.061683 0.220786
O O8 0.312947 0.947384 0.230707
O O9 0.440431 0.612281 0.273617
O O10 0.349326 0.714641 0.274240
O O11 0.438887 0.680549 0.000000
O O12 0.500000 0.500000 0.725575
O O13 0.422492 0.544095 0.000000
O O14 0.660927 0.170292 0.771020
O O15 0.728613 0.242478 0.000000
O O16 0.379582 0.892644 0.500000
O O17 0.476951 0.904066 0.780722
O O18 0.932565 0.418290 0.000000
#
# Coordination Sequence:
#
# PCOD9442376 Si02
#       7
#     8   8   8   8   8   8   8
#     4  11  22  36  57  84 114 148 190 237 287 342
#     4   9  18  32  53  81 114 150 188 235 284 335
#     4   9  19  35  54  79 113 145 180 230 283 336
#     4   9  17  29  49  77 107 141 182 226 276 332
#     4  11  22  38  57  81 115 153 190 234 291 348
#     4  10  20  34  56  85 113 144 189 241 289 339
#     4  10  19  35  57  83 115 149 189 233 289 346
#
# _framework density 21.920176000000001
#
# number of rings (size 3 to 8) (size 9 to 14) (size 15 to 20)
#    0.000    2.143    1.429    2.143    2.000    4.000 
#    0.000    0.714    0.000    1.714    0.000    1.000 
#    0.000    0.000    0.000    0.000    0.000    0.000 
#
# Total GULP energy -312981.372250 kJ/mol
# GULP energy per Si atom -5588.953076 kJ/mol
# Density = 2.187028 g / cm^3
# Si number density = 21.920176 Si / 1000 Ang^3
#
#
#
# Elastic Constant Matrix: (Units=GPa)
#
#
# Indices 1 2 3 4 5 6 
#
# 1 123.8644 50.6113 -0.6572 0.0000 0.0000 0.0000
# 2 50.6113 129.9857 -2.0863 0.0000 0.0000 0.0000
# 3 -0.6572 -2.0863 54.1333 0.0000 0.0000 0.0000
# 4 0.0000 0.0000 0.0000 -8.1246 0.0000 0.0000
# 5 0.0000 0.0000 0.0000 0.0000 4.9611 0.0000
# 6 0.0000 0.0000 0.0000 0.0000 0.0000 23.7533
#
#
#
# Elastic Compliance Matrix: (Units=1/GPa)
#
#
# Indices 1 2 3 4 5 6 
#
# 1 0.009601 -0.003739 -0.000028 0.000000 0.000000 0.000000
# 2 -0.003739 0.009154 0.000307 0.000000 0.000000 0.000000
# 3 -0.000028 0.000307 0.018484 0.000000 0.000000 0.000000
# 4 0.000000 0.000000 0.000000 -0.123083 0.000000 0.000000
# 5 0.000000 0.000000 0.000000 0.000000 0.201567 0.000000
# 6 0.000000 0.000000 0.000000 0.000000 0.000000 0.042099
#
#
# Mechanical properties :
#
#
# Convention : Reuss Voigt Hill
#
# Bulk Modulus (GPa) = 32.97989 44.85767 38.91878
# Shear Modulus (GPa) = 28.59641 21.45899 25.02770
#
# Velocity S-wave (km/s) = 3.61580 3.13223 3.38267
# Velocity P-wave (km/s) = 5.70177 5.79566 5.74890
#
# Compressibility (1/GPa) = 0.03032151
#
# Stress axis : x y z
#
# Youngs Moduli (GPa) = 104.15792 109.24472 54.09955
#
# Poissons Ratio (x) = 0.40842 0.00149
# Poissons Ratio (y) = 0.38941 -0.01663
# Poissons Ratio (z) = 0.00287 -0.03358
#
# Static dielectric constant tensor:
#      x y z
#    x 1.772020 0.000000 0.000000 
#    y 0.000000 1.745050 0.000000 
#    z 0.000000 0.000000 1.838810 
# 
# From -- ./inp_files/6281.got.cif
#   From: 2010.05.17/outbox.cif.g08.bks.cpg/sg58_4_cif.got.tgz:6281.got - 2010.06.03 14:20:14.
