data_PCOD9442828
_publ_section_title
;
Structure prediction by ZEFSAII (Michael W. Deem and Ramdas Pophale) SiO2 
 PCOD9442828
Probable space group: P N N M
;
_chemical_formula_sum "Si O2"
_cell_formula_units_Z 56
_cell_length_a 21.483678
_cell_length_b 15.081726
_cell_length_c 8.493344
_cell_angle_alpha 90.000000
_cell_angle_beta 90.000000
_cell_angle_gamma 90.000000
_cell_volume 2751.936416
_symmetry_space_group_name_H-M "P N N M"
_symmetry_group_IT_number 58
_symmetry_cell_setting 'orthorhombic'
loop_
_space_group_symop_operation_xyz
x,y,z
-x,-y,z
1/2+x,1/2-y,1/2-z
1/2-x,1/2+y,1/2-z
-x,-y,-z
x,y,-z
1/2-x,1/2+y,1/2+z
1/2+x,1/2-y,1/2+z
loop_
_atom_site_type_symbol
_atom_site_label
_atom_site_fract_x
_atom_site_fract_y
_atom_site_fract_z
Si Si1 0.651827 0.165631 0.186297
Si Si2 0.368072 0.448862 0.184001
Si Si3 0.258285 0.194137 0.309604
Si Si4 0.607146 0.744200 0.188963
Si Si5 0.044720 0.076820 0.186655
Si Si6 0.270636 0.989862 0.684440
Si Si7 0.977803 0.725403 0.811425
O O1 0.701369 0.241689 0.245190
O O2 0.680382 0.069189 0.222604
O O3 0.583479 0.172695 0.261115
O O4 0.645690 0.178224 0.000000
O O5 0.399361 0.358563 0.243844
O O6 0.388573 0.535297 0.277631
O O7 0.294481 0.437947 0.195319
O O8 0.383253 0.462365 0.000000
O O9 0.256386 0.197530 0.500000
O O10 0.326314 0.225229 0.253161
O O11 0.256479 0.090360 0.262939
O O12 0.546354 0.797237 0.246095
O O13 0.609228 0.743917 0.000000
O O14 0.036034 0.174598 0.250675
O O15 0.034350 0.081750 0.000000
O O16 0.000000 0.000000 0.254024
O O17 0.288897 0.993584 0.500000
O O18 0.981673 0.725170 0.000000
#
# Coordination Sequence:
#
# PCOD9442828 Si02
#       7
#     8   8   8   8   8   8   8
#     4  11  23  40  63  92 124 159 202 252 303 357
#     4  10  20  34  56  84 117 155 192 240 297 356
#     4  10  22  40  64  90 123 163 203 249 302 363
#     4  11  22  37  60  88 120 157 201 249 297 355
#     4  10  20  33  51  80 116 152 193 238 287 354
#     4  10  21  40  62  88 120 157 202 248 301 360
#     4  11  23  39  59  84 122 164 201 247 305 363
#
# _framework density 20.349307
#
# number of rings (size 3 to 8) (size 9 to 14) (size 15 to 20)
#    0.000    1.571    2.857    2.143    0.000    4.857 
#    0.000    0.714    0.000    4.286    0.000    0.000 
#    0.000    0.000    0.000    0.000    0.000    0.000 
#
# Total GULP energy -312435.434991 kJ/mol
# GULP energy per Si atom -5579.204196 kJ/mol
# Density = 2.030299 g / cm^3
# Si number density = 20.349307 Si / 1000 Ang^3
#
#
#
# Elastic Constant Matrix: (Units=GPa)
#
#
# Indices 1 2 3 4 5 6 
#
# 1 86.4441 11.8883 10.3119 0.0000 0.0000 0.0000
# 2 11.8883 46.0703 4.7850 0.0000 0.0000 0.0000
# 3 10.3119 4.7850 12.6378 0.0000 0.0000 0.0000
# 4 0.0000 0.0000 0.0000 22.4910 0.0000 0.0000
# 5 0.0000 0.0000 0.0000 0.0000 30.9398 0.0000
# 6 0.0000 0.0000 0.0000 0.0000 0.0000 25.8412
#
#
#
# Elastic Compliance Matrix: (Units=1/GPa)
#
#
# Indices 1 2 3 4 5 6 
#
# 1 0.013057 -0.002355 -0.009762 0.000000 0.000000 0.000000
# 2 -0.002355 0.023019 -0.006794 0.000000 0.000000 0.000000
# 3 -0.009762 -0.006794 0.089665 0.000000 0.000000 0.000000
# 4 0.000000 0.000000 0.000000 0.044462 0.000000 0.000000
# 5 0.000000 0.000000 0.000000 0.000000 0.032321 0.000000
# 6 0.000000 0.000000 0.000000 0.000000 0.000000 0.038698
#
#
# Mechanical properties :
#
#
# Convention : Reuss Voigt Hill
#
# Bulk Modulus (GPa) = 11.37412 22.12476 16.74944
# Shear Modulus (GPa) = 16.21532 23.73218 19.97375
#
# Velocity S-wave (km/s) = 2.82591 3.41873 3.13636
# Velocity P-wave (km/s) = 4.03104 5.14584 4.62217
#
# Compressibility (1/GPa) = 0.08791892
#
# Stress axis : x y z
#
# Youngs Moduli (GPa) = 76.58976 43.44166 11.15262
#
# Poissons Ratio (x) = 0.10232 0.10887
# Poissons Ratio (y) = 0.18039 0.07577
# Poissons Ratio (z) = 0.74765 0.29514
#
# Static dielectric constant tensor:
#      x y z
#    x 1.777130 0.000000 0.000000 
#    y 0.000000 1.751880 0.000000 
#    z 0.000000 0.000000 1.699430 
# 
# From -- ./inp_files/8979.got.cif
#   From: 2010.05.17/outbox.cif.g08.bks.cpg/sg58_5_cif.got.tgz:8979.got - 2010.06.03 14:20:14.
