data_PCOD9442721
_publ_section_title
;
Structure prediction by ZEFSAII (Michael W. Deem and Ramdas Pophale) SiO2 
 PCOD9442721
Probable space group: P N N M
;
_chemical_formula_sum "Si O2"
_cell_formula_units_Z 40
_cell_length_a 13.175190
_cell_length_b 10.542921
_cell_length_c 12.499558
_cell_angle_alpha 90.000000
_cell_angle_beta 90.000000
_cell_angle_gamma 90.000000
_cell_volume 1736.250946
_symmetry_space_group_name_H-M "P N N M"
_symmetry_group_IT_number 58
_symmetry_cell_setting 'orthorhombic'
loop_
_space_group_symop_operation_xyz
x,y,z
-x,-y,z
1/2+x,1/2-y,1/2-z
1/2-x,1/2+y,1/2-z
-x,-y,-z
x,y,-z
1/2-x,1/2+y,1/2+z
1/2+x,1/2-y,1/2+z
loop_
_atom_site_type_symbol
_atom_site_label
_atom_site_fract_x
_atom_site_fract_y
_atom_site_fract_z
Si Si1 0.460253 0.364277 0.742108
Si Si2 0.837407 0.754551 0.171444
Si Si3 0.614686 0.982942 0.657488
Si Si4 0.224650 0.780474 0.118714
Si Si5 0.625111 0.864197 0.120197
O O1 0.500000 0.500000 0.781369
O O2 0.549314 0.308388 0.666095
O O3 0.356682 0.374921 0.673349
O O4 0.431698 0.261342 0.832980
O O5 0.829314 0.611811 0.128713
O O6 0.814576 0.743907 0.298589
O O7 0.745650 0.833999 0.123261
O O8 0.665849 0.854911 0.617104
O O9 0.611029 0.967572 0.786905
O O10 0.500000 0.000000 0.621041
O O11 0.254072 0.818976 0.000000
O O12 0.593857 0.894435 0.000000
#
# Coordination Sequence:
#
# PCOD9442721 Si02
#       5
#     8   8   8   8   8
#     4  10  22  42  62  80 125 160 189 237 296 348
#     4  10  21  41  60  84 121 160 188 239 299 342
#     4  10  19  42  62  82 119 154 190 246 296 342
#     4  10  24  38  60  92 115 150 203 241 285 347
#     4  10  24  38  60  92 115 150 203 241 285 347
#
# _framework density 23.038143999999999
#
# number of rings (size 3 to 8) (size 9 to 14) (size 15 to 20)
#    0.000    2.400    4.000    0.000   11.200    4.800 
#    0.000    0.000    0.000    0.000    0.000    0.000 
#    0.000    0.000    0.000    0.000    0.000    0.000 
#
# Total GULP energy -223466.666584 kJ/mol
# GULP energy per Si atom -5586.666665 kJ/mol
# Density = 2.298571 g / cm^3
# Si number density = 23.038144 Si / 1000 Ang^3
#
#
#
# Elastic Constant Matrix: (Units=GPa)
#
#
# Indices 1 2 3 4 5 6 
#
# 1 53.1657 11.7993 -18.8264 0.0000 0.0000 0.0000
# 2 11.7993 77.4600 -13.4423 0.0000 0.0000 0.0000
# 3 -18.8264 -13.4423 131.6318 0.0000 0.0000 0.0000
# 4 0.0000 0.0000 0.0000 -15.0879 0.0000 0.0000
# 5 0.0000 0.0000 0.0000 0.0000 -8.8070 0.0000
# 6 0.0000 0.0000 0.0000 0.0000 0.0000 41.2320
#
#
#
# Elastic Compliance Matrix: (Units=1/GPa)
#
#
# Indices 1 2 3 4 5 6 
#
# 1 0.020329 -0.002639 0.002638 0.000000 0.000000 0.000000
# 2 -0.002639 0.013485 0.001000 0.000000 0.000000 0.000000
# 3 0.002638 0.001000 0.008076 0.000000 0.000000 0.000000
# 4 0.000000 0.000000 0.000000 -0.066278 0.000000 0.000000
# 5 0.000000 0.000000 0.000000 0.000000 -0.113546 0.000000
# 6 0.000000 0.000000 0.000000 0.000000 0.000000 0.024253
#
#
# Mechanical properties :
#
#
# Convention : Reuss Voigt Hill
#
# Bulk Modulus (GPa) = 22.78508 24.59096 23.68802
# Shear Modulus (GPa) = -49.48110 22.31586 -13.58262
#
# Velocity S-wave (km/s) = -4.63945 3.11569 -2.43074
# Velocity P-wave (km/s) = 4.33448 4.86215 1.55769
#
# Compressibility (1/GPa) = 0.04388837
#
# Stress axis : x y z
#
# Youngs Moduli (GPa) = 49.19099 74.15450 123.81848
#
# Poissons Ratio (x) = 0.19568 -0.32664
# Poissons Ratio (y) = 0.12981 -0.12378
# Poissons Ratio (z) = -0.12977 -0.07413
#
# Static dielectric constant tensor:
#      x y z
#    x 1.870520 0.000000 0.000000 
#    y 0.000000 1.870980 0.000000 
#    z 0.000000 0.000000 1.873840 
# 
# From -- ./inp_files/20902.got.cif
#   From: 2010.05.17/outbox.cif.g08.bks.cpg/sg58_11_cif.got.tgz:20902.got - 2010.06.03 14:20:14.
