data_PCOD9442956
_publ_section_title
;
Structure prediction by ZEFSAII (Michael W. Deem and Ramdas Pophale) SiO2 
 PCOD9442956
Probable space group: P N N M
;
_chemical_formula_sum "Si O2"
_cell_formula_units_Z 64
_cell_length_a 15.813679
_cell_length_b 24.562892
_cell_length_c 8.708390
_cell_angle_alpha 90.000000
_cell_angle_beta 90.000000
_cell_angle_gamma 90.000000
_cell_volume 3382.597223
_symmetry_space_group_name_H-M "P N N M"
_symmetry_group_IT_number 58
_symmetry_cell_setting 'orthorhombic'
loop_
_space_group_symop_operation_xyz
x,y,z
-x,-y,z
1/2+x,1/2-y,1/2-z
1/2-x,1/2+y,1/2-z
-x,-y,-z
x,y,-z
1/2-x,1/2+y,1/2+z
1/2+x,1/2-y,1/2+z
loop_
_atom_site_type_symbol
_atom_site_label
_atom_site_fract_x
_atom_site_fract_y
_atom_site_fract_z
Si Si1 0.853560 0.073699 0.816606
Si Si2 0.458438 0.607206 0.682587
Si Si3 0.488363 0.277066 0.185212
Si Si4 0.695395 0.691018 0.184121
Si Si5 0.302059 0.541290 0.184238
Si Si6 0.435573 0.920863 0.314362
Si Si7 0.383672 0.043131 0.686166
Si Si8 0.127254 0.309247 0.683660
O O1 0.818314 0.129496 0.745374
O O2 0.954642 0.074282 0.787011
O O3 0.813931 0.020314 0.742539
O O4 0.840270 0.074050 0.000000
O O5 0.449317 0.611445 0.500000
O O6 0.473056 0.666762 0.752573
O O7 0.377844 0.577360 0.751666
O O8 0.389477 0.276335 0.231789
O O9 0.547897 0.227573 0.235415
O O10 0.489714 0.278783 0.000000
O O11 0.783691 0.711802 0.250871
O O12 0.699746 0.690016 0.000000
O O13 0.209090 0.561238 0.235900
O O14 0.304766 0.541616 0.000000
O O15 0.431185 0.916588 0.500000
O O16 0.534225 0.922993 0.264777
O O17 0.387925 0.870426 0.241435
O O18 0.398129 0.979842 0.271005
O O19 0.385448 0.044021 0.500000
O O20 0.131062 0.308541 0.500000
#
# Coordination Sequence:
#
# PCOD9442956 Si02
#       8
#     8   8   8   8   8   8   8   8
#     4  10  20  34  53  79 111 142 182 234 279 321
#     4  10  21  36  53  75 107 144 184 231 278 324
#     4   9  21  41  59  77 109 146 183 231 280 328
#     4  10  20  37  60  83 107 144 188 227 275 335
#     4  11  20  31  51  80 113 149 186 220 271 337
#     4   9  17  35  59  79 104 142 184 224 264 317
#     4   8  17  33  53  78 109 142 180 223 263 314
#     4  11  22  37  58  86 114 141 178 231 284 328
#
# _framework density 18.920372
#
# number of rings (size 3 to 8) (size 9 to 14) (size 15 to 20)
#    0.000    2.250    0.000    3.750    0.000    5.500 
#    2.250    3.125    0.000    0.000    0.000    0.000 
#    0.000    0.000    0.000    0.000    0.000    0.000 
#
# Total GULP energy -357255.856062 kJ/mol
# GULP energy per Si atom -5582.122751 kJ/mol
# Density = 1.887731 g / cm^3
# Si number density = 18.920372 Si / 1000 Ang^3
#
#
#
# Elastic Constant Matrix: (Units=GPa)
#
#
# Indices 1 2 3 4 5 6 
#
# 1 146.7075 33.9719 30.9359 0.0000 0.0000 0.0000
# 2 33.9719 23.4217 8.7063 0.0000 0.0000 0.0000
# 3 30.9359 8.7063 12.9680 0.0000 0.0000 0.0000
# 4 0.0000 0.0000 0.0000 19.0495 0.0000 0.0000
# 5 0.0000 0.0000 0.0000 0.0000 26.0157 0.0000
# 6 0.0000 0.0000 0.0000 0.0000 0.0000 18.1899
#
#
#
# Elastic Compliance Matrix: (Units=1/GPa)
#
#
# Indices 1 2 3 4 5 6 
#
# 1 0.015875 -0.011925 -0.029865 0.000000 0.000000 0.000000
# 2 -0.011925 0.065851 -0.015764 0.000000 0.000000 0.000000
# 3 -0.029865 -0.015764 0.158941 0.000000 0.000000 0.000000
# 4 0.000000 0.000000 0.000000 0.052495 0.000000 0.000000
# 5 0.000000 0.000000 0.000000 0.000000 0.038438 0.000000
# 6 0.000000 0.000000 0.000000 0.000000 0.000000 0.054976
#
#
# Mechanical properties :
#
#
# Convention : Reuss Voigt Hill
#
# Bulk Modulus (GPa) = 7.96431 36.70283 22.33357
# Shear Modulus (GPa) = 9.19902 19.94989 14.57446
#
# Velocity S-wave (km/s) = 2.20738 3.25070 2.77845
# Velocity P-wave (km/s) = 3.27341 5.79051 4.70347
#
# Compressibility (1/GPa) = 0.12556013
#
# Stress axis : x y z
#
# Youngs Moduli (GPa) = 62.99147 15.18576 6.29166
#
# Poissons Ratio (x) = 0.18108 0.18790
# Poissons Ratio (y) = 0.75115 0.09918
# Poissons Ratio (z) = 1.88125 0.23938
#
# Static dielectric constant tensor:
#      x y z
#    x 1.695460 0.000000 0.000000 
#    y 0.000000 1.617610 0.000000 
#    z 0.000000 0.000000 1.634290 
# 
# From -- ./inp_files/6890.got.cif
#   From: 2010.05.17/outbox.cif.g08.bks.cpg/sg58_4_cif.got.tgz:6890.got - 2010.06.03 14:20:14.
