data_PCOD9442108
_publ_section_title
;
Structure prediction by ZEFSAII (Michael W. Deem and Ramdas Pophale) SiO2 
 PCOD9442108
Probable space group: P N N M
;
_chemical_formula_sum "Si O2"
_cell_formula_units_Z 48
_cell_length_a 10.578918
_cell_length_b 29.058081
_cell_length_c 8.430689
_cell_angle_alpha 90.000000
_cell_angle_beta 90.000000
_cell_angle_gamma 90.000000
_cell_volume 2591.619564
_symmetry_space_group_name_H-M "P N N M"
_symmetry_group_IT_number 58
_symmetry_cell_setting 'orthorhombic'
loop_
_space_group_symop_operation_xyz
x,y,z
-x,-y,z
1/2+x,1/2-y,1/2-z
1/2-x,1/2+y,1/2-z
-x,-y,-z
x,y,-z
1/2-x,1/2+y,1/2+z
1/2+x,1/2-y,1/2+z
loop_
_atom_site_type_symbol
_atom_site_label
_atom_site_fract_x
_atom_site_fract_y
_atom_site_fract_z
Si Si1 0.257917 0.854568 0.307733
Si Si2 0.244078 0.642944 0.810059
Si Si3 0.350350 0.953037 0.687932
Si Si4 0.367705 0.051494 0.185939
Si Si5 0.998867 0.806116 0.306699
Si Si6 0.003391 0.699711 0.309569
O O1 0.264002 0.853144 0.500000
O O2 0.274151 0.907883 0.260497
O O3 0.126203 0.832054 0.256243
O O4 0.375985 0.825960 0.242176
O O5 0.223091 0.592520 0.738032
O O6 0.372446 0.667628 0.754829
O O7 0.123877 0.673650 0.761650
O O8 0.247544 0.638944 0.000000
O O9 0.334530 0.959526 0.500000
O O10 0.498565 0.943568 0.723060
O O11 0.317626 0.000665 0.773622
O O12 0.394887 0.054802 0.000000
O O13 0.997847 0.806103 0.500000
O O14 0.999810 0.752890 0.256640
O O15 0.013295 0.698364 0.500000
#
# Coordination Sequence:
#
# PCOD9442108 Si02
#       6
#     8   8   8   8   8   8
#     4  10  20  37  59  82 111 146 186 229 275 328
#     4  11  21  37  58  81 112 149 189 228 272 330
#     4  10  19  33  57  84 109 141 185 228 278 334
#     4  11  21  34  55  82 113 142 180 231 283 327
#     4   9  21  38  56  81 113 149 187 229 274 328
#     4  11  21  35  57  84 113 145 187 232 277 326
#
# _framework density 18.521235999999998
#
# number of rings (size 3 to 8) (size 9 to 14) (size 15 to 20)
#    0.000    1.667    1.667    5.000    0.000    0.667 
#    0.000    5.833    0.000    5.000    0.000    0.000 
#    0.000    0.000    0.000    0.000    0.000    0.000 
#
# Total GULP energy -268165.544383 kJ/mol
# GULP energy per Si atom -5586.782175 kJ/mol
# Density = 1.847908 g / cm^3
# Si number density = 18.521236 Si / 1000 Ang^3
#
#
#
# Elastic Constant Matrix: (Units=GPa)
#
#
# Indices 1 2 3 4 5 6 
#
# 1 116.1527 65.1279 -1.9268 0.0000 0.0000 0.0000
# 2 65.1279 158.9510 5.3615 0.0000 0.0000 0.0000
# 3 -1.9268 5.3615 13.8143 0.0000 0.0000 0.0000
# 4 0.0000 0.0000 0.0000 27.4284 0.0000 0.0000
# 5 0.0000 0.0000 0.0000 0.0000 0.1873 0.0000
# 6 0.0000 0.0000 0.0000 0.0000 0.0000 0.3084
#
#
#
# Elastic Compliance Matrix: (Units=1/GPa)
#
#
# Indices 1 2 3 4 5 6 
#
# 1 0.011335 -0.004760 0.003428 0.000000 0.000000 0.000000
# 2 -0.004760 0.008374 -0.003914 0.000000 0.000000 0.000000
# 3 0.003428 -0.003914 0.074386 0.000000 0.000000 0.000000
# 4 0.000000 0.000000 0.000000 0.036459 0.000000 0.000000
# 5 0.000000 0.000000 0.000000 0.000000 5.339600 0.000000
# 6 0.000000 0.000000 0.000000 0.000000 0.000000 3.242171
#
#
# Mechanical properties :
#
#
# Convention : Reuss Voigt Hill
#
# Bulk Modulus (GPa) = 11.96117 47.33813 29.64965
# Shear Modulus (GPa) = 0.57138 20.27518 10.42328
#
# Velocity S-wave (km/s) = 0.55603 3.31221 2.37486
# Velocity P-wave (km/s) = 2.62380 6.34366 4.85419
#
# Compressibility (1/GPa) = 0.08360388
#
# Stress axis : x y z
#
# Youngs Moduli (GPa) = 88.22020 119.42221 13.44341
#
# Poissons Ratio (x) = 0.56846 -0.04609
# Poissons Ratio (y) = 0.41994 0.05262
# Poissons Ratio (z) = -0.30246 0.46740
#
# Static dielectric constant tensor:
#      x y z
#    x 1.602990 0.000000 0.000000 
#    y 0.000000 1.641980 0.000000 
#    z 0.000000 0.000000 1.635590 
# 
# From -- ./inp_files/2940.got.cif
#   From: 2010.05.17/outbox.cif.g08.bks.cpg/sg58_2_cif.got.tgz:2940.got - 2010.06.03 14:20:14.
