data_PCOD9442526
_publ_section_title
;
Structure prediction by ZEFSAII (Michael W. Deem and Ramdas Pophale) SiO2 
 PCOD9442526
Probable space group: P N N M
;
_chemical_formula_sum "Si O2"
_cell_formula_units_Z 58
_cell_length_a 15.632360
_cell_length_b 23.365700
_cell_length_c 8.760791
_cell_angle_alpha 90.000000
_cell_angle_beta 90.000000
_cell_angle_gamma 90.000000
_cell_volume 3199.975580
_symmetry_space_group_name_H-M "P N N M"
_symmetry_group_IT_number 58
_symmetry_cell_setting 'orthorhombic'
loop_
_space_group_symop_operation_xyz
x,y,z
-x,-y,z
1/2+x,1/2-y,1/2-z
1/2-x,1/2+y,1/2-z
-x,-y,-z
x,y,-z
1/2-x,1/2+y,1/2+z
1/2+x,1/2-y,1/2+z
loop_
_atom_site_type_symbol
_atom_site_label
_atom_site_fract_x
_atom_site_fract_y
_atom_site_fract_z
Si Si1 0.359021 0.904712 0.682798
Si Si2 0.452241 0.111472 0.184352
Si Si3 0.372721 0.582360 0.331155
Si Si4 0.500000 0.500000 0.500000
Si Si5 0.101415 0.739468 0.314367
Si Si6 0.787335 0.718246 0.184520
Si Si7 0.069657 0.197802 0.317792
Si Si8 0.801783 0.476229 0.684484
O O1 0.360905 0.906989 0.500000
O O2 0.455681 0.901202 0.744928
O O3 0.310056 0.846657 0.729763
O O4 0.314375 0.961284 0.746768
O O5 0.419414 0.174376 0.231786
O O6 0.382118 0.063868 0.225675
O O7 0.460602 0.111302 0.000000
O O8 0.348998 0.607471 0.500000
O O9 0.442593 0.534109 0.369712
O O10 0.410288 0.633628 0.233485
O O11 0.286543 0.553982 0.267573
O O12 0.103043 0.739711 0.500000
O O13 0.193692 0.761562 0.262709
O O14 0.023572 0.780206 0.265311
O O15 0.859239 0.760209 0.248965
O O16 0.789239 0.720849 0.000000
O O17 0.072335 0.202225 0.500000
O O18 0.799214 0.481114 0.500000
#
# Coordination Sequence:
#
# PCOD9442526 Si02
#       8
#     8   8   8   2   8   8   8   8
#     4  11  23  36  55  84 123 155 190 247 302 348
#     4  10  19  36  59  80 110 154 202 239 283 353
#     4   9  20  40  62  85 117 154 199 241 288 356
#     4   8  20  40  66  84 114 156 198 242 284 338
#     4   9  19  36  59  84 114 154 199 238 292 357
#     4  10  21  39  59  82 118 164 198 239 300 365
#     4  11  21  36  62  92 120 150 195 253 301 346
#     4  10  21  37  60  83 108 158 205 238 285 353
#
# _framework density 18.125138
#
# number of rings (size 3 to 8) (size 9 to 14) (size 15 to 20)
#    0.414    1.655    1.379    2.069    0.000    6.621 
#    0.000    3.793    0.000    0.000    0.000    0.000 
#    0.000    0.000    0.000    0.000    0.000    0.000 
#
# Total GULP energy -323097.066679 kJ/mol
# GULP energy per Si atom -5570.639081 kJ/mol
# Density = 1.808388 g / cm^3
# Si number density = 18.125138 Si / 1000 Ang^3
#
#
#
# Elastic Constant Matrix: (Units=GPa)
#
#
# Indices 1 2 3 4 5 6 
#
# 1 85.6603 34.2262 17.9617 0.0000 0.0000 0.0000
# 2 34.2262 87.7206 19.5769 0.0000 0.0000 0.0000
# 3 17.9617 19.5769 13.3858 0.0000 0.0000 0.0000
# 4 0.0000 0.0000 0.0000 31.5624 0.0000 0.0000
# 5 0.0000 0.0000 0.0000 0.0000 21.6178 0.0000
# 6 0.0000 0.0000 0.0000 0.0000 0.0000 31.4062
#
#
#
# Elastic Compliance Matrix: (Units=1/GPa)
#
#
# Indices 1 2 3 4 5 6 
#
# 1 0.016533 -0.002226 -0.018928 0.000000 0.000000 0.000000
# 2 -0.002226 0.017223 -0.022202 0.000000 0.000000 0.000000
# 3 -0.018928 -0.022202 0.132577 0.000000 0.000000 0.000000
# 4 0.000000 0.000000 0.000000 0.031683 0.000000 0.000000
# 5 0.000000 0.000000 0.000000 0.000000 0.046258 0.000000
# 6 0.000000 0.000000 0.000000 0.000000 0.000000 0.031841
#
#
# Mechanical properties :
#
#
# Convention : Reuss Voigt Hill
#
# Bulk Modulus (GPa) = 12.55984 36.69961 24.62972
# Shear Modulus (GPa) = 12.84131 24.58408 18.71269
#
# Velocity S-wave (km/s) = 2.66462 3.68686 3.21661
# Velocity P-wave (km/s) = 4.05111 6.19805 5.23580
#
# Compressibility (1/GPa) = 0.07961886
#
# Stress axis : x y z
#
# Youngs Moduli (GPa) = 60.48679 58.06045 7.54280
#
# Poissons Ratio (x) = 0.12926 0.14277
# Poissons Ratio (y) = 0.13466 0.16747
# Poissons Ratio (z) = 1.14491 1.28908
#
# Static dielectric constant tensor:
#      x y z
#    x 1.604420 0.000000 0.000000 
#    y 0.000000 1.602150 0.000000 
#    z 0.000000 0.000000 1.626890 
# 
# From -- ./inp_files/6705.got.cif
#   From: 2010.05.17/outbox.cif.g08.bks.cpg/sg58_4_cif.got.tgz:6705.got - 2010.06.03 14:20:14.
