data_PCOD9442488
_publ_section_title
;
Structure prediction by ZEFSAII (Michael W. Deem and Ramdas Pophale) SiO2 
 PCOD9442488
Probable space group: P N N M
;
_chemical_formula_sum "Si O2"
_cell_formula_units_Z 48
_cell_length_a 7.852436
_cell_length_b 28.262818
_cell_length_c 9.088862
_cell_angle_alpha 90.000000
_cell_angle_beta 90.000000
_cell_angle_gamma 90.000000
_cell_volume 2017.109044
_symmetry_space_group_name_H-M "P N N M"
_symmetry_group_IT_number 58
_symmetry_cell_setting 'orthorhombic'
loop_
_space_group_symop_operation_xyz
x,y,z
-x,-y,z
1/2+x,1/2-y,1/2-z
1/2-x,1/2+y,1/2-z
-x,-y,-z
x,y,-z
1/2-x,1/2+y,1/2+z
1/2+x,1/2-y,1/2+z
loop_
_atom_site_type_symbol
_atom_site_label
_atom_site_fract_x
_atom_site_fract_y
_atom_site_fract_z
Si Si1 0.684806 0.050307 0.693537
Si Si2 0.388536 0.361865 0.831468
Si Si3 0.789286 0.047145 0.000000
Si Si4 0.700578 0.937984 0.662502
Si Si5 0.168680 0.065325 0.000000
Si Si6 0.082790 0.298270 0.821242
Si Si7 0.804174 0.800417 0.321949
O O1 0.848330 0.082686 0.661899
O O2 0.502671 0.069250 0.644445
O O3 0.717827 0.995563 0.658390
O O4 0.671376 0.055671 0.864850
O O5 0.563379 0.340842 0.772756
O O6 0.222889 0.335856 0.766620
O O7 0.389126 0.345872 0.000000
O O8 0.965114 0.076547 0.000000
O O9 0.827849 0.991637 0.000000
O O10 0.772930 0.919927 0.500000
O O11 0.757628 0.923922 0.831811
O O12 0.889973 0.311065 0.778818
O O13 0.133739 0.248019 0.752310
O O14 0.085160 0.295271 0.000000
O O15 0.805029 0.795143 0.500000
#
# Coordination Sequence:
#
# PCOD9442488 Si02
#       7
#     8   8   4   8   4   8   8
#     4  10  19  36  58  85 117 154 204 250 298 365
#     4  10  20  36  57  82 119 155 192 246 304 355
#     4   9  19  37  57  79 119 161 197 245 319 353
#     4  10  19  35  63  91 118 161 211 253 309 370
#     4   9  19  37  59  83 121 163 199 261 301 365
#     4  10  20  36  59  84 112 149 192 239 296 359
#     4  10  20  36  59  85 111 150 194 236 299 360
#
# _framework density 23.796434000000001
#
# number of rings (size 3 to 8) (size 9 to 14) (size 15 to 20)
#    0.000    2.167    1.667    2.500    0.000    2.000 
#    6.000    8.333    0.000    0.000    0.000    0.000 
#    0.000    0.000    0.000    0.000    0.000    0.000 
#
# Total GULP energy -267383.752376 kJ/mol
# GULP energy per Si atom -5570.494841 kJ/mol
# Density = 2.374227 g / cm^3
# Si number density = 23.796434 Si / 1000 Ang^3
#
#
#
# Elastic Constant Matrix: (Units=GPa)
#
#
# Indices 1 2 3 4 5 6 
#
# 1 135.7706 40.5059 40.4493 0.0000 0.0000 0.0000
# 2 40.5059 75.3860 5.7523 0.0000 0.0000 0.0000
# 3 40.4493 5.7523 151.3221 0.0000 0.0000 0.0000
# 4 0.0000 0.0000 0.0000 58.9199 0.0000 0.0000
# 5 0.0000 0.0000 0.0000 0.0000 34.5213 0.0000
# 6 0.0000 0.0000 0.0000 0.0000 0.0000 36.9612
#
#
#
# Elastic Compliance Matrix: (Units=1/GPa)
#
#
# Indices 1 2 3 4 5 6 
#
# 1 0.009546 -0.004949 -0.002364 0.000000 0.000000 0.000000
# 2 -0.004949 0.015869 0.000720 0.000000 0.000000 0.000000
# 3 -0.002364 0.000720 0.007213 0.000000 0.000000 0.000000
# 4 0.000000 0.000000 0.000000 0.016972 0.000000 0.000000
# 5 0.000000 0.000000 0.000000 0.000000 0.028968 0.000000
# 6 0.000000 0.000000 0.000000 0.000000 0.000000 0.027055
#
#
# Mechanical properties :
#
#
# Convention : Reuss Voigt Hill
#
# Bulk Modulus (GPa) = 51.43380 59.54376 55.48878
# Shear Modulus (GPa) = 39.90752 44.46523 42.18638
#
# Velocity S-wave (km/s) = 4.09961 4.32738 4.21503
# Velocity P-wave (km/s) = 6.63853 7.07423 6.85984
#
# Compressibility (1/GPa) = 0.01944247
#
# Stress axis : x y z
#
# Youngs Moduli (GPa) = 104.75622 63.01502 138.64125
#
# Poissons Ratio (x) = 0.31185 0.32769
# Poissons Ratio (y) = 0.51842 -0.09977
# Poissons Ratio (z) = 0.24760 -0.04535
#
# Static dielectric constant tensor:
#      x y z
#    x 1.941330 0.000000 0.000000 
#    y 0.000000 1.903410 0.000000 
#    z 0.000000 0.000000 1.940440 
# 
# From -- ./inp_files/3082.got.cif
#   From: 2010.05.17/outbox.cif.g08.bks.cpg/sg58_2_cif.got.tgz:3082.got - 2010.06.03 14:20:14.
