data_PCOD9442457
_publ_section_title
;
Structure prediction by ZEFSAII (Michael W. Deem and Ramdas Pophale) SiO2 
 PCOD9442457
Probable space group: P N N M
;
_chemical_formula_sum "Si O2"
_cell_formula_units_Z 56
_cell_length_a 21.041412
_cell_length_b 9.402490
_cell_length_c 14.692219
_cell_angle_alpha 90.000000
_cell_angle_beta 90.000000
_cell_angle_gamma 90.000000
_cell_volume 2906.733083
_symmetry_space_group_name_H-M "P N N M"
_symmetry_group_IT_number 58
_symmetry_cell_setting 'orthorhombic'
loop_
_space_group_symop_operation_xyz
x,y,z
-x,-y,z
1/2+x,1/2-y,1/2-z
1/2-x,1/2+y,1/2-z
-x,-y,-z
x,y,-z
1/2-x,1/2+y,1/2+z
1/2+x,1/2-y,1/2+z
loop_
_atom_site_type_symbol
_atom_site_label
_atom_site_fract_x
_atom_site_fract_y
_atom_site_fract_z
Si Si1 0.656365 0.349395 0.894953
Si Si2 0.633031 0.959972 0.657431
Si Si3 0.855992 0.993663 0.894528
Si Si4 0.254320 0.383976 0.903501
Si Si5 0.225593 0.782879 0.208216
Si Si6 0.465051 0.267456 0.399304
Si Si7 0.415092 0.746259 0.723398
O O1 0.685474 0.508932 0.894378
O O2 0.716257 0.260437 0.856328
O O3 0.600623 0.318917 0.822388
O O4 0.641308 0.314538 0.000000
O O5 0.671275 0.837028 0.709766
O O6 0.577397 0.875339 0.606508
O O7 0.689097 0.025798 0.596346
O O8 0.605160 0.088942 0.716333
O O9 0.804125 0.073888 0.833173
O O10 0.917675 0.098198 0.892745
O O11 0.874569 0.846144 0.848809
O O12 0.837059 0.981549 0.000000
O O13 0.252095 0.298941 0.810815
O O14 0.259789 0.306893 0.000000
O O15 0.496432 0.273226 0.500000
O O16 0.514059 0.267285 0.316373
#
# Coordination Sequence:
#
# PCOD9442457 Si02
#       7
#     8   8   8   8   8   8   8
#     4  10  21  37  58  83 116 156 193 236 295 352
#     4  10  22  36  57  85 123 152 188 234 301 355
#     4  10  21  37  60  88 117 153 199 243 289 344
#     4  10  19  35  60  87 117 151 193 241 287 350
#     4  10  19  39  58  84 119 156 188 238 296 354
#     4  10  22  39  58  85 122 158 191 239 301 349
#     4  12  21  35  57  85 118 155 196 240 284 345
#
# _framework density 19.265613999999999
#
# number of rings (size 3 to 8) (size 9 to 14) (size 15 to 20)
#    0.000    1.714    2.857    2.143    0.000    7.429 
#    0.000    0.714    0.000    6.857    0.000    0.000 
#    0.000    0.000    0.000    0.000    0.000    0.000 
#
# Total GULP energy -312502.576727 kJ/mol
# GULP energy per Si atom -5580.403156 kJ/mol
# Density = 1.922176 g / cm^3
# Si number density = 19.265614 Si / 1000 Ang^3
#
#
#
# Elastic Constant Matrix: (Units=GPa)
#
#
# Indices 1 2 3 4 5 6 
#
# 1 63.9963 5.3011 36.4864 0.0000 0.0000 0.0000
# 2 5.3011 59.5909 12.9214 0.0000 0.0000 0.0000
# 3 36.4864 12.9214 142.8248 0.0000 0.0000 0.0000
# 4 0.0000 0.0000 0.0000 -4.6204 0.0000 0.0000
# 5 0.0000 0.0000 0.0000 0.0000 13.9411 0.0000
# 6 0.0000 0.0000 0.0000 0.0000 0.0000 12.4350
#
#
#
# Elastic Compliance Matrix: (Units=1/GPa)
#
#
# Indices 1 2 3 4 5 6 
#
# 1 0.018313 -0.000627 -0.004621 0.000000 0.000000 0.000000
# 2 -0.000627 0.017138 -0.001390 0.000000 0.000000 0.000000
# 3 -0.004621 -0.001390 0.008308 0.000000 0.000000 0.000000
# 4 0.000000 0.000000 0.000000 -0.216431 0.000000 0.000000
# 5 0.000000 0.000000 0.000000 0.000000 0.071730 0.000000
# 6 0.000000 0.000000 0.000000 0.000000 0.000000 0.080418
#
#
# Mechanical properties :
#
#
# Convention : Reuss Voigt Hill
#
# Bulk Modulus (GPa) = 32.80685 41.75886 37.28286
# Shear Modulus (GPa) = 1715.72618 18.46468 867.09543
#
# Velocity S-wave (km/s) = 29.87469 3.09921 21.23797
# Velocity P-wave (km/s) = 34.74280 5.87615 24.91577
#
# Compressibility (1/GPa) = 0.03048144
#
# Stress axis : x y z
#
# Youngs Moduli (GPa) = 54.60690 58.34871 120.36606
#
# Poissons Ratio (x) = 0.03658 0.55627
# Poissons Ratio (y) = 0.03424 0.16735
# Poissons Ratio (z) = 0.25237 0.08112
#
# Static dielectric constant tensor:
#      x y z
#    x 1.695840 0.000000 0.000000 
#    y 0.000000 1.699510 0.000000 
#    z 0.000000 0.000000 1.661370 
# 
# From -- ./inp_files/20138.got.cif
#   From: 2010.05.17/outbox.cif.g08.bks.cpg/sg58_11_cif.got.tgz:20138.got - 2010.06.03 14:20:14.
