data_PCOD9442050
_publ_section_title
;
Structure prediction by ZEFSAII (Michael W. Deem and Ramdas Pophale) SiO2 
 PCOD9442050
Probable space group: P N N M
;
_chemical_formula_sum "Si O2"
_cell_formula_units_Z 64
_cell_length_a 21.238656
_cell_length_b 16.988706
_cell_length_c 9.054900
_cell_angle_alpha 90.000000
_cell_angle_beta 90.000000
_cell_angle_gamma 90.000000
_cell_volume 3267.164412
_symmetry_space_group_name_H-M "P N N M"
_symmetry_group_IT_number 58
_symmetry_cell_setting 'orthorhombic'
loop_
_space_group_symop_operation_xyz
x,y,z
-x,-y,z
1/2+x,1/2-y,1/2-z
1/2-x,1/2+y,1/2-z
-x,-y,-z
x,y,-z
1/2-x,1/2+y,1/2+z
1/2+x,1/2-y,1/2+z
loop_
_atom_site_type_symbol
_atom_site_label
_atom_site_fract_x
_atom_site_fract_y
_atom_site_fract_z
Si Si1 0.619219 0.217036 0.175906
Si Si2 0.113871 0.032590 0.832340
Si Si3 0.304285 0.402101 0.824534
Si Si4 0.522231 0.337532 0.321232
Si Si5 0.614496 0.719815 0.675271
Si Si6 0.840577 0.384798 0.175971
Si Si7 0.215209 0.174527 0.831998
Si Si8 0.659160 0.062555 0.322603
O O1 0.563996 0.270028 0.245700
O O2 0.683426 0.258097 0.233833
O O3 0.620081 0.129146 0.239572
O O4 0.616413 0.218377 0.000000
O O5 0.050855 0.077288 0.780360
O O6 0.164488 0.103714 0.837402
O O7 0.145760 0.965779 0.735546
O O8 0.104006 0.002592 0.000000
O O9 0.327013 0.319605 0.757640
O O10 0.233207 0.426440 0.782476
O O11 0.306706 0.399412 0.000000
O O12 0.528874 0.331100 0.500000
O O13 0.449967 0.323248 0.282158
O O14 0.623576 0.709367 0.500000
O O15 0.611447 0.813286 0.703745
O O16 0.777810 0.360671 0.262105
O O17 0.860066 0.473259 0.215029
O O18 0.826639 0.385804 0.000000
O O19 0.224898 0.202881 0.000000
O O20 0.653625 0.073541 0.500000
#
# Coordination Sequence:
#
# PCOD9442050 Si02
#       8
#     8   8   8   8   8   8   8   8
#     4  11  22  35  57  84 109 144 189 234 279 331
#     4   9  18  33  55  80 108 145 185 225 273 332
#     4  11  22  35  55  84 119 149 180 228 282 333
#     4   9  20  40  60  80 109 149 193 235 281 331
#     4  10  22  39  59  81 110 149 192 234 278 336
#     4  10  20  36  58  84 112 146 188 235 281 334
#     4  10  19  33  55  82 113 148 182 224 284 340
#     4  10  21  37  56  83 118 148 181 228 284 338
#
# _framework density 19.588851999999999
#
# number of rings (size 3 to 8) (size 9 to 14) (size 15 to 20)
#    0.000    2.000    1.250    3.375    0.000    7.000 
#    0.000    3.125    0.000    3.750    0.000    0.000 
#    0.000    0.000    0.000    0.000    0.000    0.000 
#
# Total GULP energy -357456.915005 kJ/mol
# GULP energy per Si atom -5585.264297 kJ/mol
# Density = 1.954427 g / cm^3
# Si number density = 19.588852 Si / 1000 Ang^3
#
#
#
# Elastic Constant Matrix: (Units=GPa)
#
#
# Indices 1 2 3 4 5 6 
#
# 1 39.2894 3.9839 8.4715 0.0000 0.0000 0.0000
# 2 3.9839 91.1499 18.1501 0.0000 0.0000 0.0000
# 3 8.4715 18.1501 26.2389 0.0000 0.0000 0.0000
# 4 0.0000 0.0000 0.0000 24.9790 0.0000 0.0000
# 5 0.0000 0.0000 0.0000 0.0000 10.9423 0.0000
# 6 0.0000 0.0000 0.0000 0.0000 0.0000 25.6345
#
#
#
# Elastic Compliance Matrix: (Units=1/GPa)
#
#
# Indices 1 2 3 4 5 6 
#
# 1 0.027390 0.000654 -0.009295 0.000000 0.000000 0.000000
# 2 0.000654 0.012739 -0.009023 0.000000 0.000000 0.000000
# 3 -0.009295 -0.009023 0.047354 0.000000 0.000000 0.000000
# 4 0.000000 0.000000 0.000000 0.040034 0.000000 0.000000
# 5 0.000000 0.000000 0.000000 0.000000 0.091389 0.000000
# 6 0.000000 0.000000 0.000000 0.000000 0.000000 0.039010
#
#
# Mechanical properties :
#
#
# Convention : Reuss Voigt Hill
#
# Bulk Modulus (GPa) = 19.17406 24.20990 21.69198
# Shear Modulus (GPa) = 16.09636 20.71600 18.40618
#
# Velocity S-wave (km/s) = 2.86966 3.25551 3.06866
# Velocity P-wave (km/s) = 4.55954 5.14947 4.86346
#
# Compressibility (1/GPa) = 0.05215379
#
# Stress axis : x y z
#
# Youngs Moduli (GPa) = 36.50944 78.49879 21.11759
#
# Poissons Ratio (x) = -0.05132 0.19630
# Poissons Ratio (y) = -0.02387 0.19054
# Poissons Ratio (z) = 0.33937 0.70829
#
# Static dielectric constant tensor:
#      x y z
#    x 1.683600 0.000000 0.000000 
#    y 0.000000 1.719030 0.000000 
#    z 0.000000 0.000000 1.653460 
# 
# From -- ./inp_files/8349.got.cif
#   From: 2010.05.17/outbox.cif.g08.bks.cpg/sg58_5_cif.got.tgz:8349.got - 2010.06.03 14:20:14.
