data_PCOD9442652
_publ_section_title
;
Structure prediction by ZEFSAII (Michael W. Deem and Ramdas Pophale) SiO2 
 PCOD9442652
Probable space group: P N N M
;
_chemical_formula_sum "Si O2"
_cell_formula_units_Z 64
_cell_length_a 12.770280
_cell_length_b 7.813627
_cell_length_c 28.841841
_cell_angle_alpha 90.000000
_cell_angle_beta 90.000000
_cell_angle_gamma 90.000000
_cell_volume 2877.902480
_symmetry_space_group_name_H-M "P N N M"
_symmetry_group_IT_number 58
_symmetry_cell_setting 'orthorhombic'
loop_
_space_group_symop_operation_xyz
x,y,z
-x,-y,z
1/2+x,1/2-y,1/2-z
1/2-x,1/2+y,1/2-z
-x,-y,-z
x,y,-z
1/2-x,1/2+y,1/2+z
1/2+x,1/2-y,1/2+z
loop_
_atom_site_type_symbol
_atom_site_label
_atom_site_fract_x
_atom_site_fract_y
_atom_site_fract_z
Si Si1 0.984927 0.809595 0.928445
Si Si2 0.254741 0.293291 0.054035
Si Si3 0.867455 0.808530 0.785735
Si Si4 0.572141 0.690644 0.675845
Si Si5 0.283491 0.779828 0.858273
Si Si6 0.332362 0.171678 0.153916
Si Si7 0.200270 0.686880 0.049269
Si Si8 0.454199 0.677338 0.808345
O O1 0.015990 0.821409 0.874214
O O2 0.074099 0.684611 0.947985
O O3 0.865902 0.761278 0.937029
O O4 0.000000 0.000000 0.947637
O O5 0.318132 0.228179 0.099791
O O6 0.248212 0.499521 0.055142
O O7 0.283891 0.245709 0.000000
O O8 0.765362 0.756096 0.814908
O O9 0.866366 0.779602 0.730697
O O10 0.980756 0.722508 0.795298
O O11 0.891580 0.006136 0.802808
O O12 0.680558 0.787115 0.668130
O O13 0.242305 0.803138 0.910017
O O14 0.381887 0.656691 0.853513
O O15 0.321237 0.966819 0.843330
O O16 0.443587 0.217181 0.177110
O O17 0.230990 0.759403 0.000000
O O18 0.500000 0.500000 0.791185
#
# Coordination Sequence:
#
# PCOD9442652 Si02
#       8
#     8   8   8   8   8   8   8   8
#     4  11  18  32  59  90 129 170 203 250 306 372
#     4  11  22  38  60  92 129 164 208 260 320 380
#     4  10  19  37  63  90 125 167 204 253 314 365
#     4   9  16  36  60  87 123 163 198 250 303 359
#     4  10  23  41  64  89 124 162 213 261 309 368
#     4  11  24  42  67  91 128 164 214 265 310 374
#     4  10  22  38  59  89 127 166 208 260 316 376
#     4  12  25  40  65  90 124 168 212 258 317 375
#
# _framework density 22.238416999999998
#
# number of rings (size 3 to 8) (size 9 to 14) (size 15 to 20)
#    0.000    1.500    3.750    3.375    1.750    3.500 
#    0.000    0.625    5.500    3.750    0.000    0.000 
#    0.000    0.000    0.000    0.000    0.000    0.000 
#
# Total GULP energy -356480.742665 kJ/mol
# GULP energy per Si atom -5570.011604 kJ/mol
# Density = 2.218780 g / cm^3
# Si number density = 22.238417 Si / 1000 Ang^3
#
#
#
# Elastic Constant Matrix: (Units=GPa)
#
#
# Indices 1 2 3 4 5 6 
#
# 1 97.5902 -10.1995 42.2061 0.0000 0.0000 0.0000
# 2 -10.1995 15.2013 5.0075 0.0000 0.0000 0.0000
# 3 42.2061 5.0075 113.8325 0.0000 0.0000 0.0000
# 4 0.0000 0.0000 0.0000 17.9746 0.0000 0.0000
# 5 0.0000 0.0000 0.0000 0.0000 9.7317 0.0000
# 6 0.0000 0.0000 0.0000 0.0000 0.0000 25.7522
#
#
#
# Elastic Compliance Matrix: (Units=1/GPa)
#
#
# Indices 1 2 3 4 5 6 
#
# 1 0.013843 0.011140 -0.005623 0.000000 0.000000 0.000000
# 2 0.011140 0.075716 -0.007461 0.000000 0.000000 0.000000
# 3 -0.005623 -0.007461 0.011198 0.000000 0.000000 0.000000
# 4 0.000000 0.000000 0.000000 0.055634 0.000000 0.000000
# 5 0.000000 0.000000 0.000000 0.000000 0.102757 0.000000
# 6 0.000000 0.000000 0.000000 0.000000 0.000000 0.038832
#
#
# Mechanical properties :
#
#
# Convention : Reuss Voigt Hill
#
# Bulk Modulus (GPa) = 10.32316 33.40582 21.86449
# Shear Modulus (GPa) = 14.96303 23.33237 19.14770
#
# Velocity S-wave (km/s) = 2.59674 3.24264 2.93750
# Velocity P-wave (km/s) = 3.69363 5.39202 4.62151
#
# Compressibility (1/GPa) = 0.09686954
#
# Stress axis : x y z
#
# Youngs Moduli (GPa) = 72.23890 13.20722 89.30325
#
# Poissons Ratio (x) = -0.14713 0.50212
# Poissons Ratio (y) = -0.80476 0.66632
# Poissons Ratio (z) = 0.40618 0.09854
#
# Static dielectric constant tensor:
#      x y z
#    x 1.825050 0.000000 0.000000 
#    y 0.000000 1.860000 0.000000 
#    z 0.000000 0.000000 1.925470 
# 
# From -- ./inp_files/34942.got.cif
#   From: 2010.05.17/outbox.cif.g08.bks.cpg/sg58_18_cif.got.tgz:34942.got - 2010.06.03 14:20:14.
