data_PCOD9442732
_publ_section_title
;
Structure prediction by ZEFSAII (Michael W. Deem and Ramdas Pophale) SiO2 
 PCOD9442732
Probable space group: P N N M
;
_chemical_formula_sum "Si O2"
_cell_formula_units_Z 64
_cell_length_a 14.127597
_cell_length_b 22.558468
_cell_length_c 9.508119
_cell_angle_alpha 90.000000
_cell_angle_beta 90.000000
_cell_angle_gamma 90.000000
_cell_volume 3030.208476
_symmetry_space_group_name_H-M "P N N M"
_symmetry_group_IT_number 58
_symmetry_cell_setting 'orthorhombic'
loop_
_space_group_symop_operation_xyz
x,y,z
-x,-y,z
1/2+x,1/2-y,1/2-z
1/2-x,1/2+y,1/2-z
-x,-y,-z
x,y,-z
1/2-x,1/2+y,1/2+z
1/2+x,1/2-y,1/2+z
loop_
_atom_site_type_symbol
_atom_site_label
_atom_site_fract_x
_atom_site_fract_y
_atom_site_fract_z
Si Si1 0.814737 0.575413 0.664380
Si Si2 0.349912 0.810625 0.341367
Si Si3 0.374924 0.280661 0.839459
Si Si4 0.646292 0.827983 0.660130
Si Si5 0.908908 0.104295 0.836785
Si Si6 0.577227 0.429684 0.162090
Si Si7 0.367122 0.706994 0.152631
Si Si8 0.707836 0.960009 0.669155
O O1 0.840060 0.573477 0.500000
O O2 0.859356 0.631801 0.743750
O O3 0.700229 0.583940 0.673072
O O4 0.835281 0.514706 0.746523
O O5 0.380732 0.822597 0.500000
O O6 0.237985 0.793889 0.345597
O O7 0.395103 0.752358 0.273062
O O8 0.396255 0.215941 0.775901
O O9 0.410859 0.330929 0.733769
O O10 0.408729 0.287950 0.000000
O O11 0.608690 0.821771 0.500000
O O12 0.754761 0.805085 0.654653
O O13 0.655321 0.897460 0.696494
O O14 0.982530 0.063047 0.752943
O O15 0.935805 0.106720 0.000000
O O16 0.591879 0.358469 0.162712
O O17 0.680131 0.453811 0.208689
O O18 0.563169 0.447329 0.000000
O O19 0.387315 0.734099 0.000000
O O20 0.705487 0.969491 0.500000
#
# Coordination Sequence:
#
# PCOD9442732 Si02
#       8
#     8   8   8   8   8   8   8   8
#     4  10  20  31  42  58  83 115 148 181 214 247
#     4   9  16  26  42  62  81 103 134 172 213 255
#     4   9  16  26  42  62  81 103 134 172 213 255
#     4   8  14  26  43  61  81 104 131 167 213 258
#     4  10  20  31  42  58  83 115 148 181 214 247
#     4   9  18  31  45  61  83 113 146 178 212 251
#     4   8  14  26  43  61  81 104 131 167 213 258
#     4   9  18  31  45  61  83 113 146 178 212 251
#
# _framework density 21.120659
#
# number of rings (size 3 to 8) (size 9 to 14) (size 15 to 20)
#    0.000    3.000    0.000    3.000    0.000    6.500 
#    0.000    5.000    0.000    0.000    0.000    0.000 
#    0.000    1.000    0.000   10.500    0.000    5.500 
#
# Total GULP energy -357036.337539 kJ/mol
# GULP energy per Si atom -5578.692774 kJ/mol
# Density = 2.107259 g / cm^3
# Si number density = 21.120659 Si / 1000 Ang^3
#
#
#
# Elastic Constant Matrix: (Units=GPa)
#
#
# Indices 1 2 3 4 5 6 
#
# 1 29.3396 -7.3060 -12.7412 0.0000 0.0000 0.0000
# 2 -7.3060 137.8021 63.4959 0.0000 0.0000 0.0000
# 3 -12.7412 63.4959 87.2660 0.0000 0.0000 0.0000
# 4 0.0000 0.0000 0.0000 18.9218 0.0000 0.0000
# 5 0.0000 0.0000 0.0000 0.0000 -19.6926 0.0000
# 6 0.0000 0.0000 0.0000 0.0000 0.0000 11.5167
#
#
#
# Elastic Compliance Matrix: (Units=1/GPa)
#
#
# Indices 1 2 3 4 5 6 
#
# 1 0.036447 -0.000782 0.005890 0.000000 0.000000 0.000000
# 2 -0.000782 0.010934 -0.008070 0.000000 0.000000 0.000000
# 3 0.005890 -0.008070 0.018191 0.000000 0.000000 0.000000
# 4 0.000000 0.000000 0.000000 0.052849 0.000000 0.000000
# 5 0.000000 0.000000 0.000000 0.000000 -0.050781 0.000000
# 6 0.000000 0.000000 0.000000 0.000000 0.000000 0.086830
#
#
# Mechanical properties :
#
#
# Convention : Reuss Voigt Hill
#
# Bulk Modulus (GPa) = 16.76471 37.92279 27.34375
# Shear Modulus (GPa) = 27.73537 16.21313 21.97425
#
# Velocity S-wave (km/s) = 3.62772 2.77364 3.22905
# Velocity P-wave (km/s) = 5.04995 5.31524 5.18429
#
# Compressibility (1/GPa) = 0.05964910
#
# Stress axis : x y z
#
# Youngs Moduli (GPa) = 27.43716 91.46113 54.97302
#
# Poissons Ratio (x) = 0.07150 -0.32380
# Poissons Ratio (y) = 0.02145 0.44361
# Poissons Ratio (z) = -0.16161 0.73805
#
# Static dielectric constant tensor:
#      x y z
#    x 1.824990 0.000000 0.000000 
#    y 0.000000 1.741120 0.000000 
#    z 0.000000 0.000000 1.732170 
# 
# From -- ./inp_files/8414.got.cif
#   From: 2010.05.17/outbox.cif.g08.bks.cpg/sg58_5_cif.got.tgz:8414.got - 2010.06.03 14:20:14.
