data_PCOD9442339
_publ_section_title
;
Structure prediction by ZEFSAII (Michael W. Deem and Ramdas Pophale) SiO2 
 PCOD9442339
Probable space group: P N N M
;
_chemical_formula_sum "Si O2"
_cell_formula_units_Z 52
_cell_length_a 14.375888
_cell_length_b 7.633750
_cell_length_c 19.323578
_cell_angle_alpha 90.000000
_cell_angle_beta 90.000000
_cell_angle_gamma 90.000000
_cell_volume 2120.606841
_symmetry_space_group_name_H-M "P N N M"
_symmetry_group_IT_number 58
_symmetry_cell_setting 'orthorhombic'
loop_
_space_group_symop_operation_xyz
x,y,z
-x,-y,z
1/2+x,1/2-y,1/2-z
1/2-x,1/2+y,1/2-z
-x,-y,-z
x,y,-z
1/2-x,1/2+y,1/2+z
1/2+x,1/2-y,1/2+z
loop_
_atom_site_type_symbol
_atom_site_label
_atom_site_fract_x
_atom_site_fract_y
_atom_site_fract_z
Si Si1 0.973592 0.798368 0.882519
Si Si2 0.616894 0.643766 0.125530
Si Si3 0.964742 0.696995 0.277899
Si Si4 0.817478 0.962533 0.500000
Si Si5 0.331120 0.207285 0.399465
Si Si6 0.224063 0.103155 0.886556
Si Si7 0.780433 0.880881 0.277874
O O1 0.976889 0.772657 0.799488
O O2 0.866848 0.779920 0.905723
O O3 0.059509 0.691007 0.913529
O O4 0.000000 0.000000 0.896348
O O5 0.524551 0.706584 0.163570
O O6 0.680113 0.802827 0.093995
O O7 0.676155 0.553433 0.187246
O O8 0.610046 0.512577 0.062114
O O9 0.855960 0.728175 0.292926
O O10 0.000000 0.500000 0.277670
O O11 0.738263 0.913346 0.441097
O O12 0.296162 0.407179 0.412630
O O13 0.313248 0.163401 0.318577
O O14 0.226181 0.095081 0.803338
#
# Coordination Sequence:
#
# PCOD9442339 Si02
#       7
#     8   8   8   4   8   8   8
#     4   9  19  36  60  90 120 146 179 235 303 354
#     4  11  22  40  57  81 121 156 190 237 285 339
#     4  11  21  34  59  92 118 144 185 237 295 356
#     4  10  26  42  56  76 112 166 209 234 276 334
#     4  10  20  39  58  81 116 153 194 236 277 339
#     4  10  19  34  62  91 113 144 187 239 298 348
#     4  10  20  35  59  91 118 147 180 232 303 353
#
# _framework density 24.521284000000001
#
# number of rings (size 3 to 8) (size 9 to 14) (size 15 to 20)
#    0.000    1.846    0.000    6.000    0.000    6.769 
#    0.000   11.538    0.000    0.000    0.000    0.000 
#    0.000    0.000    0.000    0.000    0.000    0.000 
#
# Total GULP energy -289984.728458 kJ/mol
# GULP energy per Si atom -5576.629393 kJ/mol
# Density = 2.446547 g / cm^3
# Si number density = 24.521284 Si / 1000 Ang^3
#
#
#
# Elastic Constant Matrix: (Units=GPa)
#
#
# Indices 1 2 3 4 5 6 
#
# 1 112.5822 15.3944 19.3465 0.0000 0.0000 0.0000
# 2 15.3944 54.3190 -2.9247 0.0000 0.0000 0.0000
# 3 19.3465 -2.9247 73.0417 0.0000 0.0000 0.0000
# 4 0.0000 0.0000 0.0000 -14.2568 0.0000 0.0000
# 5 0.0000 0.0000 0.0000 0.0000 30.5912 0.0000
# 6 0.0000 0.0000 0.0000 0.0000 0.0000 32.9287
#
#
#
# Elastic Compliance Matrix: (Units=1/GPa)
#
#
# Indices 1 2 3 4 5 6 
#
# 1 0.009743 -0.002907 -0.002697 0.000000 0.000000 0.000000
# 2 -0.002907 0.019317 0.001543 0.000000 0.000000 0.000000
# 3 -0.002697 0.001543 0.014467 0.000000 0.000000 0.000000
# 4 0.000000 0.000000 0.000000 -0.070142 0.000000 0.000000
# 5 0.000000 0.000000 0.000000 0.000000 0.032689 0.000000
# 6 0.000000 0.000000 0.000000 0.000000 0.000000 0.030369
#
#
# Mechanical properties :
#
#
# Convention : Reuss Voigt Hill
#
# Bulk Modulus (GPa) = 28.24358 33.73058 30.98708
# Shear Modulus (GPa) = 88.70699 23.72773 56.21736
#
# Velocity S-wave (km/s) = 6.02113 3.11406 4.79330
# Velocity P-wave (km/s) = 7.73833 5.16869 6.58016
#
# Compressibility (1/GPa) = 0.03540628
#
# Stress axis : x y z
#
# Youngs Moduli (GPa) = 102.63448 51.76893 69.12291
#
# Poissons Ratio (x) = 0.15047 0.18643
# Poissons Ratio (y) = 0.29831 -0.10668
# Poissons Ratio (z) = 0.27681 -0.07990
#
# Static dielectric constant tensor:
#      x y z
#    x 1.953810 0.000000 0.000000 
#    y 0.000000 2.042160 0.000000 
#    z 0.000000 0.000000 1.680320 
# 
# From -- ./inp_files/29968.got.cif
#   From: 2010.05.17/outbox.cif.g08.bks.cpg/sg58_15_cif.got.tgz:29968.got - 2010.06.03 14:20:14.
