data_PCOD9442081
_publ_section_title
;
Structure prediction by ZEFSAII (Michael W. Deem and Ramdas Pophale) SiO2 
 PCOD9442081
Probable space group: P N N M
;
_chemical_formula_sum "Si O2"
_cell_formula_units_Z 48
_cell_length_a 11.541535
_cell_length_b 18.386944
_cell_length_c 13.360147
_cell_angle_alpha 90.000000
_cell_angle_beta 90.000000
_cell_angle_gamma 90.000000
_cell_volume 2835.204327
_symmetry_space_group_name_H-M "P N N M"
_symmetry_group_IT_number 58
_symmetry_cell_setting 'orthorhombic'
loop_
_space_group_symop_operation_xyz
x,y,z
-x,-y,z
1/2+x,1/2-y,1/2-z
1/2-x,1/2+y,1/2-z
-x,-y,-z
x,y,-z
1/2-x,1/2+y,1/2+z
1/2+x,1/2-y,1/2+z
loop_
_atom_site_type_symbol
_atom_site_label
_atom_site_fract_x
_atom_site_fract_y
_atom_site_fract_z
Si Si1 0.561706 0.709099 0.881122
Si Si2 0.527971 0.159660 0.241376
Si Si3 0.080485 0.069545 0.619242
Si Si4 0.772792 0.402022 0.724606
Si Si5 0.871841 0.535434 0.612958
Si Si6 0.184940 0.245280 0.120574
O O1 0.498984 0.781133 0.843748
O O2 0.493978 0.638784 0.845817
O O3 0.696055 0.712351 0.852697
O O4 0.559225 0.708039 0.000000
O O5 0.401658 0.123448 0.259717
O O6 0.614171 0.099681 0.194168
O O7 0.582412 0.206683 0.331489
O O8 0.103258 0.074364 0.500000
O O9 0.197441 0.071185 0.682167
O O10 0.000000 0.000000 0.636277
O O11 0.790745 0.469908 0.649978
O O12 0.708353 0.334241 0.669713
O O13 0.842209 0.560313 0.500000
O O14 0.000000 0.500000 0.607803
O O15 0.174470 0.238970 0.000000
#
# Coordination Sequence:
#
# PCOD9442081 Si02
#       6
#     8   8   8   8   8   8
#     4   9  18  34  54  76 102 138 183 222 262 318
#     4  10  19  33  56  84 108 137 177 229 276 315
#     4  10  21  36  55  76 105 146 186 224 266 322
#     4  10  20  36  56  80 112 143 180 225 274 325
#     4   9  18  33  55  81 107 139 181 226 271 320
#     4  10  20  34  55  80 110 145 178 218 272 328
#
# _framework density 16.929997
#
# number of rings (size 3 to 8) (size 9 to 14) (size 15 to 20)
#    0.000    2.333    1.667    1.000    2.333    4.667 
#    0.000    0.000    0.000    9.000    0.000    0.000 
#    0.000    0.000    0.000    0.000    0.000    0.000 
#
# Total GULP energy -267279.601619 kJ/mol
# GULP energy per Si atom -5568.325034 kJ/mol
# Density = 1.689146 g / cm^3
# Si number density = 16.929997 Si / 1000 Ang^3
#
#
#
# Elastic Constant Matrix: (Units=GPa)
#
#
# Indices 1 2 3 4 5 6 
#
# 1 59.2516 41.2088 39.8083 0.0000 0.0000 0.0000
# 2 41.2088 79.5043 32.1920 0.0000 0.0000 0.0000
# 3 39.8083 32.1920 55.1726 0.0000 0.0000 0.0000
# 4 0.0000 0.0000 0.0000 37.0395 0.0000 0.0000
# 5 0.0000 0.0000 0.0000 0.0000 12.3342 0.0000
# 6 0.0000 0.0000 0.0000 0.0000 0.0000 23.7809
#
#
#
# Elastic Compliance Matrix: (Units=1/GPa)
#
#
# Indices 1 2 3 4 5 6 
#
# 1 0.039676 -0.011749 -0.021772 0.000000 0.000000 0.000000
# 2 -0.011749 0.019948 -0.003162 0.000000 0.000000 0.000000
# 3 -0.021772 -0.003162 0.035679 0.000000 0.000000 0.000000
# 4 0.000000 0.000000 0.000000 0.026998 0.000000 0.000000
# 5 0.000000 0.000000 0.000000 0.000000 0.081075 0.000000
# 6 0.000000 0.000000 0.000000 0.000000 0.000000 0.042051
#
#
# Mechanical properties :
#
#
# Convention : Reuss Voigt Hill
#
# Bulk Modulus (GPa) = 45.58523 46.70521 46.14522
# Shear Modulus (GPa) = 15.33248 20.01222 17.67235
#
# Velocity S-wave (km/s) = 3.01265 3.44184 3.23437
# Velocity P-wave (km/s) = 6.25185 6.59106 6.42369
#
# Compressibility (1/GPa) = 0.02193693
#
# Stress axis : x y z
#
# Youngs Moduli (GPa) = 25.20410 50.12990 28.02806
#
# Poissons Ratio (x) = 0.58900 0.61022
# Poissons Ratio (y) = 0.29613 0.08862
# Poissons Ratio (z) = 0.54874 0.15850
#
# Static dielectric constant tensor:
#      x y z
#    x 1.581030 0.000000 0.000000 
#    y 0.000000 1.588810 0.000000 
#    z 0.000000 0.000000 1.555300 
# 
# From -- ./inp_files/14359.got.cif
#   From: 2010.05.17/outbox.cif.g08.bks.cpg/sg58_8_cif.got.tgz:14359.got - 2010.06.03 14:20:14.
