data_PCOD9442563
_publ_section_title
;
Structure prediction by ZEFSAII (Michael W. Deem and Ramdas Pophale) SiO2 
 PCOD9442563
Probable space group: P N N M
;
_chemical_formula_sum "Si O2"
_cell_formula_units_Z 58
_cell_length_a 8.494652
_cell_length_b 31.259480
_cell_length_c 11.173350
_cell_angle_alpha 90.000000
_cell_angle_beta 90.000000
_cell_angle_gamma 90.000000
_cell_volume 2966.953530
_symmetry_space_group_name_H-M "P N N M"
_symmetry_group_IT_number 58
_symmetry_cell_setting 'orthorhombic'
loop_
_space_group_symop_operation_xyz
x,y,z
-x,-y,z
1/2+x,1/2-y,1/2-z
1/2-x,1/2+y,1/2-z
-x,-y,-z
x,y,-z
1/2-x,1/2+y,1/2+z
1/2+x,1/2-y,1/2+z
loop_
_atom_site_type_symbol
_atom_site_label
_atom_site_fract_x
_atom_site_fract_y
_atom_site_fract_z
Si Si1 0.180039 0.061249 0.186868
Si Si2 0.000000 0.000000 0.000000
Si Si3 0.309819 0.494811 0.868399
Si Si4 0.019235 0.127899 0.364241
Si Si5 0.819087 0.601346 0.136735
Si Si6 0.527736 0.881691 0.869978
Si Si7 0.319062 0.720346 0.133440
Si Si8 0.382047 0.218031 0.131502
O O1 0.261685 0.025633 0.270185
O O2 0.317083 0.089060 0.128750
O O3 0.083550 0.094047 0.269721
O O4 0.066792 0.033765 0.102310
O O5 0.500000 0.500000 0.861979
O O6 0.743985 0.553879 0.854763
O O7 0.260404 0.509206 0.000000
O O8 0.044735 0.111306 0.500000
O O9 0.831438 0.132636 0.350961
O O10 0.107139 0.172905 0.353312
O O11 0.932697 0.608061 0.248934
O O12 0.883890 0.606120 0.000000
O O13 0.576844 0.832158 0.863779
O O14 0.444405 0.888413 0.000000
O O15 0.459946 0.754242 0.133090
O O16 0.213879 0.728747 0.249289
O O17 0.242662 0.722201 0.000000
O O18 0.304788 0.226007 0.000000
#
# Coordination Sequence:
#
# PCOD9442563 Si02
#       8
#     8   2   8   8   8   8   8   8
#     4  12  21  40  64  89 122 166 214 269 319 376
#     4  12  24  36  62  94 124 168 230 274 300 392
#     4  10  19  36  61  86 115 151 203 266 317 366
#     4  10  20  39  67  96 121 159 219 277 323 376
#     4  10  22  40  62  94 124 162 213 265 318 378
#     4  11  25  44  60  88 133 175 207 256 329 397
#     4  10  22  40  66  98 129 164 218 270 323 388
#     4  10  23  43  65  93 135 174 208 266 331 400
#
# _framework density 19.548672
#
# number of rings (size 3 to 8) (size 9 to 14) (size 15 to 20)
#    0.000    1.517    4.138    0.414    1.931    2.759 
#    4.966    2.069    0.000    0.000    0.000    0.000 
#    0.000    0.000    0.000    0.000    0.000    0.000 
#
# Total GULP energy -322996.963049 kJ/mol
# GULP energy per Si atom -5568.913156 kJ/mol
# Density = 1.950418 g / cm^3
# Si number density = 19.548672 Si / 1000 Ang^3
#
#
#
# Elastic Constant Matrix: (Units=GPa)
#
#
# Indices 1 2 3 4 5 6 
#
# 1 41.5629 0.4866 60.8519 0.0000 0.0000 0.0000
# 2 0.4866 20.6732 27.7769 0.0000 0.0000 0.0000
# 3 60.8519 27.7769 195.8162 0.0000 0.0000 0.0000
# 4 0.0000 0.0000 0.0000 112.5571 0.0000 0.0000
# 5 0.0000 0.0000 0.0000 0.0000 84.8049 0.0000
# 6 0.0000 0.0000 0.0000 0.0000 0.0000 21.6630
#
#
#
# Elastic Compliance Matrix: (Units=1/GPa)
#
#
# Indices 1 2 3 4 5 6 
#
# 1 0.053512 0.026049 -0.020324 0.000000 0.000000 0.000000
# 2 0.026049 0.072442 -0.018371 0.000000 0.000000 0.000000
# 3 -0.020324 -0.018371 0.014029 0.000000 0.000000 0.000000
# 4 0.000000 0.000000 0.000000 0.008884 0.000000 0.000000
# 5 0.000000 0.000000 0.000000 0.000000 0.011792 0.000000
# 6 0.000000 0.000000 0.000000 0.000000 0.000000 0.046162
#
#
# Mechanical properties :
#
#
# Convention : Reuss Voigt Hill
#
# Bulk Modulus (GPa) = 8.71916 48.47588 28.59752
# Shear Modulus (GPa) = 18.49493 55.06746 36.78120
#
# Velocity S-wave (km/s) = 3.07921 5.31324 4.34235
# Velocity P-wave (km/s) = 4.13666 7.90520 6.30888
#
# Compressibility (1/GPa) = 0.11468994
#
# Stress axis : x y z
#
# Youngs Moduli (GPa) = 18.68742 13.80406 71.28175
#
# Poissons Ratio (x) = -0.35958 1.44876
# Poissons Ratio (y) = -0.48679 1.30952
# Poissons Ratio (z) = 0.37981 0.25360
#
# Static dielectric constant tensor:
#      x y z
#    x 1.687970 0.000000 0.000000 
#    y 0.000000 1.674630 0.000000 
#    z 0.000000 0.000000 1.734970 
# 
# From -- ./inp_files/13385.got.cif
#   From: 2010.05.17/outbox.cif.g08.bks.cpg/sg58_7_cif.got.tgz:13385.got - 2010.06.03 14:20:14.
