data_PCOD9442284
_publ_section_title
;
Structure prediction by ZEFSAII (Michael W. Deem and Ramdas Pophale) SiO2 
 PCOD9442284
Probable space group: P N N M
;
_chemical_formula_sum "Si O2"
_cell_formula_units_Z 64
_cell_length_a 13.194562
_cell_length_b 28.663423
_cell_length_c 8.164668
_cell_angle_alpha 90.000000
_cell_angle_beta 90.000000
_cell_angle_gamma 90.000000
_cell_volume 3087.888149
_symmetry_space_group_name_H-M "P N N M"
_symmetry_group_IT_number 58
_symmetry_cell_setting 'orthorhombic'
loop_
_space_group_symop_operation_xyz
x,y,z
-x,-y,z
1/2+x,1/2-y,1/2-z
1/2-x,1/2+y,1/2-z
-x,-y,-z
x,y,-z
1/2-x,1/2+y,1/2+z
1/2+x,1/2-y,1/2+z
loop_
_atom_site_type_symbol
_atom_site_label
_atom_site_fract_x
_atom_site_fract_y
_atom_site_fract_z
Si Si1 0.960024 0.049946 0.304649
Si Si2 0.837549 0.687280 0.698562
Si Si3 0.129721 0.121197 0.695538
Si Si4 0.228518 0.210715 0.195972
Si Si5 0.936475 0.339224 0.699571
Si Si6 0.327483 0.069895 0.809118
Si Si7 0.754765 0.092909 0.810031
Si Si8 0.104342 0.478226 0.810637
O O1 0.970503 0.047317 0.500000
O O2 0.844640 0.063216 0.268475
O O3 0.029638 0.093563 0.250608
O O4 0.000000 0.000000 0.237847
O O5 0.838918 0.685403 0.500000
O O6 0.794860 0.736872 0.752018
O O7 0.767510 0.644400 0.757946
O O8 0.953873 0.678670 0.754122
O O9 0.142075 0.115324 0.500000
O O10 0.142924 0.175639 0.735119
O O11 0.222730 0.096961 0.788041
O O12 0.339691 0.192048 0.252219
O O13 0.227276 0.207361 0.000000
O O14 0.935953 0.339265 0.500000
O O15 0.911903 0.392687 0.748507
O O16 0.323141 0.023046 0.705364
O O17 0.343665 0.058405 0.000000
O O18 0.651426 0.063919 0.788313
O O19 0.779964 0.097186 0.000000
O O20 0.000000 0.500000 0.745943
O O21 0.091719 0.464826 0.000000
#
# Coordination Sequence:
#
# PCOD9442284 Si02
#       8
#     8   8   8   8   8   8   8   8
#     4  10  22  40  61  85 119 162 201 239 290 358
#     4  10  21  39  59  81 112 149 189 235 293 353
#     4  10  20  36  59  85 114 151 192 236 288 346
#     4  10  21  37  58  85 113 148 197 247 292 344
#     4   8  17  35  57  79 108 145 182 224 280 344
#     4  10  19  34  58  85 112 143 184 235 282 330
#     4  11  24  39  59  87 117 150 191 244 298 350
#     4  11  23  37  55  81 114 151 189 229 276 337
#
# _framework density 20.726140000000001
#
# number of rings (size 3 to 8) (size 9 to 14) (size 15 to 20)
#    0.000    2.000    0.000    4.125    0.000    6.250 
#    0.000    7.500    0.000    0.000    0.000    0.000 
#    0.000    0.000    0.000    0.000    0.000    0.000 
#
# Total GULP energy -357342.218124 kJ/mol
# GULP energy per Si atom -5583.472158 kJ/mol
# Density = 2.067897 g / cm^3
# Si number density = 20.726140 Si / 1000 Ang^3
#
#
#
# Elastic Constant Matrix: (Units=GPa)
#
#
# Indices 1 2 3 4 5 6 
#
# 1 83.1127 44.6319 4.5204 0.0000 0.0000 0.0000
# 2 44.6319 142.4296 9.5369 0.0000 0.0000 0.0000
# 3 4.5204 9.5369 25.9475 0.0000 0.0000 0.0000
# 4 0.0000 0.0000 0.0000 17.0654 0.0000 0.0000
# 5 0.0000 0.0000 0.0000 0.0000 15.2770 0.0000
# 6 0.0000 0.0000 0.0000 0.0000 0.0000 30.1426
#
#
#
# Elastic Compliance Matrix: (Units=1/GPa)
#
#
# Indices 1 2 3 4 5 6 
#
# 1 0.014486 -0.004481 -0.000877 0.000000 0.000000 0.000000
# 2 -0.004481 0.008584 -0.002374 0.000000 0.000000 0.000000
# 3 -0.000877 -0.002374 0.039565 0.000000 0.000000 0.000000
# 4 0.000000 0.000000 0.000000 0.058598 0.000000 0.000000
# 5 0.000000 0.000000 0.000000 0.000000 0.065458 0.000000
# 6 0.000000 0.000000 0.000000 0.000000 0.000000 0.033176
#
#
# Mechanical properties :
#
#
# Convention : Reuss Voigt Hill
#
# Bulk Modulus (GPa) = 21.19949 40.98535 31.09242
# Shear Modulus (GPa) = 19.91609 25.35037 22.63323
#
# Velocity S-wave (km/s) = 3.10323 3.50109 3.30815
# Velocity P-wave (km/s) = 4.80527 6.01342 5.44297
#
# Compressibility (1/GPa) = 0.04717094
#
# Stress axis : x y z
#
# Youngs Moduli (GPa) = 69.03410 116.49561 25.27496
#
# Poissons Ratio (x) = 0.52196 0.02216
# Poissons Ratio (y) = 0.30931 0.06001
# Poissons Ratio (z) = 0.06053 0.27661
#
# Static dielectric constant tensor:
#      x y z
#    x 1.771740 0.000000 0.000000 
#    y 0.000000 1.758330 0.000000 
#    z 0.000000 0.000000 1.719980 
# 
# From -- ./inp_files/4636.got.cif
#   From: 2010.05.17/outbox.cif.g08.bks.cpg/sg58_3_cif.got.tgz:4636.got - 2010.06.03 14:20:14.
