data_PCOD9442781
_publ_section_title
;
Structure prediction by ZEFSAII (Michael W. Deem and Ramdas Pophale) SiO2 
 PCOD9442781
Probable space group: P N N M
;
_chemical_formula_sum "Si O2"
_cell_formula_units_Z 64
_cell_length_a 8.030793
_cell_length_b 19.855375
_cell_length_c 22.117778
_cell_angle_alpha 90.000000
_cell_angle_beta 90.000000
_cell_angle_gamma 90.000000
_cell_volume 3526.777165
_symmetry_space_group_name_H-M "P N N M"
_symmetry_group_IT_number 58
_symmetry_cell_setting 'orthorhombic'
loop_
_space_group_symop_operation_xyz
x,y,z
-x,-y,z
1/2+x,1/2-y,1/2-z
1/2-x,1/2+y,1/2-z
-x,-y,-z
x,y,-z
1/2-x,1/2+y,1/2+z
1/2+x,1/2-y,1/2+z
loop_
_atom_site_type_symbol
_atom_site_label
_atom_site_fract_x
_atom_site_fract_y
_atom_site_fract_z
Si Si1 0.649379 0.551638 0.179903
Si Si2 0.416530 0.134577 0.667893
Si Si3 0.998585 0.787122 0.846158
Si Si4 0.302910 0.242751 0.069865
Si Si5 0.595713 0.062016 0.222515
Si Si6 0.936094 0.830453 0.284527
Si Si7 0.119518 0.303720 0.645534
Si Si8 0.339333 0.895224 0.570247
O O1 0.500000 0.500000 0.172503
O O2 0.737727 0.536585 0.244086
O O3 0.591386 0.629118 0.189337
O O4 0.754511 0.553639 0.117882
O O5 0.487108 0.209881 0.676300
O O6 0.498096 0.087557 0.717953
O O7 0.223325 0.135608 0.683978
O O8 0.478590 0.115954 0.600735
O O9 0.847767 0.790730 0.892815
O O10 0.953887 0.831780 0.787686
O O11 0.184705 0.799452 0.872077
O O12 0.480060 0.217633 0.096586
O O13 0.261377 0.323482 0.072737
O O14 0.294868 0.224180 0.000000
O O15 0.603281 0.123666 0.176470
O O16 0.500000 0.000000 0.193760
O O17 0.917025 0.753146 0.303852
O O18 0.345753 0.915534 0.500000
#
# Coordination Sequence:
#
# PCOD9442781 Si02
#       8
#     8   8   8   8   8   8   8   8
#     4  11  22  35  53  82 118 152 189 236 290 341
#     4   9  19  31  54  78 107 147 184 235 285 340
#     4  10  20  32  57  88 115 149 186 235 289 347
#     4  10  21  37  58  86 119 153 192 238 285 340
#     4  11  21  35  53  82 116 146 182 235 298 354
#     4  11  19  34  56  87 114 142 189 234 297 350
#     4  11  21  35  60  88 115 152 189 239 293 351
#     4   9  19  37  54  76 113 156 201 237 276 333
#
# _framework density 18.146878000000001
#
# number of rings (size 3 to 8) (size 9 to 14) (size 15 to 20)
#    0.000    1.750    3.750    1.500    1.750    0.750 
#    0.000    2.500    0.000   13.125    0.000    0.875 
#    0.000    0.000    0.000    0.000    0.000    0.000 
#
# Total GULP energy -356411.943236 kJ/mol
# GULP energy per Si atom -5568.936613 kJ/mol
# Density = 1.810558 g / cm^3
# Si number density = 18.146878 Si / 1000 Ang^3
#
#
#
# Elastic Constant Matrix: (Units=GPa)
#
#
# Indices 1 2 3 4 5 6 
#
# 1 94.8518 15.1147 43.8981 0.0000 0.0000 0.0000
# 2 15.1147 45.1680 -6.0908 0.0000 0.0000 0.0000
# 3 43.8981 -6.0908 75.8518 0.0000 0.0000 0.0000
# 4 0.0000 0.0000 0.0000 12.4400 0.0000 0.0000
# 5 0.0000 0.0000 0.0000 0.0000 18.7716 0.0000
# 6 0.0000 0.0000 0.0000 0.0000 0.0000 18.9147
#
#
#
# Elastic Compliance Matrix: (Units=1/GPa)
#
#
# Indices 1 2 3 4 5 6 
#
# 1 0.016215 -0.006765 -0.009928 0.000000 0.000000 0.000000
# 2 -0.006765 0.025204 0.005939 0.000000 0.000000 0.000000
# 3 -0.009928 0.005939 0.019406 0.000000 0.000000 0.000000
# 4 0.000000 0.000000 0.000000 0.080386 0.000000 0.000000
# 5 0.000000 0.000000 0.000000 0.000000 0.053272 0.000000
# 6 0.000000 0.000000 0.000000 0.000000 0.000000 0.052869
#
#
# Mechanical properties :
#
#
# Convention : Reuss Voigt Hill
#
# Bulk Modulus (GPa) = 25.43339 35.74617 30.58978
# Shear Modulus (GPa) = 17.73266 20.88856 19.31061
#
# Velocity S-wave (km/s) = 3.12937 3.39644 3.26564
# Velocity P-wave (km/s) = 5.20605 5.92639 5.57786
#
# Compressibility (1/GPa) = 0.03931839
#
# Stress axis : x y z
#
# Youngs Moduli (GPa) = 61.67006 39.67594 51.53058
#
# Poissons Ratio (x) = 0.26840 0.51157
# Poissons Ratio (y) = 0.41719 -0.30604
# Poissons Ratio (z) = 0.61224 -0.23563
#
# Static dielectric constant tensor:
#      x y z
#    x 1.724330 0.000000 0.000000 
#    y 0.000000 1.642020 0.000000 
#    z 0.000000 0.000000 1.596820 
# 
# From -- ./inp_files/25717.got.cif
#   From: 2010.05.17/outbox.cif.g08.bks.cpg/sg58_13_cif.got.tgz:25717.got - 2010.06.03 14:20:14.
