data_PCOD9442687
_publ_section_title
;
Structure prediction by ZEFSAII (Michael W. Deem and Ramdas Pophale) SiO2 
 PCOD9442687
Probable space group: P N N M
;
_chemical_formula_sum "Si O2"
_cell_formula_units_Z 48
_cell_length_a 27.909985
_cell_length_b 10.294946
_cell_length_c 8.621528
_cell_angle_alpha 90.000000
_cell_angle_beta 90.000000
_cell_angle_gamma 90.000000
_cell_volume 2477.239059
_symmetry_space_group_name_H-M "P N N M"
_symmetry_group_IT_number 58
_symmetry_cell_setting 'orthorhombic'
loop_
_space_group_symop_operation_xyz
x,y,z
-x,-y,z
1/2+x,1/2-y,1/2-z
1/2-x,1/2+y,1/2-z
-x,-y,-z
x,y,-z
1/2-x,1/2+y,1/2+z
1/2+x,1/2-y,1/2+z
loop_
_atom_site_type_symbol
_atom_site_label
_atom_site_fract_x
_atom_site_fract_y
_atom_site_fract_z
Si Si1 0.291540 0.595450 0.814285
Si Si2 0.892837 0.544497 0.311251
Si Si3 0.215729 0.390773 0.312529
Si Si4 0.929510 0.262150 0.687639
Si Si5 0.039752 0.216277 0.687649
Si Si6 0.892525 0.999243 0.815749
O O1 0.254094 0.488586 0.757389
O O2 0.276071 0.740923 0.767072
O O3 0.343869 0.564004 0.747903
O O4 0.294829 0.593511 0.000000
O O5 0.893674 0.545163 0.500000
O O6 0.838245 0.570962 0.264207
O O7 0.911581 0.403772 0.261064
O O8 0.927706 0.661288 0.262274
O O9 0.218217 0.398754 0.500000
O O10 0.927189 0.258123 0.500000
O O11 0.898227 0.145295 0.754160
O O12 0.984803 0.238873 0.732785
O O13 0.041582 0.208391 0.500000
O O14 0.063142 0.086510 0.754559
O O15 0.891877 0.998608 0.000000
#
# Coordination Sequence:
#
# PCOD9442687 Si02
#       6
#     8   8   8   8   8   8
#     4  11  24  43  66  90 120 156 199 246 300 359
#     4   9  18  37  63  91 121 153 197 249 297 352
#     4  10  22  41  64  92 123 154 196 248 299 354
#     4  10  21  36  62  94 121 158 202 246 299 357
#     4  10  19  38  64  90 120 156 203 250 299 358
#     4  12  25  40  59  86 124 163 204 248 297 351
#
# _framework density 19.376411000000001
#
# number of rings (size 3 to 8) (size 9 to 14) (size 15 to 20)
#    0.000    1.667    1.667    3.000    2.333    6.000 
#    0.000    0.833    0.000    2.000    0.000    0.000 
#    0.000    0.000    0.000    0.000    0.000    0.000 
#
# Total GULP energy -268316.981036 kJ/mol
# GULP energy per Si atom -5589.937105 kJ/mol
# Density = 1.933231 g / cm^3
# Si number density = 19.376411 Si / 1000 Ang^3
#
#
#
# Elastic Constant Matrix: (Units=GPa)
#
#
# Indices 1 2 3 4 5 6 
#
# 1 63.2378 23.4711 20.8350 0.0000 0.0000 0.0000
# 2 23.4711 111.0509 21.5458 0.0000 0.0000 0.0000
# 3 20.8350 21.5458 25.6714 0.0000 0.0000 0.0000
# 4 0.0000 0.0000 0.0000 16.0271 0.0000 0.0000
# 5 0.0000 0.0000 0.0000 0.0000 20.2471 0.0000
# 6 0.0000 0.0000 0.0000 0.0000 0.0000 43.1580
#
#
#
# Elastic Compliance Matrix: (Units=1/GPa)
#
#
# Indices 1 2 3 4 5 6 
#
# 1 0.021766 -0.001401 -0.016490 0.000000 0.000000 0.000000
# 2 -0.001401 0.010847 -0.007966 0.000000 0.000000 0.000000
# 3 -0.016490 -0.007966 0.059023 0.000000 0.000000 0.000000
# 4 0.000000 0.000000 0.000000 0.062394 0.000000 0.000000
# 5 0.000000 0.000000 0.000000 0.000000 0.049390 0.000000
# 6 0.000000 0.000000 0.000000 0.000000 0.000000 0.023171
#
#
# Mechanical properties :
#
#
# Convention : Reuss Voigt Hill
#
# Bulk Modulus (GPa) = 25.04903 36.85154 30.95029
# Shear Modulus (GPa) = 17.14609 24.82699 20.98654
#
# Velocity S-wave (km/s) = 2.97795 3.58341 3.29461
# Velocity P-wave (km/s) = 4.97794 6.01508 5.52091
#
# Compressibility (1/GPa) = 0.03992171
#
# Stress axis : x y z
#
# Youngs Moduli (GPa) = 45.94287 92.19465 16.94259
#
# Poissons Ratio (x) = 0.12918 0.27938
# Poissons Ratio (y) = 0.06437 0.13497
# Poissons Ratio (z) = 0.75758 0.73445
#
# Static dielectric constant tensor:
#      x y z
#    x 1.647810 0.000000 0.000000 
#    y 0.000000 1.656380 0.000000 
#    z 0.000000 0.000000 1.660200 
# 
# From -- ./inp_files/2982.got.cif
#   From: 2010.05.17/outbox.cif.g08.bks.cpg/sg58_2_cif.got.tgz:2982.got - 2010.06.03 14:20:14.
