data_PCOD9442227
_publ_section_title
;
Structure prediction by ZEFSAII (Michael W. Deem and Ramdas Pophale) SiO2 
 PCOD9442227
Probable space group: P N N M
;
_chemical_formula_sum "Si O2"
_cell_formula_units_Z 48
_cell_length_a 17.120185
_cell_length_b 18.412597
_cell_length_c 8.668184
_cell_angle_alpha 90.000000
_cell_angle_beta 90.000000
_cell_angle_gamma 90.000000
_cell_volume 2732.446218
_symmetry_space_group_name_H-M "P N N M"
_symmetry_group_IT_number 58
_symmetry_cell_setting 'orthorhombic'
loop_
_space_group_symop_operation_xyz
x,y,z
-x,-y,z
1/2+x,1/2-y,1/2-z
1/2-x,1/2+y,1/2-z
-x,-y,-z
x,y,-z
1/2-x,1/2+y,1/2+z
1/2+x,1/2-y,1/2+z
loop_
_atom_site_type_symbol
_atom_site_label
_atom_site_fract_x
_atom_site_fract_y
_atom_site_fract_z
Si Si1 0.859439 0.325215 0.684115
Si Si2 0.254969 0.550393 0.686461
Si Si3 0.996132 0.585591 0.814507
Si Si4 0.170436 0.831514 0.815450
Si Si5 0.680045 0.095412 0.684755
Si Si6 0.913824 0.020714 0.812213
O O1 0.856970 0.317919 0.500000
O O2 0.784818 0.374228 0.733438
O O3 0.857952 0.246103 0.758353
O O4 0.935965 0.369770 0.733347
O O5 0.251934 0.546100 0.500000
O O6 0.204248 0.483816 0.752248
O O7 0.344439 0.534661 0.733598
O O8 0.909202 0.611919 0.772429
O O9 0.000000 0.500000 0.776437
O O10 0.005932 0.591918 0.000000
O O11 0.256245 0.849372 0.750435
O O12 0.115164 0.898932 0.765462
O O13 0.173427 0.832884 0.000000
O O14 0.684744 0.093891 0.500000
O O15 0.916197 0.020180 0.000000
O O16 0.000000 0.000000 0.756381
#
# Coordination Sequence:
#
# PCOD9442227 Si02
#       6
#     8   8   8   8   8   8
#     4  11  22  35  53  80 115 147 182 227 276 331
#     4   9  18  32  53  79 105 138 178 219 268 325
#     4  10  20  35  56  83 111 143 185 227 276 336
#     4  10  21  37  56  78 110 145 182 227 280 333
#     4  10  19  34  57  80 105 140 182 223 269 330
#     4   8  15  32  57  79  98 130 180 227 264 314
#
# _framework density 17.566676999999999
#
# number of rings (size 3 to 8) (size 9 to 14) (size 15 to 20)
#    0.000    2.333    1.667    2.500    0.000    2.333 
#    3.000    0.000    0.000   12.500    0.000    0.000 
#    0.000    0.000    0.000    0.000    0.000    0.000 
#
# Total GULP energy -267731.211461 kJ/mol
# GULP energy per Si atom -5577.733572 kJ/mol
# Density = 1.752669 g / cm^3
# Si number density = 17.566677 Si / 1000 Ang^3
#
#
#
# Elastic Constant Matrix: (Units=GPa)
#
#
# Indices 1 2 3 4 5 6 
#
# 1 153.5048 69.6318 28.0661 0.0000 0.0000 0.0000
# 2 69.6318 93.0914 17.4138 0.0000 0.0000 0.0000
# 3 28.0661 17.4138 19.3724 0.0000 0.0000 0.0000
# 4 0.0000 0.0000 0.0000 26.6843 0.0000 0.0000
# 5 0.0000 0.0000 0.0000 0.0000 23.4570 0.0000
# 6 0.0000 0.0000 0.0000 0.0000 0.0000 21.4745
#
#
#
# Elastic Compliance Matrix: (Units=1/GPa)
#
#
# Indices 1 2 3 4 5 6 
#
# 1 0.011444 -0.006562 -0.010681 0.000000 0.000000 0.000000
# 2 -0.006562 0.016676 -0.005483 0.000000 0.000000 0.000000
# 3 -0.010681 -0.005483 0.072023 0.000000 0.000000 0.000000
# 4 0.000000 0.000000 0.000000 0.037475 0.000000 0.000000
# 5 0.000000 0.000000 0.000000 0.000000 0.042631 0.000000
# 6 0.000000 0.000000 0.000000 0.000000 0.000000 0.046567
#
#
# Mechanical properties :
#
#
# Convention : Reuss Voigt Hill
#
# Bulk Modulus (GPa) = 18.28467 55.13246 36.70857
# Shear Modulus (GPa) = 17.21170 24.38028 20.79599
#
# Velocity S-wave (km/s) = 3.13356 3.72946 3.44442
# Velocity P-wave (km/s) = 4.85011 7.07092 6.06306
#
# Compressibility (1/GPa) = 0.05469062
#
# Stress axis : x y z
#
# Youngs Moduli (GPa) = 87.38251 59.96578 13.88437
#
# Poissons Ratio (x) = 0.39349 0.14830
# Poissons Ratio (y) = 0.57340 0.07613
# Poissons Ratio (z) = 0.93334 0.32882
#
# Static dielectric constant tensor:
#      x y z
#    x 1.605990 0.000000 0.000000 
#    y 0.000000 1.576210 0.000000 
#    z 0.000000 0.000000 1.593450 
# 
# From -- ./inp_files/5769.got.cif
#   From: 2010.05.17/outbox.cif.g08.bks.cpg/sg58_3_cif.got.tgz:5769.got - 2010.06.03 14:20:14.
