data_PCOD9442473
_publ_section_title
;
Structure prediction by ZEFSAII (Michael W. Deem and Ramdas Pophale) SiO2 
 PCOD9442473
Probable space group: P N N M
;
_chemical_formula_sum "Si O2"
_cell_formula_units_Z 64
_cell_length_a 12.312218
_cell_length_b 31.016523
_cell_length_c 7.758394
_cell_angle_alpha 90.000000
_cell_angle_beta 90.000000
_cell_angle_gamma 90.000000
_cell_volume 2962.792513
_symmetry_space_group_name_H-M "P N N M"
_symmetry_group_IT_number 58
_symmetry_cell_setting 'orthorhombic'
loop_
_space_group_symop_operation_xyz
x,y,z
-x,-y,z
1/2+x,1/2-y,1/2-z
1/2-x,1/2+y,1/2-z
-x,-y,-z
x,y,-z
1/2-x,1/2+y,1/2+z
1/2+x,1/2-y,1/2+z
loop_
_atom_site_type_symbol
_atom_site_label
_atom_site_fract_x
_atom_site_fract_y
_atom_site_fract_z
Si Si1 0.428299 0.129560 0.200787
Si Si2 0.263988 0.325092 0.202791
Si Si3 0.179195 0.121831 0.296548
Si Si4 0.991359 0.950116 0.208870
Si Si5 0.446227 0.955965 0.789217
Si Si6 0.047894 0.283792 0.203285
Si Si7 0.273570 0.420018 0.291925
Si Si8 0.999358 0.811724 0.299309
O O1 0.299034 0.122971 0.217485
O O2 0.490357 0.087063 0.270159
O O3 0.469280 0.174940 0.277313
O O4 0.457018 0.132532 0.000000
O O5 0.232495 0.374578 0.223112
O O6 0.383366 0.321211 0.282180
O O7 0.166334 0.296920 0.274296
O O8 0.271999 0.314259 0.000000
O O9 0.196004 0.128274 0.500000
O O10 0.111488 0.077684 0.269202
O O11 0.100284 0.160133 0.227231
O O12 0.104358 0.928615 0.268516
O O13 0.988403 0.949451 0.000000
O O14 0.000000 0.000000 0.262260
O O15 0.319102 0.953887 0.742570
O O16 0.500000 0.000000 0.728162
O O17 0.451989 0.955831 0.000000
O O18 0.013855 0.239374 0.289323
O O19 0.056263 0.274752 0.000000
O O20 0.276876 0.418410 0.500000
O O21 0.004845 0.825201 0.500000
#
# Coordination Sequence:
#
# PCOD9442473 Si02
#       8
#     8   8   8   8   8   8   8   8
#     4  11  23  40  63  87 121 161 199 245 301 359
#     4  10  21  40  62  85 118 154 192 244 299 352
#     4  11  24  42  62  87 123 161 202 250 304 363
#     4  10  22  38  61  92 123 158 203 251 300 358
#     4   9  19  35  59  89 118 153 197 244 292 344
#     4  11  24  40  62  91 121 154 197 247 297 353
#     4  10  19  35  61  89 116 151 200 249 291 348
#     4  10  23  42  62  86 118 158 199 243 298 357
#
# _framework density 21.601241999999999
#
# number of rings (size 3 to 8) (size 9 to 14) (size 15 to 20)
#    0.000    1.750    2.500    1.125    3.500    2.250 
#    0.000    0.000    0.000    1.875    0.000    0.000 
#    0.000    0.000    0.000    0.000    0.000    0.000 
#
# Total GULP energy -357379.133248 kJ/mol
# GULP energy per Si atom -5584.048957 kJ/mol
# Density = 2.155208 g / cm^3
# Si number density = 21.601242 Si / 1000 Ang^3
#
#
#
# Elastic Constant Matrix: (Units=GPa)
#
#
# Indices 1 2 3 4 5 6 
#
# 1 105.3380 15.9324 -4.9665 0.0000 0.0000 0.0000
# 2 15.9324 88.0412 -11.6228 0.0000 0.0000 0.0000
# 3 -4.9665 -11.6228 33.8257 0.0000 0.0000 0.0000
# 4 0.0000 0.0000 0.0000 14.5428 0.0000 0.0000
# 5 0.0000 0.0000 0.0000 0.0000 6.1669 0.0000
# 6 0.0000 0.0000 0.0000 0.0000 0.0000 36.0666
#
#
#
# Elastic Compliance Matrix: (Units=1/GPa)
#
#
# Indices 1 2 3 4 5 6 
#
# 1 0.009785 -0.001656 0.000868 0.000000 0.000000 0.000000
# 2 -0.001656 0.012178 0.003941 0.000000 0.000000 0.000000
# 3 0.000868 0.003941 0.031045 0.000000 0.000000 0.000000
# 4 0.000000 0.000000 0.000000 0.068762 0.000000 0.000000
# 5 0.000000 0.000000 0.000000 0.000000 0.162156 0.000000
# 6 0.000000 0.000000 0.000000 0.000000 0.000000 0.027726
#
#
# Mechanical properties :
#
#
# Convention : Reuss Voigt Hill
#
# Bulk Modulus (GPa) = 16.85951 25.09900 20.97925
# Shear Modulus (GPa) = 15.37900 26.54605 20.96253
#
# Velocity S-wave (km/s) = 2.67113 3.50939 3.11855
# Velocity P-wave (km/s) = 4.16354 5.29769 4.76449
#
# Compressibility (1/GPa) = 0.05931372
#
# Stress axis : x y z
#
# Youngs Moduli (GPa) = 102.20099 82.11287 32.21130
#
# Poissons Ratio (x) = 0.13599 -0.02795
# Poissons Ratio (y) = 0.16926 -0.12696
# Poissons Ratio (z) = -0.08867 -0.32364
#
# Static dielectric constant tensor:
#      x y z
#    x 1.798600 0.000000 0.000000 
#    y 0.000000 1.801450 0.000000 
#    z 0.000000 0.000000 1.805370 
# 
# From -- ./inp_files/4754.got.cif
#   From: 2010.05.17/outbox.cif.g08.bks.cpg/sg58_3_cif.got.tgz:4754.got - 2010.06.03 14:20:14.
