data_PCOD9442604
_publ_section_title
;
Structure prediction by ZEFSAII (Michael W. Deem and Ramdas Pophale) SiO2 
 PCOD9442604
Probable space group: P N N M
;
_chemical_formula_sum "Si O2"
_cell_formula_units_Z 58
_cell_length_a 15.573680
_cell_length_b 23.687744
_cell_length_c 8.614633
_cell_angle_alpha 90.000000
_cell_angle_beta 90.000000
_cell_angle_gamma 90.000000
_cell_volume 3177.984159
_symmetry_space_group_name_H-M "P N N M"
_symmetry_group_IT_number 58
_symmetry_cell_setting 'orthorhombic'
loop_
_space_group_symop_operation_xyz
x,y,z
-x,-y,z
1/2+x,1/2-y,1/2-z
1/2-x,1/2+y,1/2-z
-x,-y,-z
x,y,-z
1/2-x,1/2+y,1/2+z
1/2+x,1/2-y,1/2+z
loop_
_atom_site_type_symbol
_atom_site_label
_atom_site_fract_x
_atom_site_fract_y
_atom_site_fract_z
Si Si1 0.229810 0.736231 0.185529
Si Si2 0.062557 0.790662 0.315658
Si Si3 0.946955 0.580428 0.686934
Si Si4 0.875496 0.468524 0.184906
Si Si5 0.408484 0.792493 0.811406
Si Si6 0.958142 0.886541 0.827822
Si Si7 0.738366 0.384399 0.314048
Si Si8 0.000000 0.000000 0.000000
O O1 0.150503 0.775594 0.230855
O O2 0.319365 0.764278 0.238820
O O3 0.220997 0.675149 0.264487
O O4 0.232953 0.728590 0.000000
O O5 0.075013 0.785331 0.500000
O O6 0.024676 0.851763 0.273975
O O7 0.989340 0.745742 0.265883
O O8 0.950075 0.578594 0.500000
O O9 0.883848 0.531450 0.746647
O O10 0.919771 0.642850 0.738511
O O11 0.040954 0.564634 0.751049
O O12 0.791868 0.435144 0.239981
O O13 0.880092 0.470832 0.000000
O O14 0.406988 0.792965 0.000000
O O15 0.861349 0.884180 0.763826
O O16 0.956032 0.858093 0.000000
O O17 0.983841 0.950544 0.867047
O O18 0.740314 0.390702 0.500000
#
# Coordination Sequence:
#
# PCOD9442604 Si02
#       8
#     8   8   8   8   8   8   8   2
#     4  11  22  38  59  90 122 157 198 245 310 373
#     4  11  21  38  62  91 125 161 200 253 312 372
#     4  10  19  37  59  82 114 159 200 245 300 366
#     4  11  22  36  55  83 119 156 198 247 303 365
#     4   9  20  37  58  84 118 154 191 238 300 363
#     4   9  20  40  64  85 115 156 205 257 307 364
#     4  11  21  37  60  89 114 153 205 257 301 364
#     4   8  20  44  66  88 112 158 218 254 308 364
#
# _framework density 18.250561999999999
#
# number of rings (size 3 to 8) (size 9 to 14) (size 15 to 20)
#    0.414    1.379    1.379    4.552    0.000    1.655 
#    2.483    5.172    0.000    0.000    0.000    0.000 
#    0.000    0.000    0.000    0.000    0.000    0.000 
#
# Total GULP energy -323165.619500 kJ/mol
# GULP energy per Si atom -5571.821026 kJ/mol
# Density = 1.820902 g / cm^3
# Si number density = 18.250562 Si / 1000 Ang^3
#
#
#
# Elastic Constant Matrix: (Units=GPa)
#
#
# Indices 1 2 3 4 5 6 
#
# 1 43.8525 12.8127 4.2464 0.0000 0.0000 0.0000
# 2 12.8127 98.4538 11.4880 0.0000 0.0000 0.0000
# 3 4.2464 11.4880 53.2230 0.0000 0.0000 0.0000
# 4 0.0000 0.0000 0.0000 19.1221 0.0000 0.0000
# 5 0.0000 0.0000 0.0000 0.0000 11.2387 0.0000
# 6 0.0000 0.0000 0.0000 0.0000 0.0000 27.8293
#
#
#
# Elastic Compliance Matrix: (Units=1/GPa)
#
#
# Indices 1 2 3 4 5 6 
#
# 1 0.023787 -0.002948 -0.001261 0.000000 0.000000 0.000000
# 2 -0.002948 0.010785 -0.002093 0.000000 0.000000 0.000000
# 3 -0.001261 -0.002093 0.019341 0.000000 0.000000 0.000000
# 4 0.000000 0.000000 0.000000 0.052296 0.000000 0.000000
# 5 0.000000 0.000000 0.000000 0.000000 0.088978 0.000000
# 6 0.000000 0.000000 0.000000 0.000000 0.000000 0.035933
#
#
# Mechanical properties :
#
#
# Convention : Reuss Voigt Hill
#
# Bulk Modulus (GPa) = 24.20818 28.06927 26.13873
# Shear Modulus (GPa) = 19.41782 22.77016 21.09399
#
# Velocity S-wave (km/s) = 3.26537 3.53603 3.40339
# Velocity P-wave (km/s) = 5.24500 5.66433 5.45870
#
# Compressibility (1/GPa) = 0.04130835
#
# Stress axis : x y z
#
# Youngs Moduli (GPa) = 42.03914 92.72193 51.70306
#
# Poissons Ratio (x) = 0.27339 0.06522
# Poissons Ratio (y) = 0.12395 0.10820
# Poissons Ratio (z) = 0.05303 0.19403
#
# Static dielectric constant tensor:
#      x y z
#    x 1.622000 0.000000 0.000000 
#    y 0.000000 1.614930 0.000000 
#    z 0.000000 0.000000 1.628270 
# 
# From -- ./inp_files/6709.got.cif
#   From: 2010.05.17/outbox.cif.g08.bks.cpg/sg58_4_cif.got.tgz:6709.got - 2010.06.03 14:20:14.
