data_PCOD9442489
_publ_section_title
;
Structure prediction by ZEFSAII (Michael W. Deem and Ramdas Pophale) SiO2 
 PCOD9442489
Probable space group: P N N M
;
_chemical_formula_sum "Si O2"
_cell_formula_units_Z 64
_cell_length_a 17.845841
_cell_length_b 11.194552
_cell_length_c 15.485995
_cell_angle_alpha 90.000000
_cell_angle_beta 90.000000
_cell_angle_gamma 90.000000
_cell_volume 3093.733158
_symmetry_space_group_name_H-M "P N N M"
_symmetry_group_IT_number 58
_symmetry_cell_setting 'orthorhombic'
loop_
_space_group_symop_operation_xyz
x,y,z
-x,-y,z
1/2+x,1/2-y,1/2-z
1/2-x,1/2+y,1/2-z
-x,-y,-z
x,y,-z
1/2-x,1/2+y,1/2+z
1/2+x,1/2-y,1/2+z
loop_
_atom_site_type_symbol
_atom_site_label
_atom_site_fract_x
_atom_site_fract_y
_atom_site_fract_z
Si Si1 0.775380 0.367493 0.674685
Si Si2 0.367007 0.922785 0.898638
Si Si3 0.546469 0.208052 0.238468
Si Si4 0.922736 0.962103 0.647382
Si Si5 0.254383 0.534018 0.863999
Si Si6 0.216881 0.794506 0.904552
Si Si7 0.655951 0.199493 0.599430
Si Si8 0.110285 0.811046 0.759912
O O1 0.830696 0.448574 0.618338
O O2 0.749381 0.441442 0.759994
O O3 0.705697 0.315972 0.622129
O O4 0.822984 0.254034 0.708159
O O5 0.432916 0.892096 0.832259
O O6 0.298545 0.834178 0.871379
O O7 0.385819 0.905101 0.000000
O O8 0.568567 0.332711 0.190916
O O9 0.593132 0.191334 0.326237
O O10 0.459244 0.220842 0.260981
O O11 0.916078 0.066823 0.717824
O O12 0.840670 0.966866 0.604792
O O13 0.000000 0.000000 0.599558
O O14 0.215526 0.651633 0.902118
O O15 0.209635 0.416005 0.888730
O O16 0.147518 0.839633 0.850593
O O17 0.213538 0.843504 0.000000
O O18 0.629665 0.203450 0.500000
#
# Coordination Sequence:
#
# PCOD9442489 Si02
#       8
#     8   8   8   8   8   8   8   8
#     4  11  21  38  61  87 118 157 203 247 302 352
#     4  11  22  39  64  89 114 153 205 251 300 362
#     4  11  22  41  61  87 123 159 197 244 308 361
#     4  10  19  35  64  88 111 153 198 241 302 362
#     4  11  19  38  64  84 120 159 202 249 295 349
#     4  10  21  37  60  89 116 153 204 247 286 353
#     4  12  24  38  62  94 125 160 202 253 304 360
#     4  10  22  38  63  85 117 164 195 243 306 361
#
# _framework density 20.686980999999999
#
# number of rings (size 3 to 8) (size 9 to 14) (size 15 to 20)
#    0.000    1.250    5.000    2.250    0.000    1.000 
#    0.000    1.875    0.000    7.125    0.000    0.000 
#    0.000    0.000    0.000    0.000    0.000    0.000 
#
# Total GULP energy -357357.567988 kJ/mol
# GULP energy per Si atom -5583.712000 kJ/mol
# Density = 2.063990 g / cm^3
# Si number density = 20.686981 Si / 1000 Ang^3
#
#
#
# Elastic Constant Matrix: (Units=GPa)
#
#
# Indices 1 2 3 4 5 6 
#
# 1 64.3677 -17.2899 21.9703 0.0000 0.0000 0.0000
# 2 -17.2899 48.1245 3.4404 0.0000 0.0000 0.0000
# 3 21.9703 3.4404 87.6985 0.0000 0.0000 0.0000
# 4 0.0000 0.0000 0.0000 1.0222 0.0000 0.0000
# 5 0.0000 0.0000 0.0000 0.0000 3.8259 0.0000
# 6 0.0000 0.0000 0.0000 0.0000 0.0000 28.5687
#
#
#
# Elastic Compliance Matrix: (Units=1/GPa)
#
#
# Indices 1 2 3 4 5 6 
#
# 1 0.019232 0.007274 -0.005103 0.000000 0.000000 0.000000
# 2 0.007274 0.023589 -0.002748 0.000000 0.000000 0.000000
# 3 -0.005103 -0.002748 0.012789 0.000000 0.000000 0.000000
# 4 0.000000 0.000000 0.000000 0.978258 0.000000 0.000000
# 5 0.000000 0.000000 0.000000 0.000000 0.261375 0.000000
# 6 0.000000 0.000000 0.000000 0.000000 0.000000 0.035003
#
#
# Mechanical properties :
#
#
# Convention : Reuss Voigt Hill
#
# Bulk Modulus (GPa) = 18.36332 24.04801 21.20567
# Shear Modulus (GPa) = 3.70493 19.48804 11.59649
#
# Velocity S-wave (km/s) = 1.33972 3.07260 2.37020
# Velocity P-wave (km/s) = 3.35993 4.92319 4.21467
#
# Compressibility (1/GPa) = 0.05445637
#
# Stress axis : x y z
#
# Youngs Moduli (GPa) = 51.99783 42.39200 78.19243
#
# Poissons Ratio (x) = -0.30837 0.39904
# Poissons Ratio (y) = -0.37825 0.21485
# Poissons Ratio (z) = 0.26536 0.11648
#
# Static dielectric constant tensor:
#      x y z
#    x 1.758190 0.000000 0.000000 
#    y 0.000000 1.752850 0.000000 
#    z 0.000000 0.000000 1.789670 
# 
# From -- ./inp_files/22947.got.cif
#   From: 2010.05.17/outbox.cif.g08.bks.cpg/sg58_12_cif.got.tgz:22947.got - 2010.06.03 14:20:14.
