data_PCOD9442332
_publ_section_title
;
Structure prediction by ZEFSAII (Michael W. Deem and Ramdas Pophale) SiO2 
 PCOD9442332
Probable space group: P N N M
;
_chemical_formula_sum "Si O2"
_cell_formula_units_Z 48
_cell_length_a 22.114063
_cell_length_b 12.343450
_cell_length_c 8.979703
_cell_angle_alpha 90.000000
_cell_angle_beta 90.000000
_cell_angle_gamma 90.000000
_cell_volume 2451.134132
_symmetry_space_group_name_H-M "P N N M"
_symmetry_group_IT_number 58
_symmetry_cell_setting 'orthorhombic'
loop_
_space_group_symop_operation_xyz
x,y,z
-x,-y,z
1/2+x,1/2-y,1/2-z
1/2-x,1/2+y,1/2-z
-x,-y,-z
x,y,-z
1/2-x,1/2+y,1/2+z
1/2+x,1/2-y,1/2+z
loop_
_atom_site_type_symbol
_atom_site_label
_atom_site_fract_x
_atom_site_fract_y
_atom_site_fract_z
Si Si1 0.200905 0.588523 0.679021
Si Si2 0.928816 0.002586 0.178342
Si Si3 0.009852 0.371186 0.171674
Si Si4 0.636727 0.131892 0.178020
Si Si5 0.111195 0.752442 0.821282
Si Si6 0.825398 0.864575 0.678260
O O1 0.202143 0.590521 0.500000
O O2 0.163642 0.482234 0.731124
O O3 0.166906 0.694641 0.740894
O O4 0.268228 0.581397 0.742850
O O5 0.900516 0.121268 0.208205
O O6 0.887657 0.916271 0.263393
O O7 0.925537 0.982971 0.000000
O O8 0.000000 0.000000 0.218970
O O9 0.069739 0.348176 0.262574
O O10 0.000000 0.500000 0.175737
O O11 0.949818 0.310940 0.225344
O O12 0.019348 0.337628 0.000000
O O13 0.675659 0.237046 0.217995
O O14 0.634542 0.126200 0.000000
O O15 0.118493 0.738859 0.000000
O O16 0.821479 0.875461 0.500000
#
# Coordination Sequence:
#
# PCOD9442332 Si02
#       6
#     8   8   8   8   8   8
#     4  11  24  41  61  89 121 161 207 248 306 370
#     4  10  22  42  67  93 125 165 206 251 309 371
#     4  10  19  34  60  92 121 154 199 245 293 355
#     4  10  23  41  61  86 121 159 196 248 304 357
#     4  10  21  38  61  91 127 161 199 252 306 358
#     4  11  25  43  63  89 122 161 207 256 306 358
#
# _framework density 19.582771999999999
#
# number of rings (size 3 to 8) (size 9 to 14) (size 15 to 20)
#    0.000    1.667    1.667    2.000    2.333    5.333 
#    0.000    0.000    0.000    0.000    0.000    0.000 
#    0.000    0.000    0.000    0.000    0.000    0.000 
#
# Total GULP energy -268184.498931 kJ/mol
# GULP energy per Si atom -5587.177061 kJ/mol
# Density = 1.953820 g / cm^3
# Si number density = 19.582772 Si / 1000 Ang^3
#
#
#
# Elastic Constant Matrix: (Units=GPa)
#
#
# Indices 1 2 3 4 5 6 
#
# 1 103.8374 28.9104 29.5087 0.0000 0.0000 0.0000
# 2 28.9104 75.6863 36.4626 0.0000 0.0000 0.0000
# 3 29.5087 36.4626 26.3583 0.0000 0.0000 0.0000
# 4 0.0000 0.0000 0.0000 22.9148 0.0000 0.0000
# 5 0.0000 0.0000 0.0000 0.0000 33.7260 0.0000
# 6 0.0000 0.0000 0.0000 0.0000 0.0000 24.0133
#
#
#
# Elastic Compliance Matrix: (Units=1/GPa)
#
#
# Indices 1 2 3 4 5 6 
#
# 1 0.015341 0.007238 -0.027187 0.000000 0.000000 0.000000
# 2 0.007238 0.043025 -0.067620 0.000000 0.000000 0.000000
# 3 -0.027187 -0.067620 0.161917 0.000000 0.000000 0.000000
# 4 0.000000 0.000000 0.000000 0.043640 0.000000 0.000000
# 5 0.000000 0.000000 0.000000 0.000000 0.029651 0.000000
# 6 0.000000 0.000000 0.000000 0.000000 0.000000 0.041644
#
#
# Mechanical properties :
#
#
# Convention : Reuss Voigt Hill
#
# Bulk Modulus (GPa) = 22.15157 43.96061 33.05609
# Shear Modulus (GPa) = 9.51647 23.53084 16.52365
#
# Velocity S-wave (km/s) = 2.20684 3.47018 2.90795
# Velocity P-wave (km/s) = 4.22254 6.20915 5.30959
#
# Compressibility (1/GPa) = 0.04514352
#
# Stress axis : x y z
#
# Youngs Moduli (GPa) = 65.18293 23.24252 6.17600
#
# Poissons Ratio (x) = -0.16822 0.16791
# Poissons Ratio (y) = -0.47177 0.41762
# Poissons Ratio (z) = 1.77213 1.57167
#
# Static dielectric constant tensor:
#      x y z
#    x 1.665190 0.000000 0.000000 
#    y 0.000000 1.705250 0.000000 
#    z 0.000000 0.000000 1.658580 
# 
# From -- ./inp_files/9739.got.cif
#   From: 2010.05.17/outbox.cif.g08.bks.cpg/sg58_5_cif.got.tgz:9739.got - 2010.06.03 14:20:14.
