data_PCOD9442263
_publ_section_title
;
Structure prediction by ZEFSAII (Michael W. Deem and Ramdas Pophale) SiO2 
 PCOD9442263
Probable space group: P N N M
;
_chemical_formula_sum "Si O2"
_cell_formula_units_Z 40
_cell_length_a 9.011504
_cell_length_b 30.003828
_cell_length_c 7.710329
_cell_angle_alpha 90.000000
_cell_angle_beta 90.000000
_cell_angle_gamma 90.000000
_cell_volume 2084.715795
_symmetry_space_group_name_H-M "P N N M"
_symmetry_group_IT_number 58
_symmetry_cell_setting 'orthorhombic'
loop_
_space_group_symop_operation_xyz
x,y,z
-x,-y,z
1/2+x,1/2-y,1/2-z
1/2-x,1/2+y,1/2-z
-x,-y,-z
x,y,-z
1/2-x,1/2+y,1/2+z
1/2+x,1/2-y,1/2+z
loop_
_atom_site_type_symbol
_atom_site_label
_atom_site_fract_x
_atom_site_fract_y
_atom_site_fract_z
Si Si1 0.944757 0.297882 0.298734
Si Si2 0.072101 0.951141 0.000000
Si Si3 0.604340 0.291318 0.210311
Si Si4 0.929785 0.890886 0.705755
Si Si5 0.073521 0.603959 0.194614
Si Si6 0.573101 0.048527 0.000000
O O1 0.986646 0.303550 0.500000
O O2 0.769060 0.290927 0.284493
O O3 0.976998 0.344459 0.205895
O O4 0.020318 0.252942 0.231197
O O5 0.015071 0.924198 0.831249
O O6 0.249563 0.954285 0.000000
O O7 0.000000 0.000000 0.000000
O O8 0.533948 0.339361 0.252872
O O9 0.614732 0.290676 0.000000
O O10 0.959195 0.897602 0.500000
O O11 0.751264 0.896169 0.730998
O O12 0.986646 0.575259 0.333672
O O13 0.051200 0.587236 0.000000
O O14 0.500000 0.000000 0.000000
#
# Coordination Sequence:
#
# PCOD9442263 Si02
#       6
#     8   4   8   8   8   4
#     4  10  19  34  57  86 123 163 206 253 300 360
#     4  12  26  42  66  94 120 160 204 260 313 372
#     4   9  20  35  53  85 122 161 207 248 301 361
#     4   9  20  41  64  88 123 163 204 254 311 369
#     4  10  21  41  66  90 125 166 205 258 315 369
#     4  12  26  44  66  94 126 158 210 260 313 386
#
# _framework density 19.187268
#
# number of rings (size 3 to 8) (size 9 to 14) (size 15 to 20)
#    0.000    2.000    1.000    3.600    4.200    4.800 
#    0.000    2.000    0.000    0.000    0.000    0.000 
#    0.000    0.000    0.000    0.000    0.000    0.000 
#
# Total GULP energy -223378.955759 kJ/mol
# GULP energy per Si atom -5584.473894 kJ/mol
# Density = 1.914360 g / cm^3
# Si number density = 19.187268 Si / 1000 Ang^3
#
#
#
# Elastic Constant Matrix: (Units=GPa)
#
#
# Indices 1 2 3 4 5 6 
#
# 1 79.0767 77.2140 61.5499 0.0000 0.0000 0.0000
# 2 77.2140 163.0433 73.1245 0.0000 0.0000 0.0000
# 3 61.5499 73.1245 94.0419 0.0000 0.0000 0.0000
# 4 0.0000 0.0000 0.0000 33.3635 0.0000 0.0000
# 5 0.0000 0.0000 0.0000 0.0000 26.2504 0.0000
# 6 0.0000 0.0000 0.0000 0.0000 0.0000 38.3456
#
#
#
# Elastic Compliance Matrix: (Units=1/GPa)
#
#
# Indices 1 2 3 4 5 6 
#
# 1 0.032597 -0.009011 -0.014328 0.000000 0.000000 0.000000
# 2 -0.009011 0.011909 -0.003362 0.000000 0.000000 0.000000
# 3 -0.014328 -0.003362 0.022625 0.000000 0.000000 0.000000
# 4 0.000000 0.000000 0.000000 0.029973 0.000000 0.000000
# 5 0.000000 0.000000 0.000000 0.000000 0.038095 0.000000
# 6 0.000000 0.000000 0.000000 0.000000 0.000000 0.026079
#
#
# Mechanical properties :
#
#
# Convention : Reuss Voigt Hill
#
# Bulk Modulus (GPa) = 72.83891 84.43765 78.63828
# Shear Modulus (GPa) = 22.80442 27.87679 25.34061
#
# Velocity S-wave (km/s) = 3.45123 3.81580 3.63808
# Velocity P-wave (km/s) = 7.34342 7.96972 7.66297
#
# Compressibility (1/GPa) = 0.01372893
#
# Stress axis : x y z
#
# Youngs Moduli (GPa) = 30.67759 83.97103 44.19869
#
# Poissons Ratio (x) = 0.75670 0.63326
# Poissons Ratio (y) = 0.27645 0.14860
# Poissons Ratio (z) = 0.43953 0.28232
#
# Static dielectric constant tensor:
#      x y z
#    x 1.635280 0.000000 0.000000 
#    y 0.000000 1.666340 0.000000 
#    z 0.000000 0.000000 1.656490 
# 
# From -- ./inp_files/2661.got.cif
#   From: 2010.05.17/outbox.cif.g08.bks.cpg/sg58_2_cif.got.tgz:2661.got - 2010.06.03 14:20:14.
