data_PCOD9442504
_publ_section_title
;
Structure prediction by ZEFSAII (Michael W. Deem and Ramdas Pophale) SiO2 
 PCOD9442504
Probable space group: P N N M
;
_chemical_formula_sum "Si O2"
_cell_formula_units_Z 48
_cell_length_a 11.327141
_cell_length_b 12.333805
_cell_length_c 20.139077
_cell_angle_alpha 90.000000
_cell_angle_beta 90.000000
_cell_angle_gamma 90.000000
_cell_volume 2813.564961
_symmetry_space_group_name_H-M "P N N M"
_symmetry_group_IT_number 58
_symmetry_cell_setting 'orthorhombic'
loop_
_space_group_symop_operation_xyz
x,y,z
-x,-y,z
1/2+x,1/2-y,1/2-z
1/2-x,1/2+y,1/2-z
-x,-y,-z
x,y,-z
1/2-x,1/2+y,1/2+z
1/2+x,1/2-y,1/2+z
loop_
_atom_site_type_symbol
_atom_site_label
_atom_site_fract_x
_atom_site_fract_y
_atom_site_fract_z
Si Si1 0.479136 0.127891 0.150387
Si Si2 0.242878 0.348525 0.325120
Si Si3 0.138816 0.020961 0.922124
Si Si4 0.094597 0.644749 0.802611
Si Si5 0.272468 0.239583 0.077351
Si Si6 0.825476 0.592366 0.823257
O O1 0.608773 0.180354 0.154583
O O2 0.414610 0.137182 0.222181
O O3 0.395934 0.184140 0.097169
O O4 0.500000 0.000000 0.138040
O O5 0.289683 0.442430 0.373393
O O6 0.332802 0.248661 0.325134
O O7 0.230330 0.388397 0.249236
O O8 0.175953 0.145034 0.908723
O O9 0.167184 0.999455 0.000000
O O10 0.000000 0.000000 0.912720
O O11 0.156184 0.536074 0.829883
O O12 0.957929 0.642055 0.824160
O O13 0.248379 0.344174 0.122061
O O14 0.267789 0.266096 0.000000
#
# Coordination Sequence:
#
# PCOD9442504 Si02
#       6
#     8   8   8   8   8   8
#     4  11  19  36  56  85 114 146 187 236 282 338
#     4  11  20  34  59  81 113 149 186 235 285 333
#     4  10  21  36  55  86 118 146 188 238 287 337
#     4  10  19  36  57  83 109 149 183 242 284 330
#     4  11  22  37  58  83 117 153 191 234 283 344
#     4  10  20  36  57  81 115 143 195 234 281 340
#
# _framework density 17.060206000000001
#
# number of rings (size 3 to 8) (size 9 to 14) (size 15 to 20)
#    0.000    1.500    6.667    1.000    0.000    1.000 
#    0.000    3.333    0.000    1.000    0.000    0.000 
#    0.000    0.000    0.000    0.000    0.000    0.000 
#
# Total GULP energy -267844.921508 kJ/mol
# GULP energy per Si atom -5580.102531 kJ/mol
# Density = 1.702138 g / cm^3
# Si number density = 17.060206 Si / 1000 Ang^3
#
#
#
# Elastic Constant Matrix: (Units=GPa)
#
#
# Indices 1 2 3 4 5 6 
#
# 1 36.3806 15.6749 27.7685 0.0000 0.0000 0.0000
# 2 15.6749 63.1407 36.7323 0.0000 0.0000 0.0000
# 3 27.7685 36.7323 72.7883 0.0000 0.0000 0.0000
# 4 0.0000 0.0000 0.0000 23.6321 0.0000 0.0000
# 5 0.0000 0.0000 0.0000 0.0000 20.3777 0.0000
# 6 0.0000 0.0000 0.0000 0.0000 0.0000 21.2254
#
#
#
# Elastic Compliance Matrix: (Units=1/GPa)
#
#
# Indices 1 2 3 4 5 6 
#
# 1 0.038873 -0.001448 -0.014099 0.000000 0.000000 0.000000
# 2 -0.001448 0.022473 -0.010789 0.000000 0.000000 0.000000
# 3 -0.014099 -0.010789 0.024562 0.000000 0.000000 0.000000
# 4 0.000000 0.000000 0.000000 0.042315 0.000000 0.000000
# 5 0.000000 0.000000 0.000000 0.000000 0.049073 0.000000
# 6 0.000000 0.000000 0.000000 0.000000 0.000000 0.047113
#
#
# Mechanical properties :
#
#
# Convention : Reuss Voigt Hill
#
# Bulk Modulus (GPa) = 30.08775 36.96233 33.52504
# Shear Modulus (GPa) = 17.35146 19.18929 18.27038
#
# Velocity S-wave (km/s) = 3.19262 3.35744 3.27606
# Velocity P-wave (km/s) = 5.59150 6.06158 5.83128
#
# Compressibility (1/GPa) = 0.03323612
#
# Stress axis : x y z
#
# Youngs Moduli (GPa) = 25.72510 44.49689 40.71383
#
# Poissons Ratio (x) = 0.06444 0.57402
# Poissons Ratio (y) = 0.03725 0.43925
# Poissons Ratio (z) = 0.36270 0.48006
#
# Static dielectric constant tensor:
#      x y z
#    x 1.582220 0.000000 0.000000 
#    y 0.000000 1.552750 0.000000 
#    z 0.000000 0.000000 1.568340 
# 
# From -- ./inp_files/26135.got.cif
#   From: 2010.05.17/outbox.cif.g08.bks.cpg/sg58_14_cif.got.tgz:26135.got - 2010.06.03 14:20:14.
