data_PCOD9442425
_publ_section_title
;
Structure prediction by ZEFSAII (Michael W. Deem and Ramdas Pophale) SiO2 
 PCOD9442425
Probable space group: P N N M
;
_chemical_formula_sum "Si O2"
_cell_formula_units_Z 56
_cell_length_a 14.112214
_cell_length_b 19.854339
_cell_length_c 9.066741
_cell_angle_alpha 90.000000
_cell_angle_beta 90.000000
_cell_angle_gamma 90.000000
_cell_volume 2540.398200
_symmetry_space_group_name_H-M "P N N M"
_symmetry_group_IT_number 58
_symmetry_cell_setting 'orthorhombic'
loop_
_space_group_symop_operation_xyz
x,y,z
-x,-y,z
1/2+x,1/2-y,1/2-z
1/2-x,1/2+y,1/2-z
-x,-y,-z
x,y,-z
1/2-x,1/2+y,1/2+z
1/2+x,1/2-y,1/2+z
loop_
_atom_site_type_symbol
_atom_site_label
_atom_site_fract_x
_atom_site_fract_y
_atom_site_fract_z
Si Si1 0.722454 0.648632 0.172461
Si Si2 0.884095 0.413268 0.674777
Si Si3 0.957379 0.931988 0.674970
Si Si4 0.445673 0.714817 0.826421
Si Si5 0.736629 0.501101 0.172543
Si Si6 0.450195 0.852757 0.671464
Si Si7 0.216118 0.713793 0.171797
O O1 0.691887 0.573252 0.215210
O O2 0.689610 0.712783 0.264442
O O3 0.836968 0.642880 0.186799
O O4 0.699687 0.660086 0.000000
O O5 0.884631 0.412540 0.500000
O O6 0.825705 0.476780 0.735131
O O7 0.989825 0.406720 0.737974
O O8 0.829904 0.347000 0.737461
O O9 0.982778 0.930940 0.500000
O O10 0.981741 0.857659 0.729342
O O11 0.844914 0.945031 0.683146
O O12 0.000000 0.000000 0.741666
O O13 0.476732 0.778973 0.733526
O O14 0.330882 0.711255 0.818185
O O15 0.469893 0.723780 0.000000
O O16 0.763516 0.507206 0.000000
O O17 0.473564 0.858969 0.500000
O O18 0.190831 0.707029 0.000000
#
# Coordination Sequence:
#
# PCOD9442425 Si02
#       7
#     8   8   8   8   8   8   8
#     4   9  20  37  59  86 117 154 195 240 290 353
#     4  12  24  37  57  84 113 151 203 248 293 350
#     4   9  17  31  55  85 115 149 188 229 278 342
#     4   9  17  33  56  82 110 144 186 230 282 341
#     4  10  20  38  59  83 118 158 196 235 291 351
#     4  10  21  37  56  82 113 148 191 242 298 345
#     4  10  19  35  59  83 112 151 192 239 293 348
#
# _framework density 22.043786999999998
#
# number of rings (size 3 to 8) (size 9 to 14) (size 15 to 20)
#    0.000    2.143    1.429    2.143    0.000    3.429 
#    0.000    5.714    0.000    1.714    0.000    0.000 
#    0.000    0.000    0.000    0.000    0.000    0.000 
#
# Total GULP energy -313043.047360 kJ/mol
# GULP energy per Si atom -5590.054417 kJ/mol
# Density = 2.199361 g / cm^3
# Si number density = 22.043787 Si / 1000 Ang^3
#
#
#
# Elastic Constant Matrix: (Units=GPa)
#
#
# Indices 1 2 3 4 5 6 
#
# 1 53.7152 2.0492 15.2626 0.0000 0.0000 0.0000
# 2 2.0492 99.4512 24.3480 0.0000 0.0000 0.0000
# 3 15.2626 24.3480 80.8043 0.0000 0.0000 0.0000
# 4 0.0000 0.0000 0.0000 32.0835 0.0000 0.0000
# 5 0.0000 0.0000 0.0000 0.0000 33.6478 0.0000
# 6 0.0000 0.0000 0.0000 0.0000 0.0000 40.7709
#
#
#
# Elastic Compliance Matrix: (Units=1/GPa)
#
#
# Indices 1 2 3 4 5 6 
#
# 1 0.019700 0.000545 -0.003885 0.000000 0.000000 0.000000
# 2 0.000545 0.010871 -0.003379 0.000000 0.000000 0.000000
# 3 -0.003885 -0.003379 0.014128 0.000000 0.000000 0.000000
# 4 0.000000 0.000000 0.000000 0.031169 0.000000 0.000000
# 5 0.000000 0.000000 0.000000 0.000000 0.029720 0.000000
# 6 0.000000 0.000000 0.000000 0.000000 0.000000 0.024527
#
#
# Mechanical properties :
#
#
# Convention : Reuss Voigt Hill
#
# Bulk Modulus (GPa) = 31.98861 35.25448 33.62154
# Shear Modulus (GPa) = 32.47347 34.12117 33.29732
#
# Velocity S-wave (km/s) = 3.84231 3.93858 3.89074
# Velocity P-wave (km/s) = 5.85041 6.05895 5.95559
#
# Compressibility (1/GPa) = 0.03126113
#
# Stress axis : x y z
#
# Youngs Moduli (GPa) = 50.76181 91.98670 70.78380
#
# Poissons Ratio (x) = -0.05016 0.27502
# Poissons Ratio (y) = -0.02768 0.23916
# Poissons Ratio (z) = 0.19722 0.31080
#
# Static dielectric constant tensor:
#      x y z
#    x 1.889770 0.000000 0.000000 
#    y 0.000000 1.815040 0.000000 
#    z 0.000000 0.000000 1.726990 
# 
# From -- ./inp_files/6337.got.cif
#   From: 2010.05.17/outbox.cif.g08.bks.cpg/sg58_4_cif.got.tgz:6337.got - 2010.06.03 14:20:14.
