data_PCOD9442416
_publ_section_title
;
Structure prediction by ZEFSAII (Michael W. Deem and Ramdas Pophale) SiO2 
 PCOD9442416
Probable space group: P N N M
;
_chemical_formula_sum "Si O2"
_cell_formula_units_Z 40
_cell_length_a 6.859009
_cell_length_b 14.175891
_cell_length_c 15.967968
_cell_angle_alpha 90.000000
_cell_angle_beta 90.000000
_cell_angle_gamma 90.000000
_cell_volume 1552.606470
_symmetry_space_group_name_H-M "P N N M"
_symmetry_group_IT_number 58
_symmetry_cell_setting 'orthorhombic'
loop_
_space_group_symop_operation_xyz
x,y,z
-x,-y,z
1/2+x,1/2-y,1/2-z
1/2-x,1/2+y,1/2-z
-x,-y,-z
x,y,-z
1/2-x,1/2+y,1/2+z
1/2+x,1/2-y,1/2+z
loop_
_atom_site_type_symbol
_atom_site_label
_atom_site_fract_x
_atom_site_fract_y
_atom_site_fract_z
Si Si1 0.259405 0.907979 0.000000
Si Si2 0.275848 0.134164 0.000000
Si Si3 0.849904 0.253968 0.346526
Si Si4 0.137450 0.092733 0.593541
Si Si5 0.170746 0.872605 0.189944
Si Si6 0.219574 0.577452 0.737290
O O1 0.186162 0.864308 0.088730
O O2 0.490179 0.884708 0.000000
O O3 0.211103 0.022842 0.000000
O O4 0.224766 0.202947 0.922522
O O5 0.773368 0.204848 0.261215
O O6 0.923135 0.353999 0.311587
O O7 0.002154 0.182738 0.387701
O O8 0.213485 0.095968 0.500000
O O9 0.301378 0.087513 0.663736
O O10 0.000000 0.000000 0.602826
O O11 0.941267 0.889245 0.214673
O O12 0.276276 0.970672 0.211108
#
# Coordination Sequence:
#
# PCOD9442416 Si02
#       6
#     4   4   8   8   8   8
#     4  11  24  42  59  88 128 170 206 263 320 375
#     4  11  24  39  63  91 123 165 220 259 312 373
#     4  11  21  36  59  89 121 160 206 259 304 373
#     4  10  19  35  58  86 118 160 209 254 306 368
#     4  10  22  38  59  88 125 164 206 258 318 368
#     4  10  20  38  58  88 124 160 205 262 315 367
#
# _framework density 25.763127000000001
#
# number of rings (size 3 to 8) (size 9 to 14) (size 15 to 20)
#    0.000    1.600    7.000    0.000    5.600    2.400 
#    0.000    0.000    0.000    0.000    0.000    0.000 
#    0.000   27.200    0.000    0.000    0.000    0.000 
#
# Total GULP energy -223363.890906 kJ/mol
# GULP energy per Si atom -5584.097273 kJ/mol
# Density = 2.570449 g / cm^3
# Si number density = 25.763127 Si / 1000 Ang^3
#
#
#
# Elastic Constant Matrix: (Units=GPa)
#
#
# Indices 1 2 3 4 5 6 
#
# 1 52.0437 41.8815 21.7264 0.0000 0.0000 0.0000
# 2 41.8815 177.0855 68.0910 0.0000 0.0000 0.0000
# 3 21.7264 68.0910 284.8226 0.0000 0.0000 0.0000
# 4 0.0000 0.0000 0.0000 49.4120 0.0000 0.0000
# 5 0.0000 0.0000 0.0000 0.0000 17.1382 0.0000
# 6 0.0000 0.0000 0.0000 0.0000 0.0000 30.5274
#
#
#
# Elastic Compliance Matrix: (Units=1/GPa)
#
#
# Indices 1 2 3 4 5 6 
#
# 1 0.023800 -0.005430 -0.000517 0.000000 0.000000 0.000000
# 2 -0.005430 0.007457 -0.001369 0.000000 0.000000 0.000000
# 3 -0.000517 -0.001369 0.003878 0.000000 0.000000 0.000000
# 4 0.000000 0.000000 0.000000 0.020238 0.000000 0.000000
# 5 0.000000 0.000000 0.000000 0.000000 0.058349 0.000000
# 6 0.000000 0.000000 0.000000 0.000000 0.000000 0.032757
#
#
# Mechanical properties :
#
#
# Convention : Reuss Voigt Hill
#
# Bulk Modulus (GPa) = 48.77225 86.37219 67.57222
# Shear Modulus (GPa) = 29.77144 44.89905 37.33525
#
# Velocity S-wave (km/s) = 3.40307 4.17917 3.81093
# Velocity P-wave (km/s) = 5.86629 7.54225 6.75644
#
# Compressibility (1/GPa) = 0.02050346
#
# Stress axis : x y z
#
# Youngs Moduli (GPa) = 42.01627 134.09428 257.89077
#
# Poissons Ratio (x) = 0.72812 0.13343
# Poissons Ratio (y) = 0.22815 0.35295
# Poissons Ratio (z) = 0.02174 0.18352
#
# Static dielectric constant tensor:
#      x y z
#    x 2.138410 0.000000 0.000000 
#    y 0.000000 1.980680 0.000000 
#    z 0.000000 0.000000 2.058430 
# 
# From -- ./inp_files/25147.got.cif
#   From: 2010.05.17/outbox.cif.g08.bks.cpg/sg58_13_cif.got.tgz:25147.got - 2010.06.03 14:20:14.
