data_PCOD9442703
_publ_section_title
;
Structure prediction by ZEFSAII (Michael W. Deem and Ramdas Pophale) SiO2 
 PCOD9442703
Probable space group: P N N M
;
_chemical_formula_sum "Si O2"
_cell_formula_units_Z 28
_cell_length_a 8.824067
_cell_length_b 7.509760
_cell_length_c 16.452333
_cell_angle_alpha 90.000000
_cell_angle_beta 90.000000
_cell_angle_gamma 90.000000
_cell_volume 1090.240588
_symmetry_space_group_name_H-M "P N N M"
_symmetry_group_IT_number 58
_symmetry_cell_setting 'orthorhombic'
loop_
_space_group_symop_operation_xyz
x,y,z
-x,-y,z
1/2+x,1/2-y,1/2-z
1/2-x,1/2+y,1/2-z
-x,-y,-z
x,y,-z
1/2-x,1/2+y,1/2+z
1/2+x,1/2-y,1/2+z
loop_
_atom_site_type_symbol
_atom_site_label
_atom_site_fract_x
_atom_site_fract_y
_atom_site_fract_z
Si Si1 0.000000 0.000000 0.639608
Si Si2 0.940780 0.738301 0.093836
Si Si3 0.128339 0.636867 0.616743
Si Si4 0.683927 0.895239 0.692893
O O1 0.926938 0.165084 0.592593
O O2 0.134965 0.094366 0.689579
O O3 0.803917 0.879207 0.091464
O O4 0.867277 0.577614 0.147810
O O5 0.100054 0.757919 0.140963
O O6 0.972672 0.693842 0.000000
O O7 0.134236 0.623386 0.714805
O O8 0.000000 0.500000 0.589190
#
# Coordination Sequence:
#
# PCOD9442703 Si02
#       4
#     4   8   8   8
#     4  10  24  36  63 102 129 172 230 296 328 406
#     4  10  21  39  66  98 138 179 222 288 352 403
#     4  11  22  41  65 102 133 183 235 280 341 413
#     4  10  19  39  62  98 130 180 232 274 338 413
#
# _framework density 25.682404999999999
#
# number of rings (size 3 to 8) (size 9 to 14) (size 15 to 20)
#    0.000    1.714    2.857    3.429    4.000    0.571 
#    0.000   17.857    0.000    1.714    0.000    0.000 
#    0.000    0.000    0.000    0.000    0.000    0.000 
#
# Total GULP energy -156309.985975 kJ/mol
# GULP energy per Si atom -5582.499499 kJ/mol
# Density = 2.562395 g / cm^3
# Si number density = 25.682405 Si / 1000 Ang^3
#
#
#
# Elastic Constant Matrix: (Units=GPa)
#
#
# Indices 1 2 3 4 5 6 
#
# 1 202.7887 46.7023 41.8662 0.0000 0.0000 0.0000
# 2 46.7023 114.8134 13.3472 0.0000 0.0000 0.0000
# 3 41.8662 13.3472 216.9060 0.0000 0.0000 0.0000
# 4 0.0000 0.0000 0.0000 8.0472 0.0000 0.0000
# 5 0.0000 0.0000 0.0000 0.0000 8.4126 0.0000
# 6 0.0000 0.0000 0.0000 0.0000 0.0000 51.0226
#
#
#
# Elastic Compliance Matrix: (Units=1/GPa)
#
#
# Indices 1 2 3 4 5 6 
#
# 1 0.005630 -0.002179 -0.000953 0.000000 0.000000 0.000000
# 2 -0.002179 0.009616 -0.000171 0.000000 0.000000 0.000000
# 3 -0.000953 -0.000171 0.004805 0.000000 0.000000 0.000000
# 4 0.000000 0.000000 0.000000 0.124266 0.000000 0.000000
# 5 0.000000 0.000000 0.000000 0.000000 0.118869 0.000000
# 6 0.000000 0.000000 0.000000 0.000000 0.000000 0.019599
#
#
# Mechanical properties :
#
#
# Convention : Reuss Voigt Hill
#
# Bulk Modulus (GPa) = 74.37828 82.03773 78.20801
# Shear Modulus (GPa) = 17.01418 42.33598 29.67508
#
# Velocity S-wave (km/s) = 2.57667 4.06451 3.40290
# Velocity P-wave (km/s) = 6.15434 7.35115 6.77921
#
# Compressibility (1/GPa) = 0.01344478
#
# Stress axis : x y z
#
# Youngs Moduli (GPa) = 177.62675 103.99191 208.13073
#
# Poissons Ratio (x) = 0.22663 0.19825
# Poissons Ratio (y) = 0.38710 0.03561
# Poissons Ratio (z) = 0.16920 0.01779
#
# Static dielectric constant tensor:
#      x y z
#    x 2.180310 0.000000 0.000000 
#    y 0.000000 2.112270 0.000000 
#    z 0.000000 0.000000 1.923690 
# 
# From -- ./inp_files/24727.got.cif
#   From: 2010.05.17/outbox.cif.g08.bks.cpg/sg58_13_cif.got.tgz:24727.got - 2010.06.03 14:20:14.
