data_PCOD9442587
_publ_section_title
;
Structure prediction by ZEFSAII (Michael W. Deem and Ramdas Pophale) SiO2 
 PCOD9442587
Probable space group: P N N M
;
_chemical_formula_sum "Si O2"
_cell_formula_units_Z 64
_cell_length_a 12.793854
_cell_length_b 28.972357
_cell_length_c 7.995996
_cell_angle_alpha 90.000000
_cell_angle_beta 90.000000
_cell_angle_gamma 90.000000
_cell_volume 2963.860689
_symmetry_space_group_name_H-M "P N N M"
_symmetry_group_IT_number 58
_symmetry_cell_setting 'orthorhombic'
loop_
_space_group_symop_operation_xyz
x,y,z
-x,-y,z
1/2+x,1/2-y,1/2-z
1/2-x,1/2+y,1/2-z
-x,-y,-z
x,y,-z
1/2-x,1/2+y,1/2+z
1/2+x,1/2-y,1/2+z
loop_
_atom_site_type_symbol
_atom_site_label
_atom_site_fract_x
_atom_site_fract_y
_atom_site_fract_z
Si Si1 0.353508 0.125593 0.190824
Si Si2 0.205137 0.337497 0.204375
Si Si3 0.121741 0.137685 0.305162
Si Si4 0.006557 0.947317 0.197276
Si Si5 0.387486 0.020335 0.702450
Si Si6 0.994097 0.294160 0.806852
Si Si7 0.258302 0.437484 0.202339
Si Si8 0.071038 0.802985 0.695934
O O1 0.232261 0.138552 0.214640
O O2 0.368778 0.072073 0.236856
O O3 0.424655 0.159899 0.297522
O O4 0.384736 0.132696 0.000000
O O5 0.194231 0.391460 0.247808
O O6 0.317798 0.319796 0.264889
O O7 0.108229 0.307061 0.262810
O O8 0.203632 0.335102 0.000000
O O9 0.140986 0.148587 0.500000
O O10 0.071824 0.086822 0.289695
O O11 0.031962 0.171597 0.234436
O O12 0.125698 0.932333 0.226898
O O13 0.981797 0.945956 0.000000
O O14 0.000000 0.000000 0.256744
O O15 0.385885 0.021254 0.500000
O O16 0.500000 0.000000 0.753904
O O17 0.298543 0.984185 0.758521
O O18 0.941702 0.251520 0.713695
O O19 0.004559 0.279960 0.000000
O O20 0.266155 0.438672 0.000000
O O21 0.072468 0.816150 0.500000
#
# Coordination Sequence:
#
# PCOD9442587 Si02
#       8
#     8   8   8   8   8   8   8   8
#     4  12  26  43  63  92 135 175 213 262 321 378
#     4   9  19  40  66  92 123 160 205 260 315 371
#     4  11  23  42  67  91 123 165 214 264 316 384
#     4  11  23  37  55  86 126 164 203 253 316 378
#     4  10  21  39  66  95 126 168 221 269 314 378
#     4  11  24  42  67  95 125 165 214 261 318 385
#     4  10  19  36  62  89 118 161 210 258 313 374
#     4  10  22  42  66  94 125 159 203 264 330 382
#
# _framework density 21.593457999999998
#
# number of rings (size 3 to 8) (size 9 to 14) (size 15 to 20)
#    0.000    1.500    1.250    3.750    1.750    6.750 
#    0.000    3.125    0.000    0.000    0.000    0.000 
#    0.000    0.000    0.000    0.000    0.000    0.000 
#
# Total GULP energy -357869.795391 kJ/mol
# GULP energy per Si atom -5591.715553 kJ/mol
# Density = 2.154431 g / cm^3
# Si number density = 21.593458 Si / 1000 Ang^3
#
#
#
# Elastic Constant Matrix: (Units=GPa)
#
#
# Indices 1 2 3 4 5 6 
#
# 1 100.9107 27.8725 -3.6892 0.0000 0.0000 0.0000
# 2 27.8725 103.6306 -7.2950 0.0000 0.0000 0.0000
# 3 -3.6892 -7.2950 26.0968 0.0000 0.0000 0.0000
# 4 0.0000 0.0000 0.0000 11.0590 0.0000 0.0000
# 5 0.0000 0.0000 0.0000 0.0000 9.8284 0.0000
# 6 0.0000 0.0000 0.0000 0.0000 0.0000 35.1768
#
#
#
# Elastic Compliance Matrix: (Units=1/GPa)
#
#
# Indices 1 2 3 4 5 6 
#
# 1 0.010718 -0.002832 0.000724 0.000000 0.000000 0.000000
# 2 -0.002832 0.010592 0.002560 0.000000 0.000000 0.000000
# 3 0.000724 0.002560 0.039137 0.000000 0.000000 0.000000
# 4 0.000000 0.000000 0.000000 0.090424 0.000000 0.000000
# 5 0.000000 0.000000 0.000000 0.000000 0.101746 0.000000
# 6 0.000000 0.000000 0.000000 0.000000 0.000000 0.028428
#
#
# Mechanical properties :
#
#
# Convention : Reuss Voigt Hill
#
# Bulk Modulus (GPa) = 16.29962 29.37939 22.83951
# Shear Modulus (GPa) = 16.63388 25.46282 21.04835
#
# Velocity S-wave (km/s) = 2.77848 3.43766 3.12550
# Velocity P-wave (km/s) = 4.22588 5.42143 4.86055
#
# Compressibility (1/GPa) = 0.06135114
#
# Stress axis : x y z
#
# Youngs Moduli (GPa) = 93.29756 94.41480 25.55132
#
# Poissons Ratio (x) = 0.26737 -0.01849
# Poissons Ratio (y) = 0.26421 -0.06542
# Poissons Ratio (z) = -0.06751 -0.24174
#
# Static dielectric constant tensor:
#      x y z
#    x 1.769240 0.000000 0.000000 
#    y 0.000000 1.762380 0.000000 
#    z 0.000000 0.000000 1.765210 
# 
# From -- ./inp_files/4749.got.cif
#   From: 2010.05.17/outbox.cif.g08.bks.cpg/sg58_3_cif.got.tgz:4749.got - 2010.06.03 14:20:14.
