data_PCOD9442019
_publ_section_title
;
Structure prediction by ZEFSAII (Michael W. Deem and Ramdas Pophale) SiO2 
 PCOD9442019
Probable space group: P N N M
;
_chemical_formula_sum "Si O2"
_cell_formula_units_Z 64
_cell_length_a 13.192073
_cell_length_b 28.393371
_cell_length_c 7.935947
_cell_angle_alpha 90.000000
_cell_angle_beta 90.000000
_cell_angle_gamma 90.000000
_cell_volume 2972.547216
_symmetry_space_group_name_H-M "P N N M"
_symmetry_group_IT_number 58
_symmetry_cell_setting 'orthorhombic'
loop_
_space_group_symop_operation_xyz
x,y,z
-x,-y,z
1/2+x,1/2-y,1/2-z
1/2-x,1/2+y,1/2-z
-x,-y,-z
x,y,-z
1/2-x,1/2+y,1/2+z
1/2+x,1/2-y,1/2+z
loop_
_atom_site_type_symbol
_atom_site_label
_atom_site_fract_x
_atom_site_fract_y
_atom_site_fract_z
Si Si1 0.625343 0.409995 0.206161
Si Si2 0.857004 0.705632 0.296751
Si Si3 0.550399 0.111710 0.700904
Si Si4 0.087848 0.941294 0.693548
Si Si5 0.146848 0.838694 0.801579
Si Si6 0.060605 0.195236 0.704200
Si Si7 0.303546 0.967765 0.190155
Si Si8 0.847052 0.435842 0.806229
O O1 0.527461 0.440812 0.262063
O O2 0.607210 0.355384 0.252704
O O3 0.736036 0.424928 0.267920
O O4 0.622830 0.413136 0.000000
O O5 0.854501 0.706607 0.500000
O O6 0.938257 0.666534 0.242612
O O7 0.748843 0.685627 0.239467
O O8 0.880101 0.758402 0.239032
O O9 0.554689 0.105399 0.500000
O O10 0.645164 0.082529 0.774862
O O11 0.445803 0.089191 0.767801
O O12 0.087135 0.957499 0.500000
O O13 0.118309 0.886012 0.702448
O O14 0.182905 0.965914 0.780864
O O15 0.052274 0.804241 0.777239
O O16 0.157169 0.851220 0.000000
O O17 0.055464 0.195584 0.500000
O O18 0.355217 0.007812 0.301992
O O19 0.324945 0.981315 0.000000
O O20 0.842102 0.419580 0.000000
#
# Coordination Sequence:
#
# PCOD9442019 Si02
#       8
#     8   8   8   8   8   8   8   8
#     4   8  17  36  60  83 112 151 193 236 286 340
#     4  10  21  36  57  84 116 151 190 238 294 345
#     4  11  23  38  60  86 114 150 198 245 286 346
#     4  10  19  35  61  86 111 148 192 236 281 342
#     4  10  19  33  54  82 113 148 187 238 289 334
#     4   9  19  36  57  82 113 154 193 230 285 350
#     4  12  24  38  58  85 117 153 192 240 297 348
#     4  10  22  40  60  84 115 152 195 240 288 349
#
# _framework density 21.530355
#
# number of rings (size 3 to 8) (size 9 to 14) (size 15 to 20)
#    0.000    2.000    1.250    3.375    0.000    5.000 
#    0.000    8.125    0.000    1.500    0.000    0.000 
#    0.000    0.000    0.000    0.000    0.000    0.000 
#
# Total GULP energy -357443.378892 kJ/mol
# GULP energy per Si atom -5585.052795 kJ/mol
# Density = 2.148135 g / cm^3
# Si number density = 21.530355 Si / 1000 Ang^3
#
#
#
# Elastic Constant Matrix: (Units=GPa)
#
#
# Indices 1 2 3 4 5 6 
#
# 1 98.9779 22.6883 8.8659 0.0000 0.0000 0.0000
# 2 22.6883 71.5614 -4.0388 0.0000 0.0000 0.0000
# 3 8.8659 -4.0388 29.9732 0.0000 0.0000 0.0000
# 4 0.0000 0.0000 0.0000 33.4901 0.0000 0.0000
# 5 0.0000 0.0000 0.0000 0.0000 -9.4198 0.0000
# 6 0.0000 0.0000 0.0000 0.0000 0.0000 32.4610
#
#
#
# Elastic Compliance Matrix: (Units=1/GPa)
#
#
# Indices 1 2 3 4 5 6 
#
# 1 0.011322 -0.003808 -0.003862 0.000000 0.000000 0.000000
# 2 -0.003808 0.015362 0.003196 0.000000 0.000000 0.000000
# 3 -0.003862 0.003196 0.034936 0.000000 0.000000 0.000000
# 4 0.000000 0.000000 0.000000 0.029860 0.000000 0.000000
# 5 0.000000 0.000000 0.000000 0.000000 -0.106160 0.000000
# 6 0.000000 0.000000 0.000000 0.000000 0.000000 0.030806
#
#
# Mechanical properties :
#
#
# Convention : Reuss Voigt Hill
#
# Bulk Modulus (GPa) = 18.98510 28.39372 23.68941
# Shear Modulus (GPa) = 117.28768 22.83941 70.06354
#
# Velocity S-wave (km/s) = 7.38876 3.26053 5.71073
# Velocity P-wave (km/s) = 9.03486 5.23365 7.38308
#
# Compressibility (1/GPa) = 0.05267288
#
# Stress axis : x y z
#
# Youngs Moduli (GPa) = 88.32361 65.09749 28.62361
#
# Poissons Ratio (x) = 0.24786 0.11055
# Poissons Ratio (y) = 0.33630 -0.09149
# Poissons Ratio (z) = 0.34111 -0.20806
#
# Static dielectric constant tensor:
#      x y z
#    x 1.800910 0.000000 0.000000 
#    y 0.000000 1.758990 0.000000 
#    z 0.000000 0.000000 1.766250 
# 
# From -- ./inp_files/4775.got.cif
#   From: 2010.05.17/outbox.cif.g08.bks.cpg/sg58_3_cif.got.tgz:4775.got - 2010.06.03 14:20:14.
