data_PCOD9442442
_publ_section_title
;
Structure prediction by ZEFSAII (Michael W. Deem and Ramdas Pophale) SiO2 
 PCOD9442442
Probable space group: P N N M
;
_chemical_formula_sum "Si O2"
_cell_formula_units_Z 64
_cell_length_a 12.531540
_cell_length_b 29.103252
_cell_length_c 8.193848
_cell_angle_alpha 90.000000
_cell_angle_beta 90.000000
_cell_angle_gamma 90.000000
_cell_volume 2988.366559
_symmetry_space_group_name_H-M "P N N M"
_symmetry_group_IT_number 58
_symmetry_cell_setting 'orthorhombic'
loop_
_space_group_symop_operation_xyz
x,y,z
-x,-y,z
1/2+x,1/2-y,1/2-z
1/2-x,1/2+y,1/2-z
-x,-y,-z
x,y,-z
1/2-x,1/2+y,1/2+z
1/2+x,1/2-y,1/2+z
loop_
_atom_site_type_symbol
_atom_site_label
_atom_site_fract_x
_atom_site_fract_y
_atom_site_fract_z
Si Si1 0.631743 0.438257 0.197415
Si Si2 0.094715 0.909141 0.193825
Si Si3 0.437956 0.212663 0.812582
Si Si4 0.820223 0.376518 0.197585
Si Si5 0.358131 0.830544 0.314767
Si Si6 0.974457 0.571594 0.194363
Si Si7 0.727619 0.023520 0.694245
Si Si8 0.634532 0.691158 0.687702
O O1 0.513644 0.436001 0.267241
O O2 0.702413 0.393604 0.239418
O O3 0.702916 0.481024 0.257459
O O4 0.623116 0.441337 0.000000
O O5 0.196008 0.932746 0.277780
O O6 0.082192 0.856289 0.248749
O O7 0.114120 0.908804 0.000000
O O8 0.354188 0.172908 0.763776
O O9 0.543860 0.204127 0.707486
O O10 0.393357 0.263261 0.785146
O O11 0.467438 0.205413 0.000000
O O12 0.907723 0.414795 0.254639
O O13 0.828657 0.374831 0.000000
O O14 0.317712 0.829315 0.500000
O O15 0.409776 0.880524 0.286435
O O16 0.260607 0.818764 0.199306
O O17 0.891720 0.533463 0.259970
O O18 0.986543 0.562418 0.000000
O O19 0.715234 0.016230 0.500000
O O20 0.603367 0.698677 0.500000
#
# Coordination Sequence:
#
# PCOD9442442 Si02
#       8
#     8   8   8   8   8   8   8   8
#     4  10  22  37  58  85 119 159 198 242 290 347
#     4  11  24  39  57  82 116 154 196 244 295 351
#     4  11  23  38  59  87 117 154 193 237 294 355
#     4   9  19  38  58  83 118 156 196 243 296 348
#     4  10  19  36  60  85 113 148 186 237 295 348
#     4   8  15  30  57  85 111 144 184 235 286 337
#     4  10  19  35  59  88 116 151 198 243 291 348
#     4  11  23  39  59  85 113 149 197 247 294 351
#
# _framework density 21.416381000000001
#
# number of rings (size 3 to 8) (size 9 to 14) (size 15 to 20)
#    0.000    2.000    1.250    3.375    0.000    5.500 
#    0.000    5.000    0.000    0.000    0.000    3.500 
#    0.000    0.000    0.000    0.000    0.000    0.000 
#
# Total GULP energy -357403.044689 kJ/mol
# GULP energy per Si atom -5584.422573 kJ/mol
# Density = 2.136764 g / cm^3
# Si number density = 21.416381 Si / 1000 Ang^3
#
#
#
# Elastic Constant Matrix: (Units=GPa)
#
#
# Indices 1 2 3 4 5 6 
#
# 1 72.1719 2.2211 -5.4985 0.0000 0.0000 0.0000
# 2 2.2211 57.3105 -3.2723 0.0000 0.0000 0.0000
# 3 -5.4985 -3.2723 5.2269 0.0000 0.0000 0.0000
# 4 0.0000 0.0000 0.0000 15.8519 0.0000 0.0000
# 5 0.0000 0.0000 0.0000 0.0000 13.1606 0.0000
# 6 0.0000 0.0000 0.0000 0.0000 0.0000 22.2243
#
#
#
# Elastic Compliance Matrix: (Units=1/GPa)
#
#
# Indices 1 2 3 4 5 6 
#
# 1 0.015069 0.000333 0.016060 0.000000 0.000000 0.000000
# 2 0.000333 0.018103 0.011684 0.000000 0.000000 0.000000
# 3 0.016060 0.011684 0.215526 0.000000 0.000000 0.000000
# 4 0.000000 0.000000 0.000000 0.063084 0.000000 0.000000
# 5 0.000000 0.000000 0.000000 0.000000 0.075985 0.000000
# 6 0.000000 0.000000 0.000000 0.000000 0.000000 0.044996
#
#
# Mechanical properties :
#
#
# Convention : Reuss Voigt Hill
#
# Bulk Modulus (GPa) = 3.28028 13.51222 8.39625
# Shear Modulus (GPa) = 10.45533 19.66464 15.05998
#
# Velocity S-wave (km/s) = 2.21191 3.03348 2.65467
# Velocity P-wave (km/s) = 2.83873 4.31188 3.65039
#
# Compressibility (1/GPa) = 0.30485226
#
# Stress axis : x y z
#
# Youngs Moduli (GPa) = 66.36081 55.23942 4.63982
#
# Poissons Ratio (x) = -0.01840 -0.07452
# Poissons Ratio (y) = -0.02210 -0.05421
# Poissons Ratio (z) = -1.06578 -0.64540
#
# Static dielectric constant tensor:
#      x y z
#    x 1.760820 0.000000 0.000000 
#    y 0.000000 1.799910 0.000000 
#    z 0.000000 0.000000 1.749020 
# 
# From -- ./inp_files/4711.got.cif
#   From: 2010.05.17/outbox.cif.g08.bks.cpg/sg58_3_cif.got.tgz:4711.got - 2010.06.03 14:20:14.
