data_PCOD9442737
_publ_section_title
;
Structure prediction by ZEFSAII (Michael W. Deem and Ramdas Pophale) SiO2 
 PCOD9442737
Probable space group: P N N M
;
_chemical_formula_sum "Si O2"
_cell_formula_units_Z 48
_cell_length_a 9.244171
_cell_length_b 14.019994
_cell_length_c 21.078650
_cell_angle_alpha 90.000000
_cell_angle_beta 90.000000
_cell_angle_gamma 90.000000
_cell_volume 2731.860954
_symmetry_space_group_name_H-M "P N N M"
_symmetry_group_IT_number 58
_symmetry_cell_setting 'orthorhombic'
loop_
_space_group_symop_operation_xyz
x,y,z
-x,-y,z
1/2+x,1/2-y,1/2-z
1/2-x,1/2+y,1/2-z
-x,-y,-z
x,y,-z
1/2-x,1/2+y,1/2+z
1/2+x,1/2-y,1/2+z
loop_
_atom_site_type_symbol
_atom_site_label
_atom_site_fract_x
_atom_site_fract_y
_atom_site_fract_z
Si Si1 0.866600 0.316151 0.924409
Si Si2 0.662456 0.000708 0.783086
Si Si3 0.345654 0.326593 0.320172
Si Si4 0.140748 0.385716 0.850012
Si Si5 0.155289 0.020373 0.575294
Si Si6 0.672877 0.300133 0.723616
O O1 0.864786 0.213727 0.890945
O O2 0.719535 0.375094 0.913124
O O3 0.986713 0.373035 0.883747
O O4 0.895954 0.314977 0.000000
O O5 0.775045 0.069778 0.818220
O O6 0.642179 0.051168 0.714040
O O7 0.500000 0.000000 0.810909
O O8 0.732664 0.896002 0.780386
O O9 0.500267 0.321881 0.282815
O O10 0.231799 0.255517 0.285406
O O11 0.240192 0.440452 0.898478
O O12 0.195469 0.280151 0.830930
O O13 0.148281 0.010091 0.500000
O O14 0.000000 0.000000 0.604747
#
# Coordination Sequence:
#
# PCOD9442737 Si02
#       6
#     8   8   8   8   8   8
#     4  10  20  36  56  76 105 142 178 216 258 312
#     4  11  21  34  53  78 106 135 171 218 267 317
#     4  10  21  35  54  79 106 137 177 217 265 318
#     4  10  20  33  53  75 102 137 173 209 255 315
#     4  10  20  31  47  75 106 134 167 209 256 305
#     4  10  20  34  51  77 107 136 170 215 263 312
#
# _framework density 17.570440999999999
#
# number of rings (size 3 to 8) (size 9 to 14) (size 15 to 20)
#    0.000    1.833    0.000    6.500    0.000    8.000 
#    0.000    0.000    0.000    9.500    0.000    0.000 
#    0.000    0.000    0.000    0.000    0.000    0.000 
#
# Total GULP energy -267523.563084 kJ/mol
# GULP energy per Si atom -5573.407564 kJ/mol
# Density = 1.753045 g / cm^3
# Si number density = 17.570441 Si / 1000 Ang^3
#
#
#
# Elastic Constant Matrix: (Units=GPa)
#
#
# Indices 1 2 3 4 5 6 
#
# 1 70.3842 23.6719 15.3943 0.0000 0.0000 0.0000
# 2 23.6719 106.1219 17.8834 0.0000 0.0000 0.0000
# 3 15.3943 17.8834 42.6295 0.0000 0.0000 0.0000
# 4 0.0000 0.0000 0.0000 38.8466 0.0000 0.0000
# 5 0.0000 0.0000 0.0000 0.0000 22.2707 0.0000
# 6 0.0000 0.0000 0.0000 0.0000 0.0000 30.0264
#
#
#
# Elastic Compliance Matrix: (Units=1/GPa)
#
#
# Indices 1 2 3 4 5 6 
#
# 1 0.016176 -0.002823 -0.004657 0.000000 0.000000 0.000000
# 2 -0.002823 0.010633 -0.003441 0.000000 0.000000 0.000000
# 3 -0.004657 -0.003441 0.026583 0.000000 0.000000 0.000000
# 4 0.000000 0.000000 0.000000 0.025742 0.000000 0.000000
# 5 0.000000 0.000000 0.000000 0.000000 0.044902 0.000000
# 6 0.000000 0.000000 0.000000 0.000000 0.000000 0.033304
#
#
# Mechanical properties :
#
#
# Convention : Reuss Voigt Hill
#
# Bulk Modulus (GPa) = 31.69659 37.00385 34.35022
# Shear Modulus (GPa) = 26.35753 29.04116 27.69934
#
# Velocity S-wave (km/s) = 3.87732 4.06993 3.97479
# Velocity P-wave (km/s) = 6.17444 6.57204 6.37634
#
# Compressibility (1/GPa) = 0.03154914
#
# Stress axis : x y z
#
# Youngs Moduli (GPa) = 61.82044 94.04865 37.61788
#
# Poissons Ratio (x) = 0.26554 0.17518
# Poissons Ratio (y) = 0.17455 0.12944
# Poissons Ratio (z) = 0.28789 0.32361
#
# Static dielectric constant tensor:
#      x y z
#    x 1.644390 0.000000 0.000000 
#    y 0.000000 1.606290 0.000000 
#    z 0.000000 0.000000 1.593940 
# 
# From -- ./inp_files/28839.got.cif
#   From: 2010.05.17/outbox.cif.g08.bks.cpg/sg58_15_cif.got.tgz:28839.got - 2010.06.03 14:20:14.
