data_PCOD9442614
_publ_section_title
;
Structure prediction by ZEFSAII (Michael W. Deem and Ramdas Pophale) SiO2 
 PCOD9442614
Probable space group: P N N M
;
_chemical_formula_sum "Si O2"
_cell_formula_units_Z 56
_cell_length_a 19.147479
_cell_length_b 10.013439
_cell_length_c 13.591497
_cell_angle_alpha 90.000000
_cell_angle_beta 90.000000
_cell_angle_gamma 90.000000
_cell_volume 2605.926438
_symmetry_space_group_name_H-M "P N N M"
_symmetry_group_IT_number 58
_symmetry_cell_setting 'orthorhombic'
loop_
_space_group_symop_operation_xyz
x,y,z
-x,-y,z
1/2+x,1/2-y,1/2-z
1/2-x,1/2+y,1/2-z
-x,-y,-z
x,y,-z
1/2-x,1/2+y,1/2+z
1/2+x,1/2-y,1/2+z
loop_
_atom_site_type_symbol
_atom_site_label
_atom_site_fract_x
_atom_site_fract_y
_atom_site_fract_z
Si Si1 0.573562 0.576164 0.892955
Si Si2 0.839233 0.438943 0.187414
Si Si3 0.689823 0.055745 0.889981
Si Si4 0.819647 0.856803 0.321533
Si Si5 0.847773 0.956256 0.889926
Si Si6 0.563407 0.694221 0.683655
Si Si7 0.549364 0.123369 0.616406
O O1 0.500000 0.500000 0.891451
O O2 0.630977 0.462592 0.874764
O O3 0.573922 0.671983 0.799521
O O4 0.583485 0.639831 0.000000
O O5 0.841479 0.462591 0.305007
O O6 0.759207 0.408822 0.163940
O O7 0.884656 0.313120 0.152533
O O8 0.873552 0.571390 0.141247
O O9 0.673245 0.208481 0.862957
O O10 0.774063 0.037304 0.888213
O O11 0.665756 0.023844 0.000000
O O12 0.838470 0.862717 0.205225
O O13 0.910528 0.059870 0.869081
O O14 0.854811 0.897087 0.000000
O O15 0.485282 0.744239 0.661647
O O16 0.541356 0.134403 0.500000
O O17 0.500000 0.000000 0.652020
#
# Coordination Sequence:
#
# PCOD9442614 Si02
#       7
#     8   8   8   8   8   8   8
#     4  10  23  40  59  83 113 158 204 241 285 341
#     4  10  21  36  58  89 117 145 190 240 294 345
#     4  10  20  34  57  83 112 150 190 235 287 343
#     4  10  20  37  60  81 115 148 193 242 284 345
#     4   9  18  34  58  82 108 150 192 230 286 346
#     4  10  19  37  60  82 118 154 186 242 293 346
#     4   9  19  34  55  83 113 145 183 231 288 346
#
# _framework density 21.489477000000001
#
# number of rings (size 3 to 8) (size 9 to 14) (size 15 to 20)
#    0.000    2.286    1.429    0.857    2.000    2.286 
#    0.000    0.714    0.000    4.714    0.000    0.000 
#    0.000    0.000    0.000    0.000    0.000    0.000 
#
# Total GULP energy -312784.898095 kJ/mol
# GULP energy per Si atom -5585.444609 kJ/mol
# Density = 2.144057 g / cm^3
# Si number density = 21.489477 Si / 1000 Ang^3
#
#
#
# Elastic Constant Matrix: (Units=GPa)
#
#
# Indices 1 2 3 4 5 6 
#
# 1 84.3800 15.2025 -12.0236 0.0000 0.0000 0.0000
# 2 15.2025 46.8174 -17.1754 0.0000 0.0000 0.0000
# 3 -12.0236 -17.1754 61.6337 0.0000 0.0000 0.0000
# 4 0.0000 0.0000 0.0000 8.3575 0.0000 0.0000
# 5 0.0000 0.0000 0.0000 0.0000 39.2023 0.0000
# 6 0.0000 0.0000 0.0000 0.0000 0.0000 28.4751
#
#
#
# Elastic Compliance Matrix: (Units=1/GPa)
#
#
# Indices 1 2 3 4 5 6 
#
# 1 0.012708 -0.003583 0.001480 0.000000 0.000000 0.000000
# 2 -0.003583 0.024802 0.006213 0.000000 0.000000 0.000000
# 3 0.001480 0.006213 0.018245 0.000000 0.000000 0.000000
# 4 0.000000 0.000000 0.000000 0.119653 0.000000 0.000000
# 5 0.000000 0.000000 0.000000 0.000000 0.025509 0.000000
# 6 0.000000 0.000000 0.000000 0.000000 0.000000 0.035118
#
#
# Mechanical properties :
#
#
# Convention : Reuss Voigt Hill
#
# Bulk Modulus (GPa) = 15.63122 18.31534 16.97328
# Shear Modulus (GPa) = 20.06902 28.99548 24.53225
#
# Velocity S-wave (km/s) = 3.05929 3.67725 3.38241
# Velocity P-wave (km/s) = 4.44620 5.15471 4.81351
#
# Compressibility (1/GPa) = 0.06397455
#
# Stress axis : x y z
#
# Youngs Moduli (GPa) = 78.69245 40.31884 54.80963
#
# Poissons Ratio (x) = 0.14447 -0.08114
# Poissons Ratio (y) = 0.28198 -0.34051
# Poissons Ratio (z) = -0.11650 -0.25048
#
# Static dielectric constant tensor:
#      x y z
#    x 1.781540 0.000000 0.000000 
#    y 0.000000 1.789450 0.000000 
#    z 0.000000 0.000000 1.778720 
# 
# From -- ./inp_files/17033.got.cif
#   From: 2010.05.17/outbox.cif.g08.bks.cpg/sg58_9_cif.got.tgz:17033.got - 2010.06.03 14:20:14.
