data_PCOD9442887
_publ_section_title
;
Structure prediction by ZEFSAII (Michael W. Deem and Ramdas Pophale) SiO2 
 PCOD9442887
Probable space group: P N N M
;
_chemical_formula_sum "Si O2"
_cell_formula_units_Z 58
_cell_length_a 12.756508
_cell_length_b 23.111085
_cell_length_c 7.389142
_cell_angle_alpha 90.000000
_cell_angle_beta 90.000000
_cell_angle_gamma 90.000000
_cell_volume 2178.442761
_symmetry_space_group_name_H-M "P N N M"
_symmetry_group_IT_number 58
_symmetry_cell_setting 'orthorhombic'
loop_
_space_group_symop_operation_xyz
x,y,z
-x,-y,z
1/2+x,1/2-y,1/2-z
1/2-x,1/2+y,1/2-z
-x,-y,-z
x,y,-z
1/2-x,1/2+y,1/2+z
1/2+x,1/2-y,1/2+z
loop_
_atom_site_type_symbol
_atom_site_label
_atom_site_fract_x
_atom_site_fract_y
_atom_site_fract_z
Si Si1 0.920609 0.736169 0.790580
Si Si2 0.723819 0.510693 0.218920
Si Si3 0.807367 0.629803 0.794717
Si Si4 0.062014 0.075440 0.289181
Si Si5 0.500000 0.000000 0.000000
Si Si6 0.908149 0.174797 0.792447
Si Si7 0.252320 0.670776 0.790241
Si Si8 0.409711 0.080738 0.282063
O O1 0.892008 0.673587 0.712509
O O2 0.013060 0.776607 0.715404
O O3 0.815377 0.775662 0.790125
O O4 0.947745 0.725939 0.000000
O O5 0.765416 0.571066 0.292387
O O6 0.613386 0.483846 0.282844
O O7 0.815496 0.465073 0.255613
O O8 0.712917 0.515194 0.000000
O O9 0.700269 0.666565 0.805988
O O10 0.841883 0.615422 0.000000
O O11 0.034714 0.067266 0.500000
O O12 0.969527 0.113477 0.208630
O O13 0.161306 0.119446 0.280628
O O14 0.502153 0.948377 0.159789
O O15 0.884604 0.189211 0.000000
O O16 0.142886 0.642329 0.727321
O O17 0.235902 0.684802 0.000000
O O18 0.427889 0.080847 0.500000
#
# Coordination Sequence:
#
# PCOD9442887 Si02
#       8
#     8   8   8   8   2   8   8   8
#     4   9  19  34  55  77 106 142 186 232 285 340
#     4   8  16  34  57  77 108 146 190 228 281 350
#     4  10  20  36  57  79 106 153 191 230 287 352
#     4   8  14  29  53  78 100 135 177 221 264 332
#     4  12  22  32  56  86 116 154 190 236 308 352
#     4  10  20  34  50  79 113 141 178 235 285 338
#     4   8  15  30  54  76  99 135 185 228 275 325
#     4   9  19  36  55  82 114 150 193 243 292 355
#
# _framework density 26.624524999999998
#
# number of rings (size 3 to 8) (size 9 to 14) (size 15 to 20)
#    0.000    3.034    0.000    2.276    0.966    1.655 
#    4.966    4.138    0.000    3.310    0.000    0.000 
#    0.000    0.000    0.000    0.000    0.000    0.000 
#
# Total GULP energy -323513.641768 kJ/mol
# GULP energy per Si atom -5577.821410 kJ/mol
# Density = 2.656393 g / cm^3
# Si number density = 26.624525 Si / 1000 Ang^3
#
#
#
# Elastic Constant Matrix: (Units=GPa)
#
#
# Indices 1 2 3 4 5 6 
#
# 1 112.5902 32.5250 -11.2096 0.0000 0.0000 0.0000
# 2 32.5250 128.8786 -7.9291 0.0000 0.0000 0.0000
# 3 -11.2096 -7.9291 91.1803 0.0000 0.0000 0.0000
# 4 0.0000 0.0000 0.0000 8.3409 0.0000 0.0000
# 5 0.0000 0.0000 0.0000 0.0000 -9.5183 0.0000
# 6 0.0000 0.0000 0.0000 0.0000 0.0000 -4.3697
#
#
#
# Elastic Compliance Matrix: (Units=1/GPa)
#
#
# Indices 1 2 3 4 5 6 
#
# 1 0.009667 -0.002379 0.000982 0.000000 0.000000 0.000000
# 2 -0.002379 0.008387 0.000437 0.000000 0.000000 0.000000
# 3 0.000982 0.000437 0.011126 0.000000 0.000000 0.000000
# 4 0.000000 0.000000 0.000000 0.119891 0.000000 0.000000
# 5 0.000000 0.000000 0.000000 0.000000 -0.105061 0.000000
# 6 0.000000 0.000000 0.000000 0.000000 0.000000 -0.228847
#
#
# Mechanical properties :
#
#
# Convention : Reuss Voigt Hill
#
# Bulk Modulus (GPa) = 36.68713 39.93574 38.31143
# Shear Modulus (GPa) = -28.76387 20.17476 -4.29456
#
# Velocity S-wave (km/s) = -3.29044 2.75571 -1.27142
# Velocity P-wave (km/s) = 0.79159 5.01572 3.50220
#
# Compressibility (1/GPa) = 0.02725752
#
# Stress axis : x y z
#
# Youngs Moduli (GPa) = 103.44693 119.23848 89.88006
#
# Poissons Ratio (x) = 0.28369 -0.08822
# Poissons Ratio (y) = 0.24612 -0.03926
# Poissons Ratio (z) = -0.10154 -0.05208
#
# Static dielectric constant tensor:
#      x y z
#    x 2.175830 0.000000 0.000000 
#    y 0.000000 2.139530 0.000000 
#    z 0.000000 0.000000 2.003380 
# 
# From -- ./inp_files/6679.got.cif
#   From: 2010.05.17/outbox.cif.g08.bks.cpg/sg58_4_cif.got.tgz:6679.got - 2010.06.03 14:20:14.
