data_PCOD9442115
_publ_section_title
;
Structure prediction by ZEFSAII (Michael W. Deem and Ramdas Pophale) SiO2 
 PCOD9442115
Probable space group: P N N M
;
_chemical_formula_sum "Si O2"
_cell_formula_units_Z 32
_cell_length_a 16.788183
_cell_length_b 7.191598
_cell_length_c 11.270794
_cell_angle_alpha 90.000000
_cell_angle_beta 90.000000
_cell_angle_gamma 90.000000
_cell_volume 1360.766502
_symmetry_space_group_name_H-M "P N N M"
_symmetry_group_IT_number 58
_symmetry_cell_setting 'orthorhombic'
loop_
_space_group_symop_operation_xyz
x,y,z
-x,-y,z
1/2+x,1/2-y,1/2-z
1/2-x,1/2+y,1/2-z
-x,-y,-z
x,y,-z
1/2-x,1/2+y,1/2+z
1/2+x,1/2-y,1/2+z
loop_
_atom_site_type_symbol
_atom_site_label
_atom_site_fract_x
_atom_site_fract_y
_atom_site_fract_z
Si Si1 0.495775 0.217872 0.360968
Si Si2 0.239264 0.464392 0.129387
Si Si3 0.127624 0.002693 0.212297
Si Si4 0.710426 0.967949 0.874731
O O1 0.473882 0.242266 0.500000
O O2 0.578932 0.327213 0.342492
O O3 0.433968 0.333701 0.280272
O O4 0.500000 0.000000 0.335973
O O5 0.323333 0.559604 0.169080
O O6 0.266183 0.249576 0.124613
O O7 0.181156 0.493638 0.241369
O O8 0.209638 0.517662 0.000000
O O9 0.202025 0.937521 0.131804
O O10 0.669813 0.012320 0.000000
#
# Coordination Sequence:
#
# PCOD9442115 Si02
#       4
#     8   8   8   8
#     4  10  19  33  57  86 112 146 195 239 282 336
#     4   9  20  35  53  80 113 148 186 230 282 342
#     4   9  19  35  55  79 117 143 180 241 286 324
#     4   9  18  34  55  78 108 148 188 227 277 336
#
# _framework density 23.516158999999998
#
# number of rings (size 3 to 8) (size 9 to 14) (size 15 to 20)
#    1.500    1.250    0.000    3.000    0.000    3.000 
#    0.000    5.000    0.000    1.500    0.000    0.000 
#    0.000    0.000    0.000    0.000    0.000    0.000 
#
# Total GULP energy -178180.788945 kJ/mol
# GULP energy per Si atom -5568.149655 kJ/mol
# Density = 2.346264 g / cm^3
# Si number density = 23.516159 Si / 1000 Ang^3
#
#
#
# Elastic Constant Matrix: (Units=GPa)
#
#
# Indices 1 2 3 4 5 6 
#
# 1 66.9741 9.7428 6.5419 0.0000 0.0000 0.0000
# 2 9.7428 97.0431 28.5537 0.0000 0.0000 0.0000
# 3 6.5419 28.5537 204.5748 0.0000 0.0000 0.0000
# 4 0.0000 0.0000 0.0000 21.0605 0.0000 0.0000
# 5 0.0000 0.0000 0.0000 0.0000 9.3801 0.0000
# 6 0.0000 0.0000 0.0000 0.0000 0.0000 34.1976
#
#
#
# Elastic Compliance Matrix: (Units=1/GPa)
#
#
# Indices 1 2 3 4 5 6 
#
# 1 0.015168 -0.001439 -0.000284 0.000000 0.000000 0.000000
# 2 -0.001439 0.010883 -0.001473 0.000000 0.000000 0.000000
# 3 -0.000284 -0.001473 0.005103 0.000000 0.000000 0.000000
# 4 0.000000 0.000000 0.000000 0.047482 0.000000 0.000000
# 5 0.000000 0.000000 0.000000 0.000000 0.106609 0.000000
# 6 0.000000 0.000000 0.000000 0.000000 0.000000 0.029242
#
#
# Mechanical properties :
#
#
# Convention : Reuss Voigt Hill
#
# Bulk Modulus (GPa) = 40.38598 50.91875 45.65237
# Shear Modulus (GPa) = 21.82141 34.51121 28.16631
#
# Velocity S-wave (km/s) = 3.04950 3.83502 3.46460
# Velocity P-wave (km/s) = 5.44153 6.42725 5.95482
#
# Compressibility (1/GPa) = 0.02476107
#
# Stress axis : x y z
#
# Youngs Moduli (GPa) = 65.92714 91.88993 195.96851
#
# Poissons Ratio (x) = 0.13225 0.05569
# Poissons Ratio (y) = 0.09488 0.28865
# Poissons Ratio (z) = 0.01873 0.13535
#
# Static dielectric constant tensor:
#      x y z
#    x 1.864160 0.000000 0.000000 
#    y 0.000000 1.986970 0.000000 
#    z 0.000000 0.000000 1.969670 
# 
# From -- ./inp_files/17318.got.cif
#   From: 2010.05.17/outbox.cif.g08.bks.cpg/sg58_9_cif.got.tgz:17318.got - 2010.06.03 14:20:14.
