data_PCOD9442555
_publ_section_title
;
Structure prediction by ZEFSAII (Michael W. Deem and Ramdas Pophale) SiO2 
 PCOD9442555
Probable space group: P N N M
;
_chemical_formula_sum "Si O2"
_cell_formula_units_Z 64
_cell_length_a 18.897700
_cell_length_b 20.647956
_cell_length_c 7.565633
_cell_angle_alpha 90.000000
_cell_angle_beta 90.000000
_cell_angle_gamma 90.000000
_cell_volume 2952.101509
_symmetry_space_group_name_H-M "P N N M"
_symmetry_group_IT_number 58
_symmetry_cell_setting 'orthorhombic'
loop_
_space_group_symop_operation_xyz
x,y,z
-x,-y,z
1/2+x,1/2-y,1/2-z
1/2-x,1/2+y,1/2-z
-x,-y,-z
x,y,-z
1/2-x,1/2+y,1/2+z
1/2+x,1/2-y,1/2+z
loop_
_atom_site_type_symbol
_atom_site_label
_atom_site_fract_x
_atom_site_fract_y
_atom_site_fract_z
Si Si1 0.708627 0.850190 0.214206
Si Si2 0.550352 0.823705 0.787628
Si Si3 0.313174 0.764953 0.283675
Si Si4 0.198306 0.025516 0.707443
Si Si5 0.793125 0.589347 0.791433
Si Si6 0.958601 0.939440 0.203699
Si Si7 0.038955 0.204253 0.210824
Si Si8 0.547692 0.060519 0.786145
O O1 0.628079 0.842948 0.276396
O O2 0.755106 0.788125 0.267941
O O3 0.746559 0.915608 0.274047
O O4 0.708243 0.851603 0.000000
O O5 0.526555 0.751434 0.742923
O O6 0.490757 0.873952 0.723350
O O7 0.551736 0.829020 0.000000
O O8 0.314694 0.767099 0.500000
O O9 0.296559 0.837487 0.220006
O O10 0.389856 0.739565 0.222319
O O11 0.183195 0.016570 0.500000
O O12 0.124671 0.045287 0.794563
O O13 0.235062 0.960529 0.780531
O O14 0.871280 0.559100 0.771567
O O15 0.778572 0.594872 0.000000
O O16 0.969288 0.868146 0.283613
O O17 0.983663 0.934861 0.000000
O O18 0.000000 0.000000 0.285669
O O19 0.049081 0.197965 0.000000
O O20 0.500000 0.000000 0.728563
O O21 0.548333 0.060274 0.000000
#
# Coordination Sequence:
#
# PCOD9442555 Si02
#       8
#     8   8   8   8   8   8   8   8
#     4  10  20  38  61  82 111 154 196 230 279 346
#     4  10  21  34  55  87 116 146 188 239 288 335
#     4   9  17  34  59  80 102 146 195 227 268 334
#     4  11  23  37  57  87 120 149 187 240 291 338
#     4  10  21  36  54  80 111 146 186 226 276 335
#     4  10  22  41  64  87 113 152 199 237 283 349
#     4  10  19  36  61  83 109 150 191 232 282 341
#     4  10  20  34  51  77 111 145 184 228 275 328
#
# _framework density 21.679470999999999
#
# number of rings (size 3 to 8) (size 9 to 14) (size 15 to 20)
#    0.000    2.000    2.500    1.125    0.000    4.500 
#    0.000    1.875    0.000    0.000    0.000    0.000 
#    0.000    0.000    0.000    0.000    0.000    0.000 
#
# Total GULP energy -357619.489015 kJ/mol
# GULP energy per Si atom -5587.804516 kJ/mol
# Density = 2.163013 g / cm^3
# Si number density = 21.679471 Si / 1000 Ang^3
#
#
#
# Elastic Constant Matrix: (Units=GPa)
#
#
# Indices 1 2 3 4 5 6 
#
# 1 67.7717 34.8685 -10.8422 0.0000 0.0000 0.0000
# 2 34.8685 164.9737 1.1345 0.0000 0.0000 0.0000
# 3 -10.8422 1.1345 49.6062 0.0000 0.0000 0.0000
# 4 0.0000 0.0000 0.0000 1.9352 0.0000 0.0000
# 5 0.0000 0.0000 0.0000 0.0000 20.7486 0.0000
# 6 0.0000 0.0000 0.0000 0.0000 0.0000 44.8839
#
#
#
# Elastic Compliance Matrix: (Units=1/GPa)
#
#
# Indices 1 2 3 4 5 6 
#
# 1 0.017263 -0.003675 0.003857 0.000000 0.000000 0.000000
# 2 -0.003675 0.006845 -0.000960 0.000000 0.000000 0.000000
# 3 0.003857 -0.000960 0.021024 0.000000 0.000000 0.000000
# 4 0.000000 0.000000 0.000000 0.516732 0.000000 0.000000
# 5 0.000000 0.000000 0.000000 0.000000 0.048196 0.000000
# 6 0.000000 0.000000 0.000000 0.000000 0.000000 0.022280
#
#
# Mechanical properties :
#
#
# Convention : Reuss Voigt Hill
#
# Bulk Modulus (GPa) = 22.94819 36.96369 29.95594
# Shear Modulus (GPa) = 7.71104 30.65960 19.18532
#
# Velocity S-wave (km/s) = 1.88800 3.76469 2.97804
# Velocity P-wave (km/s) = 3.91930 5.99869 5.06682
#
# Compressibility (1/GPa) = 0.04357643
#
# Stress axis : x y z
#
# Youngs Moduli (GPa) = 57.92584 146.09257 47.56517
#
# Poissons Ratio (x) = 0.53693 -0.18347
# Poissons Ratio (y) = 0.21289 0.04565
# Poissons Ratio (z) = -0.22343 0.14022
#
# Static dielectric constant tensor:
#      x y z
#    x 1.740170 0.000000 0.000000 
#    y 0.000000 1.796290 0.000000 
#    z 0.000000 0.000000 1.823680 
# 
# From -- ./inp_files/8294.got.cif
#   From: 2010.05.17/outbox.cif.g08.bks.cpg/sg58_5_cif.got.tgz:8294.got - 2010.06.03 14:20:14.
