data_PCOD9442804
_publ_section_title
;
Structure prediction by ZEFSAII (Michael W. Deem and Ramdas Pophale) SiO2 
 PCOD9442804
Probable space group: P N N M
;
_chemical_formula_sum "Si O2"
_cell_formula_units_Z 64
_cell_length_a 22.171009
_cell_length_b 9.472897
_cell_length_c 13.658533
_cell_angle_alpha 90.000000
_cell_angle_beta 90.000000
_cell_angle_gamma 90.000000
_cell_volume 2868.615427
_symmetry_space_group_name_H-M "P N N M"
_symmetry_group_IT_number 58
_symmetry_cell_setting 'orthorhombic'
loop_
_space_group_symop_operation_xyz
x,y,z
-x,-y,z
1/2+x,1/2-y,1/2-z
1/2-x,1/2+y,1/2-z
-x,-y,-z
x,y,-z
1/2-x,1/2+y,1/2+z
1/2+x,1/2-y,1/2+z
loop_
_atom_site_type_symbol
_atom_site_label
_atom_site_fract_x
_atom_site_fract_y
_atom_site_fract_z
Si Si1 0.981566 0.355227 0.110515
Si Si2 0.869654 0.531225 0.709206
Si Si3 0.147022 0.665839 0.883644
Si Si4 0.228326 0.277486 0.617997
Si Si5 0.060836 0.090503 0.895454
Si Si6 0.077227 0.753667 0.618852
Si Si7 0.057497 0.181814 0.310277
Si Si8 0.153775 0.012267 0.391310
O O1 0.920199 0.276359 0.139964
O O2 0.000000 0.500000 0.162802
O O3 0.036967 0.251588 0.104197
O O4 0.964576 0.396503 0.000000
O O5 0.854202 0.475318 0.818170
O O6 0.808506 0.592886 0.662258
O O7 0.900646 0.400781 0.652540
O O8 0.914624 0.663520 0.702585
O O9 0.201298 0.768923 0.856608
O O10 0.155347 0.639994 0.000000
O O11 0.221086 0.283347 0.500000
O O12 0.199705 0.127146 0.653689
O O13 0.080420 0.087360 0.783122
O O14 0.093825 0.062763 0.000000
O O15 0.000000 0.000000 0.899991
O O16 0.069109 0.757523 0.500000
O O17 0.131251 0.861484 0.646150
O O18 0.013692 0.800584 0.669510
O O19 0.091635 0.102175 0.396359
O O20 0.178414 0.984305 0.500000
#
# Coordination Sequence:
#
# PCOD9442804 Si02
#       8
#     8   8   8   8   8   8   8   8
#     4   9  17  31  53  80 108 139 179 226 275 332
#     4  11  23  36  57  87 114 145 191 248 294 334
#     4  10  21  38  61  84 110 150 193 231 283 353
#     4   9  20  40  61  82 113 152 191 235 292 348
#     4  10  20  33  50  75 110 147 181 223 275 331
#     4  11  22  36  58  88 120 155 196 242 292 348
#     4  11  21  34  53  82 120 157 191 231 289 353
#     4   9  19  36  58  83 115 156 197 237 283 344
#
# _framework density 22.310414999999999
#
# number of rings (size 3 to 8) (size 9 to 14) (size 15 to 20)
#    0.000    2.000    0.000    3.750    0.000    5.500 
#    0.000    1.250    0.000    2.250    0.000    8.750 
#    0.000    0.000    0.000    0.000    0.000    0.000 
#
# Total GULP energy -356309.018558 kJ/mol
# GULP energy per Si atom -5567.328415 kJ/mol
# Density = 2.225964 g / cm^3
# Si number density = 22.310415 Si / 1000 Ang^3
#
#
#
# Elastic Constant Matrix: (Units=GPa)
#
#
# Indices 1 2 3 4 5 6 
#
# 1 59.0843 -20.8699 17.5121 0.0000 0.0000 0.0000
# 2 -20.8699 56.2191 14.5844 0.0000 0.0000 0.0000
# 3 17.5121 14.5844 116.3006 0.0000 0.0000 0.0000
# 4 0.0000 0.0000 0.0000 14.1927 0.0000 0.0000
# 5 0.0000 0.0000 0.0000 0.0000 10.4534 0.0000
# 6 0.0000 0.0000 0.0000 0.0000 0.0000 27.8074
#
#
#
# Elastic Compliance Matrix: (Units=1/GPa)
#
#
# Indices 1 2 3 4 5 6 
#
# 1 0.021429 0.009088 -0.004366 0.000000 0.000000 0.000000
# 2 0.009088 0.022240 -0.004157 0.000000 0.000000 0.000000
# 3 -0.004366 -0.004157 0.009777 0.000000 0.000000 0.000000
# 4 0.000000 0.000000 0.000000 0.070459 0.000000 0.000000
# 5 0.000000 0.000000 0.000000 0.000000 0.095663 0.000000
# 6 0.000000 0.000000 0.000000 0.000000 0.000000 0.035962
#
#
# Mechanical properties :
#
#
# Convention : Reuss Voigt Hill
#
# Bulk Modulus (GPa) = 18.32372 28.22859 23.27616
# Shear Modulus (GPa) = 18.34242 25.18253 21.76247
#
# Velocity S-wave (km/s) = 2.87042 3.36331 3.12659
# Velocity P-wave (km/s) = 4.38368 5.26902 4.84661
#
# Compressibility (1/GPa) = 0.05457407
#
# Stress axis : x y z
#
# Youngs Moduli (GPa) = 46.66554 44.96481 102.27863
#
# Poissons Ratio (x) = -0.40863 0.44658
# Poissons Ratio (y) = -0.42408 0.42520
# Poissons Ratio (z) = 0.20376 0.18693
#
# Static dielectric constant tensor:
#      x y z
#    x 1.863150 0.000000 0.000000 
#    y 0.000000 1.844460 0.000000 
#    z 0.000000 0.000000 2.048400 
# 
# From -- ./inp_files/23565.got.cif
#   From: 2010.05.17/outbox.cif.g08.bks.cpg/sg58_12_cif.got.tgz:23565.got - 2010.06.03 14:20:14.
