data_PCOD9442060
_publ_section_title
;
Structure prediction by ZEFSAII (Michael W. Deem and Ramdas Pophale) SiO2 
 PCOD9442060
Probable space group: P N N M
;
_chemical_formula_sum "Si O2"
_cell_formula_units_Z 64
_cell_length_a 11.936754
_cell_length_b 30.175820
_cell_length_c 7.914462
_cell_angle_alpha 90.000000
_cell_angle_beta 90.000000
_cell_angle_gamma 90.000000
_cell_volume 2850.799818
_symmetry_space_group_name_H-M "P N N M"
_symmetry_group_IT_number 58
_symmetry_cell_setting 'orthorhombic'
loop_
_space_group_symop_operation_xyz
x,y,z
-x,-y,z
1/2+x,1/2-y,1/2-z
1/2-x,1/2+y,1/2-z
-x,-y,-z
x,y,-z
1/2-x,1/2+y,1/2+z
1/2+x,1/2-y,1/2+z
loop_
_atom_site_type_symbol
_atom_site_label
_atom_site_fract_x
_atom_site_fract_y
_atom_site_fract_z
Si Si1 0.013221 0.226465 0.292094
Si Si2 0.624891 0.105947 0.696305
Si Si3 0.472556 0.177886 0.193955
Si Si4 0.166355 0.838830 0.696014
Si Si5 0.054055 0.925566 0.203122
Si Si6 0.729996 0.019950 0.799262
Si Si7 0.798540 0.928742 0.797443
Si Si8 0.271184 0.671444 0.803538
O O1 0.009258 0.226531 0.500000
O O2 0.026410 0.277062 0.235706
O O3 0.118115 0.196455 0.240639
O O4 0.897123 0.203872 0.231759
O O5 0.651073 0.100480 0.500000
O O6 0.511291 0.132995 0.717005
O O7 0.721921 0.138640 0.771392
O O8 0.635165 0.056749 0.769656
O O9 0.340372 0.184689 0.206412
O O10 0.505755 0.172753 0.000000
O O11 0.191154 0.829114 0.500000
O O12 0.075367 0.878361 0.709949
O O13 0.928595 0.942100 0.230776
O O14 0.154339 0.957298 0.262509
O O15 0.066314 0.919441 0.000000
O O16 0.722732 0.969701 0.735151
O O17 0.742591 0.015181 0.000000
O O18 0.782302 0.881371 0.714071
O O19 0.782820 0.922132 0.000000
O O20 0.256342 0.682936 0.000000
#
# Coordination Sequence:
#
# PCOD9442060 Si02
#       8
#     8   8   8   8   8   8   8   8
#     4   9  20  38  60  85 115 151 188 233 291 349
#     4  10  21  37  59  86 118 153 197 245 291 344
#     4  11  24  42  63  84 114 155 198 242 293 350
#     4   9  17  33  55  81 114 152 186 228 285 341
#     4   9  16  28  49  81 118 153 189 233 281 335
#     4   9  18  33  55  83 119 159 199 241 289 347
#     4  10  19  33  55  85 119 158 199 240 291 348
#     4  11  23  41  62  87 120 153 194 244 294 347
#
# _framework density 22.449840999999999
#
# number of rings (size 3 to 8) (size 9 to 14) (size 15 to 20)
#    0.000    2.250    1.250    1.500    1.750    2.500 
#    0.000    3.750    0.000    7.500    0.000    0.000 
#    0.000    0.000    0.000    0.000    0.000    0.000 
#
# Total GULP energy -357182.163865 kJ/mol
# GULP energy per Si atom -5580.971310 kJ/mol
# Density = 2.239874 g / cm^3
# Si number density = 22.449841 Si / 1000 Ang^3
#
#
#
# Elastic Constant Matrix: (Units=GPa)
#
#
# Indices 1 2 3 4 5 6 
#
# 1 30.4546 -0.7859 0.1591 0.0000 0.0000 0.0000
# 2 -0.7859 94.4879 0.5012 0.0000 0.0000 0.0000
# 3 0.1591 0.5012 25.8871 0.0000 0.0000 0.0000
# 4 0.0000 0.0000 0.0000 14.2159 0.0000 0.0000
# 5 0.0000 0.0000 0.0000 0.0000 18.7697 0.0000
# 6 0.0000 0.0000 0.0000 0.0000 0.0000 13.6777
#
#
#
# Elastic Compliance Matrix: (Units=1/GPa)
#
#
# Indices 1 2 3 4 5 6 
#
# 1 0.032844 0.000274 -0.000207 0.000000 0.000000 0.000000
# 2 0.000274 0.010587 -0.000207 0.000000 0.000000 0.000000
# 3 -0.000207 -0.000207 0.038635 0.000000 0.000000 0.000000
# 4 0.000000 0.000000 0.000000 0.070344 0.000000 0.000000
# 5 0.000000 0.000000 0.000000 0.000000 0.053277 0.000000
# 6 0.000000 0.000000 0.000000 0.000000 0.000000 0.073112
#
#
# Mechanical properties :
#
#
# Convention : Reuss Voigt Hill
#
# Bulk Modulus (GPa) = 12.22700 16.73092 14.47896
# Shear Modulus (GPa) = 16.32177 19.39633 17.85905
#
# Velocity S-wave (km/s) = 2.69928 2.94255 2.82354
# Velocity P-wave (km/s) = 3.89525 4.36046 4.13440
#
# Compressibility (1/GPa) = 0.08178620
#
# Stress axis : x y z
#
# Youngs Moduli (GPa) = 30.44700 94.45773 25.88352
#
# Poissons Ratio (x) = -0.02591 0.00536
# Poissons Ratio (y) = -0.00835 0.00535
# Poissons Ratio (z) = 0.00631 0.01952
#
# Static dielectric constant tensor:
#      x y z
#    x 1.829660 0.000000 0.000000 
#    y 0.000000 1.845230 0.000000 
#    z 0.000000 0.000000 1.808120 
# 
# From -- ./inp_files/4731.got.cif
#   From: 2010.05.17/outbox.cif.g08.bks.cpg/sg58_3_cif.got.tgz:4731.got - 2010.06.03 14:20:14.
