data_PCOD9442921
_publ_section_title
;
Structure prediction by ZEFSAII (Michael W. Deem and Ramdas Pophale) SiO2 
 PCOD9442921
Probable space group: P N N M
;
_chemical_formula_sum "Si O2"
_cell_formula_units_Z 64
_cell_length_a 19.451599
_cell_length_b 23.482453
_cell_length_c 8.854165
_cell_angle_alpha 90.000000
_cell_angle_beta 90.000000
_cell_angle_gamma 90.000000
_cell_volume 4044.328097
_symmetry_space_group_name_H-M "P N N M"
_symmetry_group_IT_number 58
_symmetry_cell_setting 'orthorhombic'
loop_
_space_group_symop_operation_xyz
x,y,z
-x,-y,z
1/2+x,1/2-y,1/2-z
1/2-x,1/2+y,1/2-z
-x,-y,-z
x,y,-z
1/2-x,1/2+y,1/2+z
1/2+x,1/2-y,1/2+z
loop_
_atom_site_type_symbol
_atom_site_label
_atom_site_fract_x
_atom_site_fract_y
_atom_site_fract_z
Si Si1 0.871005 0.284317 0.820610
Si Si2 0.790246 0.165733 0.178754
Si Si3 0.988735 0.881157 0.180346
Si Si4 0.664016 0.240148 0.819651
Si Si5 0.351440 0.564312 0.180130
Si Si6 0.993017 0.755098 0.680226
Si Si7 0.755649 0.845797 0.820148
Si Si8 0.876011 0.067403 0.321490
O O1 0.837779 0.221467 0.794986
O O2 0.946302 0.282606 0.749236
O O3 0.818497 0.328443 0.745240
O O4 0.873545 0.293251 0.000000
O O5 0.713462 0.187074 0.216346
O O6 0.819264 0.113304 0.272085
O O7 0.793952 0.152524 0.000000
O O8 0.919871 0.908515 0.247877
O O9 0.997106 0.817763 0.246693
O O10 0.054571 0.917484 0.232013
O O11 0.984900 0.878537 0.000000
O O12 0.583748 0.232166 0.789366
O O13 0.693157 0.294968 0.732690
O O14 0.672645 0.251414 0.000000
O O15 0.286727 0.596858 0.250600
O O16 0.352508 0.496927 0.209329
O O17 0.352980 0.573795 0.000000
O O18 0.001821 0.760052 0.500000
O O19 0.753982 0.848494 0.000000
O O20 0.890252 0.072556 0.500000
#
# Coordination Sequence:
#
# PCOD9442921 Si02
#       8
#     8   8   8   8   8   8   8   8
#     4  10  20  34  52  74 104 136 167 209 258 303
#     4   9  18  33  51  72 100 133 169 209 253 300
#     4  12  23  34  49  73 103 137 177 214 252 300
#     4   9  19  34  52  73 103 136 165 207 259 306
#     4  11  23  38  52  70 100 138 177 216 258 303
#     4  11  20  32  53  77 104 138 172 206 252 306
#     4  11  21  33  52  76 100 131 172 214 255 305
#     4  11  23  36  52  72  99 138 178 215 257 301
#
# _framework density 15.824631
#
# number of rings (size 3 to 8) (size 9 to 14) (size 15 to 20)
#    0.000    1.500    2.500    4.875    0.000    6.000 
#    0.000    0.000    0.000    0.000    0.000    0.875 
#    0.000    7.000    0.000    0.000    0.000    0.000 
#
# Total GULP energy -357486.661723 kJ/mol
# GULP energy per Si atom -5585.729089 kJ/mol
# Density = 1.578861 g / cm^3
# Si number density = 15.824631 Si / 1000 Ang^3
#
#
#
# Elastic Constant Matrix: (Units=GPa)
#
#
# Indices 1 2 3 4 5 6 
#
# 1 67.3227 10.8818 35.3686 0.0000 0.0000 0.0000
# 2 10.8818 38.0744 24.1642 0.0000 0.0000 0.0000
# 3 35.3686 24.1642 70.5405 0.0000 0.0000 0.0000
# 4 0.0000 0.0000 0.0000 14.3797 0.0000 0.0000
# 5 0.0000 0.0000 0.0000 0.0000 28.7497 0.0000
# 6 0.0000 0.0000 0.0000 0.0000 0.0000 17.0533
#
#
#
# Elastic Compliance Matrix: (Units=1/GPa)
#
#
# Indices 1 2 3 4 5 6 
#
# 1 0.020187 0.000836 -0.010408 0.000000 0.000000 0.000000
# 2 0.000836 0.033595 -0.011928 0.000000 0.000000 0.000000
# 3 -0.010408 -0.011928 0.023481 0.000000 0.000000 0.000000
# 4 0.000000 0.000000 0.000000 0.069543 0.000000 0.000000
# 5 0.000000 0.000000 0.000000 0.000000 0.034783 0.000000
# 6 0.000000 0.000000 0.000000 0.000000 0.000000 0.058640
#
#
# Mechanical properties :
#
#
# Convention : Reuss Voigt Hill
#
# Bulk Modulus (GPa) = 29.18534 35.19631 32.19082
# Shear Modulus (GPa) = 16.96943 19.07141 18.02042
#
# Velocity S-wave (km/s) = 3.27822 3.47533 3.37821
# Velocity P-wave (km/s) = 5.72817 6.19626 5.96681
#
# Compressibility (1/GPa) = 0.03426378
#
# Stress axis : x y z
#
# Youngs Moduli (GPa) = 49.53796 29.76601 42.58844
#
# Poissons Ratio (x) = -0.02488 0.44325
# Poissons Ratio (y) = -0.04141 0.50798
# Poissons Ratio (z) = 0.51558 0.35504
#
# Static dielectric constant tensor:
#      x y z
#    x 1.533790 0.000000 0.000000 
#    y 0.000000 1.504590 0.000000 
#    z 0.000000 0.000000 1.527840 
# 
# From -- ./inp_files/8329.got.cif
#   From: 2010.05.17/outbox.cif.g08.bks.cpg/sg58_5_cif.got.tgz:8329.got - 2010.06.03 14:20:14.
