data_PCOD9442283
_publ_section_title
;
Structure prediction by ZEFSAII (Michael W. Deem and Ramdas Pophale) SiO2 
 PCOD9442283
Probable space group: P N N M
;
_chemical_formula_sum "Si O2"
_cell_formula_units_Z 64
_cell_length_a 15.664176
_cell_length_b 7.512796
_cell_length_c 24.661884
_cell_angle_alpha 90.000000
_cell_angle_beta 90.000000
_cell_angle_gamma 90.000000
_cell_volume 2902.253884
_symmetry_space_group_name_H-M "P N N M"
_symmetry_group_IT_number 58
_symmetry_cell_setting 'orthorhombic'
loop_
_space_group_symop_operation_xyz
x,y,z
-x,-y,z
1/2+x,1/2-y,1/2-z
1/2-x,1/2+y,1/2-z
-x,-y,-z
x,y,-z
1/2-x,1/2+y,1/2+z
1/2+x,1/2-y,1/2+z
loop_
_atom_site_type_symbol
_atom_site_label
_atom_site_fract_x
_atom_site_fract_y
_atom_site_fract_z
Si Si1 0.678602 0.848891 0.132895
Si Si2 0.361750 0.758382 0.633323
Si Si3 0.633289 0.262587 0.865138
Si Si4 0.522061 0.785903 0.062196
Si Si5 0.820555 0.330831 0.134909
Si Si6 0.023528 0.792498 0.061391
Si Si7 0.422537 0.754677 0.749072
Si Si8 0.879863 0.319063 0.749058
O O1 0.776767 0.843687 0.114409
O O2 0.612168 0.757034 0.092259
O O3 0.670670 0.774980 0.194139
O O4 0.643325 0.048758 0.137266
O O5 0.441332 0.777541 0.593205
O O6 0.391904 0.681763 0.691282
O O7 0.335149 0.960808 0.640839
O O8 0.553407 0.302431 0.903131
O O9 0.725051 0.317229 0.886636
O O10 0.617447 0.325940 0.803546
O O11 0.500000 0.000000 0.061935
O O12 0.524336 0.728614 0.000000
O O13 0.892125 0.245609 0.096430
O O14 0.831786 0.259024 0.196420
O O15 0.032738 0.724220 0.000000
O O16 0.000000 0.000000 0.058638
O O17 0.524754 0.740430 0.752626
O O18 0.397642 0.966252 0.749053
#
# Coordination Sequence:
#
# PCOD9442283 Si02
#       8
#     8   8   8   8   8   8   8   8
#     4  10  19  34  58  84 114 152 194 236 280 333
#     4  11  22  37  59  86 118 149 183 232 292 351
#     4  10  19  34  58  84 114 152 194 236 280 333
#     4   9  18  33  55  81 107 143 192 239 276 316
#     4  11  22  37  59  86 118 149 183 232 292 351
#     4  11  25  44  63  83 109 145 194 243 282 336
#     4   9  16  31  56  83 112 150 191 233 281 334
#     4   9  16  31  56  83 112 150 191 233 281 334
#
# _framework density 22.051828
#
# number of rings (size 3 to 8) (size 9 to 14) (size 15 to 20)
#    0.000    2.000    2.500    1.875    0.000    2.000 
#    0.000    4.375    0.000    0.750    0.000    0.000 
#    0.000    0.000    0.000    0.000    0.000    0.000 
#
# Total GULP energy -357565.793124 kJ/mol
# GULP energy per Si atom -5586.965518 kJ/mol
# Density = 2.200164 g / cm^3
# Si number density = 22.051828 Si / 1000 Ang^3
#
#
#
# Elastic Constant Matrix: (Units=GPa)
#
#
# Indices 1 2 3 4 5 6 
#
# 1 129.9222 -16.6458 50.8703 0.0000 0.0000 0.0000
# 2 -16.6458 21.5945 -3.5432 0.0000 0.0000 0.0000
# 3 50.8703 -3.5432 140.5469 0.0000 0.0000 0.0000
# 4 0.0000 0.0000 0.0000 6.7154 0.0000 0.0000
# 5 0.0000 0.0000 0.0000 0.0000 -10.9750 0.0000
# 6 0.0000 0.0000 0.0000 0.0000 0.0000 20.3487
#
#
#
# Elastic Compliance Matrix: (Units=1/GPa)
#
#
# Indices 1 2 3 4 5 6 
#
# 1 0.009947 0.007106 -0.003421 0.000000 0.000000 0.000000
# 2 0.007106 0.051577 -0.001272 0.000000 0.000000 0.000000
# 3 -0.003421 -0.001272 0.008321 0.000000 0.000000 0.000000
# 4 0.000000 0.000000 0.000000 0.148912 0.000000 0.000000
# 5 0.000000 0.000000 0.000000 0.000000 -0.091116 0.000000
# 6 0.000000 0.000000 0.000000 0.000000 0.000000 0.049143
#
#
# Mechanical properties :
#
#
# Convention : Reuss Voigt Hill
#
# Bulk Modulus (GPa) = 13.39201 39.26959 26.33080
# Shear Modulus (GPa) = 25.40027 20.64329 23.02178
#
# Velocity S-wave (km/s) = 3.39757 3.06294 3.23458
# Velocity P-wave (km/s) = 4.63437 5.50956 5.09081
#
# Compressibility (1/GPa) = 0.07467139
#
# Stress axis : x y z
#
# Youngs Moduli (GPa) = 100.53438 19.38853 120.17434
#
# Poissons Ratio (x) = -0.13778 0.41113
# Poissons Ratio (y) = -0.71440 0.15283
# Poissons Ratio (z) = 0.34394 0.02466
#
# Static dielectric constant tensor:
#      x y z
#    x 1.670340 0.000000 0.000000 
#    y 0.000000 1.861410 0.000000 
#    z 0.000000 0.000000 1.799050 
# 
# From -- ./inp_files/32234.got.cif
#   From: 2010.05.17/outbox.cif.g08.bks.cpg/sg58_17_cif.got.tgz:32234.got - 2010.06.03 14:20:14.
