data_PCOD9442537
_publ_section_title
;
Structure prediction by ZEFSAII (Michael W. Deem and Ramdas Pophale) SiO2 
 PCOD9442537
Probable space group: P N N M
;
_chemical_formula_sum "Si O2"
_cell_formula_units_Z 48
_cell_length_a 9.685978
_cell_length_b 28.764932
_cell_length_c 8.515825
_cell_angle_alpha 90.000000
_cell_angle_beta 90.000000
_cell_angle_gamma 90.000000
_cell_volume 2372.649344
_symmetry_space_group_name_H-M "P N N M"
_symmetry_group_IT_number 58
_symmetry_cell_setting 'orthorhombic'
loop_
_space_group_symop_operation_xyz
x,y,z
-x,-y,z
1/2+x,1/2-y,1/2-z
1/2-x,1/2+y,1/2-z
-x,-y,-z
x,y,-z
1/2-x,1/2+y,1/2+z
1/2+x,1/2-y,1/2+z
loop_
_atom_site_type_symbol
_atom_site_label
_atom_site_fract_x
_atom_site_fract_y
_atom_site_fract_z
Si Si1 0.346290 0.013355 0.308540
Si Si2 0.497787 0.198203 0.812216
Si Si3 0.182677 0.619385 0.812821
Si Si4 0.689425 0.718969 0.689866
Si Si5 0.024599 0.139199 0.185375
Si Si6 0.904020 0.045535 0.316122
O O1 0.335964 0.013545 0.500000
O O2 0.311465 0.065730 0.257217
O O3 0.500000 0.000000 0.264075
O O4 0.241370 0.973647 0.255185
O O5 0.444636 0.147846 0.757869
O O6 0.385202 0.234806 0.749849
O O7 0.652644 0.211165 0.756004
O O8 0.498721 0.199750 0.000000
O O9 0.327510 0.643254 0.768316
O O10 0.168395 0.619033 0.000000
O O11 0.692445 0.720326 0.500000
O O12 0.589087 0.676610 0.738419
O O13 0.965696 0.088213 0.222176
O O14 0.046199 0.145136 0.000000
O O15 0.894484 0.059616 0.500000
O O16 0.000000 0.000000 0.310800
#
# Coordination Sequence:
#
# PCOD9442537 Si02
#       6
#     8   8   8   8   8   8
#     4   9  19  35  56  84 118 156 200 247 292 347
#     4  11  24  42  64  90 120 151 193 245 296 351
#     4  11  22  39  62  89 121 158 200 246 298 354
#     4  10  24  44  63  88 122 157 195 241 294 359
#     4  11  23  39  61  89 123 160 202 249 300 354
#     4  10  19  36  59  85 118 157 204 249 292 351
#
# _framework density 20.230549
#
# number of rings (size 3 to 8) (size 9 to 14) (size 15 to 20)
#    0.000    1.667    1.667    2.500    2.333    5.667 
#    0.000    0.000    0.000    2.500    0.000    0.000 
#    0.000    0.000    0.000    0.000    0.000    0.000 
#
# Total GULP energy -268202.331711 kJ/mol
# GULP energy per Si atom -5587.548577 kJ/mol
# Density = 2.018450 g / cm^3
# Si number density = 20.230549 Si / 1000 Ang^3
#
#
#
# Elastic Constant Matrix: (Units=GPa)
#
#
# Indices 1 2 3 4 5 6 
#
# 1 122.4292 13.4873 13.5344 0.0000 0.0000 0.0000
# 2 13.4873 62.2155 7.0665 0.0000 0.0000 0.0000
# 3 13.5344 7.0665 5.5121 0.0000 0.0000 0.0000
# 4 0.0000 0.0000 0.0000 21.0583 0.0000 0.0000
# 5 0.0000 0.0000 0.0000 0.0000 32.9252 0.0000
# 6 0.0000 0.0000 0.0000 0.0000 0.0000 38.7006
#
#
#
# Elastic Compliance Matrix: (Units=1/GPa)
#
#
# Indices 1 2 3 4 5 6 
#
# 1 0.011247 0.000817 -0.028663 0.000000 0.000000 0.000000
# 2 0.000817 0.018872 -0.026201 0.000000 0.000000 0.000000
# 3 -0.028663 -0.026201 0.285387 0.000000 0.000000 0.000000
# 4 0.000000 0.000000 0.000000 0.047487 0.000000 0.000000
# 5 0.000000 0.000000 0.000000 0.000000 0.030372 0.000000
# 6 0.000000 0.000000 0.000000 0.000000 0.000000 0.025839
#
#
# Mechanical properties :
#
#
# Convention : Reuss Voigt Hill
#
# Bulk Modulus (GPa) = 4.82131 28.70368 16.76249
# Shear Modulus (GPa) = 8.38316 28.94139 18.66228
#
# Velocity S-wave (km/s) = 2.03784 3.78640 3.04053
# Velocity P-wave (km/s) = 2.81521 5.77364 4.54204
#
# Compressibility (1/GPa) = 0.20741264
#
# Stress axis : x y z
#
# Youngs Moduli (GPa) = 88.91596 52.98888 3.50402
#
# Poissons Ratio (x) = -0.04332 0.10044
# Poissons Ratio (y) = -0.07269 0.09181
# Poissons Ratio (z) = 2.54858 1.38836
#
# Static dielectric constant tensor:
#      x y z
#    x 1.742140 0.000000 0.000000 
#    y 0.000000 1.708180 0.000000 
#    z 0.000000 0.000000 1.699920 
# 
# From -- ./inp_files/2853.got.cif
#   From: 2010.05.17/outbox.cif.g08.bks.cpg/sg58_2_cif.got.tgz:2853.got - 2010.06.03 14:20:14.
