data_PCOD9442386
_publ_section_title
;
Structure prediction by ZEFSAII (Michael W. Deem and Ramdas Pophale) SiO2 
 PCOD9442386
Probable space group: P N N M
;
_chemical_formula_sum "Si O2"
_cell_formula_units_Z 48
_cell_length_a 13.078873
_cell_length_b 15.073988
_cell_length_c 13.584352
_cell_angle_alpha 90.000000
_cell_angle_beta 90.000000
_cell_angle_gamma 90.000000
_cell_volume 2678.165520
_symmetry_space_group_name_H-M "P N N M"
_symmetry_group_IT_number 58
_symmetry_cell_setting 'orthorhombic'
loop_
_space_group_symop_operation_xyz
x,y,z
-x,-y,z
1/2+x,1/2-y,1/2-z
1/2-x,1/2+y,1/2-z
-x,-y,-z
x,y,-z
1/2-x,1/2+y,1/2+z
1/2+x,1/2-y,1/2+z
loop_
_atom_site_type_symbol
_atom_site_label
_atom_site_fract_x
_atom_site_fract_y
_atom_site_fract_z
Si Si1 0.066307 0.122370 0.382385
Si Si2 0.343498 0.153355 0.885158
Si Si3 0.685994 0.189289 0.613461
Si Si4 0.732965 0.048161 0.113237
Si Si5 0.152908 0.945014 0.690298
Si Si6 0.934532 0.682643 0.305968
O O1 0.062863 0.112821 0.500000
O O2 0.092236 0.221971 0.352300
O O3 0.953866 0.100131 0.339580
O O4 0.140965 0.047978 0.337897
O O5 0.258041 0.226434 0.860975
O O6 0.446483 0.164392 0.823670
O O7 0.299582 0.054569 0.876977
O O8 0.371946 0.168844 0.000000
O O9 0.654821 0.196489 0.500000
O O10 0.757574 0.103586 0.630445
O O11 0.595257 0.184471 0.691468
O O12 0.819363 0.066160 0.194955
O O13 0.635722 0.108731 0.141596
O O14 0.763059 0.064389 0.000000
#
# Coordination Sequence:
#
# PCOD9442386 Si02
#       6
#     8   8   8   8   8   8
#     4  11  20  34  56  82 107 138 187 233 269 315
#     4  10  19  35  58  80 106 143 185 225 269 322
#     4  10  20  36  56  79 112 149 183 223 275 327
#     4  10  21  36  54  81 112 142 179 226 272 322
#     4  10  20  34  55  80 108 142 182 225 270 323
#     4  11  21  33  58  85 109 140 187 228 271 319
#
# _framework density 17.922716000000001
#
# number of rings (size 3 to 8) (size 9 to 14) (size 15 to 20)
#    0.000    1.667    1.667    5.000    0.000    1.333 
#    0.000    2.500    0.000   10.000    0.000    0.000 
#    0.000    0.000    0.000    0.000    0.000    0.000 
#
# Total GULP energy -268050.071290 kJ/mol
# GULP energy per Si atom -5584.376485 kJ/mol
# Density = 1.788192 g / cm^3
# Si number density = 17.922716 Si / 1000 Ang^3
#
#
#
# Elastic Constant Matrix: (Units=GPa)
#
#
# Indices 1 2 3 4 5 6 
#
# 1 38.3139 -7.0439 39.4070 0.0000 0.0000 0.0000
# 2 -7.0439 44.1429 3.9412 0.0000 0.0000 0.0000
# 3 39.4070 3.9412 129.7219 0.0000 0.0000 0.0000
# 4 0.0000 0.0000 0.0000 -535.4970 0.0000 0.0000
# 5 0.0000 0.0000 0.0000 0.0000 22.2070 0.0000
# 6 0.0000 0.0000 0.0000 0.0000 0.0000 10.8479
#
#
#
# Elastic Compliance Matrix: (Units=1/GPa)
#
#
# Indices 1 2 3 4 5 6 
#
# 1 0.040322 0.007548 -0.012478 0.000000 0.000000 0.000000
# 2 0.007548 0.024128 -0.003026 0.000000 0.000000 0.000000
# 3 -0.012478 -0.003026 0.011591 0.000000 0.000000 0.000000
# 4 0.000000 0.000000 0.000000 -0.001867 0.000000 0.000000
# 5 0.000000 0.000000 0.000000 0.000000 0.045031 0.000000
# 6 0.000000 0.000000 0.000000 0.000000 0.000000 0.092184
#
#
# Mechanical properties :
#
#
# Convention : Reuss Voigt Hill
#
# Bulk Modulus (GPa) = 16.63067 31.64303 24.13685
# Shear Modulus (GPa) = 20.21469 -88.76345 -34.27438
#
# Velocity S-wave (km/s) = 3.36204 -7.04508 -4.37778
# Velocity P-wave (km/s) = 4.93663 6.96304 3.47230
#
# Compressibility (1/GPa) = 0.06012986
#
# Stress axis : x y z
#
# Youngs Moduli (GPa) = 24.80010 41.44493 86.27043
#
# Poissons Ratio (x) = -0.31284 1.07653
# Poissons Ratio (y) = -0.18720 0.26106
# Poissons Ratio (z) = 0.30947 0.12542
#
# Static dielectric constant tensor:
#      x y z
#    x 1.581810 0.000000 0.000000 
#    y 0.000000 1.622370 0.000000 
#    z 0.000000 0.000000 1.610580 
# 
# From -- ./inp_files/15562.got.cif
#   From: 2010.05.17/outbox.cif.g08.bks.cpg/sg58_8_cif.got.tgz:15562.got - 2010.06.03 14:20:14.
