data_PCOD9442879
_publ_section_title
;
Structure prediction by ZEFSAII (Michael W. Deem and Ramdas Pophale) SiO2 
 PCOD9442879
Probable space group: P N N M
;
_chemical_formula_sum "Si O2"
_cell_formula_units_Z 64
_cell_length_a 19.640051
_cell_length_b 20.163812
_cell_length_c 7.559782
_cell_angle_alpha 90.000000
_cell_angle_beta 90.000000
_cell_angle_gamma 90.000000
_cell_volume 2993.811986
_symmetry_space_group_name_H-M "P N N M"
_symmetry_group_IT_number 58
_symmetry_cell_setting 'orthorhombic'
loop_
_space_group_symop_operation_xyz
x,y,z
-x,-y,z
1/2+x,1/2-y,1/2-z
1/2-x,1/2+y,1/2-z
-x,-y,-z
x,y,-z
1/2-x,1/2+y,1/2+z
1/2+x,1/2-y,1/2+z
loop_
_atom_site_type_symbol
_atom_site_label
_atom_site_fract_x
_atom_site_fract_y
_atom_site_fract_z
Si Si1 0.149005 0.046514 0.708040
Si Si2 0.855075 0.246390 0.215727
Si Si3 0.959266 0.599112 0.284091
Si Si4 0.643735 0.599576 0.702533
Si Si5 0.603913 0.966145 0.786061
Si Si6 0.986272 0.889330 0.715881
Si Si7 0.514282 0.241563 0.208095
Si Si8 0.227013 0.628616 0.206338
O O1 0.144826 0.061026 0.500000
O O2 0.073083 0.061433 0.775453
O O3 0.205323 0.095977 0.785234
O O4 0.169301 0.969818 0.722675
O O5 0.838133 0.171870 0.278967
O O6 0.932396 0.263267 0.270801
O O7 0.804461 0.303536 0.280432
O O8 0.855458 0.245628 0.000000
O O9 0.957972 0.600330 0.500000
O O10 0.906025 0.542522 0.229184
O O11 0.034327 0.572000 0.235538
O O12 0.952703 0.674346 0.218826
O O13 0.665623 0.600322 0.500000
O O14 0.561523 0.596823 0.714691
O O15 0.668298 0.926929 0.715902
O O16 0.607604 0.964897 0.000000
O O17 0.992591 0.891333 0.500000
O O18 0.966655 0.814559 0.774007
O O19 0.529917 0.242665 0.000000
O O20 0.240634 0.642818 0.000000
#
# Coordination Sequence:
#
# PCOD9442879 Si02
#       8
#     8   8   8   8   8   8   8   8
#     4  10  21  36  51  70  99 133 164 200 244 292
#     4   9  18  32  49  72  99 125 155 196 244 287
#     4   8  14  25  44  71 101 126 156 203 246 279
#     4  10  20  34  54  78 100 123 159 206 250 292
#     4   9  16  28  46  69  98 130 163 201 243 285
#     4   9  18  32  52  75  97 125 164 206 249 293
#     4   9  15  27  49  74  96 123 162 201 239 287
#     4  10  20  34  50  69  99 134 167 200 238 290
#
# _framework density 21.377428999999999
#
# number of rings (size 3 to 8) (size 9 to 14) (size 15 to 20)
#    0.000    2.750    1.250    1.500    0.000    3.000 
#    0.000    3.125    0.000    4.500    0.000    0.000 
#    0.000    0.000    0.000    0.000    0.000    0.000 
#
# Total GULP energy -356882.975284 kJ/mol
# GULP energy per Si atom -5576.296489 kJ/mol
# Density = 2.132877 g / cm^3
# Si number density = 21.377429 Si / 1000 Ang^3
#
#
#
# Elastic Constant Matrix: (Units=GPa)
#
#
# Indices 1 2 3 4 5 6 
#
# 1 28.1075 19.2453 -8.9704 0.0000 0.0000 0.0000
# 2 19.2453 142.8812 -6.7312 0.0000 0.0000 0.0000
# 3 -8.9704 -6.7312 43.6097 0.0000 0.0000 0.0000
# 4 0.0000 0.0000 0.0000 13.0520 0.0000 0.0000
# 5 0.0000 0.0000 0.0000 0.0000 5.1259 0.0000
# 6 0.0000 0.0000 0.0000 0.0000 0.0000 24.7238
#
#
#
# Elastic Compliance Matrix: (Units=1/GPa)
#
#
# Indices 1 2 3 4 5 6 
#
# 1 0.041644 -0.005244 0.007757 0.000000 0.000000 0.000000
# 2 -0.005244 0.007710 0.000111 0.000000 0.000000 0.000000
# 3 0.007757 0.000111 0.024543 0.000000 0.000000 0.000000
# 4 0.000000 0.000000 0.000000 0.076617 0.000000 0.000000
# 5 0.000000 0.000000 0.000000 0.000000 0.195088 0.000000
# 6 0.000000 0.000000 0.000000 0.000000 0.000000 0.040447
#
#
# Mechanical properties :
#
#
# Convention : Reuss Voigt Hill
#
# Bulk Modulus (GPa) = 12.63487 24.63177 18.63332
# Shear Modulus (GPa) = 12.27952 22.65064 17.46508
#
# Velocity S-wave (km/s) = 2.39930 3.25862 2.86140
# Velocity P-wave (km/s) = 3.68764 5.07006 4.43307
#
# Compressibility (1/GPa) = 0.07914604
#
# Stress axis : x y z
#
# Youngs Moduli (GPa) = 24.01330 129.69534 40.74412
#
# Poissons Ratio (x) = 0.68009 -0.31604
# Poissons Ratio (y) = 0.12592 -0.00454
# Poissons Ratio (z) = -0.18626 -0.01446
#
# Static dielectric constant tensor:
#      x y z
#    x 1.737300 0.000000 0.000000 
#    y 0.000000 1.818870 0.000000 
#    z 0.000000 0.000000 1.813610 
# 
# From -- ./inp_files/9419.got.cif
#   From: 2010.05.17/outbox.cif.g08.bks.cpg/sg58_5_cif.got.tgz:9419.got - 2010.06.03 14:20:14.
