data_PCOD9442603
_publ_section_title
;
Structure prediction by ZEFSAII (Michael W. Deem and Ramdas Pophale) SiO2 
 PCOD9442603
Probable space group: P N N M
;
_chemical_formula_sum "Si O2"
_cell_formula_units_Z 64
_cell_length_a 12.008958
_cell_length_b 16.615842
_cell_length_c 16.319356
_cell_angle_alpha 90.000000
_cell_angle_beta 90.000000
_cell_angle_gamma 90.000000
_cell_volume 3256.347140
_symmetry_space_group_name_H-M "P N N M"
_symmetry_group_IT_number 58
_symmetry_cell_setting 'orthorhombic'
loop_
_space_group_symop_operation_xyz
x,y,z
-x,-y,z
1/2+x,1/2-y,1/2-z
1/2-x,1/2+y,1/2-z
-x,-y,-z
x,y,-z
1/2-x,1/2+y,1/2+z
1/2+x,1/2-y,1/2+z
loop_
_atom_site_type_symbol
_atom_site_label
_atom_site_fract_x
_atom_site_fract_y
_atom_site_fract_z
Si Si1 0.585971 0.408914 0.591720
Si Si2 0.399637 0.743680 0.668536
Si Si3 0.373313 0.512307 0.905999
Si Si4 0.808286 0.142684 0.668841
Si Si5 0.165176 0.934785 0.153941
Si Si6 0.349021 0.813272 0.903059
Si Si7 0.937644 0.298175 0.712610
Si Si8 0.778508 0.843284 0.696940
O O1 0.595814 0.440117 0.500000
O O2 0.614098 0.314770 0.593030
O O3 0.457704 0.412251 0.620871
O O4 0.662985 0.468961 0.644072
O O5 0.310233 0.813866 0.669337
O O6 0.515045 0.780057 0.696259
O O7 0.378168 0.680372 0.742270
O O8 0.500000 0.500000 0.874925
O O9 0.321054 0.423676 0.900406
O O10 0.305748 0.576878 0.853028
O O11 0.379318 0.540330 0.000000
O O12 0.825125 0.094300 0.753084
O O13 0.894193 0.216710 0.669261
O O14 0.263682 0.887831 0.107570
O O15 0.460506 0.827545 0.846105
O O16 0.285041 0.734675 0.864648
O O17 0.374699 0.801928 0.000000
O O18 0.827272 0.346452 0.741110
#
# Coordination Sequence:
#
# PCOD9442603 Si02
#       8
#     8   8   8   8   8   8   8   8
#     4  11  22  34  56  89 123 152 193 258 315 362
#     4  10  19  37  58  84 113 160 208 237 295 363
#     4  11  24  39  61  96 124 149 197 261 318 359
#     4  11  21  36  63  85 115 159 200 248 295 368
#     4  11  20  35  58  92 120 154 204 248 310 376
#     4  11  20  35  62  93 127 162 205 266 317 365
#     4  10  19  37  60  88 121 163 215 243 299 381
#     4  10  20  37  59  87 126 164 206 248 304 377
#
# _framework density 19.653924
#
# number of rings (size 3 to 8) (size 9 to 14) (size 15 to 20)
#    0.000    1.375    5.000    4.125    1.750    2.000 
#    0.000    3.125    2.750    0.750    0.000    7.875 
#    0.000    0.000    0.000    0.000    0.000    0.000 
#
# Total GULP energy -356459.061222 kJ/mol
# GULP energy per Si atom -5569.672832 kJ/mol
# Density = 1.960919 g / cm^3
# Si number density = 19.653924 Si / 1000 Ang^3
#
#
#
# Elastic Constant Matrix: (Units=GPa)
#
#
# Indices 1 2 3 4 5 6 
#
# 1 93.1773 47.1895 24.3563 0.0000 0.0000 0.0000
# 2 47.1895 83.8748 31.2277 0.0000 0.0000 0.0000
# 3 24.3563 31.2277 81.3405 0.0000 0.0000 0.0000
# 4 0.0000 0.0000 0.0000 25.9590 0.0000 0.0000
# 5 0.0000 0.0000 0.0000 0.0000 14.8807 0.0000
# 6 0.0000 0.0000 0.0000 0.0000 0.0000 23.9953
#
#
#
# Elastic Compliance Matrix: (Units=1/GPa)
#
#
# Indices 1 2 3 4 5 6 
#
# 1 0.015159 -0.007979 -0.001476 0.000000 0.000000 0.000000
# 2 -0.007979 0.018111 -0.004564 0.000000 0.000000 0.000000
# 3 -0.001476 -0.004564 0.014488 0.000000 0.000000 0.000000
# 4 0.000000 0.000000 0.000000 0.038522 0.000000 0.000000
# 5 0.000000 0.000000 0.000000 0.000000 0.067201 0.000000
# 6 0.000000 0.000000 0.000000 0.000000 0.000000 0.041675
#
#
# Mechanical properties :
#
#
# Convention : Reuss Voigt Hill
#
# Bulk Modulus (GPa) = 50.70916 51.54886 51.12901
# Shear Modulus (GPa) = 21.76112 23.34161 22.55136
#
# Velocity S-wave (km/s) = 3.33109 3.44994 3.39104
# Velocity P-wave (km/s) = 6.37589 6.49266 6.43454
#
# Compressibility (1/GPa) = 0.01972030
#
# Stress axis : x y z
#
# Youngs Moduli (GPa) = 65.96678 55.21505 69.02265
#
# Poissons Ratio (x) = 0.44058 0.10187
# Poissons Ratio (y) = 0.52637 0.31500
# Poissons Ratio (z) = 0.09736 0.25199
#
# Static dielectric constant tensor:
#      x y z
#    x 1.705880 0.000000 0.000000 
#    y 0.000000 1.761630 0.000000 
#    z 0.000000 0.000000 1.739400 
# 
# From -- ./inp_files/26396.got.cif
#   From: 2010.05.17/outbox.cif.g08.bks.cpg/sg58_14_cif.got.tgz:26396.got - 2010.06.03 14:20:14.
