data_PCOD9442793
_publ_section_title
;
Structure prediction by ZEFSAII (Michael W. Deem and Ramdas Pophale) SiO2 
 PCOD9442793
Probable space group: P N N M
;
_chemical_formula_sum "Si O2"
_cell_formula_units_Z 48
_cell_length_a 7.139544
_cell_length_b 18.691561
_cell_length_c 14.227475
_cell_angle_alpha 90.000000
_cell_angle_beta 90.000000
_cell_angle_gamma 90.000000
_cell_volume 1898.645472
_symmetry_space_group_name_H-M "P N N M"
_symmetry_group_IT_number 58
_symmetry_cell_setting 'orthorhombic'
loop_
_space_group_symop_operation_xyz
x,y,z
-x,-y,z
1/2+x,1/2-y,1/2-z
1/2-x,1/2+y,1/2-z
-x,-y,-z
x,y,-z
1/2-x,1/2+y,1/2+z
1/2+x,1/2-y,1/2+z
loop_
_atom_site_type_symbol
_atom_site_label
_atom_site_fract_x
_atom_site_fract_y
_atom_site_fract_z
Si Si1 0.492098 0.377062 0.387822
Si Si2 0.224962 0.490750 0.106420
Si Si3 0.754627 0.350118 0.896370
Si Si4 0.293139 0.008845 0.887685
Si Si5 0.608021 0.755169 0.251574
Si Si6 0.340971 0.847827 0.328913
O O1 0.505094 0.359586 0.500000
O O2 0.695267 0.431164 0.126540
O O3 0.676985 0.421393 0.356184
O O4 0.809247 0.215106 0.338280
O O5 0.329125 0.436935 0.377936
O O6 0.259685 0.423280 0.171559
O O7 0.000000 0.500000 0.108525
O O8 0.279652 0.471637 0.000000
O O9 0.726861 0.296599 0.811129
O O10 0.985035 0.350261 0.900441
O O11 0.684842 0.330938 0.000000
O O12 0.500000 0.000000 0.845160
O O13 0.311907 0.019495 0.000000
O O14 0.461308 0.820150 0.239632
O O15 0.548095 0.693032 0.326096
#
# Coordination Sequence:
#
# PCOD9442793 Si02
#       6
#     8   8   8   8   8   8
#     4   9  17  31  53  78 108 148 193 240 284 343
#     4   8  13  28  57  88 100 126 194 250 280 337
#     4   8  16  32  60  84 102 141 197 241 282 351
#     4   8  15  31  52  76 105 138 185 238 274 319
#     4  10  20  33  49  77 117 146 180 230 306 364
#     4   9  19  32  51  77 114 144 173 234 297 359
#
# _framework density 25.281181
#
# number of rings (size 3 to 8) (size 9 to 14) (size 15 to 20)
#    1.000    2.333    0.000    3.000    0.000    0.000 
#    3.000    5.833    0.000    4.000    0.000    2.333 
#    0.000    0.000    0.000    0.000    0.000    1.333 
#
# Total GULP energy -267488.975143 kJ/mol
# GULP energy per Si atom -5572.686982 kJ/mol
# Density = 2.522364 g / cm^3
# Si number density = 25.281181 Si / 1000 Ang^3
#
#
#
# Elastic Constant Matrix: (Units=GPa)
#
#
# Indices 1 2 3 4 5 6 
#
# 1 105.4922 20.9858 3.3828 0.0000 0.0000 0.0000
# 2 20.9858 164.0077 44.5383 0.0000 0.0000 0.0000
# 3 3.3828 44.5383 91.2428 0.0000 0.0000 0.0000
# 4 0.0000 0.0000 0.0000 13.8152 0.0000 0.0000
# 5 0.0000 0.0000 0.0000 0.0000 21.1676 0.0000
# 6 0.0000 0.0000 0.0000 0.0000 0.0000 25.4881
#
#
#
# Elastic Compliance Matrix: (Units=1/GPa)
#
#
# Indices 1 2 3 4 5 6 
#
# 1 0.009733 -0.001323 0.000285 0.000000 0.000000 0.000000
# 2 -0.001323 0.007209 -0.003470 0.000000 0.000000 0.000000
# 3 0.000285 -0.003470 0.012643 0.000000 0.000000 0.000000
# 4 0.000000 0.000000 0.000000 0.072384 0.000000 0.000000
# 5 0.000000 0.000000 0.000000 0.000000 0.047242 0.000000
# 6 0.000000 0.000000 0.000000 0.000000 0.000000 0.039234
#
#
# Mechanical properties :
#
#
# Convention : Reuss Voigt Hill
#
# Bulk Modulus (GPa) = 48.61543 55.39517 52.00530
# Shear Modulus (GPa) = 24.47180 31.54992 28.01086
#
# Velocity S-wave (km/s) = 3.11462 3.53648 3.33223
# Velocity P-wave (km/s) = 5.67504 6.21569 5.95151
#
# Compressibility (1/GPa) = 0.02056960
#
# Stress axis : x y z
#
# Youngs Moduli (GPa) = 102.73919 138.71937 79.09569
#
# Poissons Ratio (x) = 0.18350 -0.02253
# Poissons Ratio (y) = 0.13590 0.27445
# Poissons Ratio (z) = -0.02926 0.48133
#
# Static dielectric constant tensor:
#      x y z
#    x 2.174820 0.000000 0.000000 
#    y 0.000000 2.011880 0.000000 
#    z 0.000000 0.000000 1.941650 
# 
# From -- ./inp_files/13045.got.cif
#   From: 2010.05.17/outbox.cif.g08.bks.cpg/sg58_7_cif.got.tgz:13045.got - 2010.06.03 14:20:14.
