data_PCOD9442127
_publ_section_title
;
Structure prediction by ZEFSAII (Michael W. Deem and Ramdas Pophale) SiO2 
 PCOD9442127
Probable space group: P N N M
;
_chemical_formula_sum "Si O2"
_cell_formula_units_Z 56
_cell_length_a 13.991903
_cell_length_b 12.056999
_cell_length_c 14.425135
_cell_angle_alpha 90.000000
_cell_angle_beta 90.000000
_cell_angle_gamma 90.000000
_cell_volume 2433.525474
_symmetry_space_group_name_H-M "P N N M"
_symmetry_group_IT_number 58
_symmetry_cell_setting 'orthorhombic'
loop_
_space_group_symop_operation_xyz
x,y,z
-x,-y,z
1/2+x,1/2-y,1/2-z
1/2-x,1/2+y,1/2-z
-x,-y,-z
x,y,-z
1/2-x,1/2+y,1/2+z
1/2+x,1/2-y,1/2+z
loop_
_atom_site_type_symbol
_atom_site_label
_atom_site_fract_x
_atom_site_fract_y
_atom_site_fract_z
Si Si1 0.321275 0.212027 0.391833
Si Si2 0.306961 0.400135 0.109024
Si Si3 0.252723 0.935551 0.894720
Si Si4 0.164879 0.652028 0.611616
Si Si5 0.400436 0.993079 0.345108
Si Si6 0.104954 0.119798 0.607516
Si Si7 0.049312 0.348216 0.665796
O O1 0.355619 0.211017 0.500000
O O2 0.312690 0.337627 0.355249
O O3 0.213730 0.165023 0.396330
O O4 0.376942 0.123391 0.330332
O O5 0.314204 0.275589 0.146119
O O6 0.197610 0.442504 0.116138
O O7 0.380437 0.494609 0.144237
O O8 0.329506 0.394273 0.000000
O O9 0.360808 0.886840 0.896362
O O10 0.265310 0.055844 0.849395
O O11 0.219661 0.949395 0.000000
O O12 0.178567 0.651590 0.500000
O O13 0.054717 0.621141 0.628768
O O14 0.426579 0.912477 0.260109
O O15 0.500000 0.000000 0.400227
O O16 0.069037 0.120212 0.500000
O O17 0.051399 0.213921 0.665938
#
# Coordination Sequence:
#
# PCOD9442127 Si02
#       7
#     8   8   8   8   8   8   8
#     4   8  16  33  57  80 102 140 197 245 283 330
#     4   9  20  39  60  86 114 153 206 251 294 338
#     4   9  17  33  56  81 110 148 192 235 283 345
#     4  10  19  33  58  88 121 154 191 242 296 353
#     4  11  22  36  54  81 114 147 193 249 296 349
#     4   8  15  32  57  82 112 150 193 235 282 341
#     4  11  20  32  50  84 121 151 189 233 291 359
#
# _framework density 23.011880000000001
#
# number of rings (size 3 to 8) (size 9 to 14) (size 15 to 20)
#    0.000    2.571    0.000    4.714    0.000    2.857 
#   15.429    2.143    0.000    2.571    0.000    4.000 
#    0.000    0.000    0.000    0.000    0.000    0.000 
#
# Total GULP energy -312251.854235 kJ/mol
# GULP energy per Si atom -5575.925968 kJ/mol
# Density = 2.295950 g / cm^3
# Si number density = 23.011880 Si / 1000 Ang^3
#
#
#
# Elastic Constant Matrix: (Units=GPa)
#
#
# Indices 1 2 3 4 5 6 
#
# 1 65.2247 41.9835 4.4773 0.0000 0.0000 0.0000
# 2 41.9835 250.5228 38.1276 0.0000 0.0000 0.0000
# 3 4.4773 38.1276 70.4162 0.0000 0.0000 0.0000
# 4 0.0000 0.0000 0.0000 -27.7627 0.0000 0.0000
# 5 0.0000 0.0000 0.0000 0.0000 13.9291 0.0000
# 6 0.0000 0.0000 0.0000 0.0000 0.0000 32.1217
#
#
#
# Elastic Compliance Matrix: (Units=1/GPa)
#
#
# Indices 1 2 3 4 5 6 
#
# 1 0.017202 -0.002960 0.000509 0.000000 0.000000 0.000000
# 2 -0.002960 0.004860 -0.002443 0.000000 0.000000 0.000000
# 3 0.000509 -0.002443 0.015492 0.000000 0.000000 0.000000
# 4 0.000000 0.000000 0.000000 -0.036019 0.000000 0.000000
# 5 0.000000 0.000000 0.000000 0.000000 0.071792 0.000000
# 6 0.000000 0.000000 0.000000 0.000000 0.000000 0.031132
#
#
# Mechanical properties :
#
#
# Convention : Reuss Voigt Hill
#
# Bulk Modulus (GPa) = 36.01661 61.70452 48.86057
# Shear Modulus (GPa) = 40.48542 23.76262 32.12402
#
# Velocity S-wave (km/s) = 4.19898 3.21693 3.74033
# Velocity P-wave (km/s) = 6.26050 6.37735 6.31920
#
# Compressibility (1/GPa) = 0.02776497
#
# Stress axis : x y z
#
# Youngs Moduli (GPa) = 58.13236 205.78000 64.55065
#
# Poissons Ratio (x) = 0.60917 -0.03286
# Poissons Ratio (y) = 0.17209 0.15770
# Poissons Ratio (z) = -0.02960 0.50273
#
# Static dielectric constant tensor:
#      x y z
#    x 1.858320 0.000000 0.000000 
#    y 0.000000 1.972740 0.000000 
#    z 0.000000 0.000000 1.890600 
# 
# From -- ./inp_files/22177.got.cif
#   From: 2010.05.17/outbox.cif.g08.bks.cpg/sg58_12_cif.got.tgz:22177.got - 2010.06.03 14:20:14.
