data_PCOD9442574
_publ_section_title
;
Structure prediction by ZEFSAII (Michael W. Deem and Ramdas Pophale) SiO2 
 PCOD9442574
Probable space group: P N N M
;
_chemical_formula_sum "Si O2"
_cell_formula_units_Z 64
_cell_length_a 9.129174
_cell_length_b 11.409315
_cell_length_c 31.567254
_cell_angle_alpha 90.000000
_cell_angle_beta 90.000000
_cell_angle_gamma 90.000000
_cell_volume 3287.970105
_symmetry_space_group_name_H-M "P N N M"
_symmetry_group_IT_number 58
_symmetry_cell_setting 'orthorhombic'
loop_
_space_group_symop_operation_xyz
x,y,z
-x,-y,z
1/2+x,1/2-y,1/2-z
1/2-x,1/2+y,1/2-z
-x,-y,-z
x,y,-z
1/2-x,1/2+y,1/2+z
1/2+x,1/2-y,1/2+z
loop_
_atom_site_type_symbol
_atom_site_label
_atom_site_fract_x
_atom_site_fract_y
_atom_site_fract_z
Si Si1 0.796291 0.924679 0.673287
Si Si2 0.672168 0.732595 0.451700
Si Si3 0.783654 0.798669 0.150386
Si Si4 0.830036 0.038467 0.882324
Si Si5 0.091275 0.387968 0.913807
Si Si6 0.660449 0.454497 0.071740
Si Si7 0.398525 0.294140 0.691059
Si Si8 0.894083 0.158342 0.290008
O O1 0.824829 0.940925 0.623106
O O2 0.663455 0.835133 0.680758
O O3 0.941804 0.871414 0.695211
O O4 0.788315 0.051531 0.695328
O O5 0.652511 0.696304 0.500000
O O6 0.703830 0.623749 0.421103
O O7 0.526625 0.802174 0.435516
O O8 0.799391 0.829269 0.447433
O O9 0.820599 0.691671 0.119087
O O10 0.657225 0.768705 0.182983
O O11 0.932926 0.810916 0.177487
O O12 0.750175 0.915434 0.123988
O O13 0.814818 0.115315 0.839676
O O14 0.000000 0.000000 0.887258
O O15 0.214091 0.452763 0.941839
O O16 0.000000 0.500000 0.895578
O O17 0.500000 0.500000 0.061646
O O18 0.382670 0.322270 0.740236
#
# Coordination Sequence:
#
# PCOD9442574 Si02
#       8
#     8   8   8   8   8   8   8   8
#     4  11  21  39  58  85 120 167 200 248 306 352
#     4  11  23  41  66  94 120 152 203 255 310 376
#     4  11  21  38  59  86 118 166 204 244 303 360
#     4  10  21  38  61  85 120 161 197 247 309 355
#     4  10  19  36  61  91 120 154 199 255 307 360
#     4  11  20  39  65  90 126 162 197 244 318 374
#     4  11  22  36  58  84 124 158 206 254 296 351
#     4  11  24  34  59  89 119 160 211 252 289 356
#
# _framework density 19.464897000000001
#
# number of rings (size 3 to 8) (size 9 to 14) (size 15 to 20)
#    0.000    1.250    6.250    1.500    7.000    2.750 
#    0.000    0.625    0.000    0.000    0.000    3.500 
#    0.000    0.000    0.000    0.000    0.000    0.000 
#
# Total GULP energy -357270.299657 kJ/mol
# GULP energy per Si atom -5582.348432 kJ/mol
# Density = 1.942059 g / cm^3
# Si number density = 19.464897 Si / 1000 Ang^3
#
#
#
# Elastic Constant Matrix: (Units=GPa)
#
#
# Indices 1 2 3 4 5 6 
#
# 1 46.9878 24.4818 8.9079 0.0000 0.0000 0.0000
# 2 24.4818 119.7818 53.0444 0.0000 0.0000 0.0000
# 3 8.9079 53.0444 105.4164 0.0000 0.0000 0.0000
# 4 0.0000 0.0000 0.0000 -8.3785 0.0000 0.0000
# 5 0.0000 0.0000 0.0000 0.0000 -201.9144 0.0000
# 6 0.0000 0.0000 0.0000 0.0000 0.0000 22.2274
#
#
#
# Elastic Compliance Matrix: (Units=1/GPa)
#
#
# Indices 1 2 3 4 5 6 
#
# 1 0.023845 -0.005123 0.000563 0.000000 0.000000 0.000000
# 2 -0.005123 0.011843 -0.005526 0.000000 0.000000 0.000000
# 3 0.000563 -0.005526 0.012219 0.000000 0.000000 0.000000
# 4 0.000000 0.000000 0.000000 -0.119353 0.000000 0.000000
# 5 0.000000 0.000000 0.000000 0.000000 -0.004953 0.000000
# 6 0.000000 0.000000 0.000000 0.000000 0.000000 0.044989
#
#
# Mechanical properties :
#
#
# Convention : Reuss Voigt Hill
#
# Bulk Modulus (GPa) = 36.05648 49.45046 42.75347
# Shear Modulus (GPa) = -2509.54548 -25.22963 -1267.38755
#
# Velocity S-wave (km/s) = -35.94532 -3.60413 -25.54463
# Velocity P-wave (km/s) = 41.28185 2.85315 29.12087
#
# Compressibility (1/GPa) = 0.02773426
#
# Stress axis : x y z
#
# Youngs Moduli (GPa) = 41.93838 84.43946 81.83708
#
# Poissons Ratio (x) = 0.43256 -0.04606
# Poissons Ratio (y) = 0.21484 0.45226
# Poissons Ratio (z) = -0.02360 0.46664
#
# Static dielectric constant tensor:
#      x y z
#    x 1.699240 0.000000 0.000000 
#    y 0.000000 1.722110 0.000000 
#    z 0.000000 0.000000 1.666030 
# 
# From -- ./inp_files/34753.got.cif
#   From: 2010.05.17/outbox.cif.g08.bks.cpg/sg58_18_cif.got.tgz:34753.got - 2010.06.03 14:20:14.
