data_PCOD9442022
_publ_section_title
;
Structure prediction by ZEFSAII (Michael W. Deem and Ramdas Pophale) SiO2 
 PCOD9442022
Probable space group: P N N M
;
_chemical_formula_sum "Si O2"
_cell_formula_units_Z 64
_cell_length_a 14.506704
_cell_length_b 25.118703
_cell_length_c 9.109732
_cell_angle_alpha 90.000000
_cell_angle_beta 90.000000
_cell_angle_gamma 90.000000
_cell_volume 3319.491502
_symmetry_space_group_name_H-M "P N N M"
_symmetry_group_IT_number 58
_symmetry_cell_setting 'orthorhombic'
loop_
_space_group_symop_operation_xyz
x,y,z
-x,-y,z
1/2+x,1/2-y,1/2-z
1/2-x,1/2+y,1/2-z
-x,-y,-z
x,y,-z
1/2-x,1/2+y,1/2+z
1/2+x,1/2-y,1/2+z
loop_
_atom_site_type_symbol
_atom_site_label
_atom_site_fract_x
_atom_site_fract_y
_atom_site_fract_z
Si Si1 0.279252 0.455377 0.826508
Si Si2 0.757274 0.834819 0.175315
Si Si3 0.635423 0.116316 0.176201
Si Si4 0.134407 0.057901 0.823824
Si Si5 0.544157 0.826908 0.175733
Si Si6 0.770195 0.726833 0.669744
Si Si7 0.547606 0.717402 0.670358
Si Si8 0.033175 0.893420 0.326601
O O1 0.186690 0.430760 0.759184
O O2 0.312033 0.508142 0.743428
O O3 0.361716 0.412465 0.805374
O O4 0.270510 0.465216 0.000000
O O5 0.812138 0.887607 0.216328
O O6 0.649311 0.839785 0.217448
O O7 0.794345 0.780185 0.243482
O O8 0.761200 0.829929 0.000000
O O9 0.527917 0.126265 0.208093
O O10 0.683718 0.172148 0.220320
O O11 0.647500 0.109862 0.000000
O O12 0.033842 0.065095 0.753670
O O13 0.128904 0.053624 0.000000
O O14 0.515867 0.772215 0.255295
O O15 0.541237 0.817696 0.000000
O O16 0.796507 0.734336 0.500000
O O17 0.659525 0.719711 0.677063
O O18 0.519714 0.714158 0.500000
O O19 0.518765 0.664462 0.755716
O O20 0.013961 0.892422 0.500000
#
# Coordination Sequence:
#
# PCOD9442022 Si02
#       8
#     8   8   8   8   8   8   8   8
#     4  11  24  41  60  84 114 150 192 240 289 342
#     4   9  20  38  57  82 115 150 191 235 284 336
#     4  10  20  36  59  86 115 151 191 233 283 337
#     4  11  24  40  60  84 112 152 195 241 290 341
#     4   9  19  36  58  84 117 153 190 233 282 337
#     4   9  18  32  53  82 115 149 184 227 280 334
#     4  10  19  33  54  83 118 151 186 228 278 336
#     4  11  23  38  57  83 115 150 189 233 285 344
#
# _framework density 19.280059999999999
#
# number of rings (size 3 to 8) (size 9 to 14) (size 15 to 20)
#    0.000    2.000    1.250    1.875    1.750    5.500 
#    0.000    0.625    0.000    3.750    0.000    0.000 
#    0.000    0.000    0.000    0.000    0.000    0.000 
#
# Total GULP energy -357574.078681 kJ/mol
# GULP energy per Si atom -5587.094979 kJ/mol
# Density = 1.923618 g / cm^3
# Si number density = 19.280060 Si / 1000 Ang^3
#
#
#
# Elastic Constant Matrix: (Units=GPa)
#
#
# Indices 1 2 3 4 5 6 
#
# 1 39.2532 1.3472 15.2070 0.0000 0.0000 0.0000
# 2 1.3472 57.5446 31.9870 0.0000 0.0000 0.0000
# 3 15.2070 31.9870 49.4721 0.0000 0.0000 0.0000
# 4 0.0000 0.0000 0.0000 35.3267 0.0000 0.0000
# 5 0.0000 0.0000 0.0000 0.0000 19.3141 0.0000
# 6 0.0000 0.0000 0.0000 0.0000 0.0000 31.0434
#
#
#
# Elastic Compliance Matrix: (Units=1/GPa)
#
#
# Indices 1 2 3 4 5 6 
#
# 1 0.030651 0.007055 -0.013983 0.000000 0.000000 0.000000
# 2 0.007055 0.028752 -0.020759 0.000000 0.000000 0.000000
# 3 -0.013983 -0.020759 0.037933 0.000000 0.000000 0.000000
# 4 0.000000 0.000000 0.000000 0.028307 0.000000 0.000000
# 5 0.000000 0.000000 0.000000 0.000000 0.051776 0.000000
# 6 0.000000 0.000000 0.000000 0.000000 0.000000 0.032213
#
#
# Mechanical properties :
#
#
# Convention : Reuss Voigt Hill
#
# Bulk Modulus (GPa) = 23.83071 27.03915 25.43493
# Shear Modulus (GPa) = 17.92164 23.65208 20.78686
#
# Velocity S-wave (km/s) = 3.05215 3.50632 3.28709
# Velocity P-wave (km/s) = 4.98076 5.51790 5.25619
#
# Compressibility (1/GPa) = 0.04196265
#
# Stress axis : x y z
#
# Youngs Moduli (GPa) = 32.62566 34.78071 26.36195
#
# Poissons Ratio (x) = -0.24539 0.36863
# Poissons Ratio (y) = -0.23018 0.54723
# Poissons Ratio (z) = 0.45621 0.72200
#
# Static dielectric constant tensor:
#      x y z
#    x 1.708250 0.000000 0.000000 
#    y 0.000000 1.642330 0.000000 
#    z 0.000000 0.000000 1.645500 
# 
# From -- ./inp_files/6916.got.cif
#   From: 2010.05.17/outbox.cif.g08.bks.cpg/sg58_4_cif.got.tgz:6916.got - 2010.06.03 14:20:14.
