data_PCOD9442413
_publ_section_title
;
Structure prediction by ZEFSAII (Michael W. Deem and Ramdas Pophale) SiO2 
 PCOD9442413
Probable space group: P N N M
;
_chemical_formula_sum "Si O2"
_cell_formula_units_Z 64
_cell_length_a 8.687211
_cell_length_b 24.171361
_cell_length_c 15.495263
_cell_angle_alpha 90.000000
_cell_angle_beta 90.000000
_cell_angle_gamma 90.000000
_cell_volume 3253.721871
_symmetry_space_group_name_H-M "P N N M"
_symmetry_group_IT_number 58
_symmetry_cell_setting 'orthorhombic'
loop_
_space_group_symop_operation_xyz
x,y,z
-x,-y,z
1/2+x,1/2-y,1/2-z
1/2-x,1/2+y,1/2-z
-x,-y,-z
x,y,-z
1/2-x,1/2+y,1/2+z
1/2+x,1/2-y,1/2+z
loop_
_atom_site_type_symbol
_atom_site_label
_atom_site_fract_x
_atom_site_fract_y
_atom_site_fract_z
Si Si1 0.179620 0.084351 0.247227
Si Si2 0.880968 0.450586 0.097770
Si Si3 0.182090 0.511391 0.600707
Si Si4 0.624664 0.708157 0.400246
Si Si5 0.832566 0.299085 0.236162
Si Si6 0.831933 0.091561 0.803008
Si Si7 0.226326 0.252278 0.093494
Si Si8 0.390085 0.861161 0.337559
O O1 0.250481 0.052837 0.329693
O O2 0.268087 0.061716 0.162598
O O3 0.217579 0.148958 0.261666
O O4 0.999980 0.076305 0.232347
O O5 0.000000 0.500000 0.114524
O O6 0.987974 0.396520 0.108348
O O7 0.822029 0.455000 0.000000
O O8 0.218692 0.521446 0.500000
O O9 0.269013 0.457337 0.636815
O O10 0.000000 0.500000 0.608280
O O11 0.675405 0.708870 0.500000
O O12 0.698197 0.756352 0.341418
O O13 0.653115 0.648864 0.356392
O O14 0.441938 0.723135 0.400462
O O15 0.822947 0.267821 0.326051
O O16 0.002330 0.323843 0.223853
O O17 0.717952 0.102004 0.722655
O O18 0.201255 0.317855 0.104259
O O19 0.292594 0.238940 0.000000
#
# Coordination Sequence:
#
# PCOD9442413 Si02
#       8
#     8   8   8   8   8   8   8   8
#     4  11  23  39  65  95 128 165 211 264 327 372
#     4  10  21  41  67  94 126 168 219 260 312 384
#     4  11  25  44  65  94 128 166 211 259 315 386
#     4  10  21  37  62  92 125 167 213 260 318 385
#     4  10  20  38  60  86 123 164 213 264 312 374
#     4  12  22  39  66  91 133 166 208 263 321 385
#     4  10  19  35  58  85 119 163 214 260 314 373
#     4  10  21  36  62  86 127 168 211 255 316 381
#
# _framework density 19.669782000000001
#
# number of rings (size 3 to 8) (size 9 to 14) (size 15 to 20)
#    0.000    1.500    2.500    3.750    0.000    5.000 
#    0.000    2.500    0.000    3.000    0.000    0.000 
#    0.000    0.000    0.000    0.000    0.000    0.000 
#
# Total GULP energy -357579.140834 kJ/mol
# GULP energy per Si atom -5587.174076 kJ/mol
# Density = 1.962501 g / cm^3
# Si number density = 19.669782 Si / 1000 Ang^3
#
#
#
# Elastic Constant Matrix: (Units=GPa)
#
#
# Indices 1 2 3 4 5 6 
#
# 1 71.2706 20.7962 58.6470 0.0000 0.0000 0.0000
# 2 20.7962 87.5541 47.4496 0.0000 0.0000 0.0000
# 3 58.6470 47.4496 146.2145 0.0000 0.0000 0.0000
# 4 0.0000 0.0000 0.0000 21.3565 0.0000 0.0000
# 5 0.0000 0.0000 0.0000 0.0000 18.3368 0.0000
# 6 0.0000 0.0000 0.0000 0.0000 0.0000 24.1874
#
#
#
# Elastic Compliance Matrix: (Units=1/GPa)
#
#
# Indices 1 2 3 4 5 6 
#
# 1 0.020963 -0.000512 -0.008242 0.000000 0.000000 0.000000
# 2 -0.000512 0.013871 -0.004296 0.000000 0.000000 0.000000
# 3 -0.008242 -0.004296 0.011539 0.000000 0.000000 0.000000
# 4 0.000000 0.000000 0.000000 0.046824 0.000000 0.000000
# 5 0.000000 0.000000 0.000000 0.000000 0.054535 0.000000
# 6 0.000000 0.000000 0.000000 0.000000 0.000000 0.041344
#
#
# Mechanical properties :
#
#
# Convention : Reuss Voigt Hill
#
# Bulk Modulus (GPa) = 49.32765 62.09164 55.70965
# Shear Modulus (GPa) = 22.52914 24.65255 23.59084
#
# Velocity S-wave (km/s) = 3.38800 3.54407 3.46691
# Velocity P-wave (km/s) = 6.35901 6.95577 6.66408
#
# Compressibility (1/GPa) = 0.02027261
#
# Stress axis : x y z
#
# Youngs Moduli (GPa) = 47.70397 72.09058 86.66086
#
# Poissons Ratio (x) = 0.03695 0.71425
# Poissons Ratio (y) = 0.02445 0.37230
# Poissons Ratio (z) = 0.39317 0.30970
#
# Static dielectric constant tensor:
#      x y z
#    x 1.675150 0.000000 0.000000 
#    y 0.000000 1.724380 0.000000 
#    z 0.000000 0.000000 1.676250 
# 
# From -- ./inp_files/20307.got.cif
#   From: 2010.05.17/outbox.cif.g08.bks.cpg/sg58_11_cif.got.tgz:20307.got - 2010.06.03 14:20:14.
