data_PCOD9442496
_publ_section_title
;
Structure prediction by ZEFSAII (Michael W. Deem and Ramdas Pophale) SiO2 
 PCOD9442496
Probable space group: P N N M
;
_chemical_formula_sum "Si O2"
_cell_formula_units_Z 64
_cell_length_a 12.768694
_cell_length_b 8.967488
_cell_length_c 29.014007
_cell_angle_alpha 90.000000
_cell_angle_beta 90.000000
_cell_angle_gamma 90.000000
_cell_volume 3322.194041
_symmetry_space_group_name_H-M "P N N M"
_symmetry_group_IT_number 58
_symmetry_cell_setting 'orthorhombic'
loop_
_space_group_symop_operation_xyz
x,y,z
-x,-y,z
1/2+x,1/2-y,1/2-z
1/2-x,1/2+y,1/2-z
-x,-y,-z
x,y,-z
1/2-x,1/2+y,1/2+z
1/2+x,1/2-y,1/2+z
loop_
_atom_site_type_symbol
_atom_site_label
_atom_site_fract_x
_atom_site_fract_y
_atom_site_fract_z
Si Si1 0.348700 0.867234 0.450000
Si Si2 0.231808 0.366305 0.399994
Si Si3 0.483219 0.820231 0.053120
Si Si4 0.572893 0.809058 0.575996
Si Si5 0.816996 0.284130 0.387277
Si Si6 0.211348 0.195027 0.204375
Si Si7 0.211728 0.840385 0.204277
Si Si8 0.991126 0.332646 0.181855
O O1 0.301664 0.836448 0.500000
O O2 0.459257 0.780571 0.445532
O O3 0.267936 0.821280 0.411133
O O4 0.379179 0.040755 0.445402
O O5 0.132778 0.296965 0.426456
O O6 0.340197 0.319180 0.424232
O O7 0.216414 0.544521 0.398170
O O8 0.240102 0.312751 0.346708
O O9 0.571196 0.759850 0.088350
O O10 0.500000 0.000000 0.052179
O O11 0.493485 0.767684 0.000000
O O12 0.547347 0.844126 0.629260
O O13 0.803806 0.267605 0.332227
O O14 0.225274 0.270705 0.253668
O O15 0.102870 0.253754 0.183297
O O16 0.206151 0.017677 0.209467
O O17 0.097116 0.766086 0.206092
O O18 0.000000 0.500000 0.201163
#
# Coordination Sequence:
#
# PCOD9442496 Si02
#       8
#     8   8   8   8   8   8   8   8
#     4  11  21  35  55  84 117 150 191 238 293 361
#     4   9  21  37  59  83 115 148 199 245 292 349
#     4   9  18  35  58  82 112 151 192 237 292 347
#     4  10  19  36  55  82 112 152 186 233 295 352
#     4  10  20  37  58  84 113 153 194 246 292 354
#     4  11  21  38  57  85 120 149 199 243 304 361
#     4  10  23  36  58  89 115 154 194 250 297 362
#     4  11  19  36  60  81 112 153 192 236 300 356
#
# _framework density 19.264375999999999
#
# number of rings (size 3 to 8) (size 9 to 14) (size 15 to 20)
#    0.000    1.875    2.500    2.250    0.000    4.000 
#    0.000    3.750    0.000    1.500    0.000    0.000 
#    0.000    0.000    0.000    0.000    0.000    0.000 
#
# Total GULP energy -357086.552896 kJ/mol
# GULP energy per Si atom -5579.477389 kJ/mol
# Density = 1.922053 g / cm^3
# Si number density = 19.264376 Si / 1000 Ang^3
#
#
#
# Elastic Constant Matrix: (Units=GPa)
#
#
# Indices 1 2 3 4 5 6 
#
# 1 50.9513 11.6057 7.3881 0.0000 0.0000 0.0000
# 2 11.6057 37.6065 25.5364 0.0000 0.0000 0.0000
# 3 7.3881 25.5364 71.5942 0.0000 0.0000 0.0000
# 4 0.0000 0.0000 0.0000 18.6598 0.0000 0.0000
# 5 0.0000 0.0000 0.0000 0.0000 51.8705 0.0000
# 6 0.0000 0.0000 0.0000 0.0000 0.0000 27.1481
#
#
#
# Elastic Compliance Matrix: (Units=1/GPa)
#
#
# Indices 1 2 3 4 5 6 
#
# 1 0.021113 -0.006646 0.000192 0.000000 0.000000 0.000000
# 2 -0.006646 0.037182 -0.012576 0.000000 0.000000 0.000000
# 3 0.000192 -0.012576 0.018434 0.000000 0.000000 0.000000
# 4 0.000000 0.000000 0.000000 0.053591 0.000000 0.000000
# 5 0.000000 0.000000 0.000000 0.000000 0.019279 0.000000
# 6 0.000000 0.000000 0.000000 0.000000 0.000000 0.036835
#
#
# Mechanical properties :
#
#
# Convention : Reuss Voigt Hill
#
# Bulk Modulus (GPa) = 25.86158 27.69027 26.77593
# Shear Modulus (GPa) = 21.06303 27.24380 24.15342
#
# Velocity S-wave (km/s) = 3.31020 3.76467 3.54473
# Velocity P-wave (km/s) = 5.29751 5.77079 5.53921
#
# Compressibility (1/GPa) = 0.03866740
#
# Stress axis : x y z
#
# Youngs Moduli (GPa) = 47.36524 26.89480 54.24879
#
# Poissons Ratio (x) = 0.17873 -0.01040
# Poissons Ratio (y) = 0.31477 0.68225
# Poissons Ratio (z) = -0.00908 0.33824
#
# Static dielectric constant tensor:
#      x y z
#    x 1.719950 0.000000 0.000000 
#    y 0.000000 1.659800 0.000000 
#    z 0.000000 0.000000 1.681240 
# 
# From -- ./inp_files/34943.got.cif
#   From: 2010.05.17/outbox.cif.g08.bks.cpg/sg58_18_cif.got.tgz:34943.got - 2010.06.03 14:20:14.
