data_PCOD9442343
_publ_section_title
;
Structure prediction by ZEFSAII (Michael W. Deem and Ramdas Pophale) SiO2 
 PCOD9442343
Probable space group: P N N M
;
_chemical_formula_sum "Si O2"
_cell_formula_units_Z 64
_cell_length_a 5.324419
_cell_length_b 19.580090
_cell_length_c 32.288385
_cell_angle_alpha 90.000000
_cell_angle_beta 90.000000
_cell_angle_gamma 90.000000
_cell_volume 3366.148190
_symmetry_space_group_name_H-M "P N N M"
_symmetry_group_IT_number 58
_symmetry_cell_setting 'orthorhombic'
loop_
_space_group_symop_operation_xyz
x,y,z
-x,-y,z
1/2+x,1/2-y,1/2-z
1/2-x,1/2+y,1/2-z
-x,-y,-z
x,y,-z
1/2-x,1/2+y,1/2+z
1/2+x,1/2-y,1/2+z
loop_
_atom_site_type_symbol
_atom_site_label
_atom_site_fract_x
_atom_site_fract_y
_atom_site_fract_z
Si Si1 0.201178 0.821885 0.311489
Si Si2 0.249374 0.172128 0.207045
Si Si3 0.810583 0.308074 0.954629
Si Si4 0.429973 0.835951 0.123161
Si Si5 0.928144 0.571805 0.755218
Si Si6 0.689038 0.784883 0.045064
Si Si7 0.351987 0.430959 0.328979
Si Si8 0.799861 0.308924 0.865866
O O1 0.245563 0.752898 0.284105
O O2 0.230848 0.887142 0.282551
O O3 0.436643 0.819535 0.343128
O O4 0.939664 0.824000 0.336556
O O5 0.429536 0.169508 0.166999
O O6 0.352819 0.126181 0.244495
O O7 0.006381 0.133989 0.189145
O O8 0.546301 0.267520 0.956000
O O9 0.802440 0.346424 0.910501
O O10 0.052047 0.257272 0.951646
O O11 0.835328 0.342836 0.000000
O O12 0.621905 0.830087 0.085096
O O13 0.280486 0.905690 0.129249
O O14 0.244261 0.770978 0.122609
O O15 0.821494 0.552823 0.710232
O O16 0.000000 0.500000 0.775479
O O17 0.692597 0.820439 0.000000
O O18 0.500000 0.500000 0.336959
#
# Coordination Sequence:
#
# PCOD9442343 Si02
#       8
#     8   8   8   8   8   8   8   8
#     4  11  24  36  58  81 111 148 182 232 286 338
#     4  10  21  36  54  77 103 139 186 236 281 329
#     4   9  16  28  50  78 113 147 177 220 276 333
#     4   9  19  31  51  76 107 140 181 235 280 333
#     4  11  25  39  55  79 111 147 190 239 289 346
#     4   9  17  28  48  78 109 145 182 223 283 342
#     4  11  21  36  55  73 102 141 193 242 288 333
#     4  10  19  35  51  82 113 142 181 224 277 338
#
# _framework density 19.012830999999998
#
# number of rings (size 3 to 8) (size 9 to 14) (size 15 to 20)
#    0.000    2.000    2.500    2.250    5.250    0.000 
#    0.000    0.000    0.000    0.375    0.000    0.875 
#    0.000    3.000    0.000    0.000    0.000    0.000 
#
# Total GULP energy -356433.210826 kJ/mol
# GULP energy per Si atom -5569.268919 kJ/mol
# Density = 1.896956 g / cm^3
# Si number density = 19.012831 Si / 1000 Ang^3
#
#
#
# Elastic Constant Matrix: (Units=GPa)
#
#
# Indices 1 2 3 4 5 6 
#
# 1 83.0835 -0.2736 18.4896 0.0000 0.0000 0.0000
# 2 -0.2736 47.1318 18.6036 0.0000 0.0000 0.0000
# 3 18.4896 18.6036 79.9860 0.0000 0.0000 0.0000
# 4 0.0000 0.0000 0.0000 6.8787 0.0000 0.0000
# 5 0.0000 0.0000 0.0000 0.0000 79.1404 0.0000
# 6 0.0000 0.0000 0.0000 0.0000 0.0000 24.2373
#
#
#
# Elastic Compliance Matrix: (Units=1/GPa)
#
#
# Indices 1 2 3 4 5 6 
#
# 1 0.012768 0.001364 -0.003269 0.000000 0.000000 0.000000
# 2 0.001364 0.023508 -0.005783 0.000000 0.000000 0.000000
# 3 -0.003269 -0.005783 0.014603 0.000000 0.000000 0.000000
# 4 0.000000 0.000000 0.000000 0.145376 0.000000 0.000000
# 5 0.000000 0.000000 0.000000 0.000000 0.012636 0.000000
# 6 0.000000 0.000000 0.000000 0.000000 0.000000 0.041259
#
#
# Mechanical properties :
#
#
# Convention : Reuss Voigt Hill
#
# Bulk Modulus (GPa) = 28.16605 31.53785 29.85195
# Shear Modulus (GPa) = 18.02721 33.61006 25.81864
#
# Velocity S-wave (km/s) = 3.08256 4.20903 3.68905
# Velocity P-wave (km/s) = 5.24557 6.34389 5.82069
#
# Compressibility (1/GPa) = 0.03550373
#
# Stress axis : x y z
#
# Youngs Moduli (GPa) = 78.32064 42.53940 68.47985
#
# Poissons Ratio (x) = -0.05804 0.22385
# Poissons Ratio (y) = -0.10686 0.39601
# Poissons Ratio (z) = 0.25601 0.24600
#
# Static dielectric constant tensor:
#      x y z
#    x 1.742320 0.000000 0.000000 
#    y 0.000000 1.701240 0.000000 
#    z 0.000000 0.000000 1.727910 
# 
# From -- ./inp_files/34263.got.cif
#   From: 2010.05.17/outbox.cif.g08.bks.cpg/sg58_18_cif.got.tgz:34263.got - 2010.06.03 14:20:14.
