data_PCOD9442089
_publ_section_title
;
Structure prediction by ZEFSAII (Michael W. Deem and Ramdas Pophale) SiO2 
 PCOD9442089
Probable space group: P N N M
;
_chemical_formula_sum "Si O2"
_cell_formula_units_Z 64
_cell_length_a 32.728654
_cell_length_b 10.532728
_cell_length_c 9.097173
_cell_angle_alpha 90.000000
_cell_angle_beta 90.000000
_cell_angle_gamma 90.000000
_cell_volume 3135.995765
_symmetry_space_group_name_H-M "P N N M"
_symmetry_group_IT_number 58
_symmetry_cell_setting 'orthorhombic'
loop_
_space_group_symop_operation_xyz
x,y,z
-x,-y,z
1/2+x,1/2-y,1/2-z
1/2-x,1/2+y,1/2-z
-x,-y,-z
x,y,-z
1/2-x,1/2+y,1/2+z
1/2+x,1/2-y,1/2+z
loop_
_atom_site_type_symbol
_atom_site_label
_atom_site_fract_x
_atom_site_fract_y
_atom_site_fract_z
Si Si1 0.628787 0.843653 0.171569
Si Si2 0.239834 0.040123 0.173163
Si Si3 0.461596 0.261800 0.173324
Si Si4 0.153960 0.901358 0.831584
Si Si5 0.214245 0.311277 0.177124
Si Si6 0.949939 0.720777 0.325838
Si Si7 0.064414 0.013855 0.827836
Si Si8 0.628016 0.103492 0.325284
O O1 0.580492 0.813946 0.193663
O O2 0.652233 0.717629 0.222775
O O3 0.639578 0.964140 0.268687
O O4 0.635885 0.869286 0.000000
O O5 0.193693 0.986930 0.185998
O O6 0.267534 0.939985 0.257801
O O7 0.238424 0.185508 0.227267
O O8 0.250869 0.040029 0.000000
O O9 0.502941 0.185563 0.207126
O O10 0.458533 0.388486 0.270583
O O11 0.463523 0.297832 0.000000
O O12 0.112535 0.981627 0.812073
O O13 0.153239 0.852752 0.000000
O O14 0.166096 0.305764 0.215352
O O15 0.216726 0.314544 0.000000
O O16 0.943814 0.711514 0.500000
O O17 0.914494 0.643248 0.246994
O O18 0.945808 0.865260 0.270117
O O19 0.055907 0.037690 0.000000
O O20 0.623665 0.105724 0.500000
#
# Coordination Sequence:
#
# PCOD9442089 Si02
#       8
#     8   8   8   8   8   8   8   8
#     4  10  21  38  60  86 117 155 201 248 298 358
#     4  10  22  41  65  92 123 159 200 246 297 359
#     4   9  20  37  55  81 117 155 195 246 301 355
#     4   9  19  37  60  85 118 156 195 240 297 355
#     4  10  24  44  64  91 126 160 198 248 306 364
#     4  11  22  36  56  81 114 155 199 246 300 358
#     4  10  19  33  56  85 117 153 194 243 299 358
#     4  11  24  42  61  82 116 156 198 248 307 366
#
# _framework density 20.408192
#
# number of rings (size 3 to 8) (size 9 to 14) (size 15 to 20)
#    0.000    2.000    0.000    2.625    1.750    8.000 
#    0.000    3.750    0.000    0.000    0.000    0.000 
#    0.000    0.000    0.000    0.000    0.000    0.000 
#
# Total GULP energy -357646.552280 kJ/mol
# GULP energy per Si atom -5588.227379 kJ/mol
# Density = 2.036174 g / cm^3
# Si number density = 20.408192 Si / 1000 Ang^3
#
#
#
# Elastic Constant Matrix: (Units=GPa)
#
#
# Indices 1 2 3 4 5 6 
#
# 1 40.6879 11.9117 19.9890 0.0000 0.0000 0.0000
# 2 11.9117 66.0782 15.5063 0.0000 0.0000 0.0000
# 3 19.9890 15.5063 33.6808 0.0000 0.0000 0.0000
# 4 0.0000 0.0000 0.0000 34.0997 0.0000 0.0000
# 5 0.0000 0.0000 0.0000 0.0000 23.1130 0.0000
# 6 0.0000 0.0000 0.0000 0.0000 0.0000 11.2297
#
#
#
# Elastic Compliance Matrix: (Units=1/GPa)
#
#
# Indices 1 2 3 4 5 6 
#
# 1 0.034843 -0.001601 -0.019941 0.000000 0.000000 0.000000
# 2 -0.001601 0.017040 -0.006895 0.000000 0.000000 0.000000
# 3 -0.019941 -0.006895 0.044700 0.000000 0.000000 0.000000
# 4 0.000000 0.000000 0.000000 0.029326 0.000000 0.000000
# 5 0.000000 0.000000 0.000000 0.000000 0.043266 0.000000
# 6 0.000000 0.000000 0.000000 0.000000 0.000000 0.089049
#
#
# Mechanical properties :
#
#
# Convention : Reuss Voigt Hill
#
# Bulk Modulus (GPa) = 25.18405 26.14010 25.66207
# Shear Modulus (GPa) = 15.22835 19.89113 17.55974
#
# Velocity S-wave (km/s) = 2.73461 3.12535 2.93648
# Velocity P-wave (km/s) = 4.72628 5.08529 4.90907
#
# Compressibility (1/GPa) = 0.03970768
#
# Stress axis : x y z
#
# Youngs Moduli (GPa) = 28.70023 58.68462 22.37150
#
# Poissons Ratio (x) = 0.09398 0.44612
# Poissons Ratio (y) = 0.04596 0.15425
# Poissons Ratio (z) = 0.57232 0.40462
#
# Static dielectric constant tensor:
#      x y z
#    x 1.762590 0.000000 0.000000 
#    y 0.000000 1.704050 0.000000 
#    z 0.000000 0.000000 1.681000 
# 
# From -- ./inp_files/11009.got.cif
#   From: 2010.05.17/outbox.cif.g08.bks.cpg/sg58_6_cif.got.tgz:11009.got - 2010.06.03 14:20:14.
