data_PCOD9442259
_publ_section_title
;
Structure prediction by ZEFSAII (Michael W. Deem and Ramdas Pophale) SiO2 
 PCOD9442259
Probable space group: P N N M
;
_chemical_formula_sum "Si O2"
_cell_formula_units_Z 64
_cell_length_a 17.572898
_cell_length_b 17.102297
_cell_length_c 9.752517
_cell_angle_alpha 90.000000
_cell_angle_beta 90.000000
_cell_angle_gamma 90.000000
_cell_volume 2930.991429
_symmetry_space_group_name_H-M "P N N M"
_symmetry_group_IT_number 58
_symmetry_cell_setting 'orthorhombic'
loop_
_space_group_symop_operation_xyz
x,y,z
-x,-y,z
1/2+x,1/2-y,1/2-z
1/2-x,1/2+y,1/2-z
-x,-y,-z
x,y,-z
1/2-x,1/2+y,1/2+z
1/2+x,1/2-y,1/2+z
loop_
_atom_site_type_symbol
_atom_site_label
_atom_site_fract_x
_atom_site_fract_y
_atom_site_fract_z
Si Si1 0.323277 0.044686 0.665457
Si Si2 0.159100 0.997453 0.659791
Si Si3 0.986151 0.291547 0.344681
Si Si4 0.842649 0.271801 0.164712
Si Si5 0.407042 0.663834 0.753072
Si Si6 0.452689 0.419456 0.645160
Si Si7 0.076016 0.408020 0.159480
Si Si8 0.212086 0.283149 0.152783
O O1 0.320637 0.038183 0.500000
O O2 0.244433 0.006969 0.716432
O O3 0.325578 0.136378 0.694940
O O4 0.396268 0.993496 0.705466
O O5 0.161558 0.978107 0.500000
O O6 0.121689 0.084055 0.677132
O O7 0.108275 0.933684 0.736826
O O8 0.962578 0.309761 0.500000
O O9 0.917587 0.256502 0.254329
O O10 0.017525 0.365264 0.258945
O O11 0.055825 0.229621 0.349304
O O12 0.774144 0.221278 0.227739
O O13 0.851457 0.263812 0.000000
O O14 0.479149 0.641081 0.661115
O O15 0.339876 0.705706 0.671237
O O16 0.500000 0.500000 0.642444
O O17 0.412599 0.408200 0.500000
O O18 0.152803 0.354771 0.160979
O O19 0.048763 0.409034 0.000000
O O20 0.246777 0.284223 0.000000
#
# Coordination Sequence:
#
# PCOD9442259 Si02
#       8
#     8   8   8   8   8   8   8   8
#     4   9  19  38  62  86 113 152 200 245 288 347
#     4  10  19  34  57  86 116 154 199 239 283 343
#     4  11  24  40  59  86 118 152 196 249 300 348
#     4  11  23  40  62  87 117 155 200 246 296 357
#     4  10  20  36  60  84 116 157 197 238 290 353
#     4   9  19  33  50  80 119 154 189 231 282 341
#     4   9  20  40  63  86 116 155 196 240 297 356
#     4  10  20  36  61  90 119 154 197 247 301 353
#
# _framework density 21.835615000000001
#
# number of rings (size 3 to 8) (size 9 to 14) (size 15 to 20)
#    0.000    2.125    1.250    1.500    0.000    8.250 
#    0.000    5.625    0.000    0.000    0.000    0.000 
#    0.000    0.000    0.000    0.000    0.000    0.000 
#
# Total GULP energy -357303.467310 kJ/mol
# GULP energy per Si atom -5582.866677 kJ/mol
# Density = 2.178592 g / cm^3
# Si number density = 21.835615 Si / 1000 Ang^3
#
#
#
# Elastic Constant Matrix: (Units=GPa)
#
#
# Indices 1 2 3 4 5 6 
#
# 1 73.6507 18.5159 35.4219 0.0000 0.0000 0.0000
# 2 18.5159 61.9016 13.9690 0.0000 0.0000 0.0000
# 3 35.4219 13.9690 119.5777 0.0000 0.0000 0.0000
# 4 0.0000 0.0000 0.0000 -0.3911 0.0000 0.0000
# 5 0.0000 0.0000 0.0000 0.0000 39.2205 0.0000
# 6 0.0000 0.0000 0.0000 0.0000 0.0000 40.6437
#
#
#
# Elastic Compliance Matrix: (Units=1/GPa)
#
#
# Indices 1 2 3 4 5 6 
#
# 1 0.016743 -0.003994 -0.004493 0.000000 0.000000 0.000000
# 2 -0.003994 0.017545 -0.000866 0.000000 0.000000 0.000000
# 3 -0.004493 -0.000866 0.009795 0.000000 0.000000 0.000000
# 4 0.000000 0.000000 0.000000 -2.556646 0.000000 0.000000
# 5 0.000000 0.000000 0.000000 0.000000 0.025497 0.000000
# 6 0.000000 0.000000 0.000000 0.000000 0.000000 0.024604
#
#
# Mechanical properties :
#
#
# Convention : Reuss Voigt Hill
#
# Bulk Modulus (GPa) = 39.40827 43.43815 41.42321
# Shear Modulus (GPa) = -2.05314 28.37615 13.16151
#
# Velocity S-wave (km/s) = -0.97073 3.60882 2.45777
# Velocity P-wave (km/s) = 4.10250 6.10747 5.20248
#
# Compressibility (1/GPa) = 0.02537538
#
# Stress axis : x y z
#
# Youngs Moduli (GPa) = 59.72787 56.99659 102.09380
#
# Poissons Ratio (x) = 0.22765 0.45871
# Poissons Ratio (y) = 0.23856 0.08846
# Poissons Ratio (z) = 0.26836 0.04938
#
# Static dielectric constant tensor:
#      x y z
#    x 1.801860 0.000000 0.000000 
#    y 0.000000 1.871350 0.000000 
#    z 0.000000 0.000000 1.760010 
# 
# From -- ./inp_files/8500.got.cif
#   From: 2010.05.17/outbox.cif.g08.bks.cpg/sg58_5_cif.got.tgz:8500.got - 2010.06.03 14:20:14.
