data_PCOD9442415
_publ_section_title
;
Structure prediction by ZEFSAII (Michael W. Deem and Ramdas Pophale) SiO2 
 PCOD9442415
Probable space group: P N N M
;
_chemical_formula_sum "Si O2"
_cell_formula_units_Z 40
_cell_length_a 27.479731
_cell_length_b 10.360105
_cell_length_c 7.800446
_cell_angle_alpha 90.000000
_cell_angle_beta 90.000000
_cell_angle_gamma 90.000000
_cell_volume 2220.731582
_symmetry_space_group_name_H-M "P N N M"
_symmetry_group_IT_number 58
_symmetry_cell_setting 'orthorhombic'
loop_
_space_group_symop_operation_xyz
x,y,z
-x,-y,z
1/2+x,1/2-y,1/2-z
1/2-x,1/2+y,1/2-z
-x,-y,-z
x,y,-z
1/2-x,1/2+y,1/2+z
1/2+x,1/2-y,1/2+z
loop_
_atom_site_type_symbol
_atom_site_label
_atom_site_fract_x
_atom_site_fract_y
_atom_site_fract_z
Si Si1 0.598537 0.474759 0.192406
Si Si2 0.531058 0.870799 0.500000
Si Si3 0.287889 0.231631 0.793040
Si Si4 0.400356 0.218254 0.797105
Si Si5 0.963472 0.878995 0.000000
Si Si6 0.208703 0.024368 0.797176
O O1 0.589921 0.627872 0.223347
O O2 0.570240 0.393946 0.333325
O O3 0.656559 0.456683 0.208787
O O4 0.582521 0.443913 0.000000
O O5 0.564874 0.857209 0.668472
O O6 0.494308 0.750342 0.500000
O O7 0.500000 0.000000 0.500000
O O8 0.343709 0.199496 0.746956
O O9 0.249499 0.124341 0.735176
O O10 0.276262 0.375585 0.729705
O O11 0.286944 0.236004 0.000000
O O12 0.406270 0.187845 0.000000
O O13 0.000000 0.000000 0.000000
O O14 0.201399 0.044809 0.000000
#
# Coordination Sequence:
#
# PCOD9442415 Si02
#       6
#     8   4   8   8   4   8
#     4  10  20  37  63  91 117 149 198 253 299 345
#     4  12  26  42  60  90 118 158 204 244 304 358
#     4   9  20  36  56  86 118 155 196 238 290 355
#     4   9  19  39  62  84 118 156 197 240 295 361
#     4  12  22  40  66  88 116 152 206 250 290 350
#     4  10  19  35  58  85 122 156 192 242 293 350
#
# _framework density 18.012083000000001
#
# number of rings (size 3 to 8) (size 9 to 14) (size 15 to 20)
#    0.000    2.000    3.000    1.800    4.200    3.200 
#    3.600    0.000    0.000    0.000    0.000    0.000 
#    0.000    0.000    0.000    0.000    0.000    0.000 
#
# Total GULP energy -223317.997032 kJ/mol
# GULP energy per Si atom -5582.949926 kJ/mol
# Density = 1.797109 g / cm^3
# Si number density = 18.012083 Si / 1000 Ang^3
#
#
#
# Elastic Constant Matrix: (Units=GPa)
#
#
# Indices 1 2 3 4 5 6 
#
# 1 83.7131 62.3781 37.7698 0.0000 0.0000 0.0000
# 2 62.3781 88.6118 26.7479 0.0000 0.0000 0.0000
# 3 37.7698 26.7479 75.0387 0.0000 0.0000 0.0000
# 4 0.0000 0.0000 0.0000 11.2631 0.0000 0.0000
# 5 0.0000 0.0000 0.0000 0.0000 31.7620 0.0000
# 6 0.0000 0.0000 0.0000 0.0000 0.0000 40.7798
#
#
#
# Elastic Compliance Matrix: (Units=1/GPa)
#
#
# Indices 1 2 3 4 5 6 
#
# 1 0.029032 -0.017958 -0.008212 0.000000 0.000000 0.000000
# 2 -0.017958 0.023754 0.000572 0.000000 0.000000 0.000000
# 3 -0.008212 0.000572 0.017256 0.000000 0.000000 0.000000
# 4 0.000000 0.000000 0.000000 0.088786 0.000000 0.000000
# 5 0.000000 0.000000 0.000000 0.000000 0.031484 0.000000
# 6 0.000000 0.000000 0.000000 0.000000 0.000000 0.024522
#
#
# Mechanical properties :
#
#
# Convention : Reuss Voigt Hill
#
# Bulk Modulus (GPa) = 53.06194 55.68391 54.37292
# Shear Modulus (GPa) = 18.36129 24.79216 21.57673
#
# Velocity S-wave (km/s) = 3.19625 3.71404 3.46483
# Velocity P-wave (km/s) = 6.56844 7.02666 6.80141
#
# Compressibility (1/GPa) = 0.01884590
#
# Stress axis : x y z
#
# Youngs Moduli (GPa) = 34.44485 42.09763 57.95146
#
# Poissons Ratio (x) = 0.75600 0.47587
# Poissons Ratio (y) = 0.61857 -0.03313
# Poissons Ratio (z) = 0.28284 -0.02407
#
# Static dielectric constant tensor:
#      x y z
#    x 1.611820 0.000000 0.000000 
#    y 0.000000 1.580280 0.000000 
#    z 0.000000 0.000000 1.746810 
# 
# From -- ./inp_files/2676.got.cif
#   From: 2010.05.17/outbox.cif.g08.bks.cpg/sg58_2_cif.got.tgz:2676.got - 2010.06.03 14:20:14.
