data_PCOD9442704
_publ_section_title
;
Structure prediction by ZEFSAII (Michael W. Deem and Ramdas Pophale) SiO2 
 PCOD9442704
Probable space group: P N N M
;
_chemical_formula_sum "Si O2"
_cell_formula_units_Z 64
_cell_length_a 14.919338
_cell_length_b 23.322251
_cell_length_c 9.391687
_cell_angle_alpha 90.000000
_cell_angle_beta 90.000000
_cell_angle_gamma 90.000000
_cell_volume 3267.861399
_symmetry_space_group_name_H-M "P N N M"
_symmetry_group_IT_number 58
_symmetry_cell_setting 'orthorhombic'
loop_
_space_group_symop_operation_xyz
x,y,z
-x,-y,z
1/2+x,1/2-y,1/2-z
1/2-x,1/2+y,1/2-z
-x,-y,-z
x,y,-z
1/2-x,1/2+y,1/2+z
1/2+x,1/2-y,1/2+z
loop_
_atom_site_type_symbol
_atom_site_label
_atom_site_fract_x
_atom_site_fract_y
_atom_site_fract_z
Si Si1 0.879385 0.762320 0.834426
Si Si2 0.261614 0.411160 0.670851
Si Si3 0.812463 0.203639 0.666270
Si Si4 0.597230 0.016031 0.833520
Si Si5 0.668999 0.888574 0.838243
Si Si6 0.344014 0.627356 0.831606
Si Si7 0.528964 0.792252 0.167024
Si Si8 0.396023 0.516199 0.337176
O O1 0.776812 0.742159 0.821025
O O2 0.893197 0.820041 0.744848
O O3 0.943772 0.715089 0.765960
O O4 0.899326 0.771506 0.000000
O O5 0.255676 0.403165 0.500000
O O6 0.295653 0.353198 0.742855
O O7 0.164355 0.434956 0.722918
O O8 0.333613 0.461787 0.695984
O O9 0.822271 0.187819 0.500000
O O10 0.897743 0.243056 0.703950
O O11 0.651630 0.956244 0.831675
O O12 0.500000 0.000000 0.769545
O O13 0.580603 0.031463 0.000000
O O14 0.741747 0.870668 0.723446
O O15 0.578215 0.853076 0.816927
O O16 0.700171 0.873858 0.000000
O O17 0.379584 0.567584 0.770715
O O18 0.350963 0.631412 0.000000
O O19 0.505117 0.785783 0.000000
O O20 0.500000 0.500000 0.334427
O O21 0.373290 0.534601 0.500000
#
# Coordination Sequence:
#
# PCOD9442704 Si02
#       8
#     8   8   8   8   8   8   8   8
#     4  11  24  43  64  87 121 166 205 246 305 367
#     4  10  21  37  60  88 118 155 202 244 286 354
#     4  10  23  42  60  83 124 164 195 243 309 361
#     4   9  18  33  58  89 116 150 194 239 288 348
#     4  10  19  39  65  85 119 160 199 247 302 360
#     4  12  24  39  63  92 121 155 203 258 305 354
#     4  10  22  40  63  91 119 157 203 252 305 358
#     4  10  22  41  63  88 119 159 202 245 299 362
#
# _framework density 19.584674
#
# number of rings (size 3 to 8) (size 9 to 14) (size 15 to 20)
#    0.000    1.750    2.500    1.500    3.500    2.750 
#    0.000    0.000    0.000    0.750    0.000    0.000 
#    0.000    0.000    0.000    0.000    0.000    0.000 
#
# Total GULP energy -357453.416116 kJ/mol
# GULP energy per Si atom -5585.209627 kJ/mol
# Density = 1.954010 g / cm^3
# Si number density = 19.584674 Si / 1000 Ang^3
#
#
#
# Elastic Constant Matrix: (Units=GPa)
#
#
# Indices 1 2 3 4 5 6 
#
# 1 45.6460 -23.5349 12.4324 0.0000 0.0000 0.0000
# 2 -23.5349 52.2788 25.1943 0.0000 0.0000 0.0000
# 3 12.4324 25.1943 74.4561 0.0000 0.0000 0.0000
# 4 0.0000 0.0000 0.0000 16.4341 0.0000 0.0000
# 5 0.0000 0.0000 0.0000 0.0000 30.6763 0.0000
# 6 0.0000 0.0000 0.0000 0.0000 0.0000 21.9629
#
#
#
# Elastic Compliance Matrix: (Units=1/GPa)
#
#
# Indices 1 2 3 4 5 6 
#
# 1 0.038490 0.024405 -0.014685 0.000000 0.000000 0.000000
# 2 0.024405 0.038329 -0.017045 0.000000 0.000000 0.000000
# 3 -0.014685 -0.017045 0.021650 0.000000 0.000000 0.000000
# 4 0.000000 0.000000 0.000000 0.060849 0.000000 0.000000
# 5 0.000000 0.000000 0.000000 0.000000 0.032599 0.000000
# 6 0.000000 0.000000 0.000000 0.000000 0.000000 0.045531
#
#
# Mechanical properties :
#
#
# Convention : Reuss Voigt Hill
#
# Bulk Modulus (GPa) = 11.93041 22.28497 17.10769
# Shear Modulus (GPa) = 17.85471 24.36726 21.11098
#
# Velocity S-wave (km/s) = 3.02266 3.53115 3.28675
# Velocity P-wave (km/s) = 4.27632 5.29423 4.81226
#
# Compressibility (1/GPa) = 0.08381941
#
# Stress axis : x y z
#
# Youngs Moduli (GPa) = 25.98057 26.09001 46.18872
#
# Poissons Ratio (x) = -0.63672 0.67828
# Poissons Ratio (y) = -0.63404 0.78727
# Poissons Ratio (z) = 0.38152 0.44469
#
# Static dielectric constant tensor:
#      x y z
#    x 1.713190 0.000000 0.000000 
#    y 0.000000 1.612510 0.000000 
#    z 0.000000 0.000000 1.648170 
# 
# From -- ./inp_files/6790.got.cif
#   From: 2010.05.17/outbox.cif.g08.bks.cpg/sg58_4_cif.got.tgz:6790.got - 2010.06.03 14:20:14.
