data_PCOD9442998
_publ_section_title
;
Structure prediction by ZEFSAII (Michael W. Deem and Ramdas Pophale) SiO2 
 PCOD9442998
Probable space group: P N N M
;
_chemical_formula_sum "Si O2"
_cell_formula_units_Z 48
_cell_length_a 9.480379
_cell_length_b 18.065475
_cell_length_c 11.190738
_cell_angle_alpha 90.000000
_cell_angle_beta 90.000000
_cell_angle_gamma 90.000000
_cell_volume 1916.610278
_symmetry_space_group_name_H-M "P N N M"
_symmetry_group_IT_number 58
_symmetry_cell_setting 'orthorhombic'
loop_
_space_group_symop_operation_xyz
x,y,z
-x,-y,z
1/2+x,1/2-y,1/2-z
1/2-x,1/2+y,1/2-z
-x,-y,-z
x,y,-z
1/2-x,1/2+y,1/2+z
1/2+x,1/2-y,1/2+z
loop_
_atom_site_type_symbol
_atom_site_label
_atom_site_fract_x
_atom_site_fract_y
_atom_site_fract_z
Si Si1 0.859719 0.760136 0.252119
Si Si2 0.511724 0.155693 0.500000
Si Si3 0.032104 0.407658 0.755008
Si Si4 0.765722 0.998945 0.642275
Si Si5 0.506253 0.380779 0.857631
Si Si6 0.237849 0.742420 0.500000
Si Si7 0.274834 0.262060 0.500000
Si Si8 0.984568 0.637943 0.500000
O O1 0.886780 0.672933 0.247437
O O2 0.000821 0.807568 0.278039
O O3 0.791178 0.785857 0.128925
O O4 0.775518 0.773024 0.374782
O O5 0.463104 0.108659 0.615041
O O6 0.681128 0.175953 0.500000
O O7 0.438798 0.237166 0.500000
O O8 0.134351 0.477315 0.778072
O O9 0.975624 0.405530 0.620357
O O10 0.737413 0.000262 0.500000
O O11 0.878338 0.064451 0.664670
O O12 0.851044 0.925213 0.673922
O O13 0.507294 0.367782 0.000000
O O14 0.075380 0.714462 0.500000
O O15 0.183262 0.338875 0.500000
#
# Coordination Sequence:
#
# PCOD9442998 Si02
#       8
#     8   4   8   8   8   4   4   4
#     4  10  20  34  54  85 120 155 195 241 299 354
#     4  10  20  34  55  82 115 151 201 255 295 346
#     4  10  20  34  54  85 120 155 195 241 299 354
#     4   9  18  35  62  93 121 154 201 256 309 357
#     4   9  18  35  62  93 121 154 201 256 309 357
#     4  10  22  36  53  80 119 161 197 239 299 360
#     4  10  20  34  55  82 115 151 201 255 295 346
#     4  10  22  36  53  80 119 161 197 239 299 360
#
# _framework density 25.044214
#
# number of rings (size 3 to 8) (size 9 to 14) (size 15 to 20)
#    0.000    2.333    1.667    2.000    0.000   10.667 
#    0.000    0.833    0.000    8.000    0.000    0.000 
#    0.000    0.000    0.000    0.000    0.000    0.000 
#
# Total GULP energy -267744.469021 kJ/mol
# GULP energy per Si atom -5578.009771 kJ/mol
# Density = 2.498721 g / cm^3
# Si number density = 25.044214 Si / 1000 Ang^3
#
#
#
# Elastic Constant Matrix: (Units=GPa)
#
#
# Indices 1 2 3 4 5 6 
#
# 1 74.3012 10.2693 25.9467 0.0000 0.0000 0.0000
# 2 10.2693 56.7939 24.3814 0.0000 0.0000 0.0000
# 3 25.9467 24.3814 202.7602 0.0000 0.0000 0.0000
# 4 0.0000 0.0000 0.0000 41.2101 0.0000 0.0000
# 5 0.0000 0.0000 0.0000 0.0000 23.0280 0.0000
# 6 0.0000 0.0000 0.0000 0.0000 0.0000 42.7606
#
#
#
# Elastic Compliance Matrix: (Units=1/GPa)
#
#
# Indices 1 2 3 4 5 6 
#
# 1 0.014279 -0.001895 -0.001599 0.000000 0.000000 0.000000
# 2 -0.001895 0.018817 -0.002020 0.000000 0.000000 0.000000
# 3 -0.001599 -0.002020 0.005380 0.000000 0.000000 0.000000
# 4 0.000000 0.000000 0.000000 0.024266 0.000000 0.000000
# 5 0.000000 0.000000 0.000000 0.000000 0.043425 0.000000
# 6 0.000000 0.000000 0.000000 0.000000 0.000000 0.023386
#
#
# Mechanical properties :
#
#
# Convention : Reuss Voigt Hill
#
# Bulk Modulus (GPa) = 36.43461 50.56112 43.49787
# Shear Modulus (GPa) = 33.39296 39.61693 36.50495
#
# Velocity S-wave (km/s) = 3.65548 3.98160 3.82202
# Velocity P-wave (km/s) = 5.69179 6.43196 6.07316
#
# Compressibility (1/GPa) = 0.02744643
#
# Stress axis : x y z
#
# Youngs Moduli (GPa) = 70.03190 53.14202 185.88999
#
# Poissons Ratio (x) = 0.10072 0.29731
# Poissons Ratio (y) = 0.13273 0.37554
# Poissons Ratio (z) = 0.11201 0.10736
#
# Static dielectric constant tensor:
#      x y z
#    x 2.124270 0.000000 0.000000 
#    y 0.000000 2.057750 0.000000 
#    z 0.000000 0.000000 1.996200 
# 
# From -- ./inp_files/14549.got.cif
#   From: 2010.05.17/outbox.cif.g08.bks.cpg/sg58_8_cif.got.tgz:14549.got - 2010.06.03 14:20:14.
