data_PCOD9442562
_publ_section_title
;
Structure prediction by ZEFSAII (Michael W. Deem and Ramdas Pophale) SiO2 
 PCOD9442562
Probable space group: P N N M
;
_chemical_formula_sum "Si O2"
_cell_formula_units_Z 48
_cell_length_a 29.129234
_cell_length_b 8.280835
_cell_length_c 8.040925
_cell_angle_alpha 90.000000
_cell_angle_beta 90.000000
_cell_angle_gamma 90.000000
_cell_volume 1939.586742
_symmetry_space_group_name_H-M "P N N M"
_symmetry_group_IT_number 58
_symmetry_cell_setting 'orthorhombic'
loop_
_space_group_symop_operation_xyz
x,y,z
-x,-y,z
1/2+x,1/2-y,1/2-z
1/2-x,1/2+y,1/2-z
-x,-y,-z
x,y,-z
1/2-x,1/2+y,1/2+z
1/2+x,1/2-y,1/2+z
loop_
_atom_site_type_symbol
_atom_site_label
_atom_site_fract_x
_atom_site_fract_y
_atom_site_fract_z
Si Si1 0.434375 0.546603 0.309410
Si Si2 0.904950 0.433118 0.194139
Si Si3 0.648782 0.242386 0.702060
Si Si4 0.232041 0.059224 0.798166
Si Si5 0.510974 0.751537 0.185046
Si Si6 0.319614 0.234979 0.197255
O O1 0.434177 0.488760 0.500000
O O2 0.384710 0.607892 0.258814
O O3 0.468313 0.702351 0.299867
O O4 0.456431 0.407457 0.199290
O O5 0.876798 0.584189 0.267758
O O6 0.954099 0.394059 0.271546
O O7 0.868564 0.287081 0.216383
O O8 0.912810 0.459156 0.000000
O O9 0.649866 0.228324 0.500000
O O10 0.699424 0.291357 0.756879
O O11 0.207367 0.899757 0.733354
O O12 0.283809 0.096216 0.743153
O O13 0.232012 0.054476 0.000000
O O14 0.493057 0.769994 0.000000
O O15 0.326719 0.220486 0.000000
#
# Coordination Sequence:
#
# PCOD9442562 Si02
#       6
#     8   8   8   8   8   8
#     4  10  19  36  61  86 111 149 197 238 285 343
#     4  11  22  39  60  82 113 153 193 235 286 342
#     4   9  20  37  59  84 110 146 194 238 277 336
#     4  10  21  39  61  85 116 153 190 231 284 342
#     4  11  22  37  56  84 118 150 189 238 290 342
#     4  11  23  38  59  89 119 149 191 238 283 335
#
# _framework density 24.747540999999998
#
# number of rings (size 3 to 8) (size 9 to 14) (size 15 to 20)
#    0.000    1.667    0.000    6.000    0.000    4.667 
#    0.000    9.167    0.000    0.000    0.000    0.000 
#    0.000    0.000    0.000    0.000    0.000    0.000 
#
# Total GULP energy -268651.529016 kJ/mol
# GULP energy per Si atom -5596.906855 kJ/mol
# Density = 2.469121 g / cm^3
# Si number density = 24.747541 Si / 1000 Ang^3
#
#
#
# Elastic Constant Matrix: (Units=GPa)
#
#
# Indices 1 2 3 4 5 6 
#
# 1 112.1781 -4.4814 3.3356 0.0000 0.0000 0.0000
# 2 -4.4814 68.3695 -6.6156 0.0000 0.0000 0.0000
# 3 3.3356 -6.6156 56.0122 0.0000 0.0000 0.0000
# 4 0.0000 0.0000 0.0000 23.0372 0.0000 0.0000
# 5 0.0000 0.0000 0.0000 0.0000 -5.7214 0.0000
# 6 0.0000 0.0000 0.0000 0.0000 0.0000 40.2182
#
#
#
# Elastic Compliance Matrix: (Units=1/GPa)
#
#
# Indices 1 2 3 4 5 6 
#
# 1 0.008950 0.000541 -0.000469 0.000000 0.000000 0.000000
# 2 0.000541 0.014828 0.001719 0.000000 0.000000 0.000000
# 3 -0.000469 0.001719 0.018084 0.000000 0.000000 0.000000
# 4 0.000000 0.000000 0.000000 0.043408 0.000000 0.000000
# 5 0.000000 0.000000 0.000000 0.000000 -0.174782 0.000000
# 6 0.000000 0.000000 0.000000 0.000000 0.000000 0.024864
#
#
# Mechanical properties :
#
#
# Convention : Reuss Voigt Hill
#
# Bulk Modulus (GPa) = 22.00456 24.55965 23.28211
# Shear Modulus (GPa) = -94.19523 27.79488 -33.20018
#
# Velocity S-wave (km/s) = -6.17617 3.35496 -3.66670
# Velocity P-wave (km/s) = 6.47682 4.99533 2.91513
#
# Compressibility (1/GPa) = 0.04544513
#
# Stress axis : x y z
#
# Youngs Moduli (GPa) = 111.73227 67.43888 55.29678
#
# Poissons Ratio (x) = -0.03650 0.02594
# Poissons Ratio (y) = -0.06048 -0.09506
# Poissons Ratio (z) = 0.05241 -0.11594
#
# Static dielectric constant tensor:
#      x y z
#    x 1.914830 0.000000 0.000000 
#    y 0.000000 2.081960 0.000000 
#    z 0.000000 0.000000 1.846230 
# 
# From -- ./inp_files/3000.got.cif
#   From: 2010.05.17/outbox.cif.g08.bks.cpg/sg58_2_cif.got.tgz:3000.got - 2010.06.03 14:20:14.
