data_PCOD9442585
_publ_section_title
;
Structure prediction by ZEFSAII (Michael W. Deem and Ramdas Pophale) SiO2 
 PCOD9442585
Probable space group: P N N M
;
_chemical_formula_sum "Si O2"
_cell_formula_units_Z 48
_cell_length_a 29.466035
_cell_length_b 9.542598
_cell_length_c 9.206635
_cell_angle_alpha 90.000000
_cell_angle_beta 90.000000
_cell_angle_gamma 90.000000
_cell_volume 2588.744891
_symmetry_space_group_name_H-M "P N N M"
_symmetry_group_IT_number 58
_symmetry_cell_setting 'orthorhombic'
loop_
_space_group_symop_operation_xyz
x,y,z
-x,-y,z
1/2+x,1/2-y,1/2-z
1/2-x,1/2+y,1/2-z
-x,-y,-z
x,y,-z
1/2-x,1/2+y,1/2+z
1/2+x,1/2-y,1/2+z
loop_
_atom_site_type_symbol
_atom_site_label
_atom_site_fract_x
_atom_site_fract_y
_atom_site_fract_z
Si Si1 0.980412 0.155694 0.833951
Si Si2 0.202055 0.992621 0.325077
Si Si3 0.884591 0.180262 0.674753
Si Si4 0.280542 0.816892 0.824224
Si Si5 0.633936 0.994631 0.823846
Si Si6 0.962087 0.621226 0.668182
O O1 0.933415 0.163669 0.746867
O O2 0.017840 0.254703 0.762082
O O3 0.972123 0.198626 0.000000
O O4 0.000000 0.000000 0.831250
O O5 0.206791 0.980659 0.500000
O O6 0.151168 0.941495 0.288514
O O7 0.237003 0.887557 0.248618
O O8 0.212102 0.153870 0.284774
O O9 0.890365 0.182198 0.500000
O O10 0.864185 0.331808 0.719472
O O11 0.323968 0.910123 0.777992
O O12 0.276859 0.823823 0.000000
O O13 0.585760 0.060135 0.778677
O O14 0.633838 0.995509 0.000000
O O15 0.956443 0.666035 0.500000
O O16 0.000000 0.500000 0.670246
#
# Coordination Sequence:
#
# PCOD9442585 Si02
#       6
#     8   8   8   8   8   8
#     4  11  25  40  54  81 122 158 191 233 286 343
#     4  10  22  38  60  89 116 147 192 236 282 341
#     4  10  20  38  61  84 112 149 195 242 284 333
#     4  10  21  38  60  87 119 151 186 234 288 343
#     4   9  18  34  58  87 114 144 188 240 285 331
#     4  10  19  36  62  88 112 147 196 239 279 334
#
# _framework density 18.541803000000002
#
# number of rings (size 3 to 8) (size 9 to 14) (size 15 to 20)
#    0.000    2.000    1.667    1.500    2.333    4.333 
#    0.000    1.667    0.000    0.000    0.000    0.000 
#    0.000    0.000    0.000    0.000    0.000    0.000 
#
# Total GULP energy -267960.535286 kJ/mol
# GULP energy per Si atom -5582.511152 kJ/mol
# Density = 1.849960 g / cm^3
# Si number density = 18.541803 Si / 1000 Ang^3
#
#
#
# Elastic Constant Matrix: (Units=GPa)
#
#
# Indices 1 2 3 4 5 6 
#
# 1 58.7066 13.0749 9.1146 0.0000 0.0000 0.0000
# 2 13.0749 93.0861 26.4427 0.0000 0.0000 0.0000
# 3 9.1146 26.4427 24.6542 0.0000 0.0000 0.0000
# 4 0.0000 0.0000 0.0000 29.9708 0.0000 0.0000
# 5 0.0000 0.0000 0.0000 0.0000 42.4425 0.0000
# 6 0.0000 0.0000 0.0000 0.0000 0.0000 36.9842
#
#
#
# Elastic Compliance Matrix: (Units=1/GPa)
#
#
# Indices 1 2 3 4 5 6 
#
# 1 0.018126 -0.000924 -0.005710 0.000000 0.000000 0.000000
# 2 -0.000924 0.015497 -0.016280 0.000000 0.000000 0.000000
# 3 -0.005710 -0.016280 0.060133 0.000000 0.000000 0.000000
# 4 0.000000 0.000000 0.000000 0.033366 0.000000 0.000000
# 5 0.000000 0.000000 0.000000 0.000000 0.023561 0.000000
# 6 0.000000 0.000000 0.000000 0.000000 0.000000 0.027039
#
#
# Mechanical properties :
#
#
# Convention : Reuss Voigt Hill
#
# Bulk Modulus (GPa) = 20.86452 30.41236 25.63844
# Shear Modulus (GPa) = 20.87461 30.40048 25.63755
#
# Velocity S-wave (km/s) = 3.35895 4.05355 3.72249
# Velocity P-wave (km/s) = 5.13036 6.19241 5.68623
#
# Compressibility (1/GPa) = 0.04792824
#
# Stress axis : x y z
#
# Youngs Moduli (GPa) = 55.16879 64.52842 16.62988
#
# Poissons Ratio (x) = 0.05962 0.09496
# Poissons Ratio (y) = 0.05097 0.27073
# Poissons Ratio (z) = 0.31503 1.05050
#
# Static dielectric constant tensor:
#      x y z
#    x 1.689400 0.000000 0.000000 
#    y 0.000000 1.581210 0.000000 
#    z 0.000000 0.000000 1.629100 
# 
# From -- ./inp_files/2910.got.cif
#   From: 2010.05.17/outbox.cif.g08.bks.cpg/sg58_2_cif.got.tgz:2910.got - 2010.06.03 14:20:14.
