data_PCOD9442576
_publ_section_title
;
Structure prediction by ZEFSAII (Michael W. Deem and Ramdas Pophale) SiO2 
 PCOD9442576
Probable space group: P N N M
;
_chemical_formula_sum "Si O2"
_cell_formula_units_Z 48
_cell_length_a 8.769762
_cell_length_b 13.107471
_cell_length_c 19.740637
_cell_angle_alpha 90.000000
_cell_angle_beta 90.000000
_cell_angle_gamma 90.000000
_cell_volume 2269.174400
_symmetry_space_group_name_H-M "P N N M"
_symmetry_group_IT_number 58
_symmetry_cell_setting 'orthorhombic'
loop_
_space_group_symop_operation_xyz
x,y,z
-x,-y,z
1/2+x,1/2-y,1/2-z
1/2-x,1/2+y,1/2-z
-x,-y,-z
x,y,-z
1/2-x,1/2+y,1/2+z
1/2+x,1/2-y,1/2+z
loop_
_atom_site_type_symbol
_atom_site_label
_atom_site_fract_x
_atom_site_fract_y
_atom_site_fract_z
Si Si1 0.429697 0.888566 0.000000
Si Si2 0.186822 0.625488 0.000000
Si Si3 0.399786 0.095638 0.648680
Si Si4 0.408627 0.245094 0.885773
Si Si5 0.963931 0.117241 0.500000
Si Si6 0.427993 0.607366 0.213623
Si Si7 0.432297 0.683877 0.639386
Si Si8 0.425490 0.350711 0.500000
O O1 0.494521 0.831578 0.932836
O O2 0.500000 0.000000 0.000000
O O3 0.246563 0.891931 0.000000
O O4 0.153756 0.571751 0.071085
O O5 0.088702 0.727763 0.000000
O O6 0.362949 0.660140 0.000000
O O7 0.249892 0.105962 0.694543
O O8 0.489084 0.203781 0.646800
O O9 0.500000 0.000000 0.672017
O O10 0.377074 0.341268 0.935321
O O11 0.501625 0.294976 0.824908
O O12 0.249023 0.198384 0.865118
O O13 0.000000 0.000000 0.500000
O O14 0.500000 0.500000 0.189824
O O15 0.463535 0.621909 0.292473
O O16 0.489580 0.629186 0.570659
#
# Coordination Sequence:
#
# PCOD9442576 Si02
#       8
#     4   4   8   8   4   8   8   4
#     4  11  24  43  72 100 133 179 224 273 330 401
#     4  10  19  36  61  95 132 165 210 260 330 395
#     4  11  23  40  64  99 135 175 220 276 336 406
#     4  11  22  43  64  98 134 172 226 267 337 406
#     4  11  20  32  65  97 130 173 204 267 329 404
#     4  12  25  44  67  94 133 179 225 278 343 406
#     4  11  25  42  68  94 133 176 224 284 339 406
#     4  10  20  45  65  91 127 168 216 283 330 391
#
# _framework density 21.153068000000001
#
# number of rings (size 3 to 8) (size 9 to 14) (size 15 to 20)
#    0.000    1.000    3.333    4.750    2.333    1.333 
#    0.000    6.250    0.000    0.000    0.000    0.000 
#    0.000    0.000    0.000    0.000    0.000    0.000 
#
# Total GULP energy -268244.046013 kJ/mol
# GULP energy per Si atom -5588.417625 kJ/mol
# Density = 2.110492 g / cm^3
# Si number density = 21.153068 Si / 1000 Ang^3
#
#
#
# Elastic Constant Matrix: (Units=GPa)
#
#
# Indices 1 2 3 4 5 6 
#
# 1 124.2323 36.7525 37.5635 0.0000 0.0000 0.0000
# 2 36.7525 89.7870 38.7775 0.0000 0.0000 0.0000
# 3 37.5635 38.7775 135.3377 0.0000 0.0000 0.0000
# 4 0.0000 0.0000 0.0000 -0.0076 0.0000 0.0000
# 5 0.0000 0.0000 0.0000 0.0000 20.4135 0.0000
# 6 0.0000 0.0000 0.0000 0.0000 0.0000 25.0052
#
#
#
# Elastic Compliance Matrix: (Units=1/GPa)
#
#
# Indices 1 2 3 4 5 6 
#
# 1 0.009504 -0.003139 -0.001738 0.000000 0.000000 0.000000
# 2 -0.003139 0.013747 -0.003068 0.000000 0.000000 0.000000
# 3 -0.001738 -0.003068 0.008750 0.000000 0.000000 0.000000
# 4 0.000000 0.000000 0.000000********** 0.000000 0.000000
# 5 0.000000 0.000000 0.000000 0.000000 0.048987 0.000000
# 6 0.000000 0.000000 0.000000 0.000000 0.000000 0.039992
#
#
# Mechanical properties :
#
#
# Convention : Reuss Voigt Hill
#
# Bulk Modulus (GPa) = 62.06994 63.94932 63.00963
# Shear Modulus (GPa) = -0.03787 24.83313 12.39763
#
# Velocity S-wave (km/s) = -0.13395 3.43005 2.42356
# Velocity P-wave (km/s) = 5.42061 6.78117 6.13870
#
# Compressibility (1/GPa) = 0.01611086
#
# Stress axis : x y z
#
# Youngs Moduli (GPa) = 105.22108 72.74111 114.28134
#
# Poissons Ratio (x) = 0.22837 0.19865
# Poissons Ratio (y) = 0.33034 0.35057
# Poissons Ratio (z) = 0.18290 0.22314
#
# Static dielectric constant tensor:
#      x y z
#    x 2.189830 0.000000 0.000000 
#    y 0.000000 1.692350 0.000000 
#    z 0.000000 0.000000 1.777040 
# 
# From -- ./inp_files/25367.got.cif
#   From: 2010.05.17/outbox.cif.g08.bks.cpg/sg58_13_cif.got.tgz:25367.got - 2010.06.03 14:20:14.
