data_PCOD9442365
_publ_section_title
;
Structure prediction by ZEFSAII (Michael W. Deem and Ramdas Pophale) SiO2 
 PCOD9442365
Probable space group: P N N M
;
_chemical_formula_sum "Si O2"
_cell_formula_units_Z 48
_cell_length_a 20.304118
_cell_length_b 15.355431
_cell_length_c 8.914489
_cell_angle_alpha 90.000000
_cell_angle_beta 90.000000
_cell_angle_gamma 90.000000
_cell_volume 2779.345857
_symmetry_space_group_name_H-M "P N N M"
_symmetry_group_IT_number 58
_symmetry_cell_setting 'orthorhombic'
loop_
_space_group_symop_operation_xyz
x,y,z
-x,-y,z
1/2+x,1/2-y,1/2-z
1/2-x,1/2+y,1/2-z
-x,-y,-z
x,y,-z
1/2-x,1/2+y,1/2+z
1/2+x,1/2-y,1/2+z
loop_
_atom_site_type_symbol
_atom_site_label
_atom_site_fract_x
_atom_site_fract_y
_atom_site_fract_z
Si Si1 0.444331 0.571638 0.680443
Si Si2 0.463489 0.089234 0.680328
Si Si3 0.483113 0.271387 0.178740
Si Si4 0.689166 0.888520 0.320519
Si Si5 0.159763 0.804284 0.181357
Si Si6 0.198017 0.994452 0.819762
O O1 0.500000 0.500000 0.718625
O O2 0.446328 0.583246 0.500000
O O3 0.463193 0.661283 0.759765
O O4 0.372609 0.535707 0.722531
O O5 0.467808 0.101979 0.500000
O O6 0.493171 0.173684 0.760656
O O7 0.385892 0.085615 0.719061
O O8 0.500000 0.000000 0.719084
O O9 0.412544 0.301418 0.245951
O O10 0.480913 0.272425 0.000000
O O11 0.695365 0.894632 0.500000
O O12 0.695419 0.786259 0.278766
O O13 0.742766 0.950147 0.246913
O O14 0.196470 0.892768 0.225375
O O15 0.150807 0.805072 0.000000
O O16 0.202221 0.997013 0.000000
#
# Coordination Sequence:
#
# PCOD9442365 Si02
#       6
#     8   8   8   8   8   8
#     4  10  19  35  57  78 105 144 187 221 261 328
#     4   9  19  39  63  80 104 147 191 221 260 328
#     4  11  21  32  53  85 114 137 171 229 282 318
#     4   9  19  35  56  80 108 138 175 226 273 319
#     4   9  18  37  58  74 101 149 189 211 262 332
#     4  10  20  35  57  79 104 143 185 226 266 321
#
# _framework density 17.270250999999998
#
# number of rings (size 3 to 8) (size 9 to 14) (size 15 to 20)
#    0.000    2.333    1.667    2.500    0.000    4.667 
#    3.000    0.000    0.000    0.000    0.000    0.000 
#    0.000    0.000    0.000    0.000    0.000    0.000 
#
# Total GULP energy -267798.456039 kJ/mol
# GULP energy per Si atom -5579.134501 kJ/mol
# Density = 1.723094 g / cm^3
# Si number density = 17.270251 Si / 1000 Ang^3
#
#
#
# Elastic Constant Matrix: (Units=GPa)
#
#
# Indices 1 2 3 4 5 6 
#
# 1 84.7370 93.4221 30.3702 0.0000 0.0000 0.0000
# 2 93.4221 192.8258 53.0742 0.0000 0.0000 0.0000
# 3 30.3702 53.0742 26.4927 0.0000 0.0000 0.0000
# 4 0.0000 0.0000 0.0000 21.5687 0.0000 0.0000
# 5 0.0000 0.0000 0.0000 0.0000 26.9296 0.0000
# 6 0.0000 0.0000 0.0000 0.0000 0.0000 33.1114
#
#
#
# Elastic Compliance Matrix: (Units=1/GPa)
#
#
# Indices 1 2 3 4 5 6 
#
# 1 0.026560 -0.010004 -0.010406 0.000000 0.000000 0.000000
# 2 -0.010004 0.015329 -0.019241 0.000000 0.000000 0.000000
# 3 -0.010406 -0.019241 0.088221 0.000000 0.000000 0.000000
# 4 0.000000 0.000000 0.000000 0.046363 0.000000 0.000000
# 5 0.000000 0.000000 0.000000 0.000000 0.037134 0.000000
# 6 0.000000 0.000000 0.000000 0.000000 0.000000 0.030201
#
#
# Mechanical properties :
#
#
# Convention : Reuss Voigt Hill
#
# Bulk Modulus (GPa) = 19.68170 73.08762 46.38466
# Shear Modulus (GPa) = 14.70389 24.80123 19.75256
#
# Velocity S-wave (km/s) = 2.92104 3.79366 3.38558
# Velocity P-wave (km/s) = 4.77469 7.84863 6.49610
#
# Compressibility (1/GPa) = 0.05080861
#
# Stress axis : x y z
#
# Youngs Moduli (GPa) = 37.65070 65.23727 11.33511
#
# Poissons Ratio (x) = 0.65262 0.11796
# Poissons Ratio (y) = 0.37665 0.21810
# Poissons Ratio (z) = 0.39180 1.25522
#
# Static dielectric constant tensor:
#      x y z
#    x 1.557500 0.000000 0.000000 
#    y 0.000000 1.592230 0.000000 
#    z 0.000000 0.000000 1.578910 
# 
# From -- ./inp_files/6028.got.cif
#   From: 2010.05.17/outbox.cif.g08.bks.cpg/sg58_4_cif.got.tgz:6028.got - 2010.06.03 14:20:14.
