data_PCOD9442668
_publ_section_title
;
Structure prediction by ZEFSAII (Michael W. Deem and Ramdas Pophale) SiO2 
 PCOD9442668
Probable space group: P N N M
;
_chemical_formula_sum "Si O2"
_cell_formula_units_Z 34
_cell_length_a 16.695143
_cell_length_b 10.795448
_cell_length_c 7.676232
_cell_angle_alpha 90.000000
_cell_angle_beta 90.000000
_cell_angle_gamma 90.000000
_cell_volume 1383.499177
_symmetry_space_group_name_H-M "P N N M"
_symmetry_group_IT_number 58
_symmetry_cell_setting 'orthorhombic'
loop_
_space_group_symop_operation_xyz
x,y,z
-x,-y,z
1/2+x,1/2-y,1/2-z
1/2-x,1/2+y,1/2-z
-x,-y,-z
x,y,-z
1/2-x,1/2+y,1/2+z
1/2+x,1/2-y,1/2+z
loop_
_atom_site_type_symbol
_atom_site_label
_atom_site_fract_x
_atom_site_fract_y
_atom_site_fract_z
Si Si1 0.013520 0.676200 0.200265
Si Si2 0.259158 0.567484 0.790339
Si Si3 0.000000 0.500000 0.500000
Si Si4 0.670470 0.175077 0.707274
Si Si5 0.580851 0.571834 0.209384
O O1 0.042332 0.581735 0.344652
O O2 0.921227 0.704956 0.263031
O O3 0.069923 0.794749 0.208560
O O4 0.011948 0.633674 0.000000
O O5 0.267735 0.712734 0.744618
O O6 0.198661 0.459749 0.725882
O O7 0.344161 0.508730 0.734769
O O8 0.252673 0.566479 0.000000
O O9 0.666898 0.166676 0.500000
O O10 0.500000 0.500000 0.252091
O O11 0.585725 0.586388 0.000000
#
# Coordination Sequence:
#
# PCOD9442668 Si02
#       5
#     8   8   2   8   8
#     4  11  24  43  69  96 135 176 224 274 338 402
#     4  10  22  40  66  95 133 176 224 274 337 404
#     4  12  26  44  66  98 136 180 212 284 334 396
#     4  10  23  42  62  97 133 174 222 278 331 401
#     4  10  19  37  68  98 125 169 223 272 332 396
#
# _framework density 24.575368000000001
#
# number of rings (size 3 to 8) (size 9 to 14) (size 15 to 20)
#    0.000    1.647    3.529    0.353    1.647    4.235 
#    4.235    2.353    0.000    0.000    0.000    0.000 
#    0.000    0.000    0.000    0.000    0.000    0.000 
#
# Total GULP energy -189484.503662 kJ/mol
# GULP energy per Si atom -5573.073637 kJ/mol
# Density = 2.451943 g / cm^3
# Si number density = 24.575368 Si / 1000 Ang^3
#
#
#
# Elastic Constant Matrix: (Units=GPa)
#
#
# Indices 1 2 3 4 5 6 
#
# 1 93.9202 43.7192 9.5036 0.0000 0.0000 0.0000
# 2 43.7192 141.8958 29.7532 0.0000 0.0000 0.0000
# 3 9.5036 29.7532 81.2662 0.0000 0.0000 0.0000
# 4 0.0000 0.0000 0.0000 46.2762 0.0000 0.0000
# 5 0.0000 0.0000 0.0000 0.0000 6.1493 0.0000
# 6 0.0000 0.0000 0.0000 0.0000 0.0000 34.2425
#
#
#
# Elastic Compliance Matrix: (Units=1/GPa)
#
#
# Indices 1 2 3 4 5 6 
#
# 1 0.012430 -0.003818 -0.000056 0.000000 0.000000 0.000000
# 2 -0.003818 0.008806 -0.002778 0.000000 0.000000 0.000000
# 3 -0.000056 -0.002778 0.013329 0.000000 0.000000 0.000000
# 4 0.000000 0.000000 0.000000 0.021609 0.000000 0.000000
# 5 0.000000 0.000000 0.000000 0.000000 0.162619 0.000000
# 6 0.000000 0.000000 0.000000 0.000000 0.000000 0.029203
#
#
# Mechanical properties :
#
#
# Convention : Reuss Voigt Hill
#
# Bulk Modulus (GPa) = 47.03192 53.67046 50.35119
# Shear Modulus (GPa) = 18.62975 32.94069 25.78522
#
# Velocity S-wave (km/s) = 2.75629 3.66511 3.24270
# Velocity P-wave (km/s) = 5.41377 6.30851 5.87819
#
# Compressibility (1/GPa) = 0.02126216
#
# Stress axis : x y z
#
# Youngs Moduli (GPa) = 80.44851 113.55560 75.02611
#
# Poissons Ratio (x) = 0.43358 0.00418
# Poissons Ratio (y) = 0.30717 0.20839
# Poissons Ratio (z) = 0.00448 0.31542
#
# Static dielectric constant tensor:
#      x y z
#    x 2.062170 0.000000 0.000000 
#    y 0.000000 1.168220 0.000000 
#    z 0.000000 0.000000 1.873110 
# 
# From -- ./inp_files/8659.got.cif
#   From: 2010.05.17/outbox.cif.g08.bks.cpg/sg58_5_cif.got.tgz:8659.got - 2010.06.03 14:20:14.
