data_PCOD9442436
_publ_section_title
;
Structure prediction by ZEFSAII (Michael W. Deem and Ramdas Pophale) SiO2 
 PCOD9442436
Probable space group: P N N M
;
_chemical_formula_sum "Si O2"
_cell_formula_units_Z 64
_cell_length_a 25.326717
_cell_length_b 15.164438
_cell_length_c 7.967225
_cell_angle_alpha 90.000000
_cell_angle_beta 90.000000
_cell_angle_gamma 90.000000
_cell_volume 3059.935693
_symmetry_space_group_name_H-M "P N N M"
_symmetry_group_IT_number 58
_symmetry_cell_setting 'orthorhombic'
loop_
_space_group_symop_operation_xyz
x,y,z
-x,-y,z
1/2+x,1/2-y,1/2-z
1/2-x,1/2+y,1/2-z
-x,-y,-z
x,y,-z
1/2-x,1/2+y,1/2+z
1/2+x,1/2-y,1/2+z
loop_
_atom_site_type_symbol
_atom_site_label
_atom_site_fract_x
_atom_site_fract_y
_atom_site_fract_z
Si Si1 0.264710 0.667208 0.202038
Si Si2 0.554736 0.740768 0.196889
Si Si3 0.671343 0.500330 0.798745
Si Si4 0.355504 0.142050 0.702391
Si Si5 0.485410 0.903168 0.199392
Si Si6 0.052807 0.956285 0.805633
Si Si7 0.625408 0.051535 0.703226
Si Si8 0.236667 0.370839 0.798651
O O1 0.306474 0.594272 0.263864
O O2 0.205715 0.636737 0.247905
O O3 0.268303 0.767851 0.259169
O O4 0.267829 0.668084 0.000000
O O5 0.614259 0.776286 0.217870
O O6 0.518457 0.820383 0.265887
O O7 0.547483 0.648677 0.287420
O O8 0.543504 0.727312 0.000000
O O9 0.609979 0.516626 0.764094
O O10 0.710893 0.578094 0.735499
O O11 0.676922 0.499315 0.000000
O O12 0.359026 0.149568 0.500000
O O13 0.381891 0.050169 0.756044
O O14 0.423215 0.892307 0.229623
O O15 0.500000 0.000000 0.270890
O O16 0.496079 0.905833 0.000000
O O17 0.054378 0.982043 0.000000
O O18 0.000000 0.000000 0.728857
O O19 0.624640 0.053986 0.500000
O O20 0.682751 0.083157 0.761327
O O21 0.237318 0.379766 0.000000
#
# Coordination Sequence:
#
# PCOD9442436 Si02
#       8
#     8   8   8   8   8   8   8   8
#     4  10  21  37  59  88 121 158 196 241 294 350
#     4  11  23  39  62  89 119 158 201 247 298 351
#     4  10  21  41  66  89 120 158 199 244 296 355
#     4  10  19  35  59  86 119 156 198 242 289 348
#     4  10  21  37  55  83 122 155 191 241 289 342
#     4  11  26  46  65  87 117 152 198 254 301 347
#     4  10  20  35  57  83 116 158 195 235 290 348
#     4  10  21  38  58  87 123 157 195 242 292 348
#
# _framework density 20.915471
#
# number of rings (size 3 to 8) (size 9 to 14) (size 15 to 20)
#    0.000    1.750    2.500    1.500    0.000    7.250 
#    0.000    5.000    0.000    0.000    0.000    0.000 
#    0.000    0.000    0.000    0.000    0.000    0.000 
#
# Total GULP energy -357373.158923 kJ/mol
# GULP energy per Si atom -5583.955608 kJ/mol
# Density = 2.086787 g / cm^3
# Si number density = 20.915471 Si / 1000 Ang^3
#
#
#
# Elastic Constant Matrix: (Units=GPa)
#
#
# Indices 1 2 3 4 5 6 
#
# 1 149.8792 73.6323 6.4224 0.0000 0.0000 0.0000
# 2 73.6323 119.2714 5.3120 0.0000 0.0000 0.0000
# 3 6.4224 5.3120 11.0159 0.0000 0.0000 0.0000
# 4 0.0000 0.0000 0.0000 26.2357 0.0000 0.0000
# 5 0.0000 0.0000 0.0000 0.0000 5.7549 0.0000
# 6 0.0000 0.0000 0.0000 0.0000 0.0000 34.7484
#
#
#
# Elastic Compliance Matrix: (Units=1/GPa)
#
#
# Indices 1 2 3 4 5 6 
#
# 1 0.009661 -0.005839 -0.002817 0.000000 0.000000 0.000000
# 2 -0.005839 0.012097 -0.002429 0.000000 0.000000 0.000000
# 3 -0.002817 -0.002429 0.093592 0.000000 0.000000 0.000000
# 4 0.000000 0.000000 0.000000 0.038116 0.000000 0.000000
# 5 0.000000 0.000000 0.000000 0.000000 0.173765 0.000000
# 6 0.000000 0.000000 0.000000 0.000000 0.000000 0.028778
#
#
# Mechanical properties :
#
#
# Convention : Reuss Voigt Hill
#
# Bulk Modulus (GPa) = 10.73196 50.09999 30.41597
# Shear Modulus (GPa) = 12.21779 26.33445 19.27612
#
# Velocity S-wave (km/s) = 2.41954 3.55221 3.03911
# Velocity P-wave (km/s) = 3.59831 6.38982 5.18545
#
# Compressibility (1/GPa) = 0.09317963
#
# Stress axis : x y z
#
# Youngs Moduli (GPa) = 103.50580 82.66440 10.68472
#
# Poissons Ratio (x) = 0.48267 0.03010
# Poissons Ratio (y) = 0.60436 0.02596
# Poissons Ratio (z) = 0.29158 0.20081
#
# Static dielectric constant tensor:
#      x y z
#    x 1.767090 0.000000 0.000000 
#    y 0.000000 1.754940 0.000000 
#    z 0.000000 0.000000 1.748250 
# 
# From -- ./inp_files/9921.got.cif
#   From: 2010.05.17/outbox.cif.g08.bks.cpg/sg58_5_cif.got.tgz:9921.got - 2010.06.03 14:20:14.
