data_PCOD9442607
_publ_section_title
;
Structure prediction by ZEFSAII (Michael W. Deem and Ramdas Pophale) SiO2 
 PCOD9442607
Probable space group: P N N M
;
_chemical_formula_sum "Si O2"
_cell_formula_units_Z 40
_cell_length_a 16.834953
_cell_length_b 7.350529
_cell_length_c 16.358280
_cell_angle_alpha 90.000000
_cell_angle_beta 90.000000
_cell_angle_gamma 90.000000
_cell_volume 2024.268613
_symmetry_space_group_name_H-M "P N N M"
_symmetry_group_IT_number 58
_symmetry_cell_setting 'orthorhombic'
loop_
_space_group_symop_operation_xyz
x,y,z
-x,-y,z
1/2+x,1/2-y,1/2-z
1/2-x,1/2+y,1/2-z
-x,-y,-z
x,y,-z
1/2-x,1/2+y,1/2+z
1/2+x,1/2-y,1/2+z
loop_
_atom_site_type_symbol
_atom_site_label
_atom_site_fract_x
_atom_site_fract_y
_atom_site_fract_z
Si Si1 0.022344 0.291297 0.822891
Si Si2 0.321165 0.695596 0.592050
Si Si3 0.416425 0.557048 0.831120
Si Si4 0.244937 0.080010 0.406516
Si Si5 0.353614 0.346522 0.312195
O O1 0.091117 0.274413 0.889570
O O2 0.057998 0.197762 0.740848
O O3 0.000000 0.500000 0.807716
O O4 0.941761 0.187822 0.848884
O O5 0.315609 0.626430 0.500000
O O6 0.312124 0.527136 0.652820
O O7 0.262502 0.865174 0.601395
O O8 0.500000 0.500000 0.870554
O O9 0.346992 0.624228 0.889427
O O10 0.376169 0.388693 0.781316
O O11 0.267025 0.130989 0.500000
O O12 0.298421 0.181615 0.339223
#
# Coordination Sequence:
#
# PCOD9442607 Si02
#       5
#     8   8   8   8   8
#     4  10  19  37  59  86 116 154 196 235 291 354
#     4  10  21  35  54  86 122 152 186 235 295 353
#     4   9  22  40  59  86 115 155 199 242 289 338
#     4  11  23  38  60  88 118 156 196 242 295 344
#     4  10  21  36  60  85 118 152 196 243 287 348
#
# _framework density 19.760223
#
# number of rings (size 3 to 8) (size 9 to 14) (size 15 to 20)
#    0.000    2.000    2.000    2.400    5.600    3.200 
#    3.600    0.000    0.000    0.600    0.000    0.000 
#    0.000    0.000    0.000    0.000    0.000    0.000 
#
# Total GULP energy -222981.921161 kJ/mol
# GULP energy per Si atom -5574.548029 kJ/mol
# Density = 1.971525 g / cm^3
# Si number density = 19.760223 Si / 1000 Ang^3
#
#
#
# Elastic Constant Matrix: (Units=GPa)
#
#
# Indices 1 2 3 4 5 6 
#
# 1 81.5264 1.0423 21.5329 0.0000 0.0000 0.0000
# 2 1.0423 54.8260 4.8676 0.0000 0.0000 0.0000
# 3 21.5329 4.8676 21.8136 0.0000 0.0000 0.0000
# 4 0.0000 0.0000 0.0000 7.4009 0.0000 0.0000
# 5 0.0000 0.0000 0.0000 0.0000 11.8885 0.0000
# 6 0.0000 0.0000 0.0000 0.0000 0.0000 17.0239
#
#
#
# Elastic Compliance Matrix: (Units=1/GPa)
#
#
# Indices 1 2 3 4 5 6 
#
# 1 0.016665 0.001167 -0.016711 0.000000 0.000000 0.000000
# 2 0.001167 0.018690 -0.005322 0.000000 0.000000 0.000000
# 3 -0.016711 -0.005322 0.063526 0.000000 0.000000 0.000000
# 4 0.000000 0.000000 0.000000 0.135119 0.000000 0.000000
# 5 0.000000 0.000000 0.000000 0.000000 0.084115 0.000000
# 6 0.000000 0.000000 0.000000 0.000000 0.000000 0.058741
#
#
# Mechanical properties :
#
#
# Convention : Reuss Voigt Hill
#
# Bulk Modulus (GPa) = 17.49830 23.67239 20.58534
# Shear Modulus (GPa) = 11.42498 15.97754 13.70126
#
# Velocity S-wave (km/s) = 2.40715 2.84662 2.63606
# Velocity P-wave (km/s) = 4.07435 4.77600 4.43906
#
# Compressibility (1/GPa) = 0.05714842
#
# Stress axis : x y z
#
# Youngs Moduli (GPa) = 60.00714 53.50489 15.74154
#
# Poissons Ratio (x) = -0.06243 0.26305
# Poissons Ratio (y) = -0.07002 0.08378
# Poissons Ratio (z) = 1.00276 0.28477
#
# Static dielectric constant tensor:
#      x y z
#    x 1.720390 0.000000 0.000000 
#    y 0.000000 1.725140 0.000000 
#    z 0.000000 0.000000 1.698900 
# 
# From -- ./inp_files/25116.got.cif
#   From: 2010.05.17/outbox.cif.g08.bks.cpg/sg58_13_cif.got.tgz:25116.got - 2010.06.03 14:20:14.
