data_PCOD9442493
_publ_section_title
;
Structure prediction by ZEFSAII (Michael W. Deem and Ramdas Pophale) SiO2 
 PCOD9442493
Probable space group: P N N M
;
_chemical_formula_sum "Si O2"
_cell_formula_units_Z 64
_cell_length_a 14.762261
_cell_length_b 12.234472
_cell_length_c 19.667836
_cell_angle_alpha 90.000000
_cell_angle_beta 90.000000
_cell_angle_gamma 90.000000
_cell_volume 3552.177746
_symmetry_space_group_name_H-M "P N N M"
_symmetry_group_IT_number 58
_symmetry_cell_setting 'orthorhombic'
loop_
_space_group_symop_operation_xyz
x,y,z
-x,-y,z
1/2+x,1/2-y,1/2-z
1/2-x,1/2+y,1/2-z
-x,-y,-z
x,y,-z
1/2-x,1/2+y,1/2+z
1/2+x,1/2-y,1/2+z
loop_
_atom_site_type_symbol
_atom_site_label
_atom_site_fract_x
_atom_site_fract_y
_atom_site_fract_z
Si Si1 0.893971 0.985107 0.189374
Si Si2 0.878512 0.432550 0.388892
Si Si3 0.314649 0.836753 0.314829
Si Si4 0.574194 0.169782 0.923395
Si Si5 0.398865 0.049208 0.274336
Si Si6 0.691952 0.329112 0.577336
Si Si7 0.927560 0.803807 0.290079
Si Si8 0.368793 0.289133 0.258938
O O1 0.853496 0.913844 0.129395
O O2 0.887055 0.917124 0.260545
O O3 0.853018 0.105175 0.194453
O O4 0.000000 0.000000 0.176884
O O5 0.869836 0.557088 0.414856
O O6 0.882240 0.442996 0.307041
O O7 0.797495 0.359730 0.416676
O O8 0.972241 0.376155 0.411289
O O9 0.327948 0.788691 0.389657
O O10 0.388329 0.784916 0.263078
O O11 0.218123 0.790766 0.289573
O O12 0.328313 0.965356 0.307254
O O13 0.594188 0.258407 0.864776
O O14 0.583549 0.211608 0.000000
O O15 0.382974 0.174121 0.296705
O O16 0.500000 0.000000 0.285186
O O17 0.661713 0.338366 0.500000
O O18 0.036396 0.808819 0.280781
#
# Coordination Sequence:
#
# PCOD9442493 Si02
#       8
#     8   8   8   8   8   8   8   8
#     4   9  22  37  57  79 105 146 190 235 287 324
#     4  11  17  32  48  84 119 147 181 223 277 338
#     4  11  21  33  58  84 109 149 189 228 288 331
#     4  11  19  29  52  82 120 155 179 218 277 338
#     4  12  19  35  61  86 116 146 190 239 280 336
#     4  11  22  36  54  79 112 144 188 236 283 339
#     4  10  19  36  52  83 115 145 185 231 274 338
#     4  11  20  36  57  84 117 141 185 241 277 335
#
# _framework density 18.017116999999999
#
# number of rings (size 3 to 8) (size 9 to 14) (size 15 to 20)
#    0.000    1.250    6.250    2.250    1.750    0.250 
#    0.000    0.000    0.000    5.250    0.000    0.000 
#    0.000    0.000    0.000    0.000    0.000    0.000 
#
# Total GULP energy -356966.747688 kJ/mol
# GULP energy per Si atom -5577.605433 kJ/mol
# Density = 1.797611 g / cm^3
# Si number density = 18.017117 Si / 1000 Ang^3
#
#
#
# Elastic Constant Matrix: (Units=GPa)
#
#
# Indices 1 2 3 4 5 6 
#
# 1 37.3952 18.4278 20.6404 0.0000 0.0000 0.0000
# 2 18.4278 130.5326 41.7433 0.0000 0.0000 0.0000
# 3 20.6404 41.7433 106.8985 0.0000 0.0000 0.0000
# 4 0.0000 0.0000 0.0000 17.0999 0.0000 0.0000
# 5 0.0000 0.0000 0.0000 0.0000 7.2278 0.0000
# 6 0.0000 0.0000 0.0000 0.0000 0.0000 22.0652
#
#
#
# Elastic Compliance Matrix: (Units=1/GPa)
#
#
# Indices 1 2 3 4 5 6 
#
# 1 0.030799 -0.002795 -0.004855 0.000000 0.000000 0.000000
# 2 -0.002795 0.009008 -0.002978 0.000000 0.000000 0.000000
# 3 -0.004855 -0.002978 0.011455 0.000000 0.000000 0.000000
# 4 0.000000 0.000000 0.000000 0.058480 0.000000 0.000000
# 5 0.000000 0.000000 0.000000 0.000000 0.138354 0.000000
# 6 0.000000 0.000000 0.000000 0.000000 0.000000 0.045320
#
#
# Mechanical properties :
#
#
# Convention : Reuss Voigt Hill
#
# Bulk Modulus (GPa) = 33.32787 48.49435 40.91111
# Shear Modulus (GPa) = 15.40007 22.21291 18.80649
#
# Velocity S-wave (km/s) = 2.92678 3.51505 3.23431
# Velocity P-wave (km/s) = 5.47352 6.59152 6.05837
#
# Compressibility (1/GPa) = 0.03000491
#
# Stress axis : x y z
#
# Youngs Moduli (GPa) = 32.46890 111.01470 87.29869
#
# Poissons Ratio (x) = 0.31032 0.42385
# Poissons Ratio (y) = 0.09076 0.25996
# Poissons Ratio (z) = 0.15764 0.33058
#
# Static dielectric constant tensor:
#      x y z
#    x 1.650650 0.000000 0.000000 
#    y 0.000000 1.678660 0.000000 
#    z 0.000000 0.000000 1.608150 
# 
# From -- ./inp_files/26987.got.cif
#   From: 2010.05.17/outbox.cif.g08.bks.cpg/sg58_14_cif.got.tgz:26987.got - 2010.06.03 14:20:14.
