data_PCOD9442677
_publ_section_title
;
Structure prediction by ZEFSAII (Michael W. Deem and Ramdas Pophale) SiO2 
 PCOD9442677
Probable space group: P N N M
;
_chemical_formula_sum "Si O2"
_cell_formula_units_Z 30
_cell_length_a 13.598671
_cell_length_b 19.359536
_cell_length_c 5.196077
_cell_angle_alpha 90.000000
_cell_angle_beta 90.000000
_cell_angle_gamma 90.000000
_cell_volume 1367.939812
_symmetry_space_group_name_H-M "P N N M"
_symmetry_group_IT_number 58
_symmetry_cell_setting 'orthorhombic'
loop_
_space_group_symop_operation_xyz
x,y,z
-x,-y,z
1/2+x,1/2-y,1/2-z
1/2-x,1/2+y,1/2-z
-x,-y,-z
x,y,-z
1/2-x,1/2+y,1/2+z
1/2+x,1/2-y,1/2+z
loop_
_atom_site_type_symbol
_atom_site_label
_atom_site_fract_x
_atom_site_fract_y
_atom_site_fract_z
Si Si1 0.559069 0.113135 0.500000
Si Si2 0.500371 0.412511 0.500000
Si Si3 0.000000 0.000000 0.500000
Si Si4 0.772663 0.959622 0.000000
Si Si5 0.692011 0.104672 0.000000
Si Si6 0.834570 0.400037 0.000000
Si Si7 0.219018 0.235101 0.500000
Si Si8 0.083995 0.226364 0.000000
O O1 0.622667 0.096211 0.248978
O O2 0.449771 0.083344 0.500000
O O3 0.545727 0.195886 0.500000
O O4 0.466935 0.445547 0.231091
O O5 0.618346 0.429357 0.500000
O O6 0.498476 0.330067 0.500000
O O7 0.717004 0.932359 0.251091
O O8 0.768688 0.042479 0.000000
O O9 0.736477 0.182184 0.000000
O O10 0.809430 0.318081 0.000000
O O11 0.152607 0.218764 0.250662
#
# Coordination Sequence:
#
# PCOD9442677 Si02
#       8
#     4   4   2   4   4   4   4   4
#     4  10  23  39  61  90 127 157 209 246 320 350
#     4  11  20  41  61  87 118 164 205 244 305 366
#     4  10  24  36  58  84 124 146 198 260 300 352
#     4  12  24  38  68  89 125 164 207 248 307 370
#     4  10  23  41  59  88 126 168 190 258 315 365
#     4  12  22  38  63  95 116 160 214 256 286 378
#     4  10  19  38  61  84 113 159 206 246 296 361
#     4  10  19  38  66  80 114 165 200 246 298 366
#
# _framework density 21.930790999999999
#
# number of rings (size 3 to 8) (size 9 to 14) (size 15 to 20)
#    0.000    1.333    2.667    3.200    0.000    3.200 
#    4.800    0.000    0.000    0.000    0.000    0.000 
#    0.000    0.000    0.000    0.000    0.000    0.000 
#
# Total GULP energy -167249.010060 kJ/mol
# GULP energy per Si atom -5574.967002 kJ/mol
# Density = 2.188088 g / cm^3
# Si number density = 21.930791 Si / 1000 Ang^3
#
#
#
# Elastic Constant Matrix: (Units=GPa)
#
#
# Indices 1 2 3 4 5 6 
#
# 1 69.8144 16.4637 43.9268 0.0000 0.0000 0.0000
# 2 16.4637 83.2730 30.3244 0.0000 0.0000 0.0000
# 3 43.9268 30.3244 227.7775 0.0000 0.0000 0.0000
# 4 0.0000 0.0000 0.0000 407.4232 0.0000 0.0000
# 5 0.0000 0.0000 0.0000 0.0000 11.7105 0.0000
# 6 0.0000 0.0000 0.0000 0.0000 0.0000 25.0813
#
#
#
# Elastic Compliance Matrix: (Units=1/GPa)
#
#
# Indices 1 2 3 4 5 6 
#
# 1 0.016689 -0.002236 -0.002921 0.000000 0.000000 0.000000
# 2 -0.002236 0.012920 -0.001289 0.000000 0.000000 0.000000
# 3 -0.002921 -0.001289 0.005125 0.000000 0.000000 0.000000
# 4 0.000000 0.000000 0.000000 0.002454 0.000000 0.000000
# 5 0.000000 0.000000 0.000000 0.000000 0.085394 0.000000
# 6 0.000000 0.000000 0.000000 0.000000 0.000000 0.039870
#
#
# Mechanical properties :
#
#
# Convention : Reuss Voigt Hill
#
# Bulk Modulus (GPa) = 45.78151 62.47717 54.12934
# Shear Modulus (GPa) = 27.37862 108.18634 67.78248
#
# Velocity S-wave (km/s) = 3.53712 7.03121 5.56548
# Velocity P-wave (km/s) = 6.13208 9.71943 8.12618
#
# Compressibility (1/GPa) = 0.02184288
#
# Stress axis : x y z
#
# Youngs Moduli (GPa) = 59.92093 77.39876 195.11801
#
# Poissons Ratio (x) = 0.17305 0.56989
# Poissons Ratio (y) = 0.13398 0.25149
# Poissons Ratio (z) = 0.17501 0.09976
#
# Static dielectric constant tensor:
#      x y z
#    x 1.799000 0.000000 0.000000 
#    y 0.000000 1.857080 0.000000 
#    z 0.000000 0.000000 1.724550 
# 
# From -- ./inp_files/658.got.cif
#   From: 2010.05.17/outbox.cif.g08.bks.cpg/sg58_1_cif.got.tgz:658.got - 2010.06.03 14:20:14.
