data_PCOD9442577
_publ_section_title
;
Structure prediction by ZEFSAII (Michael W. Deem and Ramdas Pophale) SiO2 
 PCOD9442577
Probable space group: P N N M
;
_chemical_formula_sum "Si O2"
_cell_formula_units_Z 64
_cell_length_a 31.503644
_cell_length_b 12.343369
_cell_length_c 7.731080
_cell_angle_alpha 90.000000
_cell_angle_beta 90.000000
_cell_angle_gamma 90.000000
_cell_volume 3006.316294
_symmetry_space_group_name_H-M "P N N M"
_symmetry_group_IT_number 58
_symmetry_cell_setting 'orthorhombic'
loop_
_space_group_symop_operation_xyz
x,y,z
-x,-y,z
1/2+x,1/2-y,1/2-z
1/2-x,1/2+y,1/2-z
-x,-y,-z
x,y,-z
1/2-x,1/2+y,1/2+z
1/2+x,1/2-y,1/2+z
loop_
_atom_site_type_symbol
_atom_site_label
_atom_site_fract_x
_atom_site_fract_y
_atom_site_fract_z
Si Si1 0.196078 0.515494 0.796734
Si Si2 0.048751 0.508916 0.709014
Si Si3 0.041211 0.059474 0.705709
Si Si4 0.878275 0.326509 0.207162
Si Si5 0.209581 0.051974 0.290381
Si Si6 0.077636 0.275449 0.289417
Si Si7 0.672635 0.226031 0.791717
Si Si8 0.124165 0.921082 0.205241
O O1 0.160508 0.598016 0.724468
O O2 0.243894 0.519622 0.724922
O O3 0.181189 0.392362 0.779071
O O4 0.199593 0.541878 0.000000
O O5 0.048253 0.509570 0.500000
O O6 0.077485 0.610861 0.760409
O O7 0.070000 0.397137 0.770841
O O8 0.000000 0.500000 0.767317
O O9 0.034538 0.071241 0.500000
O O10 0.084610 0.991702 0.726674
O O11 0.046926 0.181313 0.774940
O O12 0.000000 0.000000 0.779125
O O13 0.877054 0.202972 0.273403
O O14 0.873313 0.320638 0.000000
O O15 0.209407 0.049692 0.500000
O O16 0.202163 0.176060 0.234371
O O17 0.169647 0.977646 0.238835
O O18 0.074880 0.278909 0.500000
O O19 0.125017 0.240818 0.244628
O O20 0.675141 0.217987 0.000000
O O21 0.118367 0.916350 0.000000
#
# Coordination Sequence:
#
# PCOD9442577 Si02
#       8
#     8   8   8   8   8   8   8   8
#     4  10  22  39  59  84 114 150 193 236 284 344
#     4  10  21  36  59  88 115 146 191 242 282 329
#     4  10  21  38  63  88 115 154 193 233 287 345
#     4  10  23  41  57  80 119 159 189 228 291 350
#     4  10  22  40  61  84 114 153 193 238 289 344
#     4   9  17  34  56  84 113 142 186 235 282 330
#     4  10  19  36  62  84 111 148 189 238 289 337
#     4  11  24  40  59  84 119 156 193 240 288 340
#
# _framework density 21.288511
#
# number of rings (size 3 to 8) (size 9 to 14) (size 15 to 20)
#    0.000    2.000    2.500    0.375    3.500    2.500 
#    0.000    0.625    0.000    0.000    0.000    0.000 
#    0.000    0.000    0.000    0.000    0.000    0.000 
#
# Total GULP energy -357222.168572 kJ/mol
# GULP energy per Si atom -5581.596384 kJ/mol
# Density = 2.124006 g / cm^3
# Si number density = 21.288511 Si / 1000 Ang^3
#
#
#
# Elastic Constant Matrix: (Units=GPa)
#
#
# Indices 1 2 3 4 5 6 
#
# 1 77.1779 6.3415 -12.1062 0.0000 0.0000 0.0000
# 2 6.3415 98.8652 -13.0738 0.0000 0.0000 0.0000
# 3 -12.1062 -13.0738 25.5952 0.0000 0.0000 0.0000
# 4 0.0000 0.0000 0.0000 20.9812 0.0000 0.0000
# 5 0.0000 0.0000 0.0000 0.0000 9.9247 0.0000
# 6 0.0000 0.0000 0.0000 0.0000 0.0000 33.2483
#
#
#
# Elastic Compliance Matrix: (Units=1/GPa)
#
#
# Indices 1 2 3 4 5 6 
#
# 1 0.013996 -0.000024 0.006607 0.000000 0.000000 0.000000
# 2 -0.000024 0.010848 0.005529 0.000000 0.000000 0.000000
# 3 0.006607 0.005529 0.045019 0.000000 0.000000 0.000000
# 4 0.000000 0.000000 0.000000 0.047662 0.000000 0.000000
# 5 0.000000 0.000000 0.000000 0.000000 0.100759 0.000000
# 6 0.000000 0.000000 0.000000 0.000000 0.000000 0.030077
#
#
# Mechanical properties :
#
#
# Convention : Reuss Voigt Hill
#
# Bulk Modulus (GPa) = 10.62831 18.21794 14.42312
# Shear Modulus (GPa) = 19.56973 27.52928 23.54950
#
# Velocity S-wave (km/s) = 3.03522 3.59994 3.32958
# Velocity P-wave (km/s) = 4.15774 5.08485 4.64448
#
# Compressibility (1/GPa) = 0.09408836
#
# Stress axis : x y z
#
# Youngs Moduli (GPa) = 71.45153 92.18693 22.21263
#
# Poissons Ratio (x) = 0.00221 -0.14677
# Poissons Ratio (y) = 0.00171 -0.12282
# Poissons Ratio (z) = -0.47211 -0.50974
#
# Static dielectric constant tensor:
#      x y z
#    x 1.784580 0.000000 0.000000 
#    y 0.000000 1.757220 0.000000 
#    z 0.000000 0.000000 1.798470 
# 
# From -- ./inp_files/4751.got.cif
#   From: 2010.05.17/outbox.cif.g08.bks.cpg/sg58_3_cif.got.tgz:4751.got - 2010.06.03 14:20:14.
