data_PCOD9442408
_publ_section_title
;
Structure prediction by ZEFSAII (Michael W. Deem and Ramdas Pophale) SiO2 
 PCOD9442408
Probable space group: P N N M
;
_chemical_formula_sum "Si O2"
_cell_formula_units_Z 48
_cell_length_a 14.568975
_cell_length_b 20.704123
_cell_length_c 8.378713
_cell_angle_alpha 90.000000
_cell_angle_beta 90.000000
_cell_angle_gamma 90.000000
_cell_volume 2527.336978
_symmetry_space_group_name_H-M "P N N M"
_symmetry_group_IT_number 58
_symmetry_cell_setting 'orthorhombic'
loop_
_space_group_symop_operation_xyz
x,y,z
-x,-y,z
1/2+x,1/2-y,1/2-z
1/2-x,1/2+y,1/2-z
-x,-y,-z
x,y,-z
1/2-x,1/2+y,1/2+z
1/2+x,1/2-y,1/2+z
loop_
_atom_site_type_symbol
_atom_site_label
_atom_site_fract_x
_atom_site_fract_y
_atom_site_fract_z
Si Si1 0.748972 0.610796 0.190725
Si Si2 0.562689 0.317726 0.188360
Si Si3 0.553294 0.563157 0.310885
Si Si4 0.952368 0.303786 0.192502
Si Si5 0.251010 0.240976 0.692093
Si Si6 0.053057 0.436286 0.805621
O O1 0.654396 0.577023 0.242331
O O2 0.750086 0.685575 0.245872
O O3 0.841951 0.575144 0.248890
O O4 0.751778 0.611249 0.000000
O O5 0.510468 0.375326 0.275005
O O6 0.506596 0.252426 0.218968
O O7 0.664605 0.300991 0.248218
O O8 0.565401 0.332548 0.000000
O O9 0.500000 0.500000 0.247546
O O10 0.564349 0.555854 0.500000
O O11 0.845914 0.294081 0.231882
O O12 0.994492 0.372760 0.235065
O O13 0.962999 0.295268 0.000000
O O14 0.244613 0.245216 0.500000
O O15 0.000000 0.500000 0.748442
O O16 0.056132 0.439949 0.000000
#
# Coordination Sequence:
#
# PCOD9442408 Si02
#       6
#     8   8   8   8   8   8
#     4  11  21  35  61  91 116 152 198 246 295 352
#     4  11  22  36  58  90 119 150 198 249 291 342
#     4  11  25  43  61  83 118 162 200 243 305 365
#     4  10  19  35  58  83 114 157 196 234 290 350
#     4  10  21  35  57  87 121 158 195 240 293 349
#     4   9  19  35  57  87 120 153 193 237 290 352
#
# _framework density 18.992322999999999
#
# number of rings (size 3 to 8) (size 9 to 14) (size 15 to 20)
#    0.000    1.667    3.333    1.500    0.000    3.333 
#    0.000    3.333    0.000    4.500    0.000    0.000 
#    0.000    0.000    0.000    0.000    0.000    0.000 
#
# Total GULP energy -268021.734817 kJ/mol
# GULP energy per Si atom -5583.786142 kJ/mol
# Density = 1.894910 g / cm^3
# Si number density = 18.992323 Si / 1000 Ang^3
#
#
#
# Elastic Constant Matrix: (Units=GPa)
#
#
# Indices 1 2 3 4 5 6 
#
# 1 178.4497 63.4162 19.9058 0.0000 0.0000 0.0000
# 2 63.4162 117.7851 4.6127 0.0000 0.0000 0.0000
# 3 19.9058 4.6127 9.6113 0.0000 0.0000 0.0000
# 4 0.0000 0.0000 0.0000 -34.2938 0.0000 0.0000
# 5 0.0000 0.0000 0.0000 0.0000 -13.7239 0.0000
# 6 0.0000 0.0000 0.0000 0.0000 0.0000 27.6574
#
#
#
# Elastic Compliance Matrix: (Units=1/GPa)
#
#
# Indices 1 2 3 4 5 6 
#
# 1 0.008919 -0.004157 -0.016477 0.000000 0.000000 0.000000
# 2 -0.004157 0.010590 0.003527 0.000000 0.000000 0.000000
# 3 -0.016477 0.003527 0.136477 0.000000 0.000000 0.000000
# 4 0.000000 0.000000 0.000000 -0.029160 0.000000 0.000000
# 5 0.000000 0.000000 0.000000 0.000000 -0.072865 0.000000
# 6 0.000000 0.000000 0.000000 0.000000 0.000000 0.036157
#
#
# Mechanical properties :
#
#
# Convention : Reuss Voigt Hill
#
# Bulk Modulus (GPa) = 8.21207 53.52394 30.86801
# Shear Modulus (GPa) = 30.31716 10.45536 20.38626
#
# Velocity S-wave (km/s) = 3.99969 2.34883 3.27982
# Velocity P-wave (km/s) = 5.06589 5.96649 5.53454
#
# Compressibility (1/GPa) = 0.12177193
#
# Stress axis : x y z
#
# Youngs Moduli (GPa) = 112.11983 94.42902 7.32722
#
# Poissons Ratio (x) = 0.39252 0.12073
# Poissons Ratio (y) = 0.46606 -0.02584
# Poissons Ratio (z) = 1.84742 -0.33302
#
# Static dielectric constant tensor:
#      x y z
#    x 1.393350 0.000000 0.000000 
#    y 0.000000 1.623480 0.000000 
#    z 0.000000 0.000000 1.654330 
# 
# From -- ./inp_files/5760.got.cif
#   From: 2010.05.17/outbox.cif.g08.bks.cpg/sg58_3_cif.got.tgz:5760.got - 2010.06.03 14:20:14.
