data_PCOD9442724
_publ_section_title
;
Structure prediction by ZEFSAII (Michael W. Deem and Ramdas Pophale) SiO2 
 PCOD9442724
Probable space group: P N N M
;
_chemical_formula_sum "Si O2"
_cell_formula_units_Z 48
_cell_length_a 23.170718
_cell_length_b 12.485898
_cell_length_c 7.265158
_cell_angle_alpha 90.000000
_cell_angle_beta 90.000000
_cell_angle_gamma 90.000000
_cell_volume 2101.862675
_symmetry_space_group_name_H-M "P N N M"
_symmetry_group_IT_number 58
_symmetry_cell_setting 'orthorhombic'
loop_
_space_group_symop_operation_xyz
x,y,z
-x,-y,z
1/2+x,1/2-y,1/2-z
1/2-x,1/2+y,1/2-z
-x,-y,-z
x,y,-z
1/2-x,1/2+y,1/2+z
1/2+x,1/2-y,1/2+z
loop_
_atom_site_type_symbol
_atom_site_label
_atom_site_fract_x
_atom_site_fract_y
_atom_site_fract_z
Si Si1 0.349447 0.327467 0.776099
Si Si2 0.135200 0.483984 0.723381
Si Si3 0.638875 0.433077 0.790087
Si Si4 0.235101 0.644424 0.722636
Si Si5 0.078628 0.272547 0.725390
Si Si6 0.049322 0.666504 0.276801
O O1 0.352792 0.448877 0.709065
O O2 0.294873 0.255421 0.718042
O O3 0.406554 0.260971 0.725430
O O4 0.346714 0.328952 0.000000
O O5 0.136152 0.484535 0.500000
O O6 0.192372 0.547642 0.781008
O O7 0.124882 0.362681 0.782241
O O8 0.080158 0.556303 0.779614
O O9 0.701074 0.376390 0.790845
O O10 0.595398 0.345653 0.709768
O O11 0.619438 0.451392 0.000000
O O12 0.236871 0.643971 0.500000
O O13 0.079117 0.270314 0.500000
O O14 0.015333 0.310676 0.783789
O O15 0.047635 0.663380 0.500000
#
# Coordination Sequence:
#
# PCOD9442724 Si02
#       6
#     8   8   8   8   8   8
#     4   8  16  30  44  62  90 122 150 179 224 276
#     4   8  14  25  42  64  87 114 150 189 222 258
#     4  10  20  30  43  68  97 118 145 190 229 259
#     4   9  18  32  48  62  86 125 159 181 214 270
#     4   9  16  24  39  67  94 113 142 188 231 260
#     4   8  13  24  42  62  89 121 145 175 227 278
#
# _framework density 22.836887000000001
#
# number of rings (size 3 to 8) (size 9 to 14) (size 15 to 20)
#    0.000    3.333    0.000    2.500    2.333    2.667 
#    0.000    3.333    0.000    0.000    0.000    7.000 
#    0.000    6.667    0.000    0.000    0.000    0.000 
#
# Total GULP energy -268028.920452 kJ/mol
# GULP energy per Si atom -5583.935843 kJ/mol
# Density = 2.278491 g / cm^3
# Si number density = 22.836887 Si / 1000 Ang^3
#
#
#
# Elastic Constant Matrix: (Units=GPa)
#
#
# Indices 1 2 3 4 5 6 
#
# 1 29.7789 -6.3650 -11.5193 0.0000 0.0000 0.0000
# 2 -6.3650 125.3591 -0.8308 0.0000 0.0000 0.0000
# 3 -11.5193 -0.8308 101.3786 0.0000 0.0000 0.0000
# 4 0.0000 0.0000 0.0000 -16.3886 0.0000 0.0000
# 5 0.0000 0.0000 0.0000 0.0000 3.1941 0.0000
# 6 0.0000 0.0000 0.0000 0.0000 0.0000 6.8006
#
#
#
# Elastic Compliance Matrix: (Units=1/GPa)
#
#
# Indices 1 2 3 4 5 6 
#
# 1 0.035540 0.001831 0.004053 0.000000 0.000000 0.000000
# 2 0.001831 0.008072 0.000274 0.000000 0.000000 0.000000
# 3 0.004053 0.000274 0.010327 0.000000 0.000000 0.000000
# 4 0.000000 0.000000 0.000000 -0.061018 0.000000 0.000000
# 5 0.000000 0.000000 0.000000 0.000000 0.313073 0.000000
# 6 0.000000 0.000000 0.000000 0.000000 0.000000 0.147045
#
#
# Mechanical properties :
#
#
# Convention : Reuss Voigt Hill
#
# Bulk Modulus (GPa) = 15.09280 24.34294 19.71787
# Shear Modulus (GPa) = 10.80365 17.07001 13.93683
#
# Velocity S-wave (km/s) = 2.17740 2.73697 2.47306
# Velocity P-wave (km/s) = 3.59788 4.54649 4.09971
#
# Compressibility (1/GPa) = 0.06625677
#
# Stress axis : x y z
#
# Youngs Moduli (GPa) = 28.13717 123.88676 96.83519
#
# Poissons Ratio (x) = -0.22688 -0.39250
# Poissons Ratio (y) = -0.05153 -0.02656
# Poissons Ratio (z) = -0.11405 -0.03398
#
# Static dielectric constant tensor:
#      x y z
#    x 1.787580 0.000000 0.000000 
#    y 0.000000 1.838920 0.000000 
#    z 0.000000 0.000000 1.965630 
# 
# From -- ./inp_files/4180.got.cif
#   From: 2010.05.17/outbox.cif.g08.bks.cpg/sg58_3_cif.got.tgz:4180.got - 2010.06.03 14:20:14.
