data_PCOD9442392
_publ_section_title
;
Structure prediction by ZEFSAII (Michael W. Deem and Ramdas Pophale) SiO2 
 PCOD9442392
Probable space group: P N N M
;
_chemical_formula_sum "Si O2"
_cell_formula_units_Z 64
_cell_length_a 19.179362
_cell_length_b 20.371946
_cell_length_c 7.493319
_cell_angle_alpha 90.000000
_cell_angle_beta 90.000000
_cell_angle_gamma 90.000000
_cell_volume 2927.796546
_symmetry_space_group_name_H-M "P N N M"
_symmetry_group_IT_number 58
_symmetry_cell_setting 'orthorhombic'
loop_
_space_group_symop_operation_xyz
x,y,z
-x,-y,z
1/2+x,1/2-y,1/2-z
1/2-x,1/2+y,1/2-z
-x,-y,-z
x,y,-z
1/2-x,1/2+y,1/2+z
1/2+x,1/2-y,1/2+z
loop_
_atom_site_type_symbol
_atom_site_label
_atom_site_fract_x
_atom_site_fract_y
_atom_site_fract_z
Si Si1 0.326720 0.375711 0.784867
Si Si2 0.647949 0.771618 0.218154
Si Si3 0.559385 0.051718 0.218644
Si Si4 0.524054 0.571538 0.216070
Si Si5 0.505532 0.190890 0.206843
Si Si6 0.287089 0.983365 0.788990
Si Si7 0.764651 0.876428 0.218311
Si Si8 0.589559 0.317773 0.708071
O O1 0.326787 0.300337 0.723012
O O2 0.398546 0.409558 0.722967
O O3 0.261537 0.420169 0.733989
O O4 0.328743 0.374347 0.000000
O O5 0.569304 0.786397 0.281497
O O6 0.701326 0.828678 0.269420
O O7 0.646941 0.769756 0.000000
O O8 0.537705 0.124176 0.282023
O O9 0.635605 0.029887 0.282557
O O10 0.500000 0.000000 0.268619
O O11 0.562312 0.052851 0.000000
O O12 0.500000 0.500000 0.278001
O O13 0.469271 0.626745 0.271620
O O14 0.524830 0.570976 0.000000
O O15 0.559475 0.250790 0.213048
O O16 0.490737 0.175950 0.000000
O O17 0.250397 0.049510 0.718978
O O18 0.295331 0.994705 0.000000
O O19 0.837970 0.846350 0.280970
O O20 0.767844 0.877537 0.000000
O O21 0.600419 0.303866 0.500000
#
# Coordination Sequence:
#
# PCOD9442392 Si02
#       8
#     8   8   8   8   8   8   8   8
#     4  10  20  34  53  78 106 143 181 212 261 324
#     4   9  17  33  56  76 100 141 185 217 255 321
#     4   9  18  33  58  88 111 138 181 233 283 327
#     4  10  20  36  57  79 106 140 180 222 265 317
#     4  10  19  35  58  81 108 140 181 228 271 320
#     4  10  20  35  55  82 111 137 177 229 276 319
#     4   9  19  34  53  77 106 141 179 218 266 328
#     4  11  22  34  52  80 111 145 182 221 268 322
#
# _framework density 21.859441
#
# number of rings (size 3 to 8) (size 9 to 14) (size 15 to 20)
#    0.000    2.250    1.250    1.875    1.750    3.750 
#    0.000    0.625    0.000    6.000    0.000    0.000 
#    0.000    0.000    0.000    0.000    0.000    0.000 
#
# Total GULP energy -357663.320188 kJ/mol
# GULP energy per Si atom -5588.489378 kJ/mol
# Density = 2.180969 g / cm^3
# Si number density = 21.859441 Si / 1000 Ang^3
#
#
#
# Elastic Constant Matrix: (Units=GPa)
#
#
# Indices 1 2 3 4 5 6 
#
# 1 186.2542 84.8094 -3.0184 0.0000 0.0000 0.0000
# 2 84.8094 158.0255 -9.6898 0.0000 0.0000 0.0000
# 3 -3.0184 -9.6898 53.0093 0.0000 0.0000 0.0000
# 4 0.0000 0.0000 0.0000 189.5599 0.0000 0.0000
# 5 0.0000 0.0000 0.0000 0.0000 16.3222 0.0000
# 6 0.0000 0.0000 0.0000 0.0000 0.0000 37.1507
#
#
#
# Elastic Compliance Matrix: (Units=1/GPa)
#
#
# Indices 1 2 3 4 5 6 
#
# 1 0.007110 -0.003834 -0.000296 0.000000 0.000000 0.000000
# 2 -0.003834 0.008467 0.001329 0.000000 0.000000 0.000000
# 3 -0.000296 0.001329 0.019091 0.000000 0.000000 0.000000
# 4 0.000000 0.000000 0.000000 0.005275 0.000000 0.000000
# 5 0.000000 0.000000 0.000000 0.000000 0.061266 0.000000
# 6 0.000000 0.000000 0.000000 0.000000 0.000000 0.026917
#
#
# Mechanical properties :
#
#
# Convention : Reuss Voigt Hill
#
# Bulk Modulus (GPa) = 34.40324 60.16571 47.28447
# Shear Modulus (GPa) = 34.86339 70.28574 52.57457
#
# Velocity S-wave (km/s) = 3.99794 5.67656 4.90952
# Velocity P-wave (km/s) = 6.08966 8.39929 7.33594
#
# Compressibility (1/GPa) = 0.02906703
#
# Stress axis : x y z
#
# Youngs Moduli (GPa) = 140.64770 118.10253 52.38136
#
# Poissons Ratio (x) = 0.45280 0.01550
# Poissons Ratio (y) = 0.53923 -0.06964
# Poissons Ratio (z) = 0.04163 -0.15701
#
# Static dielectric constant tensor:
#      x y z
#    x 1.754250 0.000000 0.000000 
#    y 0.000000 1.750230 0.000000 
#    z 0.000000 0.000000 1.859440 
# 
# From -- ./inp_files/8305.got.cif
#   From: 2010.05.17/outbox.cif.g08.bks.cpg/sg58_5_cif.got.tgz:8305.got - 2010.06.03 14:20:14.
