data_PCOD9442097
_publ_section_title
;
Structure prediction by ZEFSAII (Michael W. Deem and Ramdas Pophale) SiO2 
 PCOD9442097
Probable space group: P N N M
;
_chemical_formula_sum "Si O2"
_cell_formula_units_Z 64
_cell_length_a 21.031363
_cell_length_b 9.724765
_cell_length_c 13.193308
_cell_angle_alpha 90.000000
_cell_angle_beta 90.000000
_cell_angle_gamma 90.000000
_cell_volume 2698.362147
_symmetry_space_group_name_H-M "P N N M"
_symmetry_group_IT_number 58
_symmetry_cell_setting 'orthorhombic'
loop_
_space_group_symop_operation_xyz
x,y,z
-x,-y,z
1/2+x,1/2-y,1/2-z
1/2-x,1/2+y,1/2-z
-x,-y,-z
x,y,-z
1/2-x,1/2+y,1/2+z
1/2+x,1/2-y,1/2+z
loop_
_atom_site_type_symbol
_atom_site_label
_atom_site_fract_x
_atom_site_fract_y
_atom_site_fract_z
Si Si1 0.067656 0.926808 0.665714
Si Si2 0.420019 0.085317 0.383583
Si Si3 0.648178 0.655967 0.679926
Si Si4 0.123351 0.196888 0.679028
Si Si5 0.707443 0.761988 0.116817
Si Si6 0.490991 0.150737 0.171346
Si Si7 0.781110 0.571991 0.384144
Si Si8 0.642394 0.215635 0.388494
O O1 0.081419 0.909239 0.786777
O O2 0.056551 0.768715 0.628963
O O3 0.116023 0.047600 0.628619
O O4 0.000000 0.000000 0.650121
O O5 0.445520 0.093224 0.500000
O O6 0.365759 0.201085 0.374432
O O7 0.466354 0.121844 0.288203
O O8 0.388335 0.934934 0.369580
O O9 0.674614 0.677795 0.794483
O O10 0.705059 0.580328 0.624617
O O11 0.184251 0.293444 0.659224
O O12 0.122898 0.182929 0.800140
O O13 0.060280 0.283795 0.658808
O O14 0.780985 0.714856 0.113527
O O15 0.700570 0.920731 0.153937
O O16 0.685142 0.749725 0.000000
O O17 0.500000 0.000000 0.124960
O O18 0.800423 0.571635 0.500000
O O19 0.622144 0.260528 0.500000
#
# Coordination Sequence:
#
# PCOD9442097 Si02
#       8
#     8   8   8   8   8   8   8   8
#     4   9  22  39  62  95 126 166 217 261 320 386
#     4  10  21  35  56  92 126 163 217 266 318 388
#     4  11  21  37  65  86 129 173 212 265 324 389
#     4  11  20  39  61  86 127 165 207 264 327 383
#     4  10  22  37  56  90 128 165 212 266 323 391
#     4  10  20  36  61  90 118 166 212 260 319 391
#     4  11  24  39  62  93 128 171 219 263 323 396
#     4  10  19  33  56  87 125 165 210 263 323 388
#
# _framework density 23.718091999999999
#
# number of rings (size 3 to 8) (size 9 to 14) (size 15 to 20)
#    0.000    1.750    2.500    1.875    1.750    0.750 
#    0.000    4.375    0.000   24.375    0.000    0.000 
#    0.000    0.000    0.000    0.000    0.000    0.000 
#
# Total GULP energy -356616.169520 kJ/mol
# GULP energy per Si atom -5572.127649 kJ/mol
# Density = 2.366411 g / cm^3
# Si number density = 23.718092 Si / 1000 Ang^3
#
#
#
# Elastic Constant Matrix: (Units=GPa)
#
#
# Indices 1 2 3 4 5 6 
#
# 1 40.8330 25.5840 -8.7528 0.0000 0.0000 0.0000
# 2 25.5840 127.7475 23.7132 0.0000 0.0000 0.0000
# 3 -8.7528 23.7132 58.0229 0.0000 0.0000 0.0000
# 4 0.0000 0.0000 0.0000 2.9948 0.0000 0.0000
# 5 0.0000 0.0000 0.0000 0.0000 -1.8966 0.0000
# 6 0.0000 0.0000 0.0000 0.0000 0.0000 42.5041
#
#
#
# Elastic Compliance Matrix: (Units=1/GPa)
#
#
# Indices 1 2 3 4 5 6 
#
# 1 0.030951 -0.007645 0.007793 0.000000 0.000000 0.000000
# 2 -0.007645 0.010359 -0.005387 0.000000 0.000000 0.000000
# 3 0.007793 -0.005387 0.020612 0.000000 0.000000 0.000000
# 4 0.000000 0.000000 0.000000 0.333915 0.000000 0.000000
# 5 0.000000 0.000000 0.000000 0.000000 -0.527254 0.000000
# 6 0.000000 0.000000 0.000000 0.000000 0.000000 0.023527
#
#
# Mechanical properties :
#
#
# Convention : Reuss Voigt Hill
#
# Bulk Modulus (GPa) = 19.43852 34.18801 26.81327
# Shear Modulus (GPa) = -62.29329 21.12438 -20.58445
#
# Velocity S-wave (km/s) = -5.13041 2.98760 -2.94918
# Velocity P-wave (km/s) = 5.18472 5.13290 0.51704
#
# Compressibility (1/GPa) = 0.05144424
#
# Stress axis : x y z
#
# Youngs Moduli (GPa) = 32.30946 96.53457 48.51596
#
# Poissons Ratio (x) = 0.73802 -0.37811
# Poissons Ratio (y) = 0.24701 0.26135
# Poissons Ratio (z) = -0.25180 0.52002
#
# Static dielectric constant tensor:
#      x y z
#    x 2.147760 0.000000 0.000000 
#    y 0.000000 2.007560 0.000000 
#    z 0.000000 0.000000 1.916170 
# 
# From -- ./inp_files/23554.got.cif
#   From: 2010.05.17/outbox.cif.g08.bks.cpg/sg58_12_cif.got.tgz:23554.got - 2010.06.03 14:20:14.
