data_PCOD9442229
_publ_section_title
;
Structure prediction by ZEFSAII (Michael W. Deem and Ramdas Pophale) SiO2 
 PCOD9442229
Probable space group: P N N M
;
_chemical_formula_sum "Si O2"
_cell_formula_units_Z 64
_cell_length_a 15.607010
_cell_length_b 24.735187
_cell_length_c 7.558148
_cell_angle_alpha 90.000000
_cell_angle_beta 90.000000
_cell_angle_gamma 90.000000
_cell_volume 2917.764920
_symmetry_space_group_name_H-M "P N N M"
_symmetry_group_IT_number 58
_symmetry_cell_setting 'orthorhombic'
loop_
_space_group_symop_operation_xyz
x,y,z
-x,-y,z
1/2+x,1/2-y,1/2-z
1/2-x,1/2+y,1/2-z
-x,-y,-z
x,y,-z
1/2-x,1/2+y,1/2+z
1/2+x,1/2-y,1/2+z
loop_
_atom_site_type_symbol
_atom_site_label
_atom_site_fract_x
_atom_site_fract_y
_atom_site_fract_z
Si Si1 0.242500 0.077231 0.283104
Si Si2 0.148288 0.753772 0.204029
Si Si3 0.158494 0.253551 0.210966
Si Si4 0.424234 0.642787 0.210155
Si Si5 0.255114 0.955487 0.295174
Si Si6 0.115332 0.872286 0.796151
Si Si7 0.912396 0.359316 0.216555
Si Si8 0.102323 0.373258 0.216472
O O1 0.240368 0.078346 0.500000
O O2 0.158778 0.110148 0.224085
O O3 0.329988 0.106608 0.227811
O O4 0.242424 0.015275 0.220929
O O5 0.248903 0.739703 0.208872
O O6 0.136842 0.813221 0.284409
O O7 0.098208 0.702587 0.279375
O O8 0.119467 0.758957 0.000000
O O9 0.091923 0.206058 0.252026
O O10 0.130181 0.312951 0.272129
O O11 0.169260 0.255617 0.000000
O O12 0.513479 0.622339 0.287192
O O13 0.429826 0.635883 0.000000
O O14 0.278787 0.964169 0.500000
O O15 0.168817 0.920217 0.289565
O O16 0.330724 0.918023 0.219235
O O17 0.143846 0.871961 0.000000
O O18 0.004197 0.382529 0.269192
O O19 0.910703 0.357822 0.000000
O O20 0.105110 0.372910 0.000000
#
# Coordination Sequence:
#
# PCOD9442229 Si02
#       8
#     8   8   8   8   8   8   8   8
#     4   9  19  34  56  81 109 145 192 236 278 332
#     4  10  19  34  57  80 111 149 184 222 278 339
#     4  11  20  33  55  86 117 146 182 227 280 338
#     4  11  22  38  58  83 113 151 189 231 285 341
#     4  10  20  37  57  82 111 146 191 239 282 331
#     4  11  23  38  58  85 113 149 188 235 289 339
#     4   9  16  31  54  82 111 140 178 226 274 328
#     4   9  18  31  53  83 116 145 176 227 283 329
#
# _framework density 21.934597
#
# number of rings (size 3 to 8) (size 9 to 14) (size 15 to 20)
#    0.000    2.000    2.500    1.875    0.000    3.500 
#    0.000    6.250    0.000    0.750    0.000    0.875 
#    0.000    0.000    0.000    0.000    0.000    0.000 
#
# Total GULP energy -357649.871298 kJ/mol
# GULP energy per Si atom -5588.279239 kJ/mol
# Density = 2.188467 g / cm^3
# Si number density = 21.934597 Si / 1000 Ang^3
#
#
#
# Elastic Constant Matrix: (Units=GPa)
#
#
# Indices 1 2 3 4 5 6 
#
# 1 112.9282 37.0832 -10.5703 0.0000 0.0000 0.0000
# 2 37.0832 135.9659 1.0951 0.0000 0.0000 0.0000
# 3 -10.5703 1.0951 55.0324 0.0000 0.0000 0.0000
# 4 0.0000 0.0000 0.0000 12.0628 0.0000 0.0000
# 5 0.0000 0.0000 0.0000 0.0000 12.1196 0.0000
# 6 0.0000 0.0000 0.0000 0.0000 0.0000 6.2386
#
#
#
# Elastic Compliance Matrix: (Units=1/GPa)
#
#
# Indices 1 2 3 4 5 6 
#
# 1 0.009934 -0.002725 0.001962 0.000000 0.000000 0.000000
# 2 -0.002725 0.008104 -0.000685 0.000000 0.000000 0.000000
# 3 0.001962 -0.000685 0.018562 0.000000 0.000000 0.000000
# 4 0.000000 0.000000 0.000000 0.082899 0.000000 0.000000
# 5 0.000000 0.000000 0.000000 0.000000 0.082511 0.000000
# 6 0.000000 0.000000 0.000000 0.000000 0.000000 0.160293
#
#
# Mechanical properties :
#
#
# Convention : Reuss Voigt Hill
#
# Bulk Modulus (GPa) = 29.67027 39.90473 34.78750
# Shear Modulus (GPa) = 13.28263 24.50543 18.89403
#
# Velocity S-wave (km/s) = 2.46347 3.34609 2.93811
# Velocity P-wave (km/s) = 4.65271 5.75851 5.23489
#
# Compressibility (1/GPa) = 0.03370377
#
# Stress axis : x y z
#
# Youngs Moduli (GPa) = 100.66717 123.40279 53.87460
#
# Poissons Ratio (x) = 0.33629 -0.10571
# Poissons Ratio (y) = 0.27433 0.03689
# Poissons Ratio (z) = -0.19753 0.08449
#
# Static dielectric constant tensor:
#      x y z
#    x 1.772640 0.000000 0.000000 
#    y 0.000000 1.781960 0.000000 
#    z 0.000000 0.000000 1.865190 
# 
# From -- ./inp_files/6823.got.cif
#   From: 2010.05.17/outbox.cif.g08.bks.cpg/sg58_4_cif.got.tgz:6823.got - 2010.06.03 14:20:14.
