data_PCOD9442021
_publ_section_title
;
Structure prediction by ZEFSAII (Michael W. Deem and Ramdas Pophale) SiO2 
 PCOD9442021
Probable space group: P N N M
;
_chemical_formula_sum "Si O2"
_cell_formula_units_Z 64
_cell_length_a 8.936782
_cell_length_b 22.852719
_cell_length_c 17.222378
_cell_angle_alpha 90.000000
_cell_angle_beta 90.000000
_cell_angle_gamma 90.000000
_cell_volume 3517.322260
_symmetry_space_group_name_H-M "P N N M"
_symmetry_group_IT_number 58
_symmetry_cell_setting 'orthorhombic'
loop_
_space_group_symop_operation_xyz
x,y,z
-x,-y,z
1/2+x,1/2-y,1/2-z
1/2-x,1/2+y,1/2-z
-x,-y,-z
x,y,-z
1/2-x,1/2+y,1/2+z
1/2+x,1/2-y,1/2+z
loop_
_atom_site_type_symbol
_atom_site_label
_atom_site_fract_x
_atom_site_fract_y
_atom_site_fract_z
Si Si1 0.511214 0.281273 0.093546
Si Si2 0.730901 0.860309 0.328412
Si Si3 0.517980 0.066176 0.408454
Si Si4 0.485595 0.830425 0.204107
Si Si5 0.524536 0.430346 0.743308
Si Si6 0.265769 0.357706 0.824740
Si Si7 0.573809 0.063513 0.090734
Si Si8 0.067945 0.935015 0.083035
O O1 0.652190 0.318494 0.127195
O O2 0.512992 0.220575 0.140592
O O3 0.358748 0.314052 0.120321
O O4 0.519267 0.275589 0.000000
O O5 0.624589 0.894380 0.387780
O O6 0.624910 0.829232 0.264191
O O7 0.825630 0.909648 0.283725
O O8 0.538619 0.062381 0.500000
O O9 0.656522 0.099942 0.371675
O O10 0.500000 0.000000 0.377335
O O11 0.337012 0.827986 0.258287
O O12 0.483070 0.890740 0.154737
O O13 0.500000 0.500000 0.744397
O O14 0.388430 0.398780 0.785328
O O15 0.516634 0.407447 0.655047
O O16 0.754550 0.060292 0.098218
O O17 0.500000 0.000000 0.102782
O O18 0.542778 0.080378 0.000000
O O19 0.046082 0.905178 0.000000
O O20 0.000000 0.000000 0.077671
#
# Coordination Sequence:
#
# PCOD9442021 Si02
#       8
#     8   8   8   8   8   8   8   8
#     4  11  23  42  62  80 108 149 194 239 288 340
#     4  10  23  37  58  84 115 146 189 237 286 332
#     4  10  20  36  59  88 119 150 185 230 286 345
#     4  11  22  38  60  85 113 150 192 239 282 340
#     4  10  19  33  54  83 115 152 185 223 273 340
#     4  10  21  37  58  85 113 147 188 238 284 332
#     4  10  21  35  55  86 121 155 190 232 284 339
#     4   9  18  32  50  75 113 155 186 221 271 331
#
# _framework density 18.195658999999999
#
# number of rings (size 3 to 8) (size 9 to 14) (size 15 to 20)
#    0.000    1.875    1.250    2.625    3.500    2.000 
#    0.000    0.625    0.000    6.000    0.000    0.000 
#    0.000    0.000    0.000    0.000    0.000    0.000 
#
# Total GULP energy -356940.701339 kJ/mol
# GULP energy per Si atom -5577.198458 kJ/mol
# Density = 1.815424 g / cm^3
# Si number density = 18.195659 Si / 1000 Ang^3
#
#
#
# Elastic Constant Matrix: (Units=GPa)
#
#
# Indices 1 2 3 4 5 6 
#
# 1 65.8133 25.9868 25.6727 0.0000 0.0000 0.0000
# 2 25.9868 83.9458 43.7416 0.0000 0.0000 0.0000
# 3 25.6727 43.7416 106.3496 0.0000 0.0000 0.0000
# 4 0.0000 0.0000 0.0000 33.6614 0.0000 0.0000
# 5 0.0000 0.0000 0.0000 0.0000 4.3828 0.0000
# 6 0.0000 0.0000 0.0000 0.0000 0.0000 12.3072
#
#
#
# Elastic Compliance Matrix: (Units=1/GPa)
#
#
# Indices 1 2 3 4 5 6 
#
# 1 0.017855 -0.004176 -0.002592 0.000000 0.000000 0.000000
# 2 -0.004176 0.016139 -0.005630 0.000000 0.000000 0.000000
# 3 -0.002592 -0.005630 0.012344 0.000000 0.000000 0.000000
# 4 0.000000 0.000000 0.000000 0.029708 0.000000 0.000000
# 5 0.000000 0.000000 0.000000 0.000000 0.228163 0.000000
# 6 0.000000 0.000000 0.000000 0.000000 0.000000 0.081253
#
#
# Mechanical properties :
#
#
# Convention : Reuss Voigt Hill
#
# Bulk Modulus (GPa) = 46.42343 49.65675 48.04009
# Shear Modulus (GPa) = 11.97780 20.78412 16.38096
#
# Velocity S-wave (km/s) = 2.56848 3.38340 3.00370
# Velocity P-wave (km/s) = 5.86216 6.52785 6.20394
#
# Compressibility (1/GPa) = 0.02154085
#
# Stress axis : x y z
#
# Youngs Moduli (GPa) = 56.00719 61.96242 81.00951
#
# Poissons Ratio (x) = 0.25878 0.21001
# Poissons Ratio (y) = 0.23391 0.45606
# Poissons Ratio (z) = 0.14519 0.34883
#
# Static dielectric constant tensor:
#      x y z
#    x 1.643240 0.000000 0.000000 
#    y 0.000000 1.607370 0.000000 
#    z 0.000000 0.000000 1.646030 
# 
# From -- ./inp_files/20280.got.cif
#   From: 2010.05.17/outbox.cif.g08.bks.cpg/sg58_11_cif.got.tgz:20280.got - 2010.06.03 14:20:14.
