data_PCOD9442615
_publ_section_title
;
Structure prediction by ZEFSAII (Michael W. Deem and Ramdas Pophale) SiO2 
 PCOD9442615
Probable space group: P N N M
;
_chemical_formula_sum "Si O2"
_cell_formula_units_Z 64
_cell_length_a 12.579497
_cell_length_b 28.909384
_cell_length_c 8.791923
_cell_angle_alpha 90.000000
_cell_angle_beta 90.000000
_cell_angle_gamma 90.000000
_cell_volume 3197.319156
_symmetry_space_group_name_H-M "P N N M"
_symmetry_group_IT_number 58
_symmetry_cell_setting 'orthorhombic'
loop_
_space_group_symop_operation_xyz
x,y,z
-x,-y,z
1/2+x,1/2-y,1/2-z
1/2-x,1/2+y,1/2-z
-x,-y,-z
x,y,-z
1/2-x,1/2+y,1/2+z
1/2+x,1/2-y,1/2+z
loop_
_atom_site_type_symbol
_atom_site_label
_atom_site_fract_x
_atom_site_fract_y
_atom_site_fract_z
Si Si1 0.427321 0.094859 0.319410
Si Si2 0.134095 0.688561 0.321499
Si Si3 0.139232 0.438789 0.681921
Si Si4 0.471347 0.572844 0.175709
Si Si5 0.059929 0.784128 0.817679
Si Si6 0.830964 0.120642 0.182091
Si Si7 0.262548 0.525494 0.183465
Si Si8 0.357250 0.672837 0.175236
O O1 0.433629 0.101497 0.500000
O O2 0.430647 0.144106 0.236670
O O3 0.525617 0.064269 0.261989
O O4 0.315864 0.068972 0.287583
O O5 0.118605 0.695134 0.500000
O O6 0.255690 0.676985 0.281131
O O7 0.104737 0.735195 0.233536
O O8 0.125051 0.439267 0.500000
O O9 0.213589 0.395292 0.728123
O O10 0.206849 0.482890 0.734628
O O11 0.580888 0.584229 0.259054
O O12 0.383745 0.536194 0.232894
O O13 0.407499 0.621598 0.179646
O O14 0.495621 0.561790 0.000000
O O15 0.948456 0.793253 0.734786
O O16 0.134698 0.827691 0.770947
O O17 0.047002 0.785931 0.000000
O O18 0.834464 0.119299 0.000000
O O19 0.264135 0.518585 0.000000
O O20 0.327369 0.682423 0.000000
#
# Coordination Sequence:
#
# PCOD9442615 Si02
#       8
#     8   8   8   8   8   8   8   8
#     4  11  23  42  63  85 118 158 203 254 304 360
#     4  12  24  38  60  91 121 155 199 247 302 368
#     4  11  24  40  58  87 125 162 201 248 305 364
#     4   9  18  35  61  87 114 150 198 247 293 351
#     4  10  21  39  61  86 116 157 202 247 302 361
#     4   9  21  40  59  83 120 159 196 244 301 358
#     4  10  21  39  61  88 118 156 202 250 306 362
#     4  10  19  37  60  85 117 153 192 247 303 353
#
# _framework density 20.016767999999999
#
# number of rings (size 3 to 8) (size 9 to 14) (size 15 to 20)
#    0.000    1.750    1.250    3.000    0.000    6.500 
#    0.000    6.250    0.000    0.000    0.000    0.000 
#    0.000    0.000    0.000    0.000    0.000    0.000 
#
# Total GULP energy -357590.910750 kJ/mol
# GULP energy per Si atom -5587.357980 kJ/mol
# Density = 1.997121 g / cm^3
# Si number density = 20.016768 Si / 1000 Ang^3
#
#
#
# Elastic Constant Matrix: (Units=GPa)
#
#
# Indices 1 2 3 4 5 6 
#
# 1 51.3348 -4.8053 2.7589 0.0000 0.0000 0.0000
# 2 -4.8053 54.1121 9.6137 0.0000 0.0000 0.0000
# 3 2.7589 9.6137 27.5277 0.0000 0.0000 0.0000
# 4 0.0000 0.0000 0.0000 29.9137 0.0000 0.0000
# 5 0.0000 0.0000 0.0000 0.0000 30.0381 0.0000
# 6 0.0000 0.0000 0.0000 0.0000 0.0000 26.1322
#
#
#
# Elastic Compliance Matrix: (Units=1/GPa)
#
#
# Indices 1 2 3 4 5 6 
#
# 1 0.019840 0.002255 -0.002776 0.000000 0.000000 0.000000
# 2 0.002255 0.019959 -0.007196 0.000000 0.000000 0.000000
# 3 -0.002776 -0.007196 0.039119 0.000000 0.000000 0.000000
# 4 0.000000 0.000000 0.000000 0.033429 0.000000 0.000000
# 5 0.000000 0.000000 0.000000 0.000000 0.033291 0.000000
# 6 0.000000 0.000000 0.000000 0.000000 0.000000 0.038267
#
#
# Mechanical properties :
#
#
# Convention : Reuss Voigt Hill
#
# Bulk Modulus (GPa) = 15.75222 16.45656 16.10439
# Shear Modulus (GPa) = 22.67563 25.57728 24.12646
#
# Velocity S-wave (km/s) = 3.36941 3.57850 3.47553
# Velocity P-wave (km/s) = 4.79831 5.03125 4.91616
#
# Compressibility (1/GPa) = 0.06348310
#
# Stress axis : x y z
#
# Youngs Moduli (GPa) = 50.40258 50.10283 25.56330
#
# Poissons Ratio (x) = -0.11298 0.07096
# Poissons Ratio (y) = -0.11366 0.18396
# Poissons Ratio (z) = 0.13992 0.36056
#
# Static dielectric constant tensor:
#      x y z
#    x 1.702660 0.000000 0.000000 
#    y 0.000000 1.724490 0.000000 
#    z 0.000000 0.000000 1.666480 
# 
# From -- ./inp_files/4740.got.cif
#   From: 2010.05.17/outbox.cif.g08.bks.cpg/sg58_3_cif.got.tgz:4740.got - 2010.06.03 14:20:14.
