data_PCOD9442232
_publ_section_title
;
Structure prediction by ZEFSAII (Michael W. Deem and Ramdas Pophale) SiO2 
 PCOD9442232
Probable space group: P N N M
;
_chemical_formula_sum "Si O2"
_cell_formula_units_Z 64
_cell_length_a 16.556768
_cell_length_b 5.428418
_cell_length_c 33.279252
_cell_angle_alpha 90.000000
_cell_angle_beta 90.000000
_cell_angle_gamma 90.000000
_cell_volume 2991.041243
_symmetry_space_group_name_H-M "P N N M"
_symmetry_group_IT_number 58
_symmetry_cell_setting 'orthorhombic'
loop_
_space_group_symop_operation_xyz
x,y,z
-x,-y,z
1/2+x,1/2-y,1/2-z
1/2-x,1/2+y,1/2-z
-x,-y,-z
x,y,-z
1/2-x,1/2+y,1/2+z
1/2+x,1/2-y,1/2+z
loop_
_atom_site_type_symbol
_atom_site_label
_atom_site_fract_x
_atom_site_fract_y
_atom_site_fract_z
Si Si1 0.826856 0.212415 0.129462
Si Si2 0.502933 0.250055 0.393372
Si Si3 0.405008 0.490836 0.130826
Si Si4 0.664804 0.213341 0.340640
Si Si5 0.098138 0.491171 0.672244
Si Si6 0.802569 0.593637 0.248136
Si Si7 0.658443 0.592694 0.044174
Si Si8 0.263808 0.407712 0.456065
O O1 0.923498 0.247918 0.134818
O O2 0.790883 0.481700 0.138228
O O3 0.816103 0.131105 0.083544
O O4 0.796799 0.985488 0.156246
O O5 0.500000 0.500000 0.417695
O O6 0.582297 0.246293 0.365918
O O7 0.500000 0.000000 0.417890
O O8 0.500000 0.500000 0.139368
O O9 0.376334 0.765053 0.142923
O O10 0.394016 0.426293 0.084104
O O11 0.373326 0.258867 0.156559
O O12 0.654750 0.138141 0.294747
O O13 0.134747 0.434884 0.715669
O O14 0.000000 0.500000 0.673739
O O15 0.751874 0.338805 0.245287
O O16 0.707788 0.336091 0.043525
O O17 0.714553 0.836208 0.048034
O O18 0.617942 0.614275 0.000000
O O19 0.304651 0.416936 0.500000
#
# Coordination Sequence:
#
# PCOD9442232 Si02
#       8
#     8   8   8   8   8   8   8   8
#     4  10  19  34  57  81 107 144 188 228 272 332
#     4   8  16  31  51  75 102 132 175 225 267 318
#     4  10  21  39  62  85 110 150 196 235 285 351
#     4  10  21  36  55  80 109 143 184 236 288 327
#     4  10  23  42  62  85 120 162 197 236 295 362
#     4  12  26  41  59  88 120 150 196 248 292 345
#     4  10  21  36  56  84 116 148 186 234 285 339
#     4  10  21  35  53  82 117 151 184 225 285 349
#
# _framework density 21.397231000000001
#
# number of rings (size 3 to 8) (size 9 to 14) (size 15 to 20)
#    0.000    2.000    0.000    3.000    0.000    7.750 
#    0.000    5.625    0.000   11.250    0.000    0.000 
#    0.000    0.000    0.000    0.000    0.000    0.000 
#
# Total GULP energy -356889.470256 kJ/mol
# GULP energy per Si atom -5576.397973 kJ/mol
# Density = 2.134853 g / cm^3
# Si number density = 21.397231 Si / 1000 Ang^3
#
#
#
# Elastic Constant Matrix: (Units=GPa)
#
#
# Indices 1 2 3 4 5 6 
#
# 1 33.3847 29.8567 -9.2618 0.0000 0.0000 0.0000
# 2 29.8567 218.9702 42.0142 0.0000 0.0000 0.0000
# 3 -9.2618 42.0142 110.3516 0.0000 0.0000 0.0000
# 4 0.0000 0.0000 0.0000 36.3306 0.0000 0.0000
# 5 0.0000 0.0000 0.0000 0.0000 14.9545 0.0000
# 6 0.0000 0.0000 0.0000 0.0000 0.0000 17.8291
#
#
#
# Elastic Compliance Matrix: (Units=1/GPa)
#
#
# Indices 1 2 3 4 5 6 
#
# 1 0.036877 -0.006065 0.005404 0.000000 0.000000 0.000000
# 2 -0.006065 0.005924 -0.002765 0.000000 0.000000 0.000000
# 3 0.005404 -0.002765 0.010568 0.000000 0.000000 0.000000
# 4 0.000000 0.000000 0.000000 0.027525 0.000000 0.000000
# 5 0.000000 0.000000 0.000000 0.000000 0.066870 0.000000
# 6 0.000000 0.000000 0.000000 0.000000 0.000000 0.056088
#
#
# Mechanical properties :
#
#
# Convention : Reuss Voigt Hill
#
# Bulk Modulus (GPa) = 21.49667 54.21386 37.85527
# Shear Modulus (GPa) = 22.10339 33.82933 27.96636
#
# Velocity S-wave (km/s) = 3.21752 3.98051 3.61918
# Velocity P-wave (km/s) = 4.88585 6.82040 5.93251
#
# Compressibility (1/GPa) = 0.04651884
#
# Stress axis : x y z
#
# Youngs Moduli (GPa) = 27.11688 168.79707 94.62437
#
# Poissons Ratio (x) = 1.02379 -0.51138
# Poissons Ratio (y) = 0.16447 0.26160
# Poissons Ratio (z) = -0.14655 0.46666
#
# Static dielectric constant tensor:
#      x y z
#    x 1.806500 0.000000 0.000000 
#    y 0.000000 1.878350 0.000000 
#    z 0.000000 0.000000 1.732220 
# 
# From -- ./inp_files/35143.got.cif
#   From: 2010.05.17/outbox.cif.g08.bks.cpg/sg58_18_cif.got.tgz:35143.got - 2010.06.03 14:20:14.
