data_PCOD9442355
_publ_section_title
;
Structure prediction by ZEFSAII (Michael W. Deem and Ramdas Pophale) SiO2 
 PCOD9442355
Probable space group: P N N M
;
_chemical_formula_sum "Si O2"
_cell_formula_units_Z 48
_cell_length_a 7.141153
_cell_length_b 19.766783
_cell_length_c 15.236367
_cell_angle_alpha 90.000000
_cell_angle_beta 90.000000
_cell_angle_gamma 90.000000
_cell_volume 2150.729329
_symmetry_space_group_name_H-M "P N N M"
_symmetry_group_IT_number 58
_symmetry_cell_setting 'orthorhombic'
loop_
_space_group_symop_operation_xyz
x,y,z
-x,-y,z
1/2+x,1/2-y,1/2-z
1/2-x,1/2+y,1/2-z
-x,-y,-z
x,y,-z
1/2-x,1/2+y,1/2+z
1/2+x,1/2-y,1/2+z
loop_
_atom_site_type_symbol
_atom_site_label
_atom_site_fract_x
_atom_site_fract_y
_atom_site_fract_z
Si Si1 0.083034 0.282886 0.399885
Si Si2 0.111948 0.107360 0.761484
Si Si3 0.244962 0.259970 0.777141
Si Si4 0.933936 0.430831 0.368523
Si Si5 0.681287 0.095719 0.702829
Si Si6 0.284599 0.525255 0.904501
O O1 0.115165 0.258447 0.500000
O O2 0.920950 0.244992 0.343561
O O3 0.006336 0.359888 0.407206
O O4 0.252306 0.276995 0.328569
O O5 0.157706 0.185524 0.779340
O O6 0.214425 0.070089 0.842710
O O7 0.211426 0.080732 0.672270
O O8 0.893031 0.094965 0.743565
O O9 0.135158 0.325617 0.813437
O O10 0.000000 0.500000 0.411416
O O11 0.044412 0.429539 0.276840
O O12 0.677813 0.043040 0.623933
O O13 0.500000 0.500000 0.909319
O O14 0.228506 0.550715 0.000000
#
# Coordination Sequence:
#
# PCOD9442355 Si02
#       6
#     8   8   8   8   8   8
#     4  10  22  39  63  93 123 163 212 263 322 384
#     4  10  19  35  55  84 116 160 204 250 313 379
#     4  10  20  38  62  88 124 166 208 260 318 376
#     4  10  20  35  60  86 114 153 207 255 310 373
#     4  10  19  35  55  84 116 160 204 250 313 379
#     4   9  18  31  53  85 118 156 202 254 316 383
#
# _framework density 22.318010999999998
#
# number of rings (size 3 to 8) (size 9 to 14) (size 15 to 20)
#    0.000    2.167    3.333    0.000    0.000    1.667 
#    0.000    2.500    0.000    6.000    0.000    4.667 
#    0.000    0.000    0.000    0.000    0.000    0.000 
#
# Total GULP energy -267288.106485 kJ/mol
# GULP energy per Si atom -5568.502218 kJ/mol
# Density = 2.226721 g / cm^3
# Si number density = 22.318011 Si / 1000 Ang^3
#
#
#
# Elastic Constant Matrix: (Units=GPa)
#
#
# Indices 1 2 3 4 5 6 
#
# 1 61.0057 20.7903 46.1466 0.0000 0.0000 0.0000
# 2 20.7903 112.0115 12.2880 0.0000 0.0000 0.0000
# 3 46.1466 12.2880 117.5639 0.0000 0.0000 0.0000
# 4 0.0000 0.0000 0.0000 8.4339 0.0000 0.0000
# 5 0.0000 0.0000 0.0000 0.0000 -2.2209 0.0000
# 6 0.0000 0.0000 0.0000 0.0000 0.0000 33.8330
#
#
#
# Elastic Compliance Matrix: (Units=1/GPa)
#
#
# Indices 1 2 3 4 5 6 
#
# 1 0.024637 -0.003553 -0.009299 0.000000 0.000000 0.000000
# 2 -0.003553 0.009544 0.000397 0.000000 0.000000 0.000000
# 3 -0.009299 0.000397 0.012115 0.000000 0.000000 0.000000
# 4 0.000000 0.000000 0.000000 0.118569 0.000000 0.000000
# 5 0.000000 0.000000 0.000000 0.000000 -0.450266 0.000000
# 6 0.000000 0.000000 0.000000 0.000000 0.000000 0.029557
#
#
# Mechanical properties :
#
#
# Convention : Reuss Voigt Hill
#
# Bulk Modulus (GPa) = 46.76112 49.89232 48.32672
# Shear Modulus (GPa) = -22.34065 22.09961 -0.12052
#
# Velocity S-wave (km/s) = -3.16731 3.15018 -0.23263
# Velocity P-wave (km/s) = 2.76077 5.96953 4.65065
#
# Compressibility (1/GPa) = 0.02138529
#
# Stress axis : x y z
#
# Youngs Moduli (GPa) = 40.58958 104.78332 82.54446
#
# Poissons Ratio (x) = 0.37226 0.76760
# Poissons Ratio (y) = 0.14420 -0.03277
# Poissons Ratio (z) = 0.37745 -0.04160
#
# Static dielectric constant tensor:
#      x y z
#    x 1.949420 0.000000 0.000000 
#    y 0.000000 1.894680 0.000000 
#    z 0.000000 0.000000 1.807110 
# 
# From -- ./inp_files/20013.got.cif
#   From: 2010.05.17/outbox.cif.g08.bks.cpg/sg58_11_cif.got.tgz:20013.got - 2010.06.03 14:20:14.
