data_PCOD9442805
_publ_section_title
;
Structure prediction by ZEFSAII (Michael W. Deem and Ramdas Pophale) SiO2 
 PCOD9442805
Probable space group: P N N M
;
_chemical_formula_sum "Si O2"
_cell_formula_units_Z 32
_cell_length_a 6.732304
_cell_length_b 17.076206
_cell_length_c 11.283797
_cell_angle_alpha 90.000000
_cell_angle_beta 90.000000
_cell_angle_gamma 90.000000
_cell_volume 1297.210240
_symmetry_space_group_name_H-M "P N N M"
_symmetry_group_IT_number 58
_symmetry_cell_setting 'orthorhombic'
loop_
_space_group_symop_operation_xyz
x,y,z
-x,-y,z
1/2+x,1/2-y,1/2-z
1/2-x,1/2+y,1/2-z
-x,-y,-z
x,y,-z
1/2-x,1/2+y,1/2+z
1/2+x,1/2-y,1/2+z
loop_
_atom_site_type_symbol
_atom_site_label
_atom_site_fract_x
_atom_site_fract_y
_atom_site_fract_z
Si Si1 0.623716 0.159489 0.369672
Si Si2 0.761835 0.982742 0.370003
Si Si3 0.333254 0.290904 0.371029
Si Si4 0.654917 0.427096 0.373617
O O1 0.714755 0.181730 0.500000
O O2 0.652142 0.066307 0.365090
O O3 0.412688 0.202687 0.370848
O O4 0.720385 0.191225 0.249317
O O5 0.721304 0.947197 0.500000
O O6 0.725521 0.938386 0.246807
O O7 0.000000 0.000000 0.370182
O O8 0.233447 0.305618 0.500000
O O9 0.523830 0.348787 0.368075
O O10 0.500000 0.500000 0.377170
O O11 0.765554 0.427941 0.500000
#
# Coordination Sequence:
#
# PCOD9442805 Si02
#       4
#     8   8   8   8
#     4  10  20  33  50  76 107 134 165 210 256 298
#     4   9  15  26  47  72  93 121 166 207 239 283
#     4  10  20  33  50  76 107 134 165 210 256 298
#     4   9  15  26  47  72  93 121 166 207 239 283
#
# _framework density 24.668320999999999
#
# number of rings (size 3 to 8) (size 9 to 14) (size 15 to 20)
#    0.000    2.500    5.000    0.000    0.000    1.000 
#    0.000    0.000    0.000    1.500    0.000   10.500 
#    0.000    0.000    0.000    0.000    0.000    0.000 
#
# Total GULP energy -178667.395184 kJ/mol
# GULP energy per Si atom -5583.356100 kJ/mol
# Density = 2.461217 g / cm^3
# Si number density = 24.668321 Si / 1000 Ang^3
#
#
#
# Elastic Constant Matrix: (Units=GPa)
#
#
# Indices 1 2 3 4 5 6 
#
# 1 42.9255 12.3449 49.1813 0.0000 0.0000 0.0000
# 2 12.3449 126.2039 51.6637 0.0000 0.0000 0.0000
# 3 49.1813 51.6637 356.2100 0.0000 0.0000 0.0000
# 4 0.0000 0.0000 0.0000 36.1701 0.0000 0.0000
# 5 0.0000 0.0000 0.0000 0.0000 28.1645 0.0000
# 6 0.0000 0.0000 0.0000 0.0000 0.0000 34.5437
#
#
#
# Elastic Compliance Matrix: (Units=1/GPa)
#
#
# Indices 1 2 3 4 5 6 
#
# 1 0.027850 -0.001223 -0.003668 0.000000 0.000000 0.000000
# 2 -0.001223 0.008478 -0.001061 0.000000 0.000000 0.000000
# 3 -0.003668 -0.001061 0.003468 0.000000 0.000000 0.000000
# 4 0.000000 0.000000 0.000000 0.027647 0.000000 0.000000
# 5 0.000000 0.000000 0.000000 0.000000 0.035506 0.000000
# 6 0.000000 0.000000 0.000000 0.000000 0.000000 0.028949
#
#
# Mechanical properties :
#
#
# Convention : Reuss Voigt Hill
#
# Bulk Modulus (GPa) = 35.85169 83.52434 59.68802
# Shear Modulus (GPa) = 32.65896 47.25230 39.95563
#
# Velocity S-wave (km/s) = 3.64252 4.38140 4.02893
# Velocity P-wave (km/s) = 5.67941 7.71544 6.77435
#
# Compressibility (1/GPa) = 0.02789268
#
# Stress axis : x y z
#
# Youngs Moduli (GPa) = 35.90628 117.95910 288.38402
#
# Poissons Ratio (x) = 0.14423 1.05776
# Poissons Ratio (y) = 0.04390 0.30590
# Poissons Ratio (z) = 0.13170 0.12512
#
# Static dielectric constant tensor:
#      x y z
#    x 1.968500 0.000000 0.000000 
#    y 0.000000 1.938510 0.000000 
#    z 0.000000 0.000000 1.999180 
# 
# From -- ./inp_files/12336.got.cif
#   From: 2010.05.17/outbox.cif.g08.bks.cpg/sg58_7_cif.got.tgz:12336.got - 2010.06.03 14:20:14.
