data_PCOD9442536
_publ_section_title
;
Structure prediction by ZEFSAII (Michael W. Deem and Ramdas Pophale) SiO2 
 PCOD9442536
Probable space group: P N N M
;
_chemical_formula_sum "Si O2"
_cell_formula_units_Z 56
_cell_length_a 9.152890
_cell_length_b 18.249362
_cell_length_c 16.940232
_cell_angle_alpha 90.000000
_cell_angle_beta 90.000000
_cell_angle_gamma 90.000000
_cell_volume 2829.601538
_symmetry_space_group_name_H-M "P N N M"
_symmetry_group_IT_number 58
_symmetry_cell_setting 'orthorhombic'
loop_
_space_group_symop_operation_xyz
x,y,z
-x,-y,z
1/2+x,1/2-y,1/2-z
1/2-x,1/2+y,1/2-z
-x,-y,-z
x,y,-z
1/2-x,1/2+y,1/2+z
1/2+x,1/2-y,1/2+z
loop_
_atom_site_type_symbol
_atom_site_label
_atom_site_fract_x
_atom_site_fract_y
_atom_site_fract_z
Si Si1 0.707302 0.078095 0.911515
Si Si2 0.325983 0.010712 0.752755
Si Si3 0.466595 0.198596 0.084601
Si Si4 0.220110 0.193047 0.382502
Si Si5 0.464639 0.301924 0.586894
Si Si6 0.328364 0.520177 0.090156
Si Si7 0.726731 0.324222 0.294265
O O1 0.555359 0.122715 0.905561
O O2 0.837167 0.137264 0.910136
O O3 0.721221 0.031155 0.832558
O O4 0.710635 0.042632 0.000000
O O5 0.252597 0.988653 0.668515
O O6 0.277591 0.093724 0.771921
O O7 0.500000 0.000000 0.744603
O O8 0.589263 0.260622 0.081094
O O9 0.355505 0.210758 0.154752
O O10 0.389513 0.195678 0.000000
O O11 0.377802 0.225097 0.405939
O O12 0.198094 0.107934 0.402337
O O13 0.205766 0.211570 0.290095
O O14 0.532841 0.305931 0.500000
O O15 0.581113 0.318079 0.654241
O O16 0.500000 0.500000 0.096704
O O17 0.282227 0.498296 0.000000
#
# Coordination Sequence:
#
# PCOD9442536 Si02
#       7
#     8   8   8   8   8   8   8
#     4   9  20  36  58  85 122 167 199 244 309 376
#     4  11  23  39  59  88 129 166 204 257 310 368
#     4  10  19  36  59  84 118 157 200 244 302 375
#     4  10  21  39  62  84 119 160 197 254 317 363
#     4  10  21  38  59  86 121 156 201 254 310 371
#     4  10  23  43  67  91 119 163 217 265 314 372
#     4  11  22  35  57  91 118 156 201 253 300 370
#
# _framework density 19.790773000000002
#
# number of rings (size 3 to 8) (size 9 to 14) (size 15 to 20)
#    0.000    1.857    1.429    3.429    4.000    1.714 
#    0.000    1.429    0.000    3.429    0.000    0.000 
#    0.000    0.000    0.000    0.000    0.000    0.000 
#
# Total GULP energy -312243.596601 kJ/mol
# GULP energy per Si atom -5575.778511 kJ/mol
# Density = 1.974573 g / cm^3
# Si number density = 19.790773 Si / 1000 Ang^3
#
#
#
# Elastic Constant Matrix: (Units=GPa)
#
#
# Indices 1 2 3 4 5 6 
#
# 1 97.1610 14.5576 55.5947 0.0000 0.0000 0.0000
# 2 14.5576 39.5371 24.1893 0.0000 0.0000 0.0000
# 3 55.5947 24.1893 202.4522 0.0000 0.0000 0.0000
# 4 0.0000 0.0000 0.0000 31.9008 0.0000 0.0000
# 5 0.0000 0.0000 0.0000 0.0000 67.3868 0.0000
# 6 0.0000 0.0000 0.0000 0.0000 0.0000 16.9295
#
#
#
# Elastic Compliance Matrix: (Units=1/GPa)
#
#
# Indices 1 2 3 4 5 6 
#
# 1 0.012471 -0.002694 -0.003103 0.000000 0.000000 0.000000
# 2 -0.002694 0.027869 -0.002590 0.000000 0.000000 0.000000
# 3 -0.003103 -0.002590 0.006101 0.000000 0.000000 0.000000
# 4 0.000000 0.000000 0.000000 0.031347 0.000000 0.000000
# 5 0.000000 0.000000 0.000000 0.000000 0.014840 0.000000
# 6 0.000000 0.000000 0.000000 0.000000 0.000000 0.059068
#
#
# Mechanical properties :
#
#
# Convention : Reuss Voigt Hill
#
# Bulk Modulus (GPa) = 33.70613 58.64816 46.17715
# Shear Modulus (GPa) = 28.03334 39.56400 33.79867
#
# Velocity S-wave (km/s) = 3.76771 4.47600 4.13704
# Velocity P-wave (km/s) = 5.99964 7.51073 6.79731
#
# Compressibility (1/GPa) = 0.02966819
#
# Stress axis : x y z
#
# Youngs Moduli (GPa) = 80.18488 35.88196 163.90820
#
# Poissons Ratio (x) = 0.09665 0.50858
# Poissons Ratio (y) = 0.21598 0.42455
# Poissons Ratio (z) = 0.24880 0.09294
#
# Static dielectric constant tensor:
#      x y z
#    x 1.673580 0.000000 0.000000 
#    y 0.000000 1.683870 0.000000 
#    z 0.000000 0.000000 1.736620 
# 
# From -- ./inp_files/20119.got.cif
#   From: 2010.05.17/outbox.cif.g08.bks.cpg/sg58_11_cif.got.tgz:20119.got - 2010.06.03 14:20:14.
