data_PCOD9442645
_publ_section_title
;
Structure prediction by ZEFSAII (Michael W. Deem and Ramdas Pophale) SiO2 
 PCOD9442645
Probable space group: P N N M
;
_chemical_formula_sum "Si O2"
_cell_formula_units_Z 56
_cell_length_a 20.346392
_cell_length_b 10.478128
_cell_length_c 13.836935
_cell_angle_alpha 90.000000
_cell_angle_beta 90.000000
_cell_angle_gamma 90.000000
_cell_volume 2949.925226
_symmetry_space_group_name_H-M "P N N M"
_symmetry_group_IT_number 58
_symmetry_cell_setting 'orthorhombic'
loop_
_space_group_symop_operation_xyz
x,y,z
-x,-y,z
1/2+x,1/2-y,1/2-z
1/2-x,1/2+y,1/2-z
-x,-y,-z
x,y,-z
1/2-x,1/2+y,1/2+z
1/2+x,1/2-y,1/2+z
loop_
_atom_site_type_symbol
_atom_site_label
_atom_site_fract_x
_atom_site_fract_y
_atom_site_fract_z
Si Si1 0.023149 0.144407 0.100761
Si Si2 0.202000 0.525977 0.690586
Si Si3 0.996165 0.844626 0.310245
Si Si4 0.770895 0.986111 0.609791
Si Si5 0.651924 0.245468 0.821612
Si Si6 0.678484 0.336698 0.609322
Si Si7 0.865853 0.228365 0.611371
O O1 0.994648 0.199443 0.198905
O O2 0.101660 0.131482 0.106012
O O3 0.005500 0.210896 0.000000
O O4 0.000000 0.000000 0.097363
O O5 0.218767 0.511307 0.803801
O O6 0.165180 0.400771 0.652203
O O7 0.270910 0.550004 0.633950
O O8 0.161499 0.655301 0.673833
O O9 0.923718 0.790974 0.333893
O O10 0.057387 0.795531 0.370921
O O11 0.000000 0.000000 0.314279
O O12 0.746494 0.001582 0.500000
O O13 0.806472 0.849568 0.620083
O O14 0.824215 0.098782 0.629570
O O15 0.677973 0.256719 0.709553
O O16 0.694767 0.287417 0.500000
O O17 0.855014 0.262556 0.500000
#
# Coordination Sequence:
#
# PCOD9442645 Si02
#       7
#     8   8   8   8   8   8   8
#     4   8  15  29  53  85 113 140 188 242 285 334
#     4  11  23  37  55  86 125 150 188 240 294 346
#     4  10  19  37  63  83 112 155 200 242 290 342
#     4  10  21  39  61  85 114 154 197 237 283 346
#     4  10  21  37  60  89 117 151 197 249 283 338
#     4   9  18  35  57  80 113 159 191 225 289 350
#     4  11  24  41  62  86 118 157 195 237 290 353
#
# _framework density 18.983532
#
# number of rings (size 3 to 8) (size 9 to 14) (size 15 to 20)
#    0.000    2.143    1.429    2.143    2.000    4.286 
#    0.000    1.429    0.000    0.000    0.000    5.000 
#    0.000    0.000    0.000    0.000    0.000    0.000 
#
# Total GULP energy -311793.419613 kJ/mol
# GULP energy per Si atom -5567.739636 kJ/mol
# Density = 1.894032 g / cm^3
# Si number density = 18.983532 Si / 1000 Ang^3
#
#
#
# Elastic Constant Matrix: (Units=GPa)
#
#
# Indices 1 2 3 4 5 6 
#
# 1 55.4168 34.5452 38.1919 0.0000 0.0000 0.0000
# 2 34.5452 97.8033 30.9720 0.0000 0.0000 0.0000
# 3 38.1919 30.9720 78.5023 0.0000 0.0000 0.0000
# 4 0.0000 0.0000 0.0000 -4.5671 0.0000 0.0000
# 5 0.0000 0.0000 0.0000 0.0000 29.9013 0.0000
# 6 0.0000 0.0000 0.0000 0.0000 0.0000 21.3901
#
#
#
# Elastic Compliance Matrix: (Units=1/GPa)
#
#
# Indices 1 2 3 4 5 6 
#
# 1 0.030861 -0.007023 -0.012243 0.000000 0.000000 0.000000
# 2 -0.007023 0.013283 -0.001824 0.000000 0.000000 0.000000
# 3 -0.012243 -0.001824 0.019414 0.000000 0.000000 0.000000
# 4 0.000000 0.000000 0.000000 -0.218956 0.000000 0.000000
# 5 0.000000 0.000000 0.000000 0.000000 0.033443 0.000000
# 6 0.000000 0.000000 0.000000 0.000000 0.000000 0.046751
#
#
# Mechanical properties :
#
#
# Convention : Reuss Voigt Hill
#
# Bulk Modulus (GPa) = 46.77728 48.79342 47.78535
# Shear Modulus (GPa) = -193.06078 17.87909 -87.59085
#
# Velocity S-wave (km/s) = -10.09554 3.07224 -6.80004
# Velocity P-wave (km/s) = 10.54508 6.19223 6.03552
#
# Compressibility (1/GPa) = 0.02137790
#
# Stress axis : x y z
#
# Youngs Moduli (GPa) = 32.40364 75.28532 51.50840
#
# Poissons Ratio (x) = 0.52875 0.63062
# Poissons Ratio (y) = 0.22758 0.09394
# Poissons Ratio (z) = 0.39672 0.13730
#
# Static dielectric constant tensor:
#      x y z
#    x 1.643810 0.000000 0.000000 
#    y 0.000000 1.630470 0.000000 
#    z 0.000000 0.000000 1.732600 
# 
# From -- ./inp_files/23244.got.cif
#   From: 2010.05.17/outbox.cif.g08.bks.cpg/sg58_12_cif.got.tgz:23244.got - 2010.06.03 14:20:14.
