data_PCOD9442840
_publ_section_title
;
Structure prediction by ZEFSAII (Michael W. Deem and Ramdas Pophale) SiO2 
 PCOD9442840
Probable space group: P N N M
;
_chemical_formula_sum "Si O2"
_cell_formula_units_Z 56
_cell_length_a 21.891195
_cell_length_b 14.660747
_cell_length_c 9.537891
_cell_angle_alpha 90.000000
_cell_angle_beta 90.000000
_cell_angle_gamma 90.000000
_cell_volume 3061.102864
_symmetry_space_group_name_H-M "P N N M"
_symmetry_group_IT_number 58
_symmetry_cell_setting 'orthorhombic'
loop_
_space_group_symop_operation_xyz
x,y,z
-x,-y,z
1/2+x,1/2-y,1/2-z
1/2-x,1/2+y,1/2-z
-x,-y,-z
x,y,-z
1/2-x,1/2+y,1/2+z
1/2+x,1/2-y,1/2+z
loop_
_atom_site_type_symbol
_atom_site_label
_atom_site_fract_x
_atom_site_fract_y
_atom_site_fract_z
Si Si1 0.571032 0.522971 0.667214
Si Si2 0.714414 0.822177 0.664389
Si Si3 0.891238 0.471955 0.840342
Si Si4 0.666255 0.358455 0.336618
Si Si5 0.628629 0.692210 0.163590
Si Si6 0.591531 0.175294 0.338354
Si Si7 0.973419 0.350928 0.659408
O O1 0.500000 0.500000 0.703006
O O2 0.571895 0.545531 0.500000
O O3 0.614893 0.435434 0.688788
O O4 0.599949 0.605247 0.756959
O O5 0.722097 0.798467 0.500000
O O6 0.666045 0.905078 0.672758
O O7 0.776113 0.858553 0.734724
O O8 0.685120 0.737770 0.751646
O O9 0.876704 0.577553 0.815444
O O10 0.942419 0.436051 0.736042
O O11 0.914388 0.463264 0.000000
O O12 0.685720 0.367528 0.500000
O O13 0.635329 0.260150 0.317644
O O14 0.576210 0.769805 0.163716
O O15 0.644062 0.672878 0.000000
O O16 0.570468 0.178214 0.500000
O O17 0.533240 0.180034 0.240185
O O18 0.987810 0.372745 0.500000
#
# Coordination Sequence:
#
# PCOD9442840 Si02
#       7
#     8   8   8   8   8   8   8
#     4  10  21  38  60  86 116 152 194 238 288 345
#     4  10  21  38  58  81 110 145 187 230 276 334
#     4   9  19  35  55  78 105 141 181 216 258 321
#     4  10  22  38  56  81 113 146 183 231 280 327
#     4  10  21  37  58  82 111 148 188 233 283 334
#     4  10  20  35  55  78 107 144 179 213 262 324
#     4  10  20  33  52  82 114 140 172 219 271 319
#
# _framework density 18.294060999999999
#
# number of rings (size 3 to 8) (size 9 to 14) (size 15 to 20)
#    0.000    2.143    0.000    2.571    0.000    8.286 
#    0.000    1.429    0.000    0.000    0.000    0.000 
#    0.000    0.000    0.000    0.000    0.000    0.000 
#
# Total GULP energy -312527.898729 kJ/mol
# GULP energy per Si atom -5580.855334 kJ/mol
# Density = 1.825242 g / cm^3
# Si number density = 18.294061 Si / 1000 Ang^3
#
#
#
# Elastic Constant Matrix: (Units=GPa)
#
#
# Indices 1 2 3 4 5 6 
#
# 1 184.3541 154.6897 113.4776 0.0000 0.0000 0.0000
# 2 154.6897 277.3469 112.2127 0.0000 0.0000 0.0000
# 3 113.4776 112.2127 120.5836 0.0000 0.0000 0.0000
# 4 0.0000 0.0000 0.0000 206.7968 0.0000 0.0000
# 5 0.0000 0.0000 0.0000 0.0000 35.8192 0.0000
# 6 0.0000 0.0000 0.0000 0.0000 0.0000 17.6862
#
#
#
# Elastic Compliance Matrix: (Units=1/GPa)
#
#
# Indices 1 2 3 4 5 6 
#
# 1 0.015716 -0.004462 -0.010638 0.000000 0.000000 0.000000
# 2 -0.004462 0.007049 -0.002361 0.000000 0.000000 0.000000
# 3 -0.010638 -0.002361 0.020502 0.000000 0.000000 0.000000
# 4 0.000000 0.000000 0.000000 0.004836 0.000000 0.000000
# 5 0.000000 0.000000 0.000000 0.000000 0.027918 0.000000
# 6 0.000000 0.000000 0.000000 0.000000 0.000000 0.056541
#
#
# Mechanical properties :
#
#
# Convention : Reuss Voigt Hill
#
# Bulk Modulus (GPa) = 119.83157 149.22720 134.52938
# Shear Modulus (GPa) = 29.36569 65.52076 47.44323
#
# Velocity S-wave (km/s) = 4.01085 5.99108 5.09804
# Velocity P-wave (km/s) = 9.33244 11.38446 10.40914
#
# Compressibility (1/GPa) = 0.00834505
#
# Stress axis : x y z
#
# Youngs Moduli (GPa) = 63.62825 141.85540 48.77603
#
# Poissons Ratio (x) = 0.63289 0.51889
# Poissons Ratio (y) = 0.28388 0.11518
# Poissons Ratio (z) = 0.67690 0.33498
#
# Static dielectric constant tensor:
#      x y z
#    x 1.611880 0.000000 0.000000 
#    y 0.000000 1.627210 0.000000 
#    z 0.000000 0.000000 1.626590 
# 
# From -- ./inp_files/6241.got.cif
#   From: 2010.05.17/outbox.cif.g08.bks.cpg/sg58_4_cif.got.tgz:6241.got - 2010.06.03 14:20:14.
