data_PCOD9442388
_publ_section_title
;
Structure prediction by ZEFSAII (Michael W. Deem and Ramdas Pophale) SiO2 
 PCOD9442388
Probable space group: P N N M
;
_chemical_formula_sum "Si O2"
_cell_formula_units_Z 64
_cell_length_a 23.212870
_cell_length_b 16.399341
_cell_length_c 8.535720
_cell_angle_alpha 90.000000
_cell_angle_beta 90.000000
_cell_angle_gamma 90.000000
_cell_volume 3249.341790
_symmetry_space_group_name_H-M "P N N M"
_symmetry_group_IT_number 58
_symmetry_cell_setting 'orthorhombic'
loop_
_space_group_symop_operation_xyz
x,y,z
-x,-y,z
1/2+x,1/2-y,1/2-z
1/2-x,1/2+y,1/2-z
-x,-y,-z
x,y,-z
1/2-x,1/2+y,1/2+z
1/2+x,1/2-y,1/2+z
loop_
_atom_site_type_symbol
_atom_site_label
_atom_site_fract_x
_atom_site_fract_y
_atom_site_fract_z
Si Si1 0.206915 0.475233 0.812728
Si Si2 0.452756 0.568037 0.191937
Si Si3 0.953027 0.747454 0.681661
Si Si4 0.856326 0.372514 0.680870
Si Si5 0.981728 0.408339 0.187214
Si Si6 0.249706 0.702246 0.177587
Si Si7 0.159110 0.299559 0.175280
Si Si8 0.323343 0.534239 0.182825
O O1 0.176010 0.541975 0.707594
O O2 0.169234 0.394586 0.801088
O O3 0.274273 0.469986 0.763142
O O4 0.206137 0.498998 0.000000
O O5 0.500000 0.500000 0.236652
O O6 0.468284 0.661210 0.240349
O O7 0.387778 0.545063 0.249258
O O8 0.451203 0.570613 0.000000
O O9 0.969809 0.741896 0.500000
O O10 0.884246 0.740074 0.702173
O O11 0.976941 0.666951 0.766988
O O12 0.855820 0.348598 0.500000
O O13 0.920359 0.384562 0.741616
O O14 0.816612 0.312930 0.782868
O O15 0.000000 0.500000 0.241083
O O16 0.977629 0.412217 0.000000
O O17 0.278434 0.761391 0.301348
O O18 0.287112 0.618680 0.192748
O O19 0.256322 0.731500 0.000000
O O20 0.137123 0.283993 0.000000
O O21 0.333006 0.515785 0.000000
#
# Coordination Sequence:
#
# PCOD9442388 Si02
#       8
#     8   8   8   8   8   8   8   8
#     4   9  19  34  54  81 114 152 190 232 291 361
#     4   9  17  32  56  85 113 148 197 247 297 353
#     4  11  22  37  59  90 119 154 204 254 305 359
#     4  11  22  37  58  85 114 147 191 241 293 353
#     4  11  24  42  62  85 119 164 204 242 299 368
#     4  10  19  35  58  80 111 151 188 234 294 354
#     4  11  21  34  54  85 118 151 196 244 292 354
#     4   8  14  30  53  76 104 142 184 229 286 347
#
# _framework density 19.696296
#
# number of rings (size 3 to 8) (size 9 to 14) (size 15 to 20)
#    0.000    2.000    1.250    4.125    0.000    5.000 
#    2.250    0.000    0.000    1.500    0.000    0.000 
#    0.000    0.000    0.000    0.000    0.000    0.000 
#
# Total GULP energy -356625.423851 kJ/mol
# GULP energy per Si atom -5572.272248 kJ/mol
# Density = 1.965147 g / cm^3
# Si number density = 19.696296 Si / 1000 Ang^3
#
#
#
# Elastic Constant Matrix: (Units=GPa)
#
#
# Indices 1 2 3 4 5 6 
#
# 1 90.4535 15.6711 7.3095 0.0000 0.0000 0.0000
# 2 15.6711 58.2649 11.0294 0.0000 0.0000 0.0000
# 3 7.3095 11.0294 30.4310 0.0000 0.0000 0.0000
# 4 0.0000 0.0000 0.0000 13.9558 0.0000 0.0000
# 5 0.0000 0.0000 0.0000 0.0000 37.2854 0.0000
# 6 0.0000 0.0000 0.0000 0.0000 0.0000 24.6884
#
#
#
# Elastic Compliance Matrix: (Units=1/GPa)
#
#
# Indices 1 2 3 4 5 6 
#
# 1 0.011686 -0.002804 -0.001791 0.000000 0.000000 0.000000
# 2 -0.002804 0.019100 -0.006249 0.000000 0.000000 0.000000
# 3 -0.001791 -0.006249 0.035556 0.000000 0.000000 0.000000
# 4 0.000000 0.000000 0.000000 0.071655 0.000000 0.000000
# 5 0.000000 0.000000 0.000000 0.000000 0.026820 0.000000
# 6 0.000000 0.000000 0.000000 0.000000 0.000000 0.040505
#
#
# Mechanical properties :
#
#
# Convention : Reuss Voigt Hill
#
# Bulk Modulus (GPa) = 22.39409 27.46325 24.92867
# Shear Modulus (GPa) = 20.67016 24.86187 22.76601
#
# Velocity S-wave (km/s) = 3.24303 3.55669 3.40347
# Velocity P-wave (km/s) = 5.04156 5.55341 5.30366
#
# Compressibility (1/GPa) = 0.04465465
#
# Stress axis : x y z
#
# Youngs Moduli (GPa) = 85.57307 52.35566 28.12442
#
# Poissons Ratio (x) = 0.14681 0.05036
# Poissons Ratio (y) = 0.23996 0.17575
# Poissons Ratio (z) = 0.15323 0.32718
#
# Static dielectric constant tensor:
#      x y z
#    x 1.744430 0.000000 0.000000 
#    y 0.000000 1.758010 0.000000 
#    z 0.000000 0.000000 1.668330 
# 
# From -- ./inp_files/9230.got.cif
#   From: 2010.05.17/outbox.cif.g08.bks.cpg/sg58_5_cif.got.tgz:9230.got - 2010.06.03 14:20:14.
