data_PCOD9442224
_publ_section_title
;
Structure prediction by ZEFSAII (Michael W. Deem and Ramdas Pophale) SiO2 
 PCOD9442224
Probable space group: P N N M
;
_chemical_formula_sum "Si O2"
_cell_formula_units_Z 64
_cell_length_a 20.183672
_cell_length_b 21.233527
_cell_length_c 8.585680
_cell_angle_alpha 90.000000
_cell_angle_beta 90.000000
_cell_angle_gamma 90.000000
_cell_volume 3679.569551
_symmetry_space_group_name_H-M "P N N M"
_symmetry_group_IT_number 58
_symmetry_cell_setting 'orthorhombic'
loop_
_space_group_symop_operation_xyz
x,y,z
-x,-y,z
1/2+x,1/2-y,1/2-z
1/2-x,1/2+y,1/2-z
-x,-y,-z
x,y,-z
1/2-x,1/2+y,1/2+z
1/2+x,1/2-y,1/2+z
loop_
_atom_site_type_symbol
_atom_site_label
_atom_site_fract_x
_atom_site_fract_y
_atom_site_fract_z
Si Si1 0.786028 0.808710 0.687396
Si Si2 0.568945 0.739957 0.311256
Si Si3 0.293373 0.315475 0.310341
Si Si4 0.434755 0.118206 0.814679
Si Si5 0.421251 0.734152 0.686562
Si Si6 0.077921 0.382653 0.186389
Si Si7 0.201276 0.570776 0.186525
Si Si8 0.787394 0.562643 0.686445
O O1 0.783782 0.808273 0.500000
O O2 0.749125 0.745059 0.742419
O O3 0.861769 0.804631 0.739910
O O4 0.746149 0.870316 0.740250
O O5 0.569944 0.746852 0.500000
O O6 0.630661 0.696793 0.264711
O O7 0.576842 0.809832 0.242098
O O8 0.495997 0.715685 0.266957
O O9 0.291450 0.315686 0.500000
O O10 0.259768 0.380215 0.258607
O O11 0.505178 0.097525 0.743635
O O12 0.372284 0.078922 0.755021
O O13 0.438564 0.116128 0.000000
O O14 0.416456 0.729706 0.500000
O O15 0.414302 0.808347 0.727847
O O16 0.137994 0.419625 0.263720
O O17 0.081383 0.388380 0.000000
O O18 0.230052 0.504343 0.240649
O O19 0.196771 0.572902 0.000000
O O20 0.783882 0.558752 0.500000
#
# Coordination Sequence:
#
# PCOD9442224 Si02
#       8
#     8   8   8   8   8   8   8   8
#     4  10  19  34  57  78 103 142 180 217 263 317
#     4   9  17  34  55  79 109 143 177 212 268 326
#     4   9  17  33  57  80 105 139 177 219 265 317
#     4  11  21  33  52  80 109 140 180 226 263 303
#     4   9  18  30  52  82 110 135 171 223 263 307
#     4  10  20  35  53  76 109 149 181 211 259 324
#     4  11  23  39  55  74 106 148 183 214 264 328
#     4  11  22  36  55  81 109 138 177 228 272 310
#
# _framework density 17.393338
#
# number of rings (size 3 to 8) (size 9 to 14) (size 15 to 20)
#    0.000    2.000    2.500    3.000    0.000    3.500 
#    0.000    3.750    0.000    0.750    0.000    5.250 
#    0.000    0.000    0.000    0.000    0.000    0.000 
#
# Total GULP energy -357247.043458 kJ/mol
# GULP energy per Si atom -5581.985054 kJ/mol
# Density = 1.735375 g / cm^3
# Si number density = 17.393338 Si / 1000 Ang^3
#
#
#
# Elastic Constant Matrix: (Units=GPa)
#
#
# Indices 1 2 3 4 5 6 
#
# 1 96.2430 36.0767 5.9744 0.0000 0.0000 0.0000
# 2 36.0767 69.4069 4.5448 0.0000 0.0000 0.0000
# 3 5.9744 4.5448 23.9280 0.0000 0.0000 0.0000
# 4 0.0000 0.0000 0.0000 31.4374 0.0000 0.0000
# 5 0.0000 0.0000 0.0000 0.0000 23.8064 0.0000
# 6 0.0000 0.0000 0.0000 0.0000 0.0000 22.0308
#
#
#
# Elastic Compliance Matrix: (Units=1/GPa)
#
#
# Indices 1 2 3 4 5 6 
#
# 1 0.012997 -0.006626 -0.001987 0.000000 0.000000 0.000000
# 2 -0.006626 0.017967 -0.001758 0.000000 0.000000 0.000000
# 3 -0.001987 -0.001758 0.042622 0.000000 0.000000 0.000000
# 4 0.000000 0.000000 0.000000 0.031809 0.000000 0.000000
# 5 0.000000 0.000000 0.000000 0.000000 0.042006 0.000000
# 6 0.000000 0.000000 0.000000 0.000000 0.000000 0.045391
#
#
# Mechanical properties :
#
#
# Convention : Reuss Voigt Hill
#
# Bulk Modulus (GPa) = 18.92334 31.41888 25.17111
# Shear Modulus (GPa) = 21.63113 24.98706 23.30910
#
# Velocity S-wave (km/s) = 3.53036 3.79435 3.66473
# Velocity P-wave (km/s) = 5.24606 6.10729 5.69299
#
# Compressibility (1/GPa) = 0.05284480
#
# Stress axis : x y z
#
# Youngs Moduli (GPa) = 76.93870 55.65791 23.46206
#
# Poissons Ratio (x) = 0.36878 0.04661
# Poissons Ratio (y) = 0.50978 0.04125
# Poissons Ratio (z) = 0.15286 0.09786
#
# Static dielectric constant tensor:
#      x y z
#    x 1.593890 0.000000 0.000000 
#    y 0.000000 1.588640 0.000000 
#    z 0.000000 0.000000 1.587440 
# 
# From -- ./inp_files/8249.got.cif
#   From: 2010.05.17/outbox.cif.g08.bks.cpg/sg58_5_cif.got.tgz:8249.got - 2010.06.03 14:20:14.
