data_PCOD9442541
_publ_section_title
;
Structure prediction by ZEFSAII (Michael W. Deem and Ramdas Pophale) SiO2 
 PCOD9442541
Probable space group: P N N M
;
_chemical_formula_sum "Si O2"
_cell_formula_units_Z 56
_cell_length_a 11.168384
_cell_length_b 21.329343
_cell_length_c 11.247236
_cell_angle_alpha 90.000000
_cell_angle_beta 90.000000
_cell_angle_gamma 90.000000
_cell_volume 2679.252373
_symmetry_space_group_name_H-M "P N N M"
_symmetry_group_IT_number 58
_symmetry_cell_setting 'orthorhombic'
loop_
_space_group_symop_operation_xyz
x,y,z
-x,-y,z
1/2+x,1/2-y,1/2-z
1/2-x,1/2+y,1/2-z
-x,-y,-z
x,y,-z
1/2-x,1/2+y,1/2+z
1/2+x,1/2-y,1/2+z
loop_
_atom_site_type_symbol
_atom_site_label
_atom_site_fract_x
_atom_site_fract_y
_atom_site_fract_z
Si Si1 0.824086 0.901245 0.252943
Si Si2 0.561168 0.122929 0.864808
Si Si3 0.318094 0.200296 0.863201
Si Si4 0.797408 0.209343 0.136248
Si Si5 0.166608 0.949645 0.500000
Si Si6 0.593121 0.402213 0.000000
Si Si7 0.062224 0.915736 0.866140
Si Si8 0.288692 0.970401 0.257043
O O1 0.787452 0.850114 0.157062
O O2 0.849299 0.872983 0.382724
O O3 0.952305 0.930922 0.219340
O O4 0.722888 0.954745 0.262244
O O5 0.440598 0.161391 0.845469
O O6 0.672270 0.171321 0.854892
O O7 0.591196 0.064161 0.781446
O O8 0.558899 0.099017 0.000000
O O9 0.308066 0.247476 0.752312
O O10 0.316180 0.224727 0.000000
O O11 0.902051 0.157209 0.144756
O O12 0.803064 0.235845 0.000000
O O13 0.243599 0.942215 0.381736
O O14 0.050888 0.904716 0.500000
O O15 0.126594 0.023205 0.500000
O O16 0.184957 0.951027 0.836187
O O17 0.025337 0.928887 0.000000
#
# Coordination Sequence:
#
# PCOD9442541 Si02
#       8
#     8   8   8   8   4   4   8   8
#     4  11  22  35  59  91 125 157 195 247 301 357
#     4   9  21  43  63  83 119 160 197 240 298 364
#     4  11  25  42  60  90 122 155 206 253 291 354
#     4   9  21  43  64  81 113 160 201 248 305 354
#     4   9  16  32  55  83 123 157 194 243 276 343
#     4   9  18  34  53  83 125 161 194 231 292 357
#     4  10  20  35  58  89 120 150 196 252 302 353
#     4  10  19  36  59  89 122 161 195 238 303 358
#
# _framework density 20.901354999999999
#
# number of rings (size 3 to 8) (size 9 to 14) (size 15 to 20)
#    0.000    2.143    1.429    2.143    3.000    3.429 
#    7.714    1.429    0.000    2.571    0.000    0.000 
#    0.000    0.000    0.000    0.000    0.000    0.000 
#
# Total GULP energy -312474.545329 kJ/mol
# GULP energy per Si atom -5579.902595 kJ/mol
# Density = 2.085378 g / cm^3
# Si number density = 20.901355 Si / 1000 Ang^3
#
#
#
# Elastic Constant Matrix: (Units=GPa)
#
#
# Indices 1 2 3 4 5 6 
#
# 1 53.7729 9.3739 9.8953 0.0000 0.0000 0.0000
# 2 9.3739 46.1459 34.7282 0.0000 0.0000 0.0000
# 3 9.8953 34.7282 124.0001 0.0000 0.0000 0.0000
# 4 0.0000 0.0000 0.0000 18.6483 0.0000 0.0000
# 5 0.0000 0.0000 0.0000 0.0000 36.5111 0.0000
# 6 0.0000 0.0000 0.0000 0.0000 0.0000 18.2083
#
#
#
# Elastic Compliance Matrix: (Units=1/GPa)
#
#
# Indices 1 2 3 4 5 6 
#
# 1 0.019310 -0.003501 -0.000561 0.000000 0.000000 0.000000
# 2 -0.003501 0.028092 -0.007588 0.000000 0.000000 0.000000
# 3 -0.000561 -0.007588 0.010234 0.000000 0.000000 0.000000
# 4 0.000000 0.000000 0.000000 0.053624 0.000000 0.000000
# 5 0.000000 0.000000 0.000000 0.000000 0.027389 0.000000
# 6 0.000000 0.000000 0.000000 0.000000 0.000000 0.054920
#
#
# Mechanical properties :
#
#
# Convention : Reuss Voigt Hill
#
# Bulk Modulus (GPa) = 29.12252 36.87930 33.00091
# Shear Modulus (GPa) = 21.89953 26.00163 23.95058
#
# Velocity S-wave (km/s) = 3.24042 3.53089 3.38877
# Velocity P-wave (km/s) = 5.28810 5.85710 5.57986
#
# Compressibility (1/GPa) = 0.03433769
#
# Stress axis : x y z
#
# Youngs Moduli (GPa) = 51.78624 35.59691 97.70898
#
# Poissons Ratio (x) = 0.12462 0.05477
# Poissons Ratio (y) = 0.18129 0.74145
# Poissons Ratio (z) = 0.02903 0.27012
#
# Static dielectric constant tensor:
#      x y z
#    x 1.742590 0.000000 0.000000 
#    y 0.000000 1.787720 0.000000 
#    z 0.000000 0.000000 1.779320 
# 
# From -- ./inp_files/14787.got.cif
#   From: 2010.05.17/outbox.cif.g08.bks.cpg/sg58_8_cif.got.tgz:14787.got - 2010.06.03 14:20:14.
