data_PCOD9442280
_publ_section_title
;
Structure prediction by ZEFSAII (Michael W. Deem and Ramdas Pophale) SiO2 
 PCOD9442280
Probable space group: P N N M
;
_chemical_formula_sum "Si O2"
_cell_formula_units_Z 64
_cell_length_a 29.095515
_cell_length_b 12.935862
_cell_length_c 7.906901
_cell_angle_alpha 90.000000
_cell_angle_beta 90.000000
_cell_angle_gamma 90.000000
_cell_volume 2975.964346
_symmetry_space_group_name_H-M "P N N M"
_symmetry_group_IT_number 58
_symmetry_cell_setting 'orthorhombic'
loop_
_space_group_symop_operation_xyz
x,y,z
-x,-y,z
1/2+x,1/2-y,1/2-z
1/2-x,1/2+y,1/2-z
-x,-y,-z
x,y,-z
1/2-x,1/2+y,1/2+z
1/2+x,1/2-y,1/2+z
loop_
_atom_site_type_symbol
_atom_site_label
_atom_site_fract_x
_atom_site_fract_y
_atom_site_fract_z
Si Si1 0.089541 0.120113 0.204976
Si Si2 0.619483 0.969556 0.196535
Si Si3 0.957441 0.319745 0.803200
Si Si4 0.564280 0.600794 0.200176
Si Si5 0.170805 0.862355 0.703605
Si Si6 0.192826 0.080025 0.803591
Si Si7 0.791538 0.360283 0.707792
Si Si8 0.556106 0.157122 0.298758
O O1 0.142333 0.106105 0.268339
O O2 0.072169 0.231082 0.266489
O O3 0.059284 0.020256 0.256259
O O4 0.090492 0.119277 0.000000
O O5 0.592301 0.066254 0.271697
O O6 0.586781 0.868496 0.213399
O O7 0.669852 0.941850 0.266883
O O8 0.625201 0.992626 0.000000
O O9 0.962227 0.195500 0.786340
O O10 0.004910 0.367022 0.734060
O O11 0.951589 0.346871 0.000000
O O12 0.617306 0.625137 0.247883
O O13 0.558230 0.612637 0.000000
O O14 0.174337 0.872302 0.500000
O O15 0.190012 0.752214 0.754277
O O16 0.196909 0.956801 0.788640
O O17 0.239711 0.124966 0.729577
O O18 0.191128 0.111833 0.000000
O O19 0.790890 0.365697 0.500000
O O20 0.550509 0.169426 0.500000
#
# Coordination Sequence:
#
# PCOD9442280 Si02
#       8
#     8   8   8   8   8   8   8   8
#     4   9  19  37  57  79 111 150 187 225 277 335
#     4  11  22  38  58  81 111 147 187 232 282 334
#     4  11  22  37  58  82 111 147 187 232 283 334
#     4  10  19  34  58  84 110 141 185 233 275 326
#     4   9  17  33  53  74 106 142 174 220 276 322
#     4   9  18  33  55  80 105 139 181 222 269 327
#     4   9  18  34  54  78 108 141 175 221 278 326
#     4  10  23  40  56  80 115 151 186 230 281 335
#
# _framework density 21.505633
#
# number of rings (size 3 to 8) (size 9 to 14) (size 15 to 20)
#    0.000    2.250    1.250    1.500    0.000    5.000 
#    0.000    5.625    0.000    0.000    0.000    0.000 
#    0.000    0.000    0.000    0.000    0.000    0.000 
#
# Total GULP energy -357191.395976 kJ/mol
# GULP energy per Si atom -5581.115562 kJ/mol
# Density = 2.145669 g / cm^3
# Si number density = 21.505633 Si / 1000 Ang^3
#
#
#
# Elastic Constant Matrix: (Units=GPa)
#
#
# Indices 1 2 3 4 5 6 
#
# 1 62.8126 9.7690 1.4908 0.0000 0.0000 0.0000
# 2 9.7690 81.0671 -6.6133 0.0000 0.0000 0.0000
# 3 1.4908 -6.6133 15.4412 0.0000 0.0000 0.0000
# 4 0.0000 0.0000 0.0000 11.5833 0.0000 0.0000
# 5 0.0000 0.0000 0.0000 0.0000 10.0729 0.0000
# 6 0.0000 0.0000 0.0000 0.0000 0.0000 18.0044
#
#
#
# Elastic Compliance Matrix: (Units=1/GPa)
#
#
# Indices 1 2 3 4 5 6 
#
# 1 0.016317 -0.002171 -0.002505 0.000000 0.000000 0.000000
# 2 -0.002171 0.013071 0.005808 0.000000 0.000000 0.000000
# 3 -0.002505 0.005808 0.067491 0.000000 0.000000 0.000000
# 4 0.000000 0.000000 0.000000 0.086331 0.000000 0.000000
# 5 0.000000 0.000000 0.000000 0.000000 0.099276 0.000000
# 6 0.000000 0.000000 0.000000 0.000000 0.000000 0.055542
#
#
# Mechanical properties :
#
#
# Convention : Reuss Voigt Hill
#
# Bulk Modulus (GPa) = 10.08644 18.73488 14.41066
# Shear Modulus (GPa) = 13.55703 18.24375 15.90039
#
# Velocity S-wave (km/s) = 2.51349 2.91576 2.72207
# Velocity P-wave (km/s) = 3.62268 4.47952 4.07369
#
# Compressibility (1/GPa) = 0.09914300
#
# Stress axis : x y z
#
# Youngs Moduli (GPa) = 61.28412 76.50630 14.81681
#
# Poissons Ratio (x) = 0.16607 0.03712
# Poissons Ratio (y) = 0.13303 -0.08605
# Poissons Ratio (z) = 0.15352 -0.44432
#
# Static dielectric constant tensor:
#      x y z
#    x 1.804750 0.000000 0.000000 
#    y 0.000000 1.774520 0.000000 
#    z 0.000000 0.000000 1.771690 
# 
# From -- ./inp_files/11034.got.cif
#   From: 2010.05.17/outbox.cif.g08.bks.cpg/sg58_6_cif.got.tgz:11034.got - 2010.06.03 14:20:14.
