data_PCOD9442525
_publ_section_title
;
Structure prediction by ZEFSAII (Michael W. Deem and Ramdas Pophale) SiO2 
 PCOD9442525
Probable space group: P N N M
;
_chemical_formula_sum "Si O2"
_cell_formula_units_Z 52
_cell_length_a 14.882180
_cell_length_b 7.529955
_cell_length_c 23.821602
_cell_angle_alpha 90.000000
_cell_angle_beta 90.000000
_cell_angle_gamma 90.000000
_cell_volume 2669.499834
_symmetry_space_group_name_H-M "P N N M"
_symmetry_group_IT_number 58
_symmetry_cell_setting 'orthorhombic'
loop_
_space_group_symop_operation_xyz
x,y,z
-x,-y,z
1/2+x,1/2-y,1/2-z
1/2-x,1/2+y,1/2-z
-x,-y,-z
x,y,-z
1/2-x,1/2+y,1/2+z
1/2+x,1/2-y,1/2+z
loop_
_atom_site_type_symbol
_atom_site_label
_atom_site_fract_x
_atom_site_fract_y
_atom_site_fract_z
Si Si1 0.294665 0.061876 0.000000
Si Si2 0.808377 0.360265 0.204161
Si Si3 0.108731 0.881622 0.000000
Si Si4 0.863614 0.659936 0.282556
Si Si5 0.589287 0.914200 0.593174
Si Si6 0.867595 0.706110 0.000000
Si Si7 0.054342 0.817269 0.287874
Si Si8 0.400407 0.079019 0.884072
O O1 0.235526 0.239619 0.000000
O O2 0.351805 0.067858 0.056665
O O3 0.218871 0.904809 0.000000
O O4 0.830634 0.550305 0.229709
O O5 0.702858 0.324479 0.211024
O O6 0.840305 0.361116 0.140403
O O7 0.869393 0.223391 0.241471
O O8 0.079898 0.760332 0.053321
O O9 0.914579 0.904579 0.000000
O O10 0.849856 0.543417 0.338549
O O11 0.969266 0.688780 0.277002
O O12 0.500000 0.000000 0.621128
O O13 0.614027 0.078920 0.552564
O O14 0.090723 0.765093 0.349955
O O15 0.000000 0.000000 0.286052
O O16 0.500000 0.000000 0.891697
#
# Coordination Sequence:
#
# PCOD9442525 Si02
#       8
#     4   8   4   8   8   4   8   8
#     4  10  19  36  58  89 112 153 210 240 288 379
#     4  11  22  39  61  89 118 157 207 248 298 376
#     4   9  21  40  59  86 123 156 200 247 319 359
#     4  10  21  37  58  83 120 158 188 252 312 352
#     4  11  22  40  62  87 121 159 204 257 303 364
#     4   9  23  38  59  85 119 156 195 249 308 362
#     4  10  21  39  57  85 120 156 195 246 309 355
#     4   9  19  36  59  81 116 153 194 244 302 354
#
# _framework density 19.479306000000001
#
# number of rings (size 3 to 8) (size 9 to 14) (size 15 to 20)
#    0.462    1.538    0.000    5.308    0.000    4.923 
#    5.538    1.923    0.000    0.000    0.000    0.000 
#    0.000    0.000    0.000    0.000    0.000    0.000 
#
# Total GULP energy -289518.570396 kJ/mol
# GULP energy per Si atom -5567.664815 kJ/mol
# Density = 1.943497 g / cm^3
# Si number density = 19.479306 Si / 1000 Ang^3
#
#
#
# Elastic Constant Matrix: (Units=GPa)
#
#
# Indices 1 2 3 4 5 6 
#
# 1 59.4605 4.3387 8.2449 0.0000 0.0000 0.0000
# 2 4.3387 92.0799 20.0849 0.0000 0.0000 0.0000
# 3 8.2449 20.0849 87.2831 0.0000 0.0000 0.0000
# 4 0.0000 0.0000 0.0000 34.5623 0.0000 0.0000
# 5 0.0000 0.0000 0.0000 0.0000 17.3515 0.0000
# 6 0.0000 0.0000 0.0000 0.0000 0.0000 34.1543
#
#
#
# Elastic Compliance Matrix: (Units=1/GPa)
#
#
# Indices 1 2 3 4 5 6 
#
# 1 0.017061 -0.000476 -0.001502 0.000000 0.000000 0.000000
# 2 -0.000476 0.011447 -0.002589 0.000000 0.000000 0.000000
# 3 -0.001502 -0.002589 0.012195 0.000000 0.000000 0.000000
# 4 0.000000 0.000000 0.000000 0.028933 0.000000 0.000000
# 5 0.000000 0.000000 0.000000 0.000000 0.057632 0.000000
# 6 0.000000 0.000000 0.000000 0.000000 0.000000 0.029279
#
#
# Mechanical properties :
#
#
# Convention : Reuss Voigt Hill
#
# Bulk Modulus (GPa) = 31.67766 33.79562 32.73664
# Shear Modulus (GPa) = 28.37610 30.95728 29.66669
#
# Velocity S-wave (km/s) = 3.82085 3.99085 3.90678
# Velocity P-wave (km/s) = 5.98020 6.21474 6.09860
#
# Compressibility (1/GPa) = 0.03156799
#
# Stress axis : x y z
#
# Youngs Moduli (GPa) = 58.61349 87.35650 82.00309
#
# Poissons Ratio (x) = 0.04160 0.12317
# Poissons Ratio (y) = 0.02792 0.21232
# Poissons Ratio (z) = 0.08804 0.22618
#
# Static dielectric constant tensor:
#      x y z
#    x 1.729690 0.000000 0.000000 
#    y 0.000000 1.755350 0.000000 
#    z 0.000000 0.000000 1.776700 
# 
# From -- ./inp_files/29983.got.cif
#   From: 2010.05.17/outbox.cif.g08.bks.cpg/sg58_15_cif.got.tgz:29983.got - 2010.06.03 14:20:14.
