data_PCOD9442742
_publ_section_title
;
Structure prediction by ZEFSAII (Michael W. Deem and Ramdas Pophale) SiO2 
 PCOD9442742
Probable space group: P N N M
;
_chemical_formula_sum "Si O2"
_cell_formula_units_Z 60
_cell_length_a 19.591897
_cell_length_b 5.386128
_cell_length_c 28.647346
_cell_angle_alpha 90.000000
_cell_angle_beta 90.000000
_cell_angle_gamma 90.000000
_cell_volume 3022.995860
_symmetry_space_group_name_H-M "P N N M"
_symmetry_group_IT_number 58
_symmetry_cell_setting 'orthorhombic'
loop_
_space_group_symop_operation_xyz
x,y,z
-x,-y,z
1/2+x,1/2-y,1/2-z
1/2-x,1/2+y,1/2-z
-x,-y,-z
x,y,-z
1/2-x,1/2+y,1/2+z
1/2+x,1/2-y,1/2+z
loop_
_atom_site_type_symbol
_atom_site_label
_atom_site_fract_x
_atom_site_fract_y
_atom_site_fract_z
Si Si1 0.583376 0.489897 0.945619
Si Si2 0.500000 0.500000 0.237574
Si Si3 0.083457 0.997772 0.945504
Si Si4 0.418863 0.012175 0.896334
Si Si5 0.902137 0.360059 0.791092
Si Si6 0.419125 0.996778 0.396454
Si Si7 0.884189 0.680375 0.300544
Si Si8 0.741267 0.652934 0.722678
O O1 0.500000 0.500000 0.943664
O O2 0.607919 0.739553 0.920322
O O3 0.607575 0.242537 0.919293
O O4 0.601946 0.484560 0.000000
O O5 0.533807 0.704601 0.271498
O O6 0.439198 0.601096 0.204675
O O7 0.108081 0.242333 0.918292
O O8 0.108241 0.745835 0.920904
O O9 0.101622 0.005099 0.000000
O O10 0.000000 0.000000 0.943178
O O11 0.500000 0.000000 0.904243
O O12 0.407286 0.003099 0.841119
O O13 0.912154 0.484606 0.840901
O O14 0.886889 0.556584 0.750430
O O15 0.835418 0.185581 0.795191
O O16 0.500000 0.000000 0.406511
O O17 0.804791 0.737091 0.309470
O O18 0.752235 0.365109 0.736777
#
# Coordination Sequence:
#
# PCOD9442742 Si02
#       8
#     8   4   8   8   8   8   8   8
#     4   9  18  32  50  76 111 145 183 233 294 346
#     4  12  22  36  60  86 118 158 194 240 294 332
#     4   9  18  32  50  76 111 145 183 233 294 346
#     4  10  20  31  52  80 110 148 185 236 285 343
#     4  11  24  37  57  86 120 158 196 240 286 351
#     4  10  20  31  52  80 110 148 185 236 285 343
#     4  11  24  37  57  86 120 158 196 240 286 351
#     4  10  22  42  58  78 115 162 201 236 284 340
#
# _framework density 19.847860000000001
#
# number of rings (size 3 to 8) (size 9 to 14) (size 15 to 20)
#    0.000    1.867    1.333    2.800    9.333    3.200 
#    0.000    0.000    0.000    0.000    0.000    5.600 
#    0.000    0.000    0.000    0.000    0.000    0.000 
#
# Total GULP energy -334645.299314 kJ/mol
# GULP energy per Si atom -5577.421655 kJ/mol
# Density = 1.980269 g / cm^3
# Si number density = 19.847860 Si / 1000 Ang^3
#
#
#
# Elastic Constant Matrix: (Units=GPa)
#
#
# Indices 1 2 3 4 5 6 
#
# 1 36.5294 12.0688 -2.0574 0.0000 0.0000 0.0000
# 2 12.0688 121.7299 66.6979 0.0000 0.0000 0.0000
# 3 -2.0574 66.6979 98.0862 0.0000 0.0000 0.0000
# 4 0.0000 0.0000 0.0000 31.3608 0.0000 0.0000
# 5 0.0000 0.0000 0.0000 0.0000 -8.6785 0.0000
# 6 0.0000 0.0000 0.0000 0.0000 0.0000 12.4071
#
#
#
# Elastic Compliance Matrix: (Units=1/GPa)
#
#
# Indices 1 2 3 4 5 6 
#
# 1 0.029316 -0.005169 0.004130 0.000000 0.000000 0.000000
# 2 -0.005169 0.014005 -0.009632 0.000000 0.000000 0.000000
# 3 0.004130 -0.009632 0.016831 0.000000 0.000000 0.000000
# 4 0.000000 0.000000 0.000000 0.031887 0.000000 0.000000
# 5 0.000000 0.000000 0.000000 0.000000 -0.115228 0.000000
# 6 0.000000 0.000000 0.000000 0.000000 0.000000 0.080599
#
#
# Mechanical properties :
#
#
# Convention : Reuss Voigt Hill
#
# Bulk Modulus (GPa) = 25.76668 45.52933 35.64801
# Shear Modulus (GPa) = 54.53276 18.99364 36.76320
#
# Velocity S-wave (km/s) = 5.24738 3.09684 4.30845
# Velocity P-wave (km/s) = 7.05150 5.98132 6.53834
#
# Compressibility (1/GPa) = 0.03880981
#
# Stress axis : x y z
#
# Youngs Moduli (GPa) = 34.11138 71.40469 59.41386
#
# Poissons Ratio (x) = 0.36912 -0.24538
# Poissons Ratio (y) = 0.17634 0.57224
# Poissons Ratio (z) = -0.14088 0.68773
#
# Static dielectric constant tensor:
#      x y z
#    x 1.758540 0.000000 0.000000 
#    y 0.000000 1.755220 0.000000 
#    z 0.000000 0.000000 1.673580 
# 
# From -- ./inp_files/32417.got.cif
#   From: 2010.05.17/outbox.cif.g08.bks.cpg/sg58_17_cif.got.tgz:32417.got - 2010.06.03 14:20:14.
