data_PCOD9442730
_publ_section_title
;
Structure prediction by ZEFSAII (Michael W. Deem and Ramdas Pophale) SiO2 
 PCOD9442730
Probable space group: P N N M
;
_chemical_formula_sum "Si O2"
_cell_formula_units_Z 56
_cell_length_a 19.458904
_cell_length_b 17.444101
_cell_length_c 7.370240
_cell_angle_alpha 90.000000
_cell_angle_beta 90.000000
_cell_angle_gamma 90.000000
_cell_volume 2501.777016
_symmetry_space_group_name_H-M "P N N M"
_symmetry_group_IT_number 58
_symmetry_cell_setting 'orthorhombic'
loop_
_space_group_symop_operation_xyz
x,y,z
-x,-y,z
1/2+x,1/2-y,1/2-z
1/2-x,1/2+y,1/2-z
-x,-y,-z
x,y,-z
1/2-x,1/2+y,1/2+z
1/2+x,1/2-y,1/2+z
loop_
_atom_site_type_symbol
_atom_site_label
_atom_site_fract_x
_atom_site_fract_y
_atom_site_fract_z
Si Si1 0.144728 0.676950 0.278231
Si Si2 0.585047 0.369935 0.213009
Si Si3 0.933431 0.169660 0.278802
Si Si4 0.157559 0.976412 0.721365
Si Si5 0.301061 0.915688 0.280910
Si Si6 0.925895 0.477884 0.711732
Si Si7 0.289997 0.740274 0.281478
O O1 0.146505 0.675278 0.500000
O O2 0.098094 0.749208 0.223008
O O3 0.112066 0.597470 0.213195
O O4 0.222639 0.694209 0.218273
O O5 0.510686 0.346378 0.285799
O O6 0.619262 0.447519 0.287233
O O7 0.640529 0.302915 0.230803
O O8 0.573587 0.385038 0.000000
O O9 0.933722 0.171130 0.500000
O O10 0.884229 0.099517 0.226061
O O11 0.158263 0.978624 0.500000
O O12 0.236419 0.967093 0.779894
O O13 0.300361 0.914829 0.500000
O O14 0.290280 0.828340 0.219167
O O15 0.372713 0.952274 0.223752
O O16 0.938072 0.459957 0.500000
O O17 0.000000 0.500000 0.790408
O O18 0.286548 0.742430 0.500000
#
# Coordination Sequence:
#
# PCOD9442730 Si02
#       7
#     8   8   8   8   8   8   8
#     4   9  17  33  53  73 101 142 180 205 249 317
#     4  10  20  30  52  84 107 127 162 220 270 298
#     4   9  16  29  52  79 106 134 167 209 255 310
#     4   9  16  31  52  79 107 132 169 212 258 310
#     4  10  20  35  55  75 101 139 179 216 254 307
#     4  10  22  36  54  80 109 139 175 221 267 312
#     4  10  20  35  54  74 101 143 183 209 248 315
#
# _framework density 22.384087999999998
#
# number of rings (size 3 to 8) (size 9 to 14) (size 15 to 20)
#    0.000    2.429    1.429    1.286    2.000    2.571 
#    0.000    0.000    0.000    3.429    0.000    0.000 
#    0.000    0.000    0.000    0.000    0.000    0.000 
#
# Total GULP energy -313014.814668 kJ/mol
# GULP energy per Si atom -5589.550262 kJ/mol
# Density = 2.233314 g / cm^3
# Si number density = 22.384088 Si / 1000 Ang^3
#
#
#
# Elastic Constant Matrix: (Units=GPa)
#
#
# Indices 1 2 3 4 5 6 
#
# 1 180.6153 27.3545 -8.2708 0.0000 0.0000 0.0000
# 2 27.3545 43.7886 -10.2694 0.0000 0.0000 0.0000
# 3 -8.2708 -10.2694 75.5331 0.0000 0.0000 0.0000
# 4 0.0000 0.0000 0.0000 7.6405 0.0000 0.0000
# 5 0.0000 0.0000 0.0000 0.0000 0.6621 0.0000
# 6 0.0000 0.0000 0.0000 0.0000 0.0000 1.8446
#
#
#
# Elastic Compliance Matrix: (Units=1/GPa)
#
#
# Indices 1 2 3 4 5 6 
#
# 1 0.006117 -0.003785 0.000155 0.000000 0.000000 0.000000
# 2 -0.003785 0.025931 0.003111 0.000000 0.000000 0.000000
# 3 0.000155 0.003111 0.013679 0.000000 0.000000 0.000000
# 4 0.000000 0.000000 0.000000 0.130881 0.000000 0.000000
# 5 0.000000 0.000000 0.000000 0.000000 1.510333 0.000000
# 6 0.000000 0.000000 0.000000 0.000000 0.000000 0.542130
#
#
# Mechanical properties :
#
#
# Convention : Reuss Voigt Hill
#
# Bulk Modulus (GPa) = 22.37631 35.28508 28.83069
# Shear Modulus (GPa) = 2.22717 21.43762 11.83239
#
# Velocity S-wave (km/s) = 0.99857 3.09806 2.30164
# Velocity P-wave (km/s) = 3.36864 5.34743 4.46893
#
# Compressibility (1/GPa) = 0.04469012
#
# Stress axis : x y z
#
# Youngs Moduli (GPa) = 163.48003 38.56394 73.10362
#
# Poissons Ratio (x) = 0.14596 -0.01135
# Poissons Ratio (y) = 0.61874 -0.22743
# Poissons Ratio (z) = -0.02538 -0.11998
#
# Static dielectric constant tensor:
#      x y z
#    x 1.783380 0.000000 0.000000 
#    y 0.000000 1.776210 0.000000 
#    z 0.000000 0.000000 1.932880 
# 
# From -- ./inp_files/8994.got.cif
#   From: 2010.05.17/outbox.cif.g08.bks.cpg/sg58_5_cif.got.tgz:8994.got - 2010.06.03 14:20:14.
