data_PCOD9442974
_publ_section_title
;
Structure prediction by ZEFSAII (Michael W. Deem and Ramdas Pophale) SiO2 
 PCOD9442974
Probable space group: P N N M
;
_chemical_formula_sum "Si O2"
_cell_formula_units_Z 32
_cell_length_a 14.984309
_cell_length_b 8.595858
_cell_length_c 14.400751
_cell_angle_alpha 90.000000
_cell_angle_beta 90.000000
_cell_angle_gamma 90.000000
_cell_volume 1854.859821
_symmetry_space_group_name_H-M "P N N M"
_symmetry_group_IT_number 58
_symmetry_cell_setting 'orthorhombic'
loop_
_space_group_symop_operation_xyz
x,y,z
-x,-y,z
1/2+x,1/2-y,1/2-z
1/2-x,1/2+y,1/2-z
-x,-y,-z
x,y,-z
1/2-x,1/2+y,1/2+z
1/2+x,1/2-y,1/2+z
loop_
_atom_site_type_symbol
_atom_site_label
_atom_site_fract_x
_atom_site_fract_y
_atom_site_fract_z
Si Si1 0.259095 0.563372 0.000000
Si Si2 0.720716 0.568430 0.500000
Si Si3 0.421483 0.873674 0.500000
Si Si4 0.089075 0.104013 0.640875
Si Si5 0.080223 0.382959 0.500000
Si Si6 0.090697 0.097556 0.140913
O O1 0.324310 0.536975 0.912129
O O2 0.224475 0.743051 0.000000
O O3 0.173774 0.456444 0.000000
O O4 0.825294 0.528471 0.500000
O O5 0.668820 0.496631 0.411956
O O6 0.424645 0.760056 0.411297
O O7 0.500000 0.000000 0.500000
O O8 0.075611 0.268491 0.588953
O O9 0.106810 0.118202 0.749985
O O10 0.000000 0.000000 0.627228
O O11 0.000000 0.500000 0.500000
O O12 0.000000 0.000000 0.129320
#
# Coordination Sequence:
#
# PCOD9442974 Si02
#       6
#     4   4   4   8   4   8
#     4  10  20  34  54  79 107 136 173 221 260 305
#     4   9  19  36  54  75 106 141 171 213 260 310
#     4  11  22  35  53  80 108 137 176 219 260 306
#     4   9  20  37  56  78 106 139 174 214 261 312
#     4  10  21  37  55  80 109 136 174 219 260 305
#     4  10  20  36  56  77 105 141 175 212 262 314
#
# _framework density 17.251978000000001
#
# number of rings (size 3 to 8) (size 9 to 14) (size 15 to 20)
#    0.000    2.500    0.000    4.500    0.000    9.000 
#    0.000    5.000    0.000    0.000    0.000    0.000 
#    0.000    0.000    0.000    0.000    0.000    0.000 
#
# Total GULP energy -178460.496023 kJ/mol
# GULP energy per Si atom -5576.890501 kJ/mol
# Density = 1.721271 g / cm^3
# Si number density = 17.251978 Si / 1000 Ang^3
#
#
#
# Elastic Constant Matrix: (Units=GPa)
#
#
# Indices 1 2 3 4 5 6 
#
# 1 166.2227 81.1428 99.6769 0.0000 0.0000 0.0000
# 2 81.1428 86.0116 71.5501 0.0000 0.0000 0.0000
# 3 99.6769 71.5501 178.0262 0.0000 0.0000 0.0000
# 4 0.0000 0.0000 0.0000 -1.2076 0.0000 0.0000
# 5 0.0000 0.0000 0.0000 0.0000 17.4131 0.0000
# 6 0.0000 0.0000 0.0000 0.0000 0.0000 45.4432
#
#
#
# Elastic Compliance Matrix: (Units=1/GPa)
#
#
# Indices 1 2 3 4 5 6 
#
# 1 0.012355 -0.008865 -0.003355 0.000000 0.000000 0.000000
# 2 -0.008865 0.023827 -0.004612 0.000000 0.000000 0.000000
# 3 -0.003355 -0.004612 0.009349 0.000000 0.000000 0.000000
# 4 0.000000 0.000000 0.000000 -0.828065 0.000000 0.000000
# 5 0.000000 0.000000 0.000000 0.000000 0.057428 0.000000
# 6 0.000000 0.000000 0.000000 0.000000 0.000000 0.022005
#
#
# Mechanical properties :
#
#
# Convention : Reuss Voigt Hill
#
# Bulk Modulus (GPa) = 84.27176 103.88890 94.08033
# Shear Modulus (GPa) = -7.51338 24.18912 8.33787
#
# Velocity S-wave (km/s) = -2.08915 3.74853 2.20079
# Velocity P-wave (km/s) = 6.56767 8.89295 7.81725
#
# Compressibility (1/GPa) = 0.01186637
#
# Stress axis : x y z
#
# Youngs Moduli (GPa) = 80.93639 41.96961 106.96023
#
# Poissons Ratio (x) = 0.37207 0.35883
# Poissons Ratio (y) = 0.71752 0.49335
# Poissons Ratio (z) = 0.27152 0.19358
#
# Static dielectric constant tensor:
#      x y z
#    x 1.576540 0.000000 0.000000 
#    y 0.000000 1.575930 0.000000 
#    z 0.000000 0.000000 1.580850 
# 
# From -- ./inp_files/19351.got.cif
#   From: 2010.05.17/outbox.cif.g08.bks.cpg/sg58_10_cif.got.tgz:19351.got - 2010.06.03 14:20:14.
