data_PCOD9442694
_publ_section_title
;
Structure prediction by ZEFSAII (Michael W. Deem and Ramdas Pophale) SiO2 
 PCOD9442694
Probable space group: P N N M
;
_chemical_formula_sum "Si O2"
_cell_formula_units_Z 34
_cell_length_a 12.931731
_cell_length_b 15.581070
_cell_length_c 7.531114
_cell_angle_alpha 90.000000
_cell_angle_beta 90.000000
_cell_angle_gamma 90.000000
_cell_volume 1517.445711
_symmetry_space_group_name_H-M "P N N M"
_symmetry_group_IT_number 58
_symmetry_cell_setting 'orthorhombic'
loop_
_space_group_symop_operation_xyz
x,y,z
-x,-y,z
1/2+x,1/2-y,1/2-z
1/2-x,1/2+y,1/2-z
-x,-y,-z
x,y,-z
1/2-x,1/2+y,1/2+z
1/2+x,1/2-y,1/2+z
loop_
_atom_site_type_symbol
_atom_site_label
_atom_site_fract_x
_atom_site_fract_y
_atom_site_fract_z
Si Si1 0.860606 0.444358 0.295073
Si Si2 0.248823 0.379080 0.284063
Si Si3 0.000000 0.500000 0.000000
Si Si4 0.690367 0.305501 0.792569
Si Si5 0.482005 0.402389 0.285564
O O1 0.893078 0.453274 0.500000
O O2 0.804677 0.532385 0.227802
O O3 0.775199 0.369360 0.288925
O O4 0.953617 0.435736 0.157761
O O5 0.247020 0.383248 0.500000
O O6 0.195323 0.291685 0.223704
O O7 0.368154 0.375099 0.227362
O O8 0.576673 0.344260 0.773212
O O9 0.716960 0.301876 0.000000
O O10 0.500000 0.500000 0.226342
O O11 0.482938 0.402323 0.500000
#
# Coordination Sequence:
#
# PCOD9442694 Si02
#       5
#     8   8   2   8   8
#     4  11  23  46  69  94 135 184 223 279 343 407
#     4   9  21  41  66  95 137 176 223 276 334 405
#     4  12  26  44  68 100 136 174 234 280 348 400
#     4  11  22  40  64 101 138 169 224 283 332 401
#     4  10  19  38  67  91 121 176 223 267 329 396
#
# _framework density 22.406072000000002
#
# number of rings (size 3 to 8) (size 9 to 14) (size 15 to 20)
#    0.000    1.647    3.529    1.059    0.000    2.353 
#   10.588    2.353    0.000    0.000    0.000    0.000 
#    0.000    0.000    0.000    0.000    0.000    0.000 
#
# Total GULP energy -189591.135239 kJ/mol
# GULP energy per Si atom -5576.209860 kJ/mol
# Density = 2.235507 g / cm^3
# Si number density = 22.406072 Si / 1000 Ang^3
#
#
#
# Elastic Constant Matrix: (Units=GPa)
#
#
# Indices 1 2 3 4 5 6 
#
# 1 34.2803 -5.1451 1.3920 0.0000 0.0000 0.0000
# 2 -5.1451 106.6833 -1.3749 0.0000 0.0000 0.0000
# 3 1.3920 -1.3749 110.7234 0.0000 0.0000 0.0000
# 4 0.0000 0.0000 0.0000 -70.0674 0.0000 0.0000
# 5 0.0000 0.0000 0.0000 0.0000 23.9591 0.0000
# 6 0.0000 0.0000 0.0000 0.0000 0.0000 39.7073
#
#
#
# Elastic Compliance Matrix: (Units=1/GPa)
#
#
# Indices 1 2 3 4 5 6 
#
# 1 0.029398 0.001413 -0.000352 0.000000 0.000000 0.000000
# 2 0.001413 0.009443 0.000099 0.000000 0.000000 0.000000
# 3 -0.000352 0.000099 0.009037 0.000000 0.000000 0.000000
# 4 0.000000 0.000000 0.000000 -0.014272 0.000000 0.000000
# 5 0.000000 0.000000 0.000000 0.000000 0.041738 0.000000
# 6 0.000000 0.000000 0.000000 0.000000 0.000000 0.025184
#
#
# Mechanical properties :
#
#
# Convention : Reuss Voigt Hill
#
# Bulk Modulus (GPa) = 19.92064 26.82569 23.37316
# Shear Modulus (GPa) = 43.50109 15.84078 29.67093
#
# Velocity S-wave (km/s) = 4.41101 2.66181 3.64295
# Velocity P-wave (km/s) = 5.90362 4.63092 5.30557
#
# Compressibility (1/GPa) = 0.05019919
#
# Stress axis : x y z
#
# Youngs Moduli (GPa) = 34.01630 105.89884 110.65401
#
# Poissons Ratio (x) = -0.14966 0.03895
# Poissons Ratio (y) = -0.04807 -0.01101
# Poissons Ratio (z) = 0.01197 -0.01054
#
# Static dielectric constant tensor:
#      x y z
#    x 1.846060 0.000000 0.000000 
#    y 0.000000 1.834690 0.000000 
#    z 0.000000 0.000000 1.869760 
# 
# From -- ./inp_files/3628.got.cif
#   From: 2010.05.17/outbox.cif.g08.bks.cpg/sg58_2_cif.got.tgz:3628.got - 2010.06.03 14:20:14.
