data_PCOD9442349
_publ_section_title
;
Structure prediction by ZEFSAII (Michael W. Deem and Ramdas Pophale) SiO2 
 PCOD9442349
Probable space group: P N N M
;
_chemical_formula_sum "Si O2"
_cell_formula_units_Z 48
_cell_length_a 14.275393
_cell_length_b 12.328261
_cell_length_c 12.913057
_cell_angle_alpha 90.000000
_cell_angle_beta 90.000000
_cell_angle_gamma 90.000000
_cell_volume 2272.578855
_symmetry_space_group_name_H-M "P N N M"
_symmetry_group_IT_number 58
_symmetry_cell_setting 'orthorhombic'
loop_
_space_group_symop_operation_xyz
x,y,z
-x,-y,z
1/2+x,1/2-y,1/2-z
1/2-x,1/2+y,1/2-z
-x,-y,-z
x,y,-z
1/2-x,1/2+y,1/2+z
1/2+x,1/2-y,1/2+z
loop_
_atom_site_type_symbol
_atom_site_label
_atom_site_fract_x
_atom_site_fract_y
_atom_site_fract_z
Si Si1 0.072876 0.741501 0.883191
Si Si2 0.348302 0.491127 0.166730
Si Si3 0.288603 0.430611 0.611428
Si Si4 0.995751 0.823054 0.327695
Si Si5 0.132710 0.492747 0.883911
Si Si6 0.074915 0.408734 0.334303
O O1 0.170374 0.808870 0.880883
O O2 0.097762 0.615810 0.863211
O O3 0.010701 0.798690 0.795288
O O4 0.035225 0.751842 0.000000
O O5 0.330815 0.491508 0.290498
O O6 0.413246 0.593925 0.144790
O O7 0.408409 0.383546 0.139446
O O8 0.245479 0.492403 0.119276
O O9 0.318356 0.475275 0.500000
O O10 0.176983 0.428587 0.618914
O O11 0.968385 0.705364 0.367887
O O12 0.095471 0.418868 0.790208
O O13 0.102904 0.460887 0.000000
O O14 0.000000 0.500000 0.360687
#
# Coordination Sequence:
#
# PCOD9442349 Si02
#       6
#     8   8   8   8   8   8
#     4   9  17  31  55  80 107 139 174 220 265 314
#     4   9  20  36  58  78 105 146 176 220 263 312
#     4   9  19  35  53  77 106 141 179 211 260 321
#     4  10  19  35  54  81 109 137 179 219 264 314
#     4  10  20  36  55  81 109 140 180 219 270 319
#     4  11  21  34  55  78 106 141 173 220 269 313
#
# _framework density 21.121379999999998
#
# number of rings (size 3 to 8) (size 9 to 14) (size 15 to 20)
#    0.000    2.333    1.667    1.000    0.000    2.000 
#    0.000    5.833    0.000    0.000    0.000    0.000 
#    0.000    0.000    0.000    0.000    0.000    0.000 
#
# Total GULP energy -267905.080714 kJ/mol
# GULP energy per Si atom -5581.355848 kJ/mol
# Density = 2.107331 g / cm^3
# Si number density = 21.121380 Si / 1000 Ang^3
#
#
#
# Elastic Constant Matrix: (Units=GPa)
#
#
# Indices 1 2 3 4 5 6 
#
# 1 112.5774 27.5564 -7.6828 0.0000 0.0000 0.0000
# 2 27.5564 89.9565 1.4331 0.0000 0.0000 0.0000
# 3 -7.6828 1.4331 69.7321 0.0000 0.0000 0.0000
# 4 0.0000 0.0000 0.0000 5.4100 0.0000 0.0000
# 5 0.0000 0.0000 0.0000 0.0000 1.1944 0.0000
# 6 0.0000 0.0000 0.0000 0.0000 0.0000 25.6568
#
#
#
# Elastic Compliance Matrix: (Units=1/GPa)
#
#
# Indices 1 2 3 4 5 6 
#
# 1 0.009691 -0.002987 0.001129 0.000000 0.000000 0.000000
# 2 -0.002987 0.012041 -0.000577 0.000000 0.000000 0.000000
# 3 0.001129 -0.000577 0.014477 0.000000 0.000000 0.000000
# 4 0.000000 0.000000 0.000000 0.184844 0.000000 0.000000
# 5 0.000000 0.000000 0.000000 0.000000 0.837239 0.000000
# 6 0.000000 0.000000 0.000000 0.000000 0.000000 0.038976
#
#
# Mechanical properties :
#
#
# Convention : Reuss Voigt Hill
#
# Bulk Modulus (GPa) = 31.90786 34.98659 33.44722
# Shear Modulus (GPa) = 4.49405 23.18285 13.83845
#
# Velocity S-wave (km/s) = 1.46025 3.31660 2.56244
# Velocity P-wave (km/s) = 4.24062 5.59169 4.96235
#
# Compressibility (1/GPa) = 0.03134024
#
# Stress axis : x y z
#
# Youngs Moduli (GPa) = 103.18976 83.05264 69.07582
#
# Poissons Ratio (x) = 0.24804 -0.07799
# Poissons Ratio (y) = 0.30819 0.03982
# Poissons Ratio (z) = -0.11651 0.04788
#
# Static dielectric constant tensor:
#      x y z
#    x 1.735340 0.000000 0.000000 
#    y 0.000000 1.722270 0.000000 
#    z 0.000000 0.000000 1.820940 
# 
# From -- ./inp_files/21142.got.cif
#   From: 2010.05.17/outbox.cif.g08.bks.cpg/sg58_11_cif.got.tgz:21142.got - 2010.06.03 14:20:14.
