data_PCOD9442649
_publ_section_title
;
Structure prediction by ZEFSAII (Michael W. Deem and Ramdas Pophale) SiO2 
 PCOD9442649
Probable space group: P N N M
;
_chemical_formula_sum "Si O2"
_cell_formula_units_Z 64
_cell_length_a 24.033039
_cell_length_b 15.683726
_cell_length_c 9.086437
_cell_angle_alpha 90.000000
_cell_angle_beta 90.000000
_cell_angle_gamma 90.000000
_cell_volume 3424.928878
_symmetry_space_group_name_H-M "P N N M"
_symmetry_group_IT_number 58
_symmetry_cell_setting 'orthorhombic'
loop_
_space_group_symop_operation_xyz
x,y,z
-x,-y,z
1/2+x,1/2-y,1/2-z
1/2-x,1/2+y,1/2-z
-x,-y,-z
x,y,-z
1/2-x,1/2+y,1/2+z
1/2+x,1/2-y,1/2+z
loop_
_atom_site_type_symbol
_atom_site_label
_atom_site_fract_x
_atom_site_fract_y
_atom_site_fract_z
Si Si1 0.315552 0.494387 0.675475
Si Si2 0.114113 0.340600 0.324520
Si Si3 0.684171 0.991852 0.824496
Si Si4 0.619145 0.333961 0.675906
Si Si5 0.504603 0.602205 0.326696
Si Si6 0.497734 0.898628 0.325758
Si Si7 0.617329 0.657490 0.824767
Si Si8 0.377708 0.164659 0.324375
O O1 0.325632 0.481458 0.500000
O O2 0.249745 0.497606 0.700848
O O3 0.343571 0.584580 0.715681
O O4 0.344806 0.418803 0.763214
O O5 0.113634 0.334541 0.500000
O O6 0.151549 0.422001 0.282236
O O7 0.135434 0.252652 0.255968
O O8 0.052178 0.357538 0.264413
O O9 0.659190 0.912318 0.737245
O O10 0.675687 0.978284 0.000000
O O11 0.623012 0.322179 0.500000
O O12 0.554903 0.356968 0.709991
O O13 0.500000 0.500000 0.309232
O O14 0.516325 0.619088 0.500000
O O15 0.554760 0.638277 0.231237
O O16 0.486607 0.886837 0.500000
O O17 0.557698 0.858574 0.292856
O O18 0.500000 0.000000 0.296625
O O19 0.635877 0.746793 0.754220
O O20 0.619226 0.661305 0.000000
O O21 0.371619 0.172132 0.500000
#
# Coordination Sequence:
#
# PCOD9442649 Si02
#       8
#     8   8   8   8   8   8   8   8
#     4  10  22  44  66  85 115 160 208 250 297 354
#     4  11  23  37  58  90 126 157 186 240 306 359
#     4  10  23  42  63  88 120 156 201 253 302 350
#     4  10  21  38  63  88 114 154 200 245 288 354
#     4  10  19  37  63  89 118 156 202 243 297 365
#     4  10  20  37  61  89 118 156 202 241 284 355
#     4  12  25  39  60  92 127 158 196 248 304 359
#     4  11  23  40  64  89 120 160 202 247 297 358
#
# _framework density 18.686520000000002
#
# number of rings (size 3 to 8) (size 9 to 14) (size 15 to 20)
#    0.000    1.500    2.500    2.625    0.000    7.500 
#    0.000    2.500    0.000    0.000    0.000    0.000 
#    0.000    0.000    0.000    0.000    0.000    0.000 
#
# Total GULP energy -357861.363194 kJ/mol
# GULP energy per Si atom -5591.583800 kJ/mol
# Density = 1.864399 g / cm^3
# Si number density = 18.686520 Si / 1000 Ang^3
#
#
#
# Elastic Constant Matrix: (Units=GPa)
#
#
# Indices 1 2 3 4 5 6 
#
# 1 77.3480 46.7505 49.7137 0.0000 0.0000 0.0000
# 2 46.7505 150.1376 68.0534 0.0000 0.0000 0.0000
# 3 49.7137 68.0534 62.9537 0.0000 0.0000 0.0000
# 4 0.0000 0.0000 0.0000 34.0261 0.0000 0.0000
# 5 0.0000 0.0000 0.0000 0.0000 7.8327 0.0000
# 6 0.0000 0.0000 0.0000 0.0000 0.0000 -4.5406
#
#
#
# Elastic Compliance Matrix: (Units=1/GPa)
#
#
# Indices 1 2 3 4 5 6 
#
# 1 0.026701 0.002438 -0.023720 0.000000 0.000000 0.000000
# 2 0.002438 0.013282 -0.016283 0.000000 0.000000 0.000000
# 3 -0.023720 -0.016283 0.052218 0.000000 0.000000 0.000000
# 4 0.000000 0.000000 0.000000 0.029389 0.000000 0.000000
# 5 0.000000 0.000000 0.000000 0.000000 0.127670 0.000000
# 6 0.000000 0.000000 0.000000 0.000000 0.000000 -0.220233
#
#
# Mechanical properties :
#
#
# Convention : Reuss Voigt Hill
#
# Bulk Modulus (GPa) = 58.58290 68.83049 63.70669
# Shear Modulus (GPa) = 45.51681 15.85842 30.68762
#
# Velocity S-wave (km/s) = 4.94075 2.91633 4.05684
# Velocity P-wave (km/s) = 7.99790 6.94653 7.49068
#
# Compressibility (1/GPa) = 0.01706983
#
# Stress axis : x y z
#
# Youngs Moduli (GPa) = 37.45173 75.28860 19.15032
#
# Poissons Ratio (x) = -0.18352 0.45425
# Poissons Ratio (y) = -0.09129 0.31183
# Poissons Ratio (z) = 0.88837 1.22593
#
# Static dielectric constant tensor:
#      x y z
#    x 1.619870 0.000000 0.000000 
#    y 0.000000 1.629250 0.000000 
#    z 0.000000 0.000000 1.620990 
# 
# From -- ./inp_files/10066.got.cif
#   From: 2010.05.17/outbox.cif.g08.bks.cpg/sg58_6_cif.got.tgz:10066.got - 2010.06.03 14:20:14.
