data_PCOD9442139
_publ_section_title
;
Structure prediction by ZEFSAII (Michael W. Deem and Ramdas Pophale) SiO2 
 PCOD9442139
Probable space group: P N N M
;
_chemical_formula_sum "Si O2"
_cell_formula_units_Z 36
_cell_length_a 14.133242
_cell_length_b 7.370546
_cell_length_c 15.163232
_cell_angle_alpha 90.000000
_cell_angle_beta 90.000000
_cell_angle_gamma 90.000000
_cell_volume 1579.549485
_symmetry_space_group_name_H-M "P N N M"
_symmetry_group_IT_number 58
_symmetry_cell_setting 'orthorhombic'
loop_
_space_group_symop_operation_xyz
x,y,z
-x,-y,z
1/2+x,1/2-y,1/2-z
1/2-x,1/2+y,1/2-z
-x,-y,-z
x,y,-z
1/2-x,1/2+y,1/2+z
1/2+x,1/2-y,1/2+z
loop_
_atom_site_type_symbol
_atom_site_label
_atom_site_fract_x
_atom_site_fract_y
_atom_site_fract_z
Si Si1 0.837019 0.241388 0.166948
Si Si2 0.254189 0.566501 0.000000
Si Si3 0.357852 0.956575 0.193259
Si Si4 0.647289 0.083786 0.000000
Si Si5 0.037146 0.293967 0.147432
Si Si6 0.185948 0.187518 0.000000
O O1 0.750686 0.109235 0.186304
O O2 0.855499 0.356396 0.254898
O O3 0.941672 0.175815 0.142359
O O4 0.801354 0.372804 0.088191
O O5 0.262464 0.351261 0.000000
O O6 0.344452 0.697732 0.000000
O O7 0.393449 0.972819 0.093627
O O8 0.417958 0.821091 0.255277
O O9 0.755071 0.998022 0.000000
O O10 0.000000 0.500000 0.122394
O O11 0.118064 0.222069 0.083129
#
# Coordination Sequence:
#
# PCOD9442139 Si02
#       6
#     8   4   8   4   8   4
#     4  10  20  36  57  82 112 147 185 235 290 337
#     4  10  19  36  57  82 121 138 178 243 294 328
#     4  10  20  36  53  80 115 145 188 232 272 342
#     4  10  24  35  54  89 113 153 195 226 276 340
#     4  10  19  33  61  82 113 150 187 231 292 336
#     4  12  18  36  62  87 110 150 183 238 295 350
#
# _framework density 22.791309999999999
#
# number of rings (size 3 to 8) (size 9 to 14) (size 15 to 20)
#    0.000    1.778    4.444    2.333    0.000    0.000 
#    0.000   19.444    0.000    0.000    0.000    4.667 
#    0.000    0.000    0.000    0.000    0.000    0.000 
#
# Total GULP energy -201043.734417 kJ/mol
# GULP energy per Si atom -5584.548178 kJ/mol
# Density = 2.273944 g / cm^3
# Si number density = 22.791310 Si / 1000 Ang^3
#
#
#
# Elastic Constant Matrix: (Units=GPa)
#
#
# Indices 1 2 3 4 5 6 
#
# 1 95.5779 12.6900 -5.5193 0.0000 0.0000 0.0000
# 2 12.6900 57.0543 -3.6755 0.0000 0.0000 0.0000
# 3 -5.5193 -3.6755 156.3404 0.0000 0.0000 0.0000
# 4 0.0000 0.0000 0.0000 5.9386 0.0000 0.0000
# 5 0.0000 0.0000 0.0000 0.0000 1.4060 0.0000
# 6 0.0000 0.0000 0.0000 0.0000 0.0000 30.8458
#
#
#
# Elastic Compliance Matrix: (Units=1/GPa)
#
#
# Indices 1 2 3 4 5 6 
#
# 1 0.010798 -0.002381 0.000325 0.000000 0.000000 0.000000
# 2 -0.002381 0.018079 0.000341 0.000000 0.000000 0.000000
# 3 0.000325 0.000341 0.006416 0.000000 0.000000 0.000000
# 4 0.000000 0.000000 0.000000 0.168389 0.000000 0.000000
# 5 0.000000 0.000000 0.000000 0.000000 0.711233 0.000000
# 6 0.000000 0.000000 0.000000 0.000000 0.000000 0.032419
#
#
# Mechanical properties :
#
#
# Convention : Reuss Voigt Hill
#
# Bulk Modulus (GPa) = 31.38429 35.10701 33.24565
# Shear Modulus (GPa) = 5.20084 28.00324 16.60204
#
# Velocity S-wave (km/s) = 1.51225 3.50906 2.70189
# Velocity P-wave (km/s) = 4.10480 5.64403 4.93480
#
# Compressibility (1/GPa) = 0.03186307
#
# Stress axis : x y z
#
# Youngs Moduli (GPa) = 92.61381 55.31394 155.86524
#
# Poissons Ratio (x) = 0.13168 -0.05069
# Poissons Ratio (y) = 0.22048 -0.05315
# Poissons Ratio (z) = -0.03012 -0.01886
#
# Static dielectric constant tensor:
#      x y z
#    x 1.896310 0.000000 0.000000 
#    y 0.000000 1.886500 0.000000 
#    z 0.000000 0.000000 1.865930 
# 
# From -- ./inp_files/19415.got.cif
#   From: 2010.05.17/outbox.cif.g08.bks.cpg/sg58_10_cif.got.tgz:19415.got - 2010.06.03 14:20:14.
