data_PCOD9442901
_publ_section_title
;
Structure prediction by ZEFSAII (Michael W. Deem and Ramdas Pophale) SiO2 
 PCOD9442901
Probable space group: P N N M
;
_chemical_formula_sum "Si O2"
_cell_formula_units_Z 56
_cell_length_a 12.948102
_cell_length_b 10.022757
_cell_length_c 19.804992
_cell_angle_alpha 90.000000
_cell_angle_beta 90.000000
_cell_angle_gamma 90.000000
_cell_volume 2570.206303
_symmetry_space_group_name_H-M "P N N M"
_symmetry_group_IT_number 58
_symmetry_cell_setting 'orthorhombic'
loop_
_space_group_symop_operation_xyz
x,y,z
-x,-y,z
1/2+x,1/2-y,1/2-z
1/2-x,1/2+y,1/2-z
-x,-y,-z
x,y,-z
1/2-x,1/2+y,1/2+z
1/2+x,1/2-y,1/2+z
loop_
_atom_site_type_symbol
_atom_site_label
_atom_site_fract_x
_atom_site_fract_y
_atom_site_fract_z
Si Si1 0.339470 0.789691 0.702688
Si Si2 0.229152 0.374586 0.648298
Si Si3 0.616785 0.651468 0.847363
Si Si4 0.054286 0.820958 0.806621
Si Si5 0.397482 0.042610 0.622865
Si Si6 0.821808 0.895160 0.425002
Si Si7 0.599896 0.906886 0.076135
O O1 0.309151 0.809810 0.780768
O O2 0.232728 0.788098 0.661815
O O3 0.429216 0.682415 0.686346
O O4 0.384745 0.930842 0.679530
O O5 0.352723 0.401272 0.656357
O O6 0.193819 0.258469 0.596543
O O7 0.174607 0.510892 0.626308
O O8 0.569677 0.657271 0.772899
O O9 0.621850 0.500491 0.875334
O O10 0.567703 0.760733 0.896796
O O11 0.088026 0.677630 0.835678
O O12 0.296288 0.051700 0.578226
O O13 0.500000 0.000000 0.583709
O O14 0.864988 0.905097 0.500000
O O15 0.500000 0.000000 0.073176
O O16 0.643526 0.894740 0.000000
#
# Coordination Sequence:
#
# PCOD9442901 Si02
#       7
#     8   8   8   8   8   8   8
#     4   9  17  31  54  82 110 138 172 219 270 315
#     4  10  20  35  56  81 108 139 177 219 264 314
#     4  10  20  35  56  81 108 139 177 219 264 314
#     4   9  17  31  54  82 110 138 172 219 270 315
#     4   8  15  29  51  79 104 131 171 214 257 307
#     4  10  20  34  51  74 108 142 170 208 256 307
#     4  11  23  39  58  77 101 140 186 224 262 318
#
# _framework density 21.788135
#
# number of rings (size 3 to 8) (size 9 to 14) (size 15 to 20)
#    0.000    2.429    0.000    2.571    0.000    4.857 
#    0.000    5.000    0.000    8.571    0.000    0.000 
#    0.000    0.000    0.000    0.000    0.000    0.000 
#
# Total GULP energy -311963.481880 kJ/mol
# GULP energy per Si atom -5570.776462 kJ/mol
# Density = 2.173854 g / cm^3
# Si number density = 21.788135 Si / 1000 Ang^3
#
#
#
# Elastic Constant Matrix: (Units=GPa)
#
#
# Indices 1 2 3 4 5 6 
#
# 1 39.4986 -6.3837 -21.8740 0.0000 0.0000 0.0000
# 2 -6.3837 103.9104 17.0748 0.0000 0.0000 0.0000
# 3 -21.8740 17.0748 67.7519 0.0000 0.0000 0.0000
# 4 0.0000 0.0000 0.0000 24.1067 0.0000 0.0000
# 5 0.0000 0.0000 0.0000 0.0000 22.0606 0.0000
# 6 0.0000 0.0000 0.0000 0.0000 0.0000 25.0596
#
#
#
# Elastic Compliance Matrix: (Units=1/GPa)
#
#
# Indices 1 2 3 4 5 6 
#
# 1 0.030837 0.000270 0.009888 0.000000 0.000000 0.000000
# 2 0.000270 0.010042 -0.002444 0.000000 0.000000 0.000000
# 3 0.009888 -0.002444 0.018568 0.000000 0.000000 0.000000
# 4 0.000000 0.000000 0.000000 0.041482 0.000000 0.000000
# 5 0.000000 0.000000 0.000000 0.000000 0.045330 0.000000
# 6 0.000000 0.000000 0.000000 0.000000 0.000000 0.039905
#
#
# Mechanical properties :
#
#
# Convention : Reuss Voigt Hill
#
# Bulk Modulus (GPa) = 13.35574 20.97721 17.16648
# Shear Modulus (GPa) = 25.55015 29.06831 27.30923
#
# Velocity S-wave (km/s) = 3.42813 3.65654 3.54418
# Velocity P-wave (km/s) = 4.67039 5.24174 4.96429
#
# Compressibility (1/GPa) = 0.07487415
#
# Stress axis : x y z
#
# Youngs Moduli (GPa) = 32.42883 99.58386 53.85636
#
# Poissons Ratio (x) = -0.02685 -0.53252
# Poissons Ratio (y) = -0.00875 0.13161
# Poissons Ratio (z) = -0.32065 0.24335
#
# Static dielectric constant tensor:
#      x y z
#    x 1.878950 0.000000 0.000000 
#    y 0.000000 1.938910 0.000000 
#    z 0.000000 0.000000 1.826210 
# 
# From -- ./inp_files/23249.got.cif
#   From: 2010.05.17/outbox.cif.g08.bks.cpg/sg58_12_cif.got.tgz:23249.got - 2010.06.03 14:20:14.
