data_PCOD9442076
_publ_section_title
;
Structure prediction by ZEFSAII (Michael W. Deem and Ramdas Pophale) SiO2 
 PCOD9442076
Probable space group: P N N M
;
_chemical_formula_sum "Si O2"
_cell_formula_units_Z 56
_cell_length_a 21.462556
_cell_length_b 15.686202
_cell_length_c 9.267041
_cell_angle_alpha 90.000000
_cell_angle_beta 90.000000
_cell_angle_gamma 90.000000
_cell_volume 3119.897522
_symmetry_space_group_name_H-M "P N N M"
_symmetry_group_IT_number 58
_symmetry_cell_setting 'orthorhombic'
loop_
_space_group_symop_operation_xyz
x,y,z
-x,-y,z
1/2+x,1/2-y,1/2-z
1/2-x,1/2+y,1/2-z
-x,-y,-z
x,y,-z
1/2-x,1/2+y,1/2+z
1/2+x,1/2-y,1/2+z
loop_
_atom_site_type_symbol
_atom_site_label
_atom_site_fract_x
_atom_site_fract_y
_atom_site_fract_z
Si Si1 0.811871 0.497509 0.328194
Si Si2 0.215957 0.878143 0.670312
Si Si3 0.976927 0.887941 0.168704
Si Si4 0.160981 0.694645 0.324990
Si Si5 0.527424 0.800331 0.666434
Si Si6 0.947929 0.571861 0.340700
Si Si7 0.589142 0.516173 0.170206
O O1 0.799694 0.499769 0.500000
O O2 0.767954 0.566744 0.251904
O O3 0.808717 0.397154 0.283839
O O4 0.882743 0.528169 0.303924
O O5 0.231326 0.874190 0.500000
O O6 0.199377 0.780557 0.716671
O O7 0.153295 0.934101 0.687405
O O8 0.992260 0.789360 0.177569
O O9 0.036751 0.930397 0.245491
O O10 0.917433 0.923801 0.255261
O O11 0.971726 0.910816 0.000000
O O12 0.155115 0.695570 0.500000
O O13 0.091380 0.698812 0.258297
O O14 0.544071 0.816340 0.500000
O O15 0.476662 0.865960 0.724310
O O16 0.941499 0.613384 0.500000
O O17 0.000000 0.500000 0.353509
O O18 0.575598 0.510586 0.000000
#
# Coordination Sequence:
#
# PCOD9442076 Si02
#       7
#     8   8   8   8   8   8   8
#     4  10  22  40  63  86 112 153 196 239 292 350
#     4  10  22  39  61  86 117 154 195 245 292 343
#     4  10  20  33  51  81 118 150 185 234 287 335
#     4  10  20  40  64  84 111 154 198 233 285 352
#     4  11  22  34  56  89 118 148 186 236 291 340
#     4  10  20  38  62  85 113 148 189 237 291 351
#     4  10  19  33  56  82 109 149 193 234 284 337
#
# _framework density 17.949307999999998
#
# number of rings (size 3 to 8) (size 9 to 14) (size 15 to 20)
#    0.000    1.857    2.857    2.143    0.000    4.857 
#    2.571    0.000    0.000    0.000    0.000    0.000 
#    0.000    0.000    0.000    0.000    0.000    0.000 
#
# Total GULP energy -312002.561750 kJ/mol
# GULP energy per Si atom -5571.474317 kJ/mol
# Density = 1.790845 g / cm^3
# Si number density = 17.949308 Si / 1000 Ang^3
#
#
#
# Elastic Constant Matrix: (Units=GPa)
#
#
# Indices 1 2 3 4 5 6 
#
# 1 85.6419 61.0346 42.2427 0.0000 0.0000 0.0000
# 2 61.0346 125.5038 59.5419 0.0000 0.0000 0.0000
# 3 42.2427 59.5419 73.0876 0.0000 0.0000 0.0000
# 4 0.0000 0.0000 0.0000 30.2387 0.0000 0.0000
# 5 0.0000 0.0000 0.0000 0.0000 45.8451 0.0000
# 6 0.0000 0.0000 0.0000 0.0000 0.0000 24.3738
#
#
#
# Elastic Compliance Matrix: (Units=1/GPa)
#
#
# Indices 1 2 3 4 5 6 
#
# 1 0.019222 -0.006646 -0.005696 0.000000 0.000000 0.000000
# 2 -0.006646 0.015285 -0.008611 0.000000 0.000000 0.000000
# 3 -0.005696 -0.008611 0.023989 0.000000 0.000000 0.000000
# 4 0.000000 0.000000 0.000000 0.033070 0.000000 0.000000
# 5 0.000000 0.000000 0.000000 0.000000 0.021813 0.000000
# 6 0.000000 0.000000 0.000000 0.000000 0.000000 0.041028
#
#
# Mechanical properties :
#
#
# Convention : Reuss Voigt Hill
#
# Bulk Modulus (GPa) = 60.27286 67.76354 64.01820
# Shear Modulus (GPa) = 24.77164 28.18579 26.47872
#
# Velocity S-wave (km/s) = 3.71899 3.96700 3.84499
# Velocity P-wave (km/s) = 7.21758 7.66926 7.44684
#
# Compressibility (1/GPa) = 0.01659122
#
# Stress axis : x y z
#
# Youngs Moduli (GPa) = 52.02284 65.42254 41.68498
#
# Poissons Ratio (x) = 0.43479 0.23743
# Poissons Ratio (y) = 0.34574 0.35896
# Poissons Ratio (z) = 0.29631 0.56337
#
# Static dielectric constant tensor:
#      x y z
#    x 1.585200 0.000000 0.000000 
#    y 0.000000 1.515080 0.000000 
#    z 0.000000 0.000000 1.634210 
# 
# From -- ./inp_files/9045.got.cif
#   From: 2010.05.17/outbox.cif.g08.bks.cpg/sg58_5_cif.got.tgz:9045.got - 2010.06.03 14:20:14.
