data_PCOD9442482
_publ_section_title
;
Structure prediction by ZEFSAII (Michael W. Deem and Ramdas Pophale) SiO2 
 PCOD9442482
Probable space group: P N N M
;
_chemical_formula_sum "Si O2"
_cell_formula_units_Z 44
_cell_length_a 5.081169
_cell_length_b 31.907068
_cell_length_c 13.708417
_cell_angle_alpha 90.000000
_cell_angle_beta 90.000000
_cell_angle_gamma 90.000000
_cell_volume 2222.479914
_symmetry_space_group_name_H-M "P N N M"
_symmetry_group_IT_number 58
_symmetry_cell_setting 'orthorhombic'
loop_
_space_group_symop_operation_xyz
x,y,z
-x,-y,z
1/2+x,1/2-y,1/2-z
1/2-x,1/2+y,1/2-z
-x,-y,-z
x,y,-z
1/2-x,1/2+y,1/2+z
1/2+x,1/2-y,1/2+z
loop_
_atom_site_type_symbol
_atom_site_label
_atom_site_fract_x
_atom_site_fract_y
_atom_site_fract_z
Si Si1 0.255267 0.277086 0.236790
Si Si2 0.250242 0.529786 0.000000
Si Si3 0.429034 0.345505 0.608464
Si Si4 0.690864 0.645485 0.885176
Si Si5 0.428656 0.098340 0.110280
Si Si6 0.299027 0.093068 0.320689
O O1 0.464967 0.239528 0.239755
O O2 0.351719 0.309881 0.317453
O O3 0.270735 0.305617 0.140062
O O4 0.500000 0.500000 0.000000
O O5 0.245710 0.558308 0.096798
O O6 0.000000 0.500000 0.000000
O O7 0.387629 0.328634 0.500000
O O8 0.725652 0.362508 0.614143
O O9 0.224866 0.384266 0.619009
O O10 0.448705 0.624501 0.827336
O O11 0.949086 0.620459 0.851804
O O12 0.646167 0.639496 0.000000
O O13 0.351435 0.075419 0.211379
O O14 0.397421 0.079830 0.000000
#
# Coordination Sequence:
#
# PCOD9442482 Si02
#       6
#     8   4   8   8   8   8
#     4  12  24  36  54  79 120 159 206 266 318 367
#     4  12  26  42  66 104 136 160 198 254 334 384
#     4  10  20  35  55  78 111 146 202 254 309 350
#     4  12  23  40  62  90 116 168 220 257 310 382
#     4  10  19  35  62  91 110 151 206 257 285 354
#     4  12  21  41  68  90 127 164 205 258 306 384
#
# _framework density 19.797705000000001
#
# number of rings (size 3 to 8) (size 9 to 14) (size 15 to 20)
#    0.000    0.727    5.455    3.273    0.000    1.455 
#    0.000    0.000    0.000    1.091    0.000    0.000 
#    0.000    0.000    0.000    0.000    0.000    0.000 
#
# Total GULP energy -245668.100648 kJ/mol
# GULP energy per Si atom -5583.365924 kJ/mol
# Density = 1.975264 g / cm^3
# Si number density = 19.797705 Si / 1000 Ang^3
#
#
#
# Elastic Constant Matrix: (Units=GPa)
#
#
# Indices 1 2 3 4 5 6 
#
# 1 52.7984 -0.5162 -14.3346 0.0000 0.0000 0.0000
# 2 -0.5162 47.8791 26.1429 0.0000 0.0000 0.0000
# 3 -14.3346 26.1429 129.5524 0.0000 0.0000 0.0000
# 4 0.0000 0.0000 0.0000 28.1195 0.0000 0.0000
# 5 0.0000 0.0000 0.0000 0.0000 24.5110 0.0000
# 6 0.0000 0.0000 0.0000 0.0000 0.0000 28.5792
#
#
#
# Elastic Compliance Matrix: (Units=1/GPa)
#
#
# Indices 1 2 3 4 5 6 
#
# 1 0.019577 -0.001092 0.002387 0.000000 0.000000 0.000000
# 2 -0.001092 0.023533 -0.004870 0.000000 0.000000 0.000000
# 3 0.002387 -0.004870 0.008966 0.000000 0.000000 0.000000
# 4 0.000000 0.000000 0.000000 0.035563 0.000000 0.000000
# 5 0.000000 0.000000 0.000000 0.000000 0.040798 0.000000
# 6 0.000000 0.000000 0.000000 0.000000 0.000000 0.034990
#
#
# Mechanical properties :
#
#
# Convention : Reuss Voigt Hill
#
# Bulk Modulus (GPa) = 22.25899 28.09043 25.17471
# Shear Modulus (GPa) = 26.94655 30.83779 28.89217
#
# Velocity S-wave (km/s) = 3.69330 3.95098 3.82431
# Velocity P-wave (km/s) = 5.42724 5.91889 5.67839
#
# Compressibility (1/GPa) = 0.04492567
#
# Stress axis : x y z
#
# Youngs Moduli (GPa) = 51.07973 42.49333 111.53724
#
# Poissons Ratio (x) = 0.04640 -0.26619
# Poissons Ratio (y) = 0.05578 0.54315
# Poissons Ratio (z) = -0.12190 0.20693
#
# Static dielectric constant tensor:
#      x y z
#    x 1.678300 0.000000 0.000000 
#    y 0.000000 1.658950 0.000000 
#    z 0.000000 0.000000 1.799760 
# 
# From -- ./inp_files/18554.got.cif
#   From: 2010.05.17/outbox.cif.g08.bks.cpg/sg58_10_cif.got.tgz:18554.got - 2010.06.03 14:20:14.
