data_PCOD9442286
_publ_section_title
;
Structure prediction by ZEFSAII (Michael W. Deem and Ramdas Pophale) SiO2 
 PCOD9442286
Probable space group: P N N M
;
_chemical_formula_sum "Si O2"
_cell_formula_units_Z 64
_cell_length_a 14.500016
_cell_length_b 22.162645
_cell_length_c 8.746987
_cell_angle_alpha 90.000000
_cell_angle_beta 90.000000
_cell_angle_gamma 90.000000
_cell_volume 2810.920433
_symmetry_space_group_name_H-M "P N N M"
_symmetry_group_IT_number 58
_symmetry_cell_setting 'orthorhombic'
loop_
_space_group_symop_operation_xyz
x,y,z
-x,-y,z
1/2+x,1/2-y,1/2-z
1/2-x,1/2+y,1/2-z
-x,-y,-z
x,y,-z
1/2-x,1/2+y,1/2+z
1/2+x,1/2-y,1/2+z
loop_
_atom_site_type_symbol
_atom_site_label
_atom_site_fract_x
_atom_site_fract_y
_atom_site_fract_z
Si Si1 0.636712 0.147463 0.184757
Si Si2 0.026846 0.092586 0.682073
Si Si3 0.632414 0.523390 0.317535
Si Si4 0.818154 0.831430 0.179211
Si Si5 0.361393 0.092417 0.826062
Si Si6 0.164676 0.473051 0.821272
Si Si7 0.801146 0.222502 0.818134
Si Si8 0.030994 0.719044 0.679215
O O1 0.609723 0.084410 0.258459
O O2 0.741328 0.164453 0.227222
O O3 0.570493 0.202269 0.235954
O O4 0.629479 0.143366 0.000000
O O5 0.015269 0.094559 0.500000
O O6 0.087631 0.148907 0.739572
O O7 0.929612 0.080424 0.765165
O O8 0.086984 0.033809 0.731382
O O9 0.624390 0.515578 0.500000
O O10 0.738273 0.527777 0.269183
O O11 0.745491 0.887245 0.187453
O O12 0.761296 0.777940 0.257856
O O13 0.833026 0.818606 0.000000
O O14 0.417770 0.154049 0.804029
O O15 0.380730 0.037387 0.714707
O O16 0.377775 0.071846 0.000000
O O17 0.181651 0.466669 0.000000
O O18 0.903435 0.232294 0.756307
O O19 0.803978 0.224575 0.000000
O O20 0.026581 0.733719 0.500000
#
# Coordination Sequence:
#
# PCOD9442286 Si02
#       8
#     8   8   8   8   8   8   8   8
#     4  10  23  44  65  87 121 165 205 250 311 379
#     4  11  20  32  53  83 117 152 199 253 303 355
#     4  11  21  35  53  77 116 161 200 242 300 370
#     4  10  19  34  58  85 115 157 200 243 299 364
#     4   9  18  34  59  87 117 155 199 244 296 364
#     4  12  24  37  57  86 122 161 201 255 312 368
#     4  10  21  39  64  91 119 153 198 257 310 355
#     4   9  20  41  68  92 119 160 207 251 304 374
#
# _framework density 22.768343000000002
#
# number of rings (size 3 to 8) (size 9 to 14) (size 15 to 20)
#    0.000    1.750    1.250    5.625    0.000    4.000 
#    2.250    2.500    0.000    0.000    0.000    0.000 
#    0.000    0.000    0.000    0.000    0.000    0.000 
#
# Total GULP energy -357928.665652 kJ/mol
# GULP energy per Si atom -5592.635401 kJ/mol
# Density = 2.271652 g / cm^3
# Si number density = 22.768343 Si / 1000 Ang^3
#
#
#
# Elastic Constant Matrix: (Units=GPa)
#
#
# Indices 1 2 3 4 5 6 
#
# 1 83.2949 1.6416 17.8584 0.0000 0.0000 0.0000
# 2 1.6416 35.9589 -7.6549 0.0000 0.0000 0.0000
# 3 17.8584 -7.6549 43.0913 0.0000 0.0000 0.0000
# 4 0.0000 0.0000 0.0000 -18.1706 0.0000 0.0000
# 5 0.0000 0.0000 0.0000 0.0000 31.5580 0.0000
# 6 0.0000 0.0000 0.0000 0.0000 0.0000 30.5742
#
#
#
# Elastic Compliance Matrix: (Units=1/GPa)
#
#
# Indices 1 2 3 4 5 6 
#
# 1 0.013294 -0.001850 -0.005838 0.000000 0.000000 0.000000
# 2 -0.001850 0.029160 0.005947 0.000000 0.000000 0.000000
# 3 -0.005838 0.005947 0.026682 0.000000 0.000000 0.000000
# 4 0.000000 0.000000 0.000000 -0.055034 0.000000 0.000000
# 5 0.000000 0.000000 0.000000 0.000000 0.031688 0.000000
# 6 0.000000 0.000000 0.000000 0.000000 0.000000 0.032707
#
#
# Mechanical properties :
#
#
# Convention : Reuss Voigt Hill
#
# Bulk Modulus (GPa) = 15.23134 20.67057 17.95095
# Shear Modulus (GPa) = 48.14016 18.82565 33.48290
#
# Velocity S-wave (km/s) = 4.60319 2.87859 3.83899
# Velocity P-wave (km/s) = 5.91242 4.48851 5.24897
#
# Compressibility (1/GPa) = 0.06565412
#
# Stress axis : x y z
#
# Youngs Moduli (GPa) = 75.22396 34.29366 37.47799
#
# Poissons Ratio (x) = 0.06343 0.21879
# Poissons Ratio (y) = 0.13914 -0.22287
# Poissons Ratio (z) = 0.43915 -0.20393
#
# Static dielectric constant tensor:
#      x y z
#    x 1.889220 0.000000 0.000000 
#    y 0.000000 1.883270 0.000000 
#    z 0.000000 0.000000 1.754510 
# 
# From -- ./inp_files/6915.got.cif
#   From: 2010.05.17/outbox.cif.g08.bks.cpg/sg58_4_cif.got.tgz:6915.got - 2010.06.03 14:20:14.
