data_PCOD9442851
_publ_section_title
;
Structure prediction by ZEFSAII (Michael W. Deem and Ramdas Pophale) SiO2 
 PCOD9442851
Probable space group: P N N M
;
_chemical_formula_sum "Si O2"
_cell_formula_units_Z 64
_cell_length_a 19.948008
_cell_length_b 18.860520
_cell_length_c 7.447418
_cell_angle_alpha 90.000000
_cell_angle_beta 90.000000
_cell_angle_gamma 90.000000
_cell_volume 2801.940613
_symmetry_space_group_name_H-M "P N N M"
_symmetry_group_IT_number 58
_symmetry_cell_setting 'orthorhombic'
loop_
_space_group_symop_operation_xyz
x,y,z
-x,-y,z
1/2+x,1/2-y,1/2-z
1/2-x,1/2+y,1/2-z
-x,-y,-z
x,y,-z
1/2-x,1/2+y,1/2+z
1/2+x,1/2-y,1/2+z
loop_
_atom_site_type_symbol
_atom_site_label
_atom_site_fract_x
_atom_site_fract_y
_atom_site_fract_z
Si Si1 0.046113 0.631846 0.717565
Si Si2 0.969431 0.109500 0.281118
Si Si3 0.400213 0.537240 0.781689
Si Si4 0.757435 0.908729 0.280210
Si Si5 0.601679 0.157620 0.205537
Si Si6 0.124989 0.765955 0.284374
Si Si7 0.130589 0.501419 0.209413
Si Si8 0.773550 0.747702 0.713395
O O1 0.044318 0.631529 0.500000
O O2 0.102757 0.687873 0.778805
O O3 0.066868 0.553124 0.773236
O O4 0.973307 0.657213 0.784344
O O5 0.969655 0.111545 0.500000
O O6 0.929977 0.178124 0.218538
O O7 0.046114 0.096972 0.225163
O O8 0.929095 0.038845 0.227583
O O9 0.325300 0.552121 0.724411
O O10 0.400056 0.537512 0.000000
O O11 0.754491 0.907020 0.500000
O O12 0.692672 0.952082 0.218861
O O13 0.763879 0.827682 0.216953
O O14 0.662359 0.204408 0.284574
O O15 0.622520 0.075083 0.203803
O O16 0.593120 0.182529 0.000000
O O17 0.121340 0.764669 0.500000
O O18 0.200705 0.787376 0.239221
O O19 0.142517 0.487136 0.000000
O O20 0.783505 0.753368 0.500000
#
# Coordination Sequence:
#
# PCOD9442851 Si02
#       8
#     8   8   8   8   8   8   8   8
#     4  10  21  38  57  80 110 147 187 230 277 327
#     4   8  15  26  45  76 107 132 166 213 266 312
#     4   8  14  26  45  73 106 135 166 213 263 311
#     4   9  18  31  50  74 106 142 174 213 265 323
#     4  10  23  39  58  81 109 146 188 230 274 324
#     4  10  20  33  54  81 110 141 176 223 272 320
#     4  11  22  37  58  84 111 144 184 231 282 330
#     4  10  21  38  55  77 109 145 181 218 265 325
#
# _framework density 22.841313
#
# number of rings (size 3 to 8) (size 9 to 14) (size 15 to 20)
#    0.000    2.500    1.250    1.500    3.500    2.500 
#    0.000    0.000    0.000    0.000    0.000    3.500 
#    0.000    0.000    0.000    0.000    0.000    0.000 
#
# Total GULP energy -357444.222797 kJ/mol
# GULP energy per Si atom -5585.065981 kJ/mol
# Density = 2.278933 g / cm^3
# Si number density = 22.841313 Si / 1000 Ang^3
#
#
#
# Elastic Constant Matrix: (Units=GPa)
#
#
# Indices 1 2 3 4 5 6 
#
# 1 145.4801 25.6654 -5.2509 0.0000 0.0000 0.0000
# 2 25.6654 34.6445 -8.5173 0.0000 0.0000 0.0000
# 3 -5.2509 -8.5173 70.5852 0.0000 0.0000 0.0000
# 4 0.0000 0.0000 0.0000 2.4304 0.0000 0.0000
# 5 0.0000 0.0000 0.0000 0.0000 12.4908 0.0000
# 6 0.0000 0.0000 0.0000 0.0000 0.0000 44.1158
#
#
#
# Elastic Compliance Matrix: (Units=1/GPa)
#
#
# Indices 1 2 3 4 5 6 
#
# 1 0.007908 -0.005889 -0.000122 0.000000 0.000000 0.000000
# 2 -0.005889 0.034132 0.003681 0.000000 0.000000 0.000000
# 3 -0.000122 0.003681 0.014602 0.000000 0.000000 0.000000
# 4 0.000000 0.000000 0.000000 0.411449 0.000000 0.000000
# 5 0.000000 0.000000 0.000000 0.000000 0.080059 0.000000
# 6 0.000000 0.000000 0.000000 0.000000 0.000000 0.022668
#
#
# Mechanical properties :
#
#
# Convention : Reuss Voigt Hill
#
# Bulk Modulus (GPa) = 19.23757 30.50049 24.86903
# Shear Modulus (GPa) = 8.43445 27.72824 18.08135
#
# Velocity S-wave (km/s) = 1.92371 3.48796 2.81660
# Velocity P-wave (km/s) = 3.65715 5.44090 4.63563
#
# Compressibility (1/GPa) = 0.05198162
#
# Stress axis : x y z
#
# Youngs Moduli (GPa) = 126.45021 29.29811 68.48241
#
# Poissons Ratio (x) = 0.17253 0.00837
# Poissons Ratio (y) = 0.74462 -0.25205
# Poissons Ratio (z) = 0.01546 -0.10783
#
# Static dielectric constant tensor:
#      x y z
#    x 1.845150 0.000000 0.000000 
#    y 0.000000 1.822080 0.000000 
#    z 0.000000 0.000000 1.853090 
# 
# From -- ./inp_files/9240.got.cif
#   From: 2010.05.17/outbox.cif.g08.bks.cpg/sg58_5_cif.got.tgz:9240.got - 2010.06.03 14:20:14.
