data_PCOD9442193
_publ_section_title
;
Structure prediction by ZEFSAII (Michael W. Deem and Ramdas Pophale) SiO2 
 PCOD9442193
Probable space group: P N N M
;
_chemical_formula_sum "Si O2"
_cell_formula_units_Z 64
_cell_length_a 22.987266
_cell_length_b 17.124063
_cell_length_c 7.465105
_cell_angle_alpha 90.000000
_cell_angle_beta 90.000000
_cell_angle_gamma 90.000000
_cell_volume 2938.529527
_symmetry_space_group_name_H-M "P N N M"
_symmetry_group_IT_number 58
_symmetry_cell_setting 'orthorhombic'
loop_
_space_group_symop_operation_xyz
x,y,z
-x,-y,z
1/2+x,1/2-y,1/2-z
1/2-x,1/2+y,1/2-z
-x,-y,-z
x,y,-z
1/2-x,1/2+y,1/2+z
1/2+x,1/2-y,1/2+z
loop_
_atom_site_type_symbol
_atom_site_label
_atom_site_fract_x
_atom_site_fract_y
_atom_site_fract_z
Si Si1 0.271773 0.589839 0.712816
Si Si2 0.565462 0.999367 0.213184
Si Si3 0.007875 0.913090 0.710348
Si Si4 0.645950 0.857459 0.219512
Si Si5 0.234743 0.905817 0.284703
Si Si6 0.859821 0.652229 0.215368
Si Si7 0.118775 0.816821 0.719311
Si Si8 0.388368 0.674239 0.717229
O O1 0.272241 0.603953 0.500000
O O2 0.212269 0.628798 0.780682
O O3 0.268558 0.497291 0.741870
O O4 0.331750 0.626423 0.781560
O O5 0.597250 0.081496 0.241213
O O6 0.500000 0.000000 0.285955
O O7 0.605762 0.928979 0.281713
O O8 0.561184 0.986608 0.000000
O O9 0.021266 0.923606 0.500000
O O10 0.061941 0.863243 0.782951
O O11 0.948020 0.866032 0.725965
O O12 0.000000 0.000000 0.787700
O O13 0.621738 0.773428 0.274271
O O14 0.646891 0.858976 0.000000
O O15 0.235423 0.898887 0.500000
O O16 0.295199 0.869238 0.217706
O O17 0.177392 0.860823 0.222126
O O18 0.882038 0.736276 0.278278
O O19 0.856104 0.656974 0.000000
O O20 0.118309 0.816557 0.500000
O O21 0.388436 0.673507 0.500000
#
# Coordination Sequence:
#
# PCOD9442193 Si02
#       8
#     8   8   8   8   8   8   8   8
#     4  10  19  34  56  79 106 140 179 223 268 314
#     4  10  21  35  56  84 111 141 182 225 267 319
#     4  10  21  37  57  83 111 140 179 226 275 320
#     4   9  17  32  53  78 105 136 177 219 259 310
#     4  10  19  34  57  82 108 139 179 223 271 323
#     4  10  21  37  56  81 112 146 182 221 273 330
#     4   9  18  32  54  79 105 139 178 221 264 314
#     4  10  22  37  55  80 110 147 186 221 267 330
#
# _framework density 21.779601
#
# number of rings (size 3 to 8) (size 9 to 14) (size 15 to 20)
#    0.000    2.250    1.250    1.500    1.750    5.500 
#    0.000    0.625    0.000    3.750    0.000    0.000 
#    0.000    0.000    0.000    0.000    0.000    0.000 
#
# Total GULP energy -357716.325626 kJ/mol
# GULP energy per Si atom -5589.317588 kJ/mol
# Density = 2.173003 g / cm^3
# Si number density = 21.779601 Si / 1000 Ang^3
#
#
#
# Elastic Constant Matrix: (Units=GPa)
#
#
# Indices 1 2 3 4 5 6 
#
# 1 197.2792 103.8757 -10.8890 0.0000 0.0000 0.0000
# 2 103.8757 184.5353 -17.9875 0.0000 0.0000 0.0000
# 3 -10.8890 -17.9875 57.7176 0.0000 0.0000 0.0000
# 4 0.0000 0.0000 0.0000 18.6189 0.0000 0.0000
# 5 0.0000 0.0000 0.0000 0.0000 8.5923 0.0000
# 6 0.0000 0.0000 0.0000 0.0000 0.0000 49.8335
#
#
#
# Elastic Compliance Matrix: (Units=1/GPa)
#
#
# Indices 1 2 3 4 5 6 
#
# 1 0.007205 -0.004046 0.000098 0.000000 0.000000 0.000000
# 2 -0.004046 0.007861 0.001687 0.000000 0.000000 0.000000
# 3 0.000098 0.001687 0.017870 0.000000 0.000000 0.000000
# 4 0.000000 0.000000 0.000000 0.053709 0.000000 0.000000
# 5 0.000000 0.000000 0.000000 0.000000 0.116384 0.000000
# 6 0.000000 0.000000 0.000000 0.000000 0.000000 0.020067
#
#
# Mechanical properties :
#
#
# Convention : Reuss Voigt Hill
#
# Bulk Modulus (GPa) = 35.19483 65.50336 50.34910
# Shear Modulus (GPa) = 21.08918 39.71113 30.40015
#
# Velocity S-wave (km/s) = 3.11513 4.27466 3.74011
# Velocity P-wave (km/s) = 5.39753 7.38272 6.46675
#
# Compressibility (1/GPa) = 0.02841326
#
# Stress axis : x y z
#
# Youngs Moduli (GPa) = 138.79678 127.21143 55.96003
#
# Poissons Ratio (x) = 0.51470 -0.00550
# Poissons Ratio (y) = 0.56157 -0.09438
# Poissons Ratio (z) = -0.01365 -0.21454
#
# Static dielectric constant tensor:
#      x y z
#    x 1.755080 0.000000 0.000000 
#    y 0.000000 1.742720 0.000000 
#    z 0.000000 0.000000 1.846520 
# 
# From -- ./inp_files/9985.got.cif
#   From: 2010.05.17/outbox.cif.g08.bks.cpg/sg58_5_cif.got.tgz:9985.got - 2010.06.03 14:20:14.
