data_PCOD9442203
_publ_section_title
;
Structure prediction by ZEFSAII (Michael W. Deem and Ramdas Pophale) SiO2 
 PCOD9442203
Probable space group: P N N M
;
_chemical_formula_sum "Si O2"
_cell_formula_units_Z 48
_cell_length_a 28.925528
_cell_length_b 8.047680
_cell_length_c 8.321926
_cell_angle_alpha 90.000000
_cell_angle_beta 90.000000
_cell_angle_gamma 90.000000
_cell_volume 1937.206172
_symmetry_space_group_name_H-M "P N N M"
_symmetry_group_IT_number 58
_symmetry_cell_setting 'orthorhombic'
loop_
_space_group_symop_operation_xyz
x,y,z
-x,-y,z
1/2+x,1/2-y,1/2-z
1/2-x,1/2+y,1/2-z
-x,-y,-z
x,y,-z
1/2-x,1/2+y,1/2+z
1/2+x,1/2-y,1/2+z
loop_
_atom_site_type_symbol
_atom_site_label
_atom_site_fract_x
_atom_site_fract_y
_atom_site_fract_z
Si Si1 0.233402 0.062626 0.812923
Si Si2 0.927505 0.935964 0.810449
Si Si3 0.655130 0.631930 0.815076
Si Si4 0.821481 0.626487 0.310980
Si Si5 0.902219 0.445293 0.808901
Si Si6 0.509978 0.773020 0.688267
O O1 0.199765 0.904220 0.791708
O O2 0.206302 0.205270 0.720330
O O3 0.284234 0.012564 0.755093
O O4 0.236240 0.108161 0.000000
O O5 0.881811 0.984040 0.714957
O O6 0.961004 0.790864 0.744724
O O7 0.958285 0.105968 0.806668
O O8 0.916771 0.908201 0.000000
O O9 0.627804 0.797802 0.769062
O O10 0.669129 0.637176 0.000000
O O11 0.828986 0.605494 0.500000
O O12 0.870809 0.605216 0.226093
O O13 0.955108 0.416309 0.750709
O O14 0.904136 0.421416 0.000000
O O15 0.500140 0.807145 0.500000
#
# Coordination Sequence:
#
# PCOD9442203 Si02
#       6
#     8   8   8   8   8   8
#     4  11  24  41  60  80 106 143 180 214 264 328
#     4   8  13  26  47  72 104 141 181 220 261 311
#     4  11  21  33  52  81 114 144 180 227 273 312
#     4  11  24  40  59  84 110 136 174 224 271 315
#     4  10  19  34  56  81 111 147 184 219 264 321
#     4   7  12  24  46  74 103 139 181 220 255 307
#
# _framework density 24.777954000000001
#
# number of rings (size 3 to 8) (size 9 to 14) (size 15 to 20)
#    0.000    2.333    0.000    6.000    0.000    5.333 
#    0.000    7.500    0.000    1.000    0.000    7.000 
#    0.000    0.000    0.000    0.000    0.000    0.000 
#
# Total GULP energy -268424.939942 kJ/mol
# GULP energy per Si atom -5592.186249 kJ/mol
# Density = 2.472156 g / cm^3
# Si number density = 24.777954 Si / 1000 Ang^3
#
#
#
# Elastic Constant Matrix: (Units=GPa)
#
#
# Indices 1 2 3 4 5 6 
#
# 1 158.0630 16.6060 15.4041 0.0000 0.0000 0.0000
# 2 16.6060 84.6130 -0.2582 0.0000 0.0000 0.0000
# 3 15.4041 -0.2582 43.5229 0.0000 0.0000 0.0000
# 4 0.0000 0.0000 0.0000 23.7760 0.0000 0.0000
# 5 0.0000 0.0000 0.0000 0.0000 7.6389 0.0000
# 6 0.0000 0.0000 0.0000 0.0000 0.0000 51.4971
#
#
#
# Elastic Compliance Matrix: (Units=1/GPa)
#
#
# Indices 1 2 3 4 5 6 
#
# 1 0.006697 -0.001322 -0.002378 0.000000 0.000000 0.000000
# 2 -0.001322 0.012080 0.000539 0.000000 0.000000 0.000000
# 3 -0.002378 0.000539 0.023821 0.000000 0.000000 0.000000
# 4 0.000000 0.000000 0.000000 0.042059 0.000000 0.000000
# 5 0.000000 0.000000 0.000000 0.000000 0.130910 0.000000
# 6 0.000000 0.000000 0.000000 0.000000 0.000000 0.019419
#
#
# Mechanical properties :
#
#
# Convention : Reuss Voigt Hill
#
# Bulk Modulus (GPa) = 27.56544 38.85585 33.21065
# Shear Modulus (GPa) = 19.73175 33.54552 26.63864
#
# Velocity S-wave (km/s) = 2.82502 3.68346 3.28242
# Velocity P-wave (km/s) = 4.66799 5.81430 5.27239
#
# Compressibility (1/GPa) = 0.03627731
#
# Stress axis : x y z
#
# Youngs Moduli (GPa) = 149.31594 82.78455 41.97917
#
# Poissons Ratio (x) = 0.10941 0.09983
# Poissons Ratio (y) = 0.19734 -0.02265
# Poissons Ratio (z) = 0.35510 -0.04466
#
# Static dielectric constant tensor:
#      x y z
#    x 1.971190 0.000000 0.000000 
#    y 0.000000 2.131620 0.000000 
#    z 0.000000 0.000000 1.816480 
# 
# From -- ./inp_files/2953.got.cif
#   From: 2010.05.17/outbox.cif.g08.bks.cpg/sg58_2_cif.got.tgz:2953.got - 2010.06.03 14:20:14.
