data_PCOD9442492
_publ_section_title
;
Structure prediction by ZEFSAII (Michael W. Deem and Ramdas Pophale) SiO2 
 PCOD9442492
Probable space group: P N N M
;
_chemical_formula_sum "Si O2"
_cell_formula_units_Z 48
_cell_length_a 10.860664
_cell_length_b 7.093910
_cell_length_c 26.681035
_cell_angle_alpha 90.000000
_cell_angle_beta 90.000000
_cell_angle_gamma 90.000000
_cell_volume 2055.628948
_symmetry_space_group_name_H-M "P N N M"
_symmetry_group_IT_number 58
_symmetry_cell_setting 'orthorhombic'
loop_
_space_group_symop_operation_xyz
x,y,z
-x,-y,z
1/2+x,1/2-y,1/2-z
1/2-x,1/2+y,1/2-z
-x,-y,-z
x,y,-z
1/2-x,1/2+y,1/2+z
1/2+x,1/2-y,1/2+z
loop_
_atom_site_type_symbol
_atom_site_label
_atom_site_fract_x
_atom_site_fract_y
_atom_site_fract_z
Si Si1 0.511976 0.729680 0.601965
Si Si2 0.247866 0.329254 0.442844
Si Si3 0.084587 0.739725 0.214248
Si Si4 0.323109 0.665492 0.272288
Si Si5 0.252772 0.219048 0.115403
Si Si6 0.514039 0.770172 0.056777
O O1 0.500000 0.500000 0.604790
O O2 0.621037 0.768189 0.563765
O O3 0.556552 0.798791 0.656253
O O4 0.373758 0.797800 0.591633
O O5 0.239363 0.403389 0.500000
O O6 0.125979 0.206512 0.434291
O O7 0.244668 0.500066 0.403004
O O8 0.208579 0.645413 0.234806
O O9 0.949416 0.719381 0.240584
O O10 0.874877 0.042632 0.218344
O O11 0.267000 0.733670 0.325269
O O12 0.382760 0.291435 0.095594
O O13 0.500000 0.000000 0.058637
O O14 0.550759 0.721059 0.000000
#
# Coordination Sequence:
#
# PCOD9442492 Si02
#       6
#     8   8   8   8   8   8
#     4   9  15  28  43  57  91 124 152 190 240 276
#     4   9  15  23  38  61  91 123 152 186 233 288
#     4  10  19  36  48  70  95 129 162 212 244 290
#     4  10  20  34  51  67  98 125 168 207 250 282
#     4   9  15  26  39  58  85 122 147 191 230 279
#     4   8  14  22  33  54  88 118 144 183 224 275
#
# _framework density 23.350518000000001
#
# number of rings (size 3 to 8) (size 9 to 14) (size 15 to 20)
#    0.000    2.833    5.000    1.500    0.000    5.667 
#    3.000    0.000    0.000    0.000    0.000    0.000 
#    0.000    2.667    0.000   40.167    0.000   18.000 
#
# Total GULP energy -267601.671870 kJ/mol
# GULP energy per Si atom -5575.034831 kJ/mol
# Density = 2.329737 g / cm^3
# Si number density = 23.350518 Si / 1000 Ang^3
#
#
#
# Elastic Constant Matrix: (Units=GPa)
#
#
# Indices 1 2 3 4 5 6 
#
# 1 245.0238 1.4542 78.9483 0.0000 0.0000 0.0000
# 2 1.4542 64.9830 9.0911 0.0000 0.0000 0.0000
# 3 78.9483 9.0911 49.7721 0.0000 0.0000 0.0000
# 4 0.0000 0.0000 0.0000 -2.7152 0.0000 0.0000
# 5 0.0000 0.0000 0.0000 0.0000 55.2973 0.0000
# 6 0.0000 0.0000 0.0000 0.0000 0.0000 3.5699
#
#
#
# Elastic Compliance Matrix: (Units=1/GPa)
#
#
# Indices 1 2 3 4 5 6 
#
# 1 0.008537 0.001748 -0.013860 0.000000 0.000000 0.000000
# 2 0.001748 0.016150 -0.005723 0.000000 0.000000 0.000000
# 3 -0.013860 -0.005723 0.043122 0.000000 0.000000 0.000000
# 4 0.000000 0.000000 0.000000 -0.368304 0.000000 0.000000
# 5 0.000000 0.000000 0.000000 0.000000 0.018084 0.000000
# 6 0.000000 0.000000 0.000000 0.000000 0.000000 0.280121
#
#
# Mechanical properties :
#
#
# Convention : Reuss Voigt Hill
#
# Bulk Modulus (GPa) = 31.11471 59.86289 45.48880
# Shear Modulus (GPa) = 113.39744 29.24943 71.32343
#
# Velocity S-wave (km/s) = 6.97629 3.54308 5.53272
# Velocity P-wave (km/s) = 8.84564 6.51385 7.76774
#
# Compressibility (1/GPa) = 0.03213914
#
# Stress axis : x y z
#
# Youngs Moduli (GPa) = 117.14146 61.91909 23.19019
#
# Poissons Ratio (x) = -0.10823 0.32142
# Poissons Ratio (y) = -0.20476 0.13271
# Poissons Ratio (z) = 1.62360 0.35433
#
# Static dielectric constant tensor:
#      x y z
#    x -0.235960 0.000000 0.000000 
#    y 0.000000 2.016090 0.000000 
#    z 0.000000 0.000000 1.813310 
# 
# From -- ./inp_files/21353.got.cif
#   From: 2010.05.17/outbox.cif.g08.bks.cpg/sg58_11_cif.got.tgz:21353.got - 2010.06.03 14:20:14.
