data_PCOD9442368
_publ_section_title
;
Structure prediction by ZEFSAII (Michael W. Deem and Ramdas Pophale) SiO2 
 PCOD9442368
Probable space group: P N N M
;
_chemical_formula_sum "Si O2"
_cell_formula_units_Z 64
_cell_length_a 20.092868
_cell_length_b 20.609364
_cell_length_c 7.944882
_cell_angle_alpha 90.000000
_cell_angle_beta 90.000000
_cell_angle_gamma 90.000000
_cell_volume 3289.985412
_symmetry_space_group_name_H-M "P N N M"
_symmetry_group_IT_number 58
_symmetry_cell_setting 'orthorhombic'
loop_
_space_group_symop_operation_xyz
x,y,z
-x,-y,z
1/2+x,1/2-y,1/2-z
1/2-x,1/2+y,1/2-z
-x,-y,-z
x,y,-z
1/2-x,1/2+y,1/2+z
1/2+x,1/2-y,1/2+z
loop_
_atom_site_type_symbol
_atom_site_label
_atom_site_fract_x
_atom_site_fract_y
_atom_site_fract_z
Si Si1 0.211192 0.011342 0.702568
Si Si2 0.467687 0.932375 0.706050
Si Si3 0.069984 0.677412 0.796400
Si Si4 0.597009 0.680324 0.200080
Si Si5 0.818821 0.593925 0.205807
Si Si6 0.254839 0.281636 0.796534
Si Si7 0.717936 0.859018 0.700391
Si Si8 0.065461 0.963898 0.199043
O O1 0.215569 0.012243 0.500000
O O2 0.241000 0.079592 0.766682
O O3 0.260720 0.954553 0.762322
O O4 0.135082 0.994946 0.742046
O O5 0.467533 0.932324 0.500000
O O6 0.512552 0.871527 0.759583
O O7 0.391672 0.926800 0.762087
O O8 0.500000 0.000000 0.759845
O O9 0.060995 0.752056 0.743165
O O10 0.142281 0.651415 0.734544
O O11 0.071664 0.676636 0.000000
O O12 0.672997 0.691660 0.261983
O O13 0.567085 0.613241 0.265699
O O14 0.600300 0.673661 0.000000
O O15 0.800050 0.666688 0.256563
O O16 0.818736 0.592388 0.000000
O O17 0.245984 0.209023 0.733055
O O18 0.256609 0.279486 0.000000
O O19 0.711337 0.868286 0.500000
O O20 0.064277 0.972402 0.000000
O O21 0.000000 0.000000 0.270566
#
# Coordination Sequence:
#
# PCOD9442368 Si02
#       8
#     8   8   8   8   8   8   8   8
#     4  10  19  35  57  80 107 139 178 217 262 316
#     4   9  16  27  48  79 111 143 179 217 260 309
#     4   9  17  31  52  82 115 146 181 222 263 305
#     4  10  19  35  58  79 102 140 182 218 263 322
#     4   9  16  29  50  75 103 138 177 215 253 304
#     4   9  17  31  51  74 101 136 175 214 257 308
#     4   9  18  31  51  78 108 140 173 217 260 303
#     4  11  24  40  57  79 105 133 171 224 279 327
#
# _framework density 19.452974000000001
#
# number of rings (size 3 to 8) (size 9 to 14) (size 15 to 20)
#    0.000    2.500    1.250    1.500    0.000    5.000 
#    2.250    0.000    0.000    1.125    0.000    0.000 
#    0.000    0.000    0.000    0.000    0.000    0.000 
#
# Total GULP energy -357018.548275 kJ/mol
# GULP energy per Si atom -5578.414817 kJ/mol
# Density = 1.940870 g / cm^3
# Si number density = 19.452974 Si / 1000 Ang^3
#
#
#
# Elastic Constant Matrix: (Units=GPa)
#
#
# Indices 1 2 3 4 5 6 
#
# 1 135.1109 83.2661 3.4078 0.0000 0.0000 0.0000
# 2 83.2661 135.7851 -2.2401 0.0000 0.0000 0.0000
# 3 3.4078 -2.2401 13.0114 0.0000 0.0000 0.0000
# 4 0.0000 0.0000 0.0000 22.1834 0.0000 0.0000
# 5 0.0000 0.0000 0.0000 0.0000 -8.7367 0.0000
# 6 0.0000 0.0000 0.0000 0.0000 0.0000 30.2493
#
#
#
# Elastic Compliance Matrix: (Units=1/GPa)
#
#
# Indices 1 2 3 4 5 6 
#
# 1 0.012152 -0.007526 -0.004478 0.000000 0.000000 0.000000
# 2 -0.007526 0.012046 0.004045 0.000000 0.000000 0.000000
# 3 -0.004478 0.004045 0.078725 0.000000 0.000000 0.000000
# 4 0.000000 0.000000 0.000000 0.045079 0.000000 0.000000
# 5 0.000000 0.000000 0.000000 0.000000 -0.114459 0.000000
# 6 0.000000 0.000000 0.000000 0.000000 0.000000 0.033059
#
#
# Mechanical properties :
#
#
# Convention : Reuss Voigt Hill
#
# Bulk Modulus (GPa) = 11.49358 50.30833 30.90095
# Shear Modulus (GPa) = 44.83404 22.03743 33.43573
#
# Velocity S-wave (km/s) = 4.80598 3.36944 4.15034
# Velocity P-wave (km/s) = 6.05952 6.40743 6.23590
#
# Compressibility (1/GPa) = 0.08700512
#
# Stress axis : x y z
#
# Youngs Moduli (GPa) = 82.28843 83.01255 12.70242
#
# Poissons Ratio (x) = 0.62475 0.05689
# Poissons Ratio (y) = 0.61930 -0.05138
# Poissons Ratio (z) = 0.36853 -0.33579
#
# Static dielectric constant tensor:
#      x y z
#    x 1.673780 0.000000 0.000000 
#    y 0.000000 1.650360 0.000000 
#    z 0.000000 0.000000 1.707240 
# 
# From -- ./inp_files/8408.got.cif
#   From: 2010.05.17/outbox.cif.g08.bks.cpg/sg58_5_cif.got.tgz:8408.got - 2010.06.03 14:20:14.
