data_PCOD9442776
_publ_section_title
;
Structure prediction by ZEFSAII (Michael W. Deem and Ramdas Pophale) SiO2 
 PCOD9442776
Probable space group: P N N M
;
_chemical_formula_sum "Si O2"
_cell_formula_units_Z 40
_cell_length_a 20.357350
_cell_length_b 5.237609
_cell_length_c 19.747123
_cell_angle_alpha 90.000000
_cell_angle_beta 90.000000
_cell_angle_gamma 90.000000
_cell_volume 2105.514075
_symmetry_space_group_name_H-M "P N N M"
_symmetry_group_IT_number 58
_symmetry_cell_setting 'orthorhombic'
loop_
_space_group_symop_operation_xyz
x,y,z
-x,-y,z
1/2+x,1/2-y,1/2-z
1/2-x,1/2+y,1/2-z
-x,-y,-z
x,y,-z
1/2-x,1/2+y,1/2+z
1/2+x,1/2-y,1/2+z
loop_
_atom_site_type_symbol
_atom_site_label
_atom_site_fract_x
_atom_site_fract_y
_atom_site_fract_z
Si Si1 0.539959 0.242068 0.751040
Si Si2 0.109090 0.540554 0.853486
Si Si3 0.244127 0.220085 0.148000
Si Si4 0.129121 0.684442 0.000000
Si Si5 0.783578 0.821725 0.000000
Si Si6 0.157373 0.942277 0.252025
O O1 0.500000 0.500000 0.760729
O O2 0.613647 0.315431 0.774564
O O3 0.500000 0.000000 0.779795
O O4 0.557326 0.168025 0.673096
O O5 0.182254 0.417139 0.854515
O O6 0.093808 0.642705 0.928074
O O7 0.113291 0.753714 0.794459
O O8 0.253668 0.136616 0.070682
O O9 0.309072 0.325650 0.182447
O O10 0.215928 0.011523 0.200103
O O11 0.185644 0.463395 0.000000
O O12 0.158807 0.967711 0.000000
#
# Coordination Sequence:
#
# PCOD9442776 Si02
#       6
#     8   8   8   4   4   8
#     4  11  23  39  55  76 109 149 197 244 280 319
#     4  10  20  35  56  79 114 148 186 234 275 344
#     4  10  20  32  55  90 115 148 181 227 294 338
#     4  10  20  34  52  80 111 157 183 217 290 324
#     4  10  20  34  52  79 127 149 175 220 280 362
#     4  11  19  33  59  84 113 144 188 238 277 345
#
# _framework density 18.997737000000001
#
# number of rings (size 3 to 8) (size 9 to 14) (size 15 to 20)
#    0.000    1.600    6.000    0.000    0.000    0.000 
#    0.000    1.000    0.000    0.000    0.000    1.400 
#    0.000    0.200    0.000    0.000    0.000    0.000 
#
# Total GULP energy -222738.805118 kJ/mol
# GULP energy per Si atom -5568.470128 kJ/mol
# Density = 1.895450 g / cm^3
# Si number density = 18.997737 Si / 1000 Ang^3
#
#
#
# Elastic Constant Matrix: (Units=GPa)
#
#
# Indices 1 2 3 4 5 6 
#
# 1 25.4550 12.3027 3.6267 0.0000 0.0000 0.0000
# 2 12.3027 56.5860 12.2522 0.0000 0.0000 0.0000
# 3 3.6267 12.2522 55.9924 0.0000 0.0000 0.0000
# 4 0.0000 0.0000 0.0000 14.4618 0.0000 0.0000
# 5 0.0000 0.0000 0.0000 0.0000 9.7054 0.0000
# 6 0.0000 0.0000 0.0000 0.0000 0.0000 11.5269
#
#
#
# Elastic Compliance Matrix: (Units=1/GPa)
#
#
# Indices 1 2 3 4 5 6 
#
# 1 0.043931 -0.009380 -0.000793 0.000000 0.000000 0.000000
# 2 -0.009380 0.020554 -0.003890 0.000000 0.000000 0.000000
# 3 -0.000793 -0.003890 0.018762 0.000000 0.000000 0.000000
# 4 0.000000 0.000000 0.000000 0.069148 0.000000 0.000000
# 5 0.000000 0.000000 0.000000 0.000000 0.103035 0.000000
# 6 0.000000 0.000000 0.000000 0.000000 0.000000 0.086754
#
#
# Mechanical properties :
#
#
# Convention : Reuss Voigt Hill
#
# Bulk Modulus (GPa) = 18.14165 21.59962 19.87064
# Shear Modulus (GPa) = 12.86395 14.46228 13.66312
#
# Velocity S-wave (km/s) = 2.60500 2.76209 2.68469
# Velocity P-wave (km/s) = 4.31487 4.64397 4.48244
#
# Compressibility (1/GPa) = 0.05512177
#
# Stress axis : x y z
#
# Youngs Moduli (GPa) = 22.76283 48.65279 53.29883
#
# Poissons Ratio (x) = 0.45635 0.04227
# Poissons Ratio (y) = 0.21351 0.20733
# Poissons Ratio (z) = 0.01805 0.18926
#
# Static dielectric constant tensor:
#      x y z
#    x 1.701560 0.000000 0.000000 
#    y 0.000000 1.776540 0.000000 
#    z 0.000000 0.000000 1.650950 
# 
# From -- ./inp_files/24280.got.cif
#   From: 2010.05.17/outbox.cif.g08.bks.cpg/sg58_13_cif.got.tgz:24280.got - 2010.06.03 14:20:14.
