data_PCOD9442394
_publ_section_title
;
Structure prediction by ZEFSAII (Michael W. Deem and Ramdas Pophale) SiO2 
 PCOD9442394
Probable space group: P N N M
;
_chemical_formula_sum "Si O2"
_cell_formula_units_Z 48
_cell_length_a 17.120895
_cell_length_b 18.464784
_cell_length_c 8.629544
_cell_angle_alpha 90.000000
_cell_angle_beta 90.000000
_cell_angle_gamma 90.000000
_cell_volume 2728.089053
_symmetry_space_group_name_H-M "P N N M"
_symmetry_group_IT_number 58
_symmetry_cell_setting 'orthorhombic'
loop_
_space_group_symop_operation_xyz
x,y,z
-x,-y,z
1/2+x,1/2-y,1/2-z
1/2-x,1/2+y,1/2-z
-x,-y,-z
x,y,-z
1/2-x,1/2+y,1/2+z
1/2+x,1/2-y,1/2+z
loop_
_atom_site_type_symbol
_atom_site_label
_atom_site_fract_x
_atom_site_fract_y
_atom_site_fract_z
Si Si1 0.828554 0.667491 0.814486
Si Si2 0.321858 0.405770 0.684193
Si Si3 0.641549 0.324626 0.812916
Si Si4 0.913839 0.520733 0.188604
Si Si5 0.744877 0.949304 0.312599
Si Si6 0.988861 0.083685 0.686905
O O1 0.743607 0.649053 0.746194
O O2 0.856331 0.745304 0.758147
O O3 0.885192 0.601067 0.765497
O O4 0.823925 0.665649 0.000000
O O5 0.319929 0.407717 0.500000
O O6 0.296836 0.484311 0.750573
O O7 0.408182 0.388214 0.743286
O O8 0.715838 0.373913 0.765313
O O9 0.563733 0.368849 0.768703
O O10 0.642687 0.318833 0.000000
O O11 0.844206 0.465915 0.235617
O O12 0.000000 0.500000 0.244723
O O13 0.916010 0.519599 0.000000
O O14 0.747806 0.952830 0.500000
O O15 0.983180 0.084294 0.500000
O O16 0.000000 0.000000 0.735418
#
# Coordination Sequence:
#
# PCOD9442394 Si02
#       6
#     8   8   8   8   8   8
#     4  10  21  37  56  77 110 147 183 227 282 334
#     4  11  21  34  55  81 108 140 186 230 270 322
#     4  10  20  35  55  80 112 147 182 223 274 337
#     4   8  15  31  56  80 100 132 181 228 264 314
#     4   9  17  33  56  78 105 144 181 214 272 336
#     4  10  19  35  58  81 111 149 184 218 274 340
#
# _framework density 17.594733000000002
#
# number of rings (size 3 to 8) (size 9 to 14) (size 15 to 20)
#    0.000    2.333    1.667    3.000    0.000    1.667 
#    3.000    0.000    0.000   12.500    0.000    0.000 
#    0.000    0.000    0.000    0.000    0.000    0.000 
#
# Total GULP energy -267756.897199 kJ/mol
# GULP energy per Si atom -5578.268692 kJ/mol
# Density = 1.755469 g / cm^3
# Si number density = 17.594733 Si / 1000 Ang^3
#
#
#
# Elastic Constant Matrix: (Units=GPa)
#
#
# Indices 1 2 3 4 5 6 
#
# 1 171.0579 87.5509 33.4231 0.0000 0.0000 0.0000
# 2 87.5509 116.8878 25.7882 0.0000 0.0000 0.0000
# 3 33.4231 25.7882 17.2262 0.0000 0.0000 0.0000
# 4 0.0000 0.0000 0.0000 27.8960 0.0000 0.0000
# 5 0.0000 0.0000 0.0000 0.0000 6.8120 0.0000
# 6 0.0000 0.0000 0.0000 0.0000 0.0000 21.7610
#
#
#
# Elastic Compliance Matrix: (Units=1/GPa)
#
#
# Indices 1 2 3 4 5 6 
#
# 1 0.011334 -0.005432 -0.013859 0.000000 0.000000 0.000000
# 2 -0.005432 0.015377 -0.012482 0.000000 0.000000 0.000000
# 3 -0.013859 -0.012482 0.103627 0.000000 0.000000 0.000000
# 4 0.000000 0.000000 0.000000 0.035847 0.000000 0.000000
# 5 0.000000 0.000000 0.000000 0.000000 0.146799 0.000000
# 6 0.000000 0.000000 0.000000 0.000000 0.000000 0.045954
#
#
# Mechanical properties :
#
#
# Convention : Reuss Voigt Hill
#
# Bulk Modulus (GPa) = 14.97164 66.52180 40.74672
# Shear Modulus (GPa) = 11.24231 21.85446 16.54839
#
# Velocity S-wave (km/s) = 2.53051 3.52817 3.07013
# Velocity P-wave (km/s) = 4.13105 7.38154 5.98134
#
# Compressibility (1/GPa) = 0.06679296
#
# Stress axis : x y z
#
# Youngs Moduli (GPa) = 88.23034 65.03064 9.65000
#
# Poissons Ratio (x) = 0.35322 0.13374
# Poissons Ratio (y) = 0.47923 0.12045
# Poissons Ratio (z) = 1.22281 0.81169
#
# Static dielectric constant tensor:
#      x y z
#    x 1.604120 0.000000 0.000000 
#    y 0.000000 1.578210 0.000000 
#    z 0.000000 0.000000 1.592090 
# 
# From -- ./inp_files/7875.got.cif
#   From: 2010.05.17/outbox.cif.g08.bks.cpg/sg58_4_cif.got.tgz:7875.got - 2010.06.03 14:20:14.
