data_PCOD9442157
_publ_section_title
;
Structure prediction by ZEFSAII (Michael W. Deem and Ramdas Pophale) SiO2 
 PCOD9442157
Probable space group: P N N M
;
_chemical_formula_sum "Si O2"
_cell_formula_units_Z 48
_cell_length_a 9.058949
_cell_length_b 18.803989
_cell_length_c 14.900207
_cell_angle_alpha 90.000000
_cell_angle_beta 90.000000
_cell_angle_gamma 90.000000
_cell_volume 2538.166484
_symmetry_space_group_name_H-M "P N N M"
_symmetry_group_IT_number 58
_symmetry_cell_setting 'orthorhombic'
loop_
_space_group_symop_operation_xyz
x,y,z
-x,-y,z
1/2+x,1/2-y,1/2-z
1/2-x,1/2+y,1/2-z
-x,-y,-z
x,y,-z
1/2-x,1/2+y,1/2+z
1/2+x,1/2-y,1/2+z
loop_
_atom_site_type_symbol
_atom_site_label
_atom_site_fract_x
_atom_site_fract_y
_atom_site_fract_z
Si Si1 0.729087 0.380946 0.097442
Si Si2 0.058379 0.079227 0.237799
Si Si3 0.220309 0.778925 0.899582
Si Si4 0.944507 0.573177 0.101664
Si Si5 0.271954 0.331869 0.788177
Si Si6 0.367835 0.701632 0.393565
O O1 0.671390 0.426312 0.179719
O O2 0.700195 0.297216 0.107162
O O3 0.905727 0.382884 0.095098
O O4 0.673512 0.405748 0.000000
O O5 0.128397 0.124689 0.155787
O O6 0.932502 0.132077 0.278757
O O7 0.000000 0.000000 0.214310
O O8 0.276254 0.823156 0.815234
O O9 0.041001 0.773463 0.888453
O O10 0.244755 0.807599 0.000000
O O11 0.825311 0.612701 0.158291
O O12 0.000000 0.500000 0.142403
O O13 0.889665 0.559459 0.000000
O O14 0.238529 0.256766 0.839425
O O15 0.330814 0.699390 0.500000
#
# Coordination Sequence:
#
# PCOD9442157 Si02
#       6
#     8   8   8   8   8   8
#     4  10  19  34  54  77 115 152 181 225 285 344
#     4  11  24  38  55  88 125 153 184 237 305 350
#     4   9  18  34  56  80 107 142 186 234 281 330
#     4  10  20  34  56  83 111 148 189 230 281 342
#     4  11  20  35  61  85 108 149 195 242 280 337
#     4  10  20  37  61  85 109 147 200 242 275 335
#
# _framework density 18.911290000000001
#
# number of rings (size 3 to 8) (size 9 to 14) (size 15 to 20)
#    0.000    1.833    3.333    1.500    0.000    2.000 
#    0.000    0.000    0.000    0.500    0.000    0.000 
#    0.000    0.000    0.000    0.000    0.000    0.000 
#
# Total GULP energy -267244.186431 kJ/mol
# GULP energy per Si atom -5567.587217 kJ/mol
# Density = 1.886825 g / cm^3
# Si number density = 18.911290 Si / 1000 Ang^3
#
#
#
# Elastic Constant Matrix: (Units=GPa)
#
#
# Indices 1 2 3 4 5 6 
#
# 1 27.5619 10.6627 24.2986 0.0000 0.0000 0.0000
# 2 10.6627 62.0470 31.1813 0.0000 0.0000 0.0000
# 3 24.2986 31.1813 102.7565 0.0000 0.0000 0.0000
# 4 0.0000 0.0000 0.0000 25.5432 0.0000 0.0000
# 5 0.0000 0.0000 0.0000 0.0000 28.0720 0.0000
# 6 0.0000 0.0000 0.0000 0.0000 0.0000 23.4436
#
#
#
# Elastic Compliance Matrix: (Units=1/GPa)
#
#
# Indices 1 2 3 4 5 6 
#
# 1 0.046274 -0.002895 -0.010064 0.000000 0.000000 0.000000
# 2 -0.002895 0.019198 -0.005141 0.000000 0.000000 0.000000
# 3 -0.010064 -0.005141 0.013672 0.000000 0.000000 0.000000
# 4 0.000000 0.000000 0.000000 0.039149 0.000000 0.000000
# 5 0.000000 0.000000 0.000000 0.000000 0.035623 0.000000
# 6 0.000000 0.000000 0.000000 0.000000 0.000000 0.042656
#
#
# Mechanical properties :
#
#
# Convention : Reuss Voigt Hill
#
# Bulk Modulus (GPa) = 23.28594 36.07230 29.67912
# Shear Modulus (GPa) = 20.23591 23.82661 22.03126
#
# Velocity S-wave (km/s) = 3.27470 3.55338 3.41688
# Velocity P-wave (km/s) = 5.16122 5.99593 5.59417
#
# Compressibility (1/GPa) = 0.04294436
#
# Stress axis : x y z
#
# Youngs Moduli (GPa) = 21.61029 52.08911 73.14434
#
# Poissons Ratio (x) = 0.15078 0.73612
# Poissons Ratio (y) = 0.06255 0.37604
# Poissons Ratio (z) = 0.21749 0.26779
#
# Static dielectric constant tensor:
#      x y z
#    x 1.685160 0.000000 0.000000 
#    y 0.000000 1.725850 0.000000 
#    z 0.000000 0.000000 1.677590 
# 
# From -- ./inp_files/19803.got.cif
#   From: 2010.05.17/outbox.cif.g08.bks.cpg/sg58_10_cif.got.tgz:19803.got - 2010.06.03 14:20:14.
