data_PCOD9442594
_publ_section_title
;
Structure prediction by ZEFSAII (Michael W. Deem and Ramdas Pophale) SiO2 
 PCOD9442594
Probable space group: P N N M
;
_chemical_formula_sum "Si O2"
_cell_formula_units_Z 58
_cell_length_a 5.235457
_cell_length_b 16.790619
_cell_length_c 33.236590
_cell_angle_alpha 90.000000
_cell_angle_beta 90.000000
_cell_angle_gamma 90.000000
_cell_volume 2921.714419
_symmetry_space_group_name_H-M "P N N M"
_symmetry_group_IT_number 58
_symmetry_cell_setting 'orthorhombic'
loop_
_space_group_symop_operation_xyz
x,y,z
-x,-y,z
1/2+x,1/2-y,1/2-z
1/2-x,1/2+y,1/2-z
-x,-y,-z
x,y,-z
1/2-x,1/2+y,1/2+z
1/2+x,1/2-y,1/2+z
loop_
_atom_site_type_symbol
_atom_site_label
_atom_site_fract_x
_atom_site_fract_y
_atom_site_fract_z
Si Si1 0.258830 0.625569 0.622491
Si Si2 0.343315 0.350401 0.764632
Si Si3 0.273280 0.808737 0.594143
Si Si4 0.257180 0.905700 0.926182
Si Si5 0.244749 0.948836 0.342544
Si Si6 0.271613 0.720385 0.047150
Si Si7 0.500000 0.500000 0.500000
Si Si8 0.842968 0.333767 0.286704
O O1 0.265493 0.719416 0.611687
O O2 0.528849 0.591907 0.606828
O O3 0.205340 0.625909 0.670115
O O4 0.028732 0.587174 0.596544
O O5 0.295584 0.417190 0.797499
O O6 0.618102 0.358545 0.743791
O O7 0.329407 0.263338 0.786368
O O8 0.120468 0.352945 0.731328
O O9 0.262228 0.872501 0.629089
O O10 0.532768 0.817600 0.569610
O O11 0.031566 0.813844 0.565008
O O12 0.260401 0.815215 0.943724
O O13 0.184572 0.961107 0.963945
O O14 0.500000 0.000000 0.345313
O O15 0.000000 0.000000 0.354570
O O16 0.255615 0.708599 0.000000
#
# Coordination Sequence:
#
# PCOD9442594 Si02
#       8
#     8   8   8   8   8   8   2   8
#     4  10  20  39  60  91 114 157 207 257 298 349
#     4  10  21  35  59  96 110 163 190 256 302 355
#     4  10  21  36  60  88 121 149 200 256 296 346
#     4  10  23  35  62  86 122 160 198 246 310 359
#     4  12  24  40  61  88 126 159 201 243 314 378
#     4  10  19  37  60  91 113 151 202 249 302 348
#     4  12  24  46  60  94 136 158 208 254 308 398
#     4  10  19  36  64  85 125 141 208 254 308 339
#
# _framework density 19.85136
#
# number of rings (size 3 to 8) (size 9 to 14) (size 15 to 20)
#    0.000    1.655    2.069    2.897    0.000    1.655 
#    0.000    0.000   15.172    8.276    0.000    0.000 
#    0.000    0.000    0.000    0.000    0.000    0.000 
#
# Total GULP energy -323645.379264 kJ/mol
# GULP energy per Si atom -5580.092746 kJ/mol
# Density = 1.980618 g / cm^3
# Si number density = 19.851360 Si / 1000 Ang^3
#
#
#
# Elastic Constant Matrix: (Units=GPa)
#
#
# Indices 1 2 3 4 5 6 
#
# 1 103.7858 13.5891 -3.6523 0.0000 0.0000 0.0000
# 2 13.5891 57.4752 12.8083 0.0000 0.0000 0.0000
# 3 -3.6523 12.8083 81.1612 0.0000 0.0000 0.0000
# 4 0.0000 0.0000 0.0000 40.0777 0.0000 0.0000
# 5 0.0000 0.0000 0.0000 0.0000 29.5756 0.0000
# 6 0.0000 0.0000 0.0000 0.0000 0.0000 23.6241
#
#
#
# Elastic Compliance Matrix: (Units=1/GPa)
#
#
# Indices 1 2 3 4 5 6 
#
# 1 0.010000 -0.002554 0.000853 0.000000 0.000000 0.000000
# 2 -0.002554 0.018686 -0.003064 0.000000 0.000000 0.000000
# 3 0.000853 -0.003064 0.012843 0.000000 0.000000 0.000000
# 4 0.000000 0.000000 0.000000 0.024952 0.000000 0.000000
# 5 0.000000 0.000000 0.000000 0.000000 0.033812 0.000000
# 6 0.000000 0.000000 0.000000 0.000000 0.000000 0.042330
#
#
# Mechanical properties :
#
#
# Convention : Reuss Voigt Hill
#
# Bulk Modulus (GPa) = 31.25178 31.99027 31.62102
# Shear Modulus (GPa) = 30.70927 33.30063 32.00495
#
# Velocity S-wave (km/s) = 3.93741 4.10017 4.01961
# Velocity P-wave (km/s) = 6.03722 6.21008 6.12426
#
# Compressibility (1/GPa) = 0.03199818
#
# Stress axis : x y z
#
# Youngs Moduli (GPa) = 100.00294 53.51736 77.86314
#
# Poissons Ratio (x) = 0.13670 -0.06643
# Poissons Ratio (y) = 0.25545 0.23856
# Poissons Ratio (z) = -0.08531 0.16397
#
# Static dielectric constant tensor:
#      x y z
#    x 1.675270 0.000000 0.000000 
#    y 0.000000 1.702940 0.000000 
#    z 0.000000 0.000000 1.655770 
# 
# From -- ./inp_files/32954.got.cif
#   From: 2010.05.17/outbox.cif.g08.bks.cpg/sg58_17_cif.got.tgz:32954.got - 2010.06.03 14:20:14.
