data_PCOD9442529
_publ_section_title
;
Structure prediction by ZEFSAII (Michael W. Deem and Ramdas Pophale) SiO2 
 PCOD9442529
Probable space group: P N N M
;
_chemical_formula_sum "Si O2"
_cell_formula_units_Z 56
_cell_length_a 21.837603
_cell_length_b 14.744395
_cell_length_c 7.453351
_cell_angle_alpha 90.000000
_cell_angle_beta 90.000000
_cell_angle_gamma 90.000000
_cell_volume 2399.846684
_symmetry_space_group_name_H-M "P N N M"
_symmetry_group_IT_number 58
_symmetry_cell_setting 'orthorhombic'
loop_
_space_group_symop_operation_xyz
x,y,z
-x,-y,z
1/2+x,1/2-y,1/2-z
1/2-x,1/2+y,1/2-z
-x,-y,-z
x,y,-z
1/2-x,1/2+y,1/2+z
1/2+x,1/2-y,1/2+z
loop_
_atom_site_type_symbol
_atom_site_label
_atom_site_fract_x
_atom_site_fract_y
_atom_site_fract_z
Si Si1 0.899490 0.916055 0.291190
Si Si2 0.487647 0.287715 0.717156
Si Si3 0.128734 0.887736 0.203340
Si Si4 0.211653 0.209443 0.719185
Si Si5 0.033835 0.590464 0.780555
Si Si6 0.672402 0.899649 0.707613
Si Si7 0.266664 0.909327 0.217509
O O1 0.888082 0.935499 0.500000
O O2 0.842671 0.856529 0.220814
O O3 0.960272 0.856718 0.276113
O O4 0.902443 0.013442 0.199997
O O5 0.486122 0.291427 0.500000
O O6 0.420913 0.319946 0.783771
O O7 0.499080 0.184095 0.770721
O O8 0.196193 0.901950 0.280943
O O9 0.139923 0.855346 0.000000
O O10 0.211752 0.207047 0.500000
O O11 0.276849 0.169524 0.782216
O O12 0.202703 0.314014 0.770110
O O13 0.104109 0.596484 0.717064
O O14 0.000000 0.500000 0.718836
O O15 0.034722 0.586978 0.000000
O O16 0.664961 0.872932 0.500000
O O17 0.701386 0.000029 0.714987
O O18 0.266949 0.916094 0.000000
#
# Coordination Sequence:
#
# PCOD9442529 Si02
#       7
#     8   8   8   8   8   8   8
#     4  11  22  36  55  82 114 147 183 227 279 330
#     4  10  21  37  57  81 110 147 188 228 273 326
#     4  10  20  36  57  82 110 144 185 228 273 326
#     4   9  19  35  54  78 111 147 180 218 275 337
#     4   9  19  35  57  84 111 141 183 231 275 324
#     4  10  19  36  59  82 110 144 181 226 278 326
#     4  10  20  35  57  81 108 144 183 223 272 330
#
# _framework density 23.334824000000001
#
# number of rings (size 3 to 8) (size 9 to 14) (size 15 to 20)
#    0.000    2.143    1.429    1.714    2.000    5.714 
#    0.000    2.143    0.000    2.571    0.000    0.000 
#    0.000    0.000    0.000    0.000    0.000    0.000 
#
# Total GULP energy -313103.369205 kJ/mol
# GULP energy per Si atom -5591.131593 kJ/mol
# Density = 2.328171 g / cm^3
# Si number density = 23.334824 Si / 1000 Ang^3
#
#
#
# Elastic Constant Matrix: (Units=GPa)
#
#
# Indices 1 2 3 4 5 6 
#
# 1 60.1776 2.4009 -2.6815 0.0000 0.0000 0.0000
# 2 2.4009 127.1322 -4.5673 0.0000 0.0000 0.0000
# 3 -2.6815 -4.5673 75.3889 0.0000 0.0000 0.0000
# 4 0.0000 0.0000 0.0000 9.2000 0.0000 0.0000
# 5 0.0000 0.0000 0.0000 0.0000 11.8411 0.0000
# 6 0.0000 0.0000 0.0000 0.0000 0.0000 31.6399
#
#
#
# Elastic Compliance Matrix: (Units=1/GPa)
#
#
# Indices 1 2 3 4 5 6 
#
# 1 0.016655 -0.000294 0.000575 0.000000 0.000000 0.000000
# 2 -0.000294 0.007888 0.000467 0.000000 0.000000 0.000000
# 3 0.000575 0.000467 0.013313 0.000000 0.000000 0.000000
# 4 0.000000 0.000000 0.000000 0.108695 0.000000 0.000000
# 5 0.000000 0.000000 0.000000 0.000000 0.084452 0.000000
# 6 0.000000 0.000000 0.000000 0.000000 0.000000 0.031606
#
#
# Mechanical properties :
#
#
# Convention : Reuss Voigt Hill
#
# Bulk Modulus (GPa) = 25.41130 28.11143 26.76136
# Shear Modulus (GPa) = 18.23287 28.37264 23.30276
#
# Velocity S-wave (km/s) = 2.79831 3.49075 3.16353
# Velocity P-wave (km/s) = 4.62106 5.32168 4.98370
#
# Compressibility (1/GPa) = 0.03935258
#
# Stress axis : x y z
#
# Youngs Moduli (GPa) = 60.04276 126.77210 75.11279
#
# Poissons Ratio (x) = 0.03726 -0.04316
# Poissons Ratio (y) = 0.01765 -0.03511
# Poissons Ratio (z) = -0.03450 -0.05926
#
# Static dielectric constant tensor:
#      x y z
#    x 1.849820 0.000000 0.000000 
#    y 0.000000 1.831430 0.000000 
#    z 0.000000 0.000000 1.943310 
# 
# From -- ./inp_files/6279.got.cif
#   From: 2010.05.17/outbox.cif.g08.bks.cpg/sg58_4_cif.got.tgz:6279.got - 2010.06.03 14:20:14.
