data_PCOD9442627
_publ_section_title
;
Structure prediction by ZEFSAII (Michael W. Deem and Ramdas Pophale) SiO2 
 PCOD9442627
Probable space group: P N N M
;
_chemical_formula_sum "Si O2"
_cell_formula_units_Z 48
_cell_length_a 21.402407
_cell_length_b 15.492701
_cell_length_c 7.496288
_cell_angle_alpha 90.000000
_cell_angle_beta 90.000000
_cell_angle_gamma 90.000000
_cell_volume 2485.627363
_symmetry_space_group_name_H-M "P N N M"
_symmetry_group_IT_number 58
_symmetry_cell_setting 'orthorhombic'
loop_
_space_group_symop_operation_xyz
x,y,z
-x,-y,z
1/2+x,1/2-y,1/2-z
1/2-x,1/2+y,1/2-z
-x,-y,-z
x,y,-z
1/2-x,1/2+y,1/2+z
1/2+x,1/2-y,1/2+z
loop_
_atom_site_type_symbol
_atom_site_label
_atom_site_fract_x
_atom_site_fract_y
_atom_site_fract_z
Si Si1 0.188989 0.987256 0.217153
Si Si2 0.308494 0.102748 0.705746
Si Si3 0.486587 0.266700 0.286502
Si Si4 0.340949 0.295023 0.715720
Si Si5 0.479632 0.869860 0.000000
Si Si6 0.555759 0.439804 0.716363
Si Si7 0.394879 0.020312 0.000000
O O1 0.188904 0.886263 0.275660
O O2 0.243893 0.050270 0.280546
O O3 0.122960 0.027814 0.275718
O O4 0.191792 0.987421 0.000000
O O5 0.329166 0.103592 0.500000
O O6 0.308561 0.203839 0.766470
O O7 0.356191 0.050953 0.829400
O O8 0.486416 0.253535 0.500000
O O9 0.414673 0.289277 0.234616
O O10 0.511109 0.186574 0.176161
O O11 0.533680 0.344106 0.241900
O O12 0.339519 0.298910 0.500000
O O13 0.539796 0.930809 0.000000
O O14 0.414584 0.920765 0.000000
O O15 0.500000 0.500000 0.781576
O O16 0.556867 0.446707 0.500000
#
# Coordination Sequence:
#
# PCOD9442627 Si02
#       7
#     8   8   8   8   4   8   4
#     4  10  19  37  62  90 124 165 206 254 306 363
#     4  11  23  43  63  88 123 164 209 253 304 368
#     4  10  19  37  61  90 126 160 197 249 309 370
#     4   9  18  35  63  87 116 163 206 246 302 363
#     4  11  24  40  65  96 116 156 211 253 307 367
#     4   9  16  31  59  91 126 160 198 250 312 367
#     4  11  24  44  66  88 121 160 206 260 304 364
#
# _framework density 19.311019999999999
#
# number of rings (size 3 to 8) (size 9 to 14) (size 15 to 20)
#    0.000    2.000    4.167    0.000    0.000    0.667 
#    7.500    2.083    0.000    0.000    0.000    0.000 
#    0.000    0.000    0.000    0.000    0.000    0.000 
#
# Total GULP energy -267773.468041 kJ/mol
# GULP energy per Si atom -5578.613918 kJ/mol
# Density = 1.926707 g / cm^3
# Si number density = 19.311020 Si / 1000 Ang^3
#
#
#
# Elastic Constant Matrix: (Units=GPa)
#
#
# Indices 1 2 3 4 5 6 
#
# 1 116.9290 88.6105 24.3435 0.0000 0.0000 0.0000
# 2 88.6105 156.0248 32.6176 0.0000 0.0000 0.0000
# 3 24.3435 32.6176 67.1571 0.0000 0.0000 0.0000
# 4 0.0000 0.0000 0.0000 -211.8014 0.0000 0.0000
# 5 0.0000 0.0000 0.0000 0.0000 9.0977 0.0000
# 6 0.0000 0.0000 0.0000 0.0000 0.0000 36.4510
#
#
#
# Elastic Compliance Matrix: (Units=1/GPa)
#
#
# Indices 1 2 3 4 5 6 
#
# 1 0.015142 -0.008294 -0.001460 0.000000 0.000000 0.000000
# 2 -0.008294 0.011677 -0.002665 0.000000 0.000000 0.000000
# 3 -0.001460 -0.002665 0.016714 0.000000 0.000000 0.000000
# 4 0.000000 0.000000 0.000000 -0.004721 0.000000 0.000000
# 5 0.000000 0.000000 0.000000 0.000000 0.109918 0.000000
# 6 0.000000 0.000000 0.000000 0.000000 0.000000 0.027434
#
#
# Mechanical properties :
#
#
# Convention : Reuss Voigt Hill
#
# Bulk Modulus (GPa) = 53.49271 70.13934 61.81602
# Shear Modulus (GPa) = 24.12754 -20.28125 1.92315
#
# Velocity S-wave (km/s) = 3.53855 -3.24426 0.99902
# Velocity P-wave (km/s) = 6.66752 4.72928 5.78022
#
# Compressibility (1/GPa) = 0.01869414
#
# Stress axis : x y z
#
# Youngs Moduli (GPa) = 66.04361 85.64073 59.82981
#
# Poissons Ratio (x) = 0.71030 0.08737
# Poissons Ratio (y) = 0.54776 0.15943
# Poissons Ratio (z) = 0.09644 0.22822
#
# Static dielectric constant tensor:
#      x y z
#    x 1.650030 0.000000 0.000000 
#    y 0.000000 1.740680 0.000000 
#    z 0.000000 0.000000 1.702390 
# 
# From -- ./inp_files/7769.got.cif
#   From: 2010.05.17/outbox.cif.g08.bks.cpg/sg58_4_cif.got.tgz:7769.got - 2010.06.03 14:20:14.
