data_PCOD9442700
_publ_section_title
;
Structure prediction by ZEFSAII (Michael W. Deem and Ramdas Pophale) SiO2 
 PCOD9442700
Probable space group: P N N M
;
_chemical_formula_sum "Si O2"
_cell_formula_units_Z 56
_cell_length_a 19.745701
_cell_length_b 8.485847
_cell_length_c 15.542723
_cell_angle_alpha 90.000000
_cell_angle_beta 90.000000
_cell_angle_gamma 90.000000
_cell_volume 2604.323086
_symmetry_space_group_name_H-M "P N N M"
_symmetry_group_IT_number 58
_symmetry_cell_setting 'orthorhombic'
loop_
_space_group_symop_operation_xyz
x,y,z
-x,-y,z
1/2+x,1/2-y,1/2-z
1/2-x,1/2+y,1/2-z
-x,-y,-z
x,y,-z
1/2-x,1/2+y,1/2+z
1/2+x,1/2-y,1/2+z
loop_
_atom_site_type_symbol
_atom_site_label
_atom_site_fract_x
_atom_site_fract_y
_atom_site_fract_z
Si Si1 0.662034 0.673909 0.409245
Si Si2 0.535296 0.840353 0.629589
Si Si3 0.590481 0.333252 0.407042
Si Si4 0.946686 0.300428 0.666914
Si Si5 0.910033 0.641927 0.399599
Si Si6 0.688340 0.623952 0.217454
Si Si7 0.821788 0.756569 0.246684
O O1 0.700550 0.672079 0.500000
O O2 0.608986 0.815531 0.408044
O O3 0.619546 0.510151 0.403892
O O4 0.695755 0.683224 0.316857
O O5 0.489376 0.693721 0.599915
O O6 0.541549 0.839201 0.732751
O O7 0.500000 0.000000 0.601752
O O8 0.612359 0.268632 0.500000
O O9 0.617333 0.249299 0.321960
O O10 0.926408 0.457125 0.614958
O O11 0.880927 0.184398 0.672615
O O12 0.021612 0.260750 0.629081
O O13 0.895676 0.672693 0.500000
O O14 0.849179 0.672461 0.332592
O O15 0.759394 0.694869 0.187867
O O16 0.689322 0.436711 0.224392
#
# Coordination Sequence:
#
# PCOD9442700 Si02
#       7
#     8   8   8   8   8   8   8
#     4   9  20  35  53  80 112 152 195 231 286 362
#     4  11  18  30  53  85 119 147 178 237 286 344
#     4  10  20  36  56  79 113 153 192 234 288 359
#     4  10  19  39  60  92 120 163 207 255 314 376
#     4  11  22  40  67  92 126 168 215 267 319 385
#     4  10  23  38  65  83 126 164 206 262 318 375
#     4  11  22  42  59  92 119 164 210 259 318 377
#
# _framework density 21.502708999999999
#
# number of rings (size 3 to 8) (size 9 to 14) (size 15 to 20)
#    0.000    1.714    2.857    2.571    0.000    4.571 
#    0.000    7.143    0.000    0.000    0.000    0.000 
#    0.000    0.000    0.000    0.000    0.000    0.000 
#
# Total GULP energy -311935.486949 kJ/mol
# GULP energy per Si atom -5570.276553 kJ/mol
# Density = 2.145377 g / cm^3
# Si number density = 21.502709 Si / 1000 Ang^3
#
#
#
# Elastic Constant Matrix: (Units=GPa)
#
#
# Indices 1 2 3 4 5 6 
#
# 1 62.6775 7.6185 -18.6756 0.0000 0.0000 0.0000
# 2 7.6185 35.5805 -12.0948 0.0000 0.0000 0.0000
# 3 -18.6756 -12.0948 103.3473 0.0000 0.0000 0.0000
# 4 0.0000 0.0000 0.0000 27.0973 0.0000 0.0000
# 5 0.0000 0.0000 0.0000 0.0000 -21.1017 0.0000
# 6 0.0000 0.0000 0.0000 0.0000 0.0000 26.5526
#
#
#
# Elastic Compliance Matrix: (Units=1/GPa)
#
#
# Indices 1 2 3 4 5 6 
#
# 1 0.017112 -0.002721 0.002774 0.000000 0.000000 0.000000
# 2 -0.002721 0.029702 0.002984 0.000000 0.000000 0.000000
# 3 0.002774 0.002984 0.010527 0.000000 0.000000 0.000000
# 4 0.000000 0.000000 0.000000 0.036904 0.000000 0.000000
# 5 0.000000 0.000000 0.000000 0.000000 -0.047389 0.000000
# 6 0.000000 0.000000 0.000000 0.000000 0.000000 0.037661
#
#
# Mechanical properties :
#
#
# Convention : Reuss Voigt Hill
#
# Bulk Modulus (GPa) = 15.76912 17.25571 16.51241
# Shear Modulus (GPa) = 50.21049 21.49346 35.85198
#
# Velocity S-wave (km/s) = 4.83751 3.16503 4.08772
# Velocity P-wave (km/s) = 6.20898 4.62589 5.47496
#
# Compressibility (1/GPa) = 0.06341510
#
# Stress axis : x y z
#
# Youngs Moduli (GPa) = 58.43880 33.66730 94.99726
#
# Poissons Ratio (x) = 0.09161 -0.26350
# Poissons Ratio (y) = 0.15902 -0.28351
# Poissons Ratio (z) = -0.16210 -0.10048
#
# Static dielectric constant tensor:
#      x y z
#    x 1.843010 0.000000 0.000000 
#    y 0.000000 1.799190 0.000000 
#    z 0.000000 0.000000 1.822930 
# 
# From -- ./inp_files/23266.got.cif
#   From: 2010.05.17/outbox.cif.g08.bks.cpg/sg58_12_cif.got.tgz:23266.got - 2010.06.03 14:20:14.
