data_PCOD9442250
_publ_section_title
;
Structure prediction by ZEFSAII (Michael W. Deem and Ramdas Pophale) SiO2 
 PCOD9442250
Probable space group: P N N M
;
_chemical_formula_sum "Si O2"
_cell_formula_units_Z 48
_cell_length_a 18.905620
_cell_length_b 18.143846
_cell_length_c 7.641656
_cell_angle_alpha 90.000000
_cell_angle_beta 90.000000
_cell_angle_gamma 90.000000
_cell_volume 2621.245868
_symmetry_space_group_name_H-M "P N N M"
_symmetry_group_IT_number 58
_symmetry_cell_setting 'orthorhombic'
loop_
_space_group_symop_operation_xyz
x,y,z
-x,-y,z
1/2+x,1/2-y,1/2-z
1/2-x,1/2+y,1/2-z
-x,-y,-z
x,y,-z
1/2-x,1/2+y,1/2+z
1/2+x,1/2-y,1/2+z
loop_
_atom_site_type_symbol
_atom_site_label
_atom_site_fract_x
_atom_site_fract_y
_atom_site_fract_z
Si Si1 0.214130 0.437464 0.290386
Si Si2 0.426076 0.405488 0.000000
Si Si3 0.307421 0.577646 0.699162
Si Si4 0.423600 0.022953 0.705836
Si Si5 0.332881 0.330255 0.290551
Si Si6 0.830388 0.341074 0.211583
Si Si7 0.914359 0.917947 0.500000
O O1 0.208371 0.441414 0.500000
O O2 0.268752 0.502423 0.236655
O O3 0.136835 0.459922 0.222588
O O4 0.254142 0.361577 0.246126
O O5 0.387047 0.375105 0.828445
O O6 0.422056 0.493612 0.000000
O O7 0.508208 0.383778 0.000000
O O8 0.331454 0.566470 0.500000
O O9 0.244298 0.636141 0.707658
O O10 0.369163 0.600475 0.828622
O O11 0.324240 0.151042 0.500000
O O12 0.388018 0.098718 0.774649
O O13 0.500000 0.000000 0.780527
O O14 0.342590 0.342132 0.500000
O O15 0.343898 0.244212 0.252136
O O16 0.065304 0.536408 0.000000
#
# Coordination Sequence:
#
# PCOD9442250 Si02
#       7
#     8   4   8   8   8   8   4
#     4   9  18  32  53  78 105 139 182 231 275 328
#     4  11  24  36  60  82 113 158 188 231 291 350
#     4  10  19  34  57  84 110 141 188 239 276 332
#     4   9  18  32  54  83 110 146 186 225 280 340
#     4  10  21  37  56  84 113 148 193 236 285 339
#     4   9  18  34  58  81 114 149 189 236 282 336
#     4  11  22  38  56  86 112 146 196 237 288 332
#
# _framework density 18.311903000000001
#
# number of rings (size 3 to 8) (size 9 to 14) (size 15 to 20)
#    0.000    2.333    2.500    0.000    3.500    1.000 
#    0.000    3.333    0.000    2.000    0.000    0.000 
#    0.000    0.000    0.000    0.000    0.000    0.000 
#
# Total GULP energy -267564.360453 kJ/mol
# GULP energy per Si atom -5574.257509 kJ/mol
# Density = 1.827022 g / cm^3
# Si number density = 18.311903 Si / 1000 Ang^3
#
#
#
# Elastic Constant Matrix: (Units=GPa)
#
#
# Indices 1 2 3 4 5 6 
#
# 1 143.3206 45.0958 38.2451 0.0000 0.0000 0.0000
# 2 45.0958 83.8200 20.9701 0.0000 0.0000 0.0000
# 3 38.2451 20.9701 51.9639 0.0000 0.0000 0.0000
# 4 0.0000 0.0000 0.0000 11.9956 0.0000 0.0000
# 5 0.0000 0.0000 0.0000 0.0000 3.8116 0.0000
# 6 0.0000 0.0000 0.0000 0.0000 0.0000 16.9317
#
#
#
# Elastic Compliance Matrix: (Units=1/GPa)
#
#
# Indices 1 2 3 4 5 6 
#
# 1 0.009662 -0.003803 -0.005576 0.000000 0.000000 0.000000
# 2 -0.003803 0.014767 -0.003160 0.000000 0.000000 0.000000
# 3 -0.005576 -0.003160 0.024624 0.000000 0.000000 0.000000
# 4 0.000000 0.000000 0.000000 0.083364 0.000000 0.000000
# 5 0.000000 0.000000 0.000000 0.000000 0.262356 0.000000
# 6 0.000000 0.000000 0.000000 0.000000 0.000000 0.059061
#
#
# Mechanical properties :
#
#
# Convention : Reuss Voigt Hill
#
# Bulk Modulus (GPa) = 41.71321 54.19184 47.95253
# Shear Modulus (GPa) = 10.26896 18.20068 14.23482
#
# Velocity S-wave (km/s) = 2.37065 3.15608 2.79113
# Velocity P-wave (km/s) = 5.50655 6.55280 6.05232
#
# Compressibility (1/GPa) = 0.02397322
#
# Stress axis : x y z
#
# Youngs Moduli (GPa) = 103.49703 67.71824 40.61137
#
# Poissons Ratio (x) = 0.25754 0.22647
# Poissons Ratio (y) = 0.39362 0.12834
# Poissons Ratio (z) = 0.57715 0.21400
#
# Static dielectric constant tensor:
#      x y z
#    x 1.626030 0.000000 0.000000 
#    y 0.000000 1.643360 0.000000 
#    z 0.000000 0.000000 1.660490 
# 
# From -- ./inp_files/5947.got.cif
#   From: 2010.05.17/outbox.cif.g08.bks.cpg/sg58_3_cif.got.tgz:5947.got - 2010.06.03 14:20:14.
