data_PCOD9442315
_publ_section_title
;
Structure prediction by ZEFSAII (Michael W. Deem and Ramdas Pophale) SiO2 
 PCOD9442315
Probable space group: P N N M
;
_chemical_formula_sum "Si O2"
_cell_formula_units_Z 56
_cell_length_a 12.963172
_cell_length_b 15.598340
_cell_length_c 11.852776
_cell_angle_alpha 90.000000
_cell_angle_beta 90.000000
_cell_angle_gamma 90.000000
_cell_volume 2396.678296
_symmetry_space_group_name_H-M "P N N M"
_symmetry_group_IT_number 58
_symmetry_cell_setting 'orthorhombic'
loop_
_space_group_symop_operation_xyz
x,y,z
-x,-y,z
1/2+x,1/2-y,1/2-z
1/2-x,1/2+y,1/2-z
-x,-y,-z
x,y,-z
1/2-x,1/2+y,1/2+z
1/2+x,1/2-y,1/2+z
loop_
_atom_site_type_symbol
_atom_site_label
_atom_site_fract_x
_atom_site_fract_y
_atom_site_fract_z
Si Si1 0.270124 0.463104 0.875973
Si Si2 0.187748 0.287067 0.800824
Si Si3 0.858437 0.259969 0.879127
Si Si4 0.905967 0.433672 0.223458
Si Si5 0.004771 0.888294 0.370459
Si Si6 0.056073 0.136901 0.876484
Si Si7 0.007620 0.312920 0.624577
O O1 0.221762 0.368522 0.870833
O O2 0.203978 0.519700 0.789416
O O3 0.391217 0.443854 0.861701
O O4 0.252488 0.501023 0.000000
O O5 0.278842 0.255919 0.719959
O O6 0.144548 0.208496 0.871624
O O7 0.097217 0.317203 0.716538
O O8 0.907684 0.353685 0.862847
O O9 0.947368 0.188420 0.877957
O O10 0.804199 0.256378 0.000000
O O11 0.924682 0.384235 0.341000
O O12 0.000000 0.500000 0.204787
O O13 0.962317 0.901549 0.500000
O O14 0.943538 0.901840 0.251550
O O15 0.029704 0.785895 0.370891
O O16 0.063661 0.091178 0.000000
O O17 0.047080 0.329632 0.500000
#
# Coordination Sequence:
#
# PCOD9442315 Si02
#       7
#     8   8   8   8   8   8   8
#     4  11  21  33  53  81 118 157 194 241 305 375
#     4  11  19  37  57  89 116 159 210 255 303 362
#     4  11  22  37  59  89 126 164 206 255 307 370
#     4  12  22  38  54  88 127 160 196 244 324 381
#     4   9  18  36  58  81 114 160 210 254 299 360
#     4  10  19  34  59  89 117 150 204 266 310 353
#     4  10  20  37  57  80 115 160 208 255 303 364
#
# _framework density 23.365672
#
# number of rings (size 3 to 8) (size 9 to 14) (size 15 to 20)
#    0.000    1.429    5.714    1.286    0.000    3.143 
#    0.000    1.429    0.000    3.429    0.000   14.000 
#    0.000    0.000    0.000    0.000    0.000    0.000 
#
# Total GULP energy -312620.975846 kJ/mol
# GULP energy per Si atom -5582.517426 kJ/mol
# Density = 2.331249 g / cm^3
# Si number density = 23.365672 Si / 1000 Ang^3
#
#
#
# Elastic Constant Matrix: (Units=GPa)
#
#
# Indices 1 2 3 4 5 6 
#
# 1 66.9955 26.6718 37.7557 0.0000 0.0000 0.0000
# 2 26.6718 91.5939 27.8115 0.0000 0.0000 0.0000
# 3 37.7557 27.8115 163.9614 0.0000 0.0000 0.0000
# 4 0.0000 0.0000 0.0000 15.4991 0.0000 0.0000
# 5 0.0000 0.0000 0.0000 0.0000 1.1970 0.0000
# 6 0.0000 0.0000 0.0000 0.0000 0.0000 38.2493
#
#
#
# Elastic Compliance Matrix: (Units=1/GPa)
#
#
# Indices 1 2 3 4 5 6 
#
# 1 0.018666 -0.004355 -0.003560 0.000000 0.000000 0.000000
# 2 -0.004355 0.012527 -0.001122 0.000000 0.000000 0.000000
# 3 -0.003560 -0.001122 0.007109 0.000000 0.000000 0.000000
# 4 0.000000 0.000000 0.000000 0.064520 0.000000 0.000000
# 5 0.000000 0.000000 0.000000 0.000000 0.835413 0.000000
# 6 0.000000 0.000000 0.000000 0.000000 0.000000 0.026144
#
#
# Mechanical properties :
#
#
# Convention : Reuss Voigt Hill
#
# Bulk Modulus (GPa) = 49.43403 56.33651 52.88527
# Shear Modulus (GPa) = 5.05462 26.34322 15.69892
#
# Velocity S-wave (km/s) = 1.47240 3.36137 2.59488
# Velocity P-wave (km/s) = 4.90849 6.26324 5.62679
#
# Compressibility (1/GPa) = 0.02022898
#
# Stress axis : x y z
#
# Youngs Moduli (GPa) = 53.57320 79.83075 140.66683
#
# Poissons Ratio (x) = 0.34763 0.50072
# Poissons Ratio (y) = 0.23329 0.15783
# Poissons Ratio (z) = 0.19070 0.08957
#
# Static dielectric constant tensor:
#      x y z
#    x 1.911590 0.000000 0.000000 
#    y 0.000000 1.892930 0.000000 
#    z 0.000000 0.000000 1.921530 
# 
# From -- ./inp_files/15686.got.cif
#   From: 2010.05.17/outbox.cif.g08.bks.cpg/sg58_8_cif.got.tgz:15686.got - 2010.06.03 14:20:14.
