data_PCOD9442038
_publ_section_title
;
Structure prediction by ZEFSAII (Michael W. Deem and Ramdas Pophale) SiO2 
 PCOD9442038
Probable space group: P N N M
;
_chemical_formula_sum "Si O2"
_cell_formula_units_Z 64
_cell_length_a 29.872943
_cell_length_b 12.481947
_cell_length_c 7.593040
_cell_angle_alpha 90.000000
_cell_angle_beta 90.000000
_cell_angle_gamma 90.000000
_cell_volume 2831.235741
_symmetry_space_group_name_H-M "P N N M"
_symmetry_group_IT_number 58
_symmetry_cell_setting 'orthorhombic'
loop_
_space_group_symop_operation_xyz
x,y,z
-x,-y,z
1/2+x,1/2-y,1/2-z
1/2-x,1/2+y,1/2-z
-x,-y,-z
x,y,-z
1/2-x,1/2+y,1/2+z
1/2+x,1/2-y,1/2+z
loop_
_atom_site_type_symbol
_atom_site_label
_atom_site_fract_x
_atom_site_fract_y
_atom_site_fract_z
Si Si1 0.372162 0.660882 0.283772
Si Si2 0.519030 0.740102 0.207709
Si Si3 0.184049 0.595349 0.699972
Si Si4 0.331081 0.333141 0.712208
Si Si5 0.077902 0.949049 0.211494
Si Si6 0.413542 0.079940 0.795687
Si Si7 0.070979 0.349861 0.202020
Si Si8 0.718404 0.451153 0.285879
O O1 0.372745 0.661120 0.500000
O O2 0.407288 0.567415 0.227526
O O3 0.389053 0.776607 0.223381
O O4 0.322255 0.626457 0.227993
O O5 0.534406 0.617628 0.233557
O O6 0.556552 0.823831 0.279304
O O7 0.472429 0.774549 0.290802
O O8 0.514394 0.759359 0.000000
O O9 0.184654 0.551362 0.500000
O O10 0.182083 0.723659 0.699065
O O11 0.136196 0.565056 0.782899
O O12 0.231722 0.566792 0.782778
O O13 0.331361 0.318589 0.500000
O O14 0.380276 0.373687 0.764876
O O15 0.297806 0.429469 0.754435
O O16 0.076851 0.954396 0.000000
O O17 0.437010 0.964586 0.789049
O O18 0.406103 0.109254 0.000000
O O19 0.080994 0.374738 0.000000
O O20 0.719574 0.440156 0.500000
#
# Coordination Sequence:
#
# PCOD9442038 Si02
#       8
#     8   8   8   8   8   8   8   8
#     4   8  17  35  55  79 110 142 176 223 275 319
#     4  11  22  37  56  79 110 143 180 224 274 325
#     4  10  19  33  55  80 106 141 180 216 265 329
#     4   9  17  31  52  77 104 134 173 221 263 305
#     4   9  17  33  58  80 103 137 178 222 266 316
#     4  10  22  38  53  75 110 146 178 220 274 324
#     4  11  23  37  56  80 108 143 185 226 269 322
#     4   8  16  32  54  78 106 142 177 212 266 325
#
# _framework density 22.604969000000001
#
# number of rings (size 3 to 8) (size 9 to 14) (size 15 to 20)
#    0.000    2.500    1.250    2.625    0.000    4.500 
#    0.000    4.375    0.000    3.000    0.000    0.000 
#    0.000    0.000    0.000    0.000    0.000    0.000 
#
# Total GULP energy -357202.599878 kJ/mol
# GULP energy per Si atom -5581.290623 kJ/mol
# Density = 2.255352 g / cm^3
# Si number density = 22.604969 Si / 1000 Ang^3
#
#
#
# Elastic Constant Matrix: (Units=GPa)
#
#
# Indices 1 2 3 4 5 6 
#
# 1 73.5374 6.4854 2.5179 0.0000 0.0000 0.0000
# 2 6.4854 33.0021 -0.3996 0.0000 0.0000 0.0000
# 3 2.5179 -0.3996 50.8488 0.0000 0.0000 0.0000
# 4 0.0000 0.0000 0.0000 19.3941 0.0000 0.0000
# 5 0.0000 0.0000 0.0000 0.0000 5.2864 0.0000
# 6 0.0000 0.0000 0.0000 0.0000 0.0000 20.5357
#
#
#
# Elastic Compliance Matrix: (Units=1/GPa)
#
#
# Indices 1 2 3 4 5 6 
#
# 1 0.013864 -0.002733 -0.000708 0.000000 0.000000 0.000000
# 2 -0.002733 0.030843 0.000378 0.000000 0.000000 0.000000
# 3 -0.000708 0.000378 0.019704 0.000000 0.000000 0.000000
# 4 0.000000 0.000000 0.000000 0.051562 0.000000 0.000000
# 5 0.000000 0.000000 0.000000 0.000000 0.189165 0.000000
# 6 0.000000 0.000000 0.000000 0.000000 0.000000 0.048696
#
#
# Mechanical properties :
#
#
# Convention : Reuss Voigt Hill
#
# Bulk Modulus (GPa) = 17.15733 19.39954 18.27843
# Shear Modulus (GPa) = 13.17910 18.96220 16.07065
#
# Velocity S-wave (km/s) = 2.41720 2.89943 2.66923
# Velocity P-wave (km/s) = 3.92390 4.45079 4.19563
#
# Compressibility (1/GPa) = 0.05828413
#
# Stress axis : x y z
#
# Youngs Moduli (GPa) = 72.13028 32.42248 50.75068
#
# Poissons Ratio (x) = 0.08861 0.03593
# Poissons Ratio (y) = 0.19713 -0.01917
# Poissons Ratio (z) = 0.05107 -0.01225
#
# Static dielectric constant tensor:
#      x y z
#    x 1.872710 0.000000 0.000000 
#    y 0.000000 1.803630 0.000000 
#    z 0.000000 0.000000 1.880230 
# 
# From -- ./inp_files/11072.got.cif
#   From: 2010.05.17/outbox.cif.g08.bks.cpg/sg58_6_cif.got.tgz:11072.got - 2010.06.03 14:20:14.
