data_PCOD9442523
_publ_section_title
;
Structure prediction by ZEFSAII (Michael W. Deem and Ramdas Pophale) SiO2 
 PCOD9442523
Probable space group: P N N M
;
_chemical_formula_sum "Si O2"
_cell_formula_units_Z 64
_cell_length_a 9.650637
_cell_length_b 12.436019
_cell_length_c 30.374850
_cell_angle_alpha 90.000000
_cell_angle_beta 90.000000
_cell_angle_gamma 90.000000
_cell_volume 3645.452965
_symmetry_space_group_name_H-M "P N N M"
_symmetry_group_IT_number 58
_symmetry_cell_setting 'orthorhombic'
loop_
_space_group_symop_operation_xyz
x,y,z
-x,-y,z
1/2+x,1/2-y,1/2-z
1/2-x,1/2+y,1/2-z
-x,-y,-z
x,y,-z
1/2-x,1/2+y,1/2+z
1/2+x,1/2-y,1/2+z
loop_
_atom_site_type_symbol
_atom_site_label
_atom_site_fract_x
_atom_site_fract_y
_atom_site_fract_z
Si Si1 0.778410 0.383600 0.312253
Si Si2 0.661645 0.025701 0.950756
Si Si3 0.844330 0.965501 0.276513
Si Si4 0.013460 0.215588 0.858829
Si Si5 0.420393 0.614253 0.550593
Si Si6 0.446991 0.768119 0.792829
Si Si7 0.224384 0.400801 0.360394
Si Si8 0.095751 0.397797 0.202576
O O1 0.742206 0.446075 0.267677
O O2 0.640202 0.335566 0.332381
O O3 0.813014 0.476853 0.347131
O O4 0.889911 0.292021 0.300292
O O5 0.705954 0.106172 0.912527
O O6 0.500000 0.000000 0.946637
O O7 0.759268 0.920581 0.946305
O O8 0.688297 0.067826 0.000000
O O9 0.878046 0.848922 0.296685
O O10 0.750707 0.051617 0.303159
O O11 0.000000 0.000000 0.264709
O O12 0.040710 0.196847 0.910850
O O13 0.023479 0.335627 0.838581
O O14 0.875985 0.145811 0.848439
O O15 0.500000 0.500000 0.558681
O O16 0.449849 0.646820 0.500000
O O17 0.380750 0.833537 0.832191
O O18 0.408629 0.819029 0.745193
O O19 0.000000 0.500000 0.212852
#
# Coordination Sequence:
#
# PCOD9442523 Si02
#       8
#     8   8   8   8   8   8   8   8
#     4  12  22  36  55  83 113 148 196 240 282 353
#     4  10  20  34  55  84 121 153 180 230 290 353
#     4  12  25  39  57  79 110 153 199 246 291 340
#     4  12  23  35  59  84 116 153 196 234 296 354
#     4  10  19  36  58  87 120 147 186 238 296 357
#     4  12  25  39  57  77 113 159 195 239 298 344
#     4  12  22  36  56  85 115 154 190 231 285 359
#     4  12  24  41  56  81 117 152 200 253 291 348
#
# _framework density 17.556118000000001
#
# number of rings (size 3 to 8) (size 9 to 14) (size 15 to 20)
#    0.000    0.500    6.250    3.750    0.000    0.000 
#    0.000    0.000    0.000    0.375    0.000    0.875 
#    0.000    2.000    0.000    0.000    0.000    0.000 
#
# Total GULP energy -356755.016930 kJ/mol
# GULP energy per Si atom -5574.297140 kJ/mol
# Density = 1.751616 g / cm^3
# Si number density = 17.556118 Si / 1000 Ang^3
#
#
#
# Elastic Constant Matrix: (Units=GPa)
#
#
# Indices 1 2 3 4 5 6 
#
# 1 92.5166 19.2369 18.3482 0.0000 0.0000 0.0000
# 2 19.2369 62.5405 28.8948 0.0000 0.0000 0.0000
# 3 18.3482 28.8948 92.4763 0.0000 0.0000 0.0000
# 4 0.0000 0.0000 0.0000 36.5951 0.0000 0.0000
# 5 0.0000 0.0000 0.0000 0.0000 22.7123 0.0000
# 6 0.0000 0.0000 0.0000 0.0000 0.0000 35.2566
#
#
#
# Elastic Compliance Matrix: (Units=1/GPa)
#
#
# Indices 1 2 3 4 5 6 
#
# 1 0.011700 -0.002953 -0.001399 0.000000 0.000000 0.000000
# 2 -0.002953 0.019432 -0.005486 0.000000 0.000000 0.000000
# 3 -0.001399 -0.005486 0.012805 0.000000 0.000000 0.000000
# 4 0.000000 0.000000 0.000000 0.027326 0.000000 0.000000
# 5 0.000000 0.000000 0.000000 0.000000 0.044029 0.000000
# 6 0.000000 0.000000 0.000000 0.000000 0.000000 0.028363
#
#
# Mechanical properties :
#
#
# Convention : Reuss Voigt Hill
#
# Bulk Modulus (GPa) = 41.21492 42.27704 41.74598
# Shear Modulus (GPa) = 29.16831 30.98305 30.07568
#
# Velocity S-wave (km/s) = 4.08049 4.20551 4.14347
# Velocity P-wave (km/s) = 6.76222 6.90761 6.83530
#
# Compressibility (1/GPa) = 0.02426306
#
# Stress axis : x y z
#
# Youngs Moduli (GPa) = 85.46844 51.46034 78.09295
#
# Poissons Ratio (x) = 0.15194 0.10924
# Poissons Ratio (y) = 0.25235 0.42842
# Poissons Ratio (z) = 0.11956 0.28231
#
# Static dielectric constant tensor:
#      x y z
#    x 1.651920 0.000000 0.000000 
#    y 0.000000 1.706650 0.000000 
#    z 0.000000 0.000000 1.600780 
# 
# From -- ./inp_files/34735.got.cif
#   From: 2010.05.17/outbox.cif.g08.bks.cpg/sg58_18_cif.got.tgz:34735.got - 2010.06.03 14:20:14.
