data_PCOD9442580
_publ_section_title
;
Structure prediction by ZEFSAII (Michael W. Deem and Ramdas Pophale) SiO2 
 PCOD9442580
Probable space group: P N N M
;
_chemical_formula_sum "Si O2"
_cell_formula_units_Z 64
_cell_length_a 23.140260
_cell_length_b 15.108930
_cell_length_c 7.572848
_cell_angle_alpha 90.000000
_cell_angle_beta 90.000000
_cell_angle_gamma 90.000000
_cell_volume 2647.653714
_symmetry_space_group_name_H-M "P N N M"
_symmetry_group_IT_number 58
_symmetry_cell_setting 'orthorhombic'
loop_
_space_group_symop_operation_xyz
x,y,z
-x,-y,z
1/2+x,1/2-y,1/2-z
1/2-x,1/2+y,1/2-z
-x,-y,-z
x,y,-z
1/2-x,1/2+y,1/2+z
1/2+x,1/2-y,1/2+z
loop_
_atom_site_type_symbol
_atom_site_label
_atom_site_fract_x
_atom_site_fract_y
_atom_site_fract_z
Si Si1 0.411474 0.924598 0.787095
Si Si2 0.483822 0.184099 0.707581
Si Si3 0.762777 0.887104 0.297257
Si Si4 0.529254 0.365032 0.713602
Si Si5 0.589468 0.532821 0.715008
Si Si6 0.289191 0.416511 0.296900
Si Si7 0.636255 0.887356 0.795108
Si Si8 0.812994 0.707734 0.283198
O O1 0.476684 0.901663 0.736081
O O2 0.370059 0.844503 0.726352
O O3 0.385503 0.017536 0.722434
O O4 0.409874 0.928566 0.000000
O O5 0.476191 0.198398 0.500000
O O6 0.520856 0.266289 0.781977
O O7 0.419683 0.174665 0.781839
O O8 0.778961 0.902446 0.500000
O O9 0.767333 0.982034 0.205684
O O10 0.695698 0.857007 0.292018
O O11 0.802315 0.808048 0.224059
O O12 0.535587 0.361301 0.500000
O O13 0.578561 0.432156 0.777893
O O14 0.468216 0.412663 0.752406
O O15 0.594125 0.529293 0.500000
O O16 0.647120 0.578407 0.783922
O O17 0.295780 0.387932 0.500000
O O18 0.241077 0.351912 0.221251
O O19 0.650794 0.899075 0.000000
O O20 0.813441 0.708720 0.500000
#
# Coordination Sequence:
#
# PCOD9442580 Si02
#       8
#     8   8   8   8   8   8   8   8
#     4  10  21  41  61  78 108 153 196 229 274 348
#     4  11  23  35  57  90 118 141 181 241 295 333
#     4  11  23  38  60  89 120 150 189 245 296 335
#     4   8  16  31  49  81 116 146 182 230 280 325
#     4   8  15  29  54  79 109 149 191 226 264 329
#     4  10  19  36  62  86 112 154 198 232 280 353
#     4  11  23  42  63  81 109 153 197 232 278 348
#     4   9  20  38  59  84 115 157 196 230 287 354
#
# _framework density 24.172346000000001
#
# number of rings (size 3 to 8) (size 9 to 14) (size 15 to 20)
#    0.000    2.250    1.250    2.250    3.500    2.500 
#    0.000    1.875    0.000    0.000    0.000    4.375 
#    0.000    0.000    0.000    0.000    0.000    0.000 
#
# Total GULP energy -357719.051206 kJ/mol
# GULP energy per Si atom -5589.360175 kJ/mol
# Density = 2.411733 g / cm^3
# Si number density = 24.172346 Si / 1000 Ang^3
#
#
#
# Elastic Constant Matrix: (Units=GPa)
#
#
# Indices 1 2 3 4 5 6 
#
# 1 70.8935 -9.6291 -7.8969 0.0000 0.0000 0.0000
# 2 -9.6291 78.1035 -5.8729 0.0000 0.0000 0.0000
# 3 -7.8969 -5.8729 61.6153 0.0000 0.0000 0.0000
# 4 0.0000 0.0000 0.0000 12.4513 0.0000 0.0000
# 5 0.0000 0.0000 0.0000 0.0000 10.1552 0.0000
# 6 0.0000 0.0000 0.0000 0.0000 0.0000 98.6351
#
#
#
# Elastic Compliance Matrix: (Units=1/GPa)
#
#
# Indices 1 2 3 4 5 6 
#
# 1 0.014600 0.001955 0.002058 0.000000 0.000000 0.000000
# 2 0.001955 0.013158 0.001505 0.000000 0.000000 0.000000
# 3 0.002058 0.001505 0.016637 0.000000 0.000000 0.000000
# 4 0.000000 0.000000 0.000000 0.080313 0.000000 0.000000
# 5 0.000000 0.000000 0.000000 0.000000 0.098472 0.000000
# 6 0.000000 0.000000 0.000000 0.000000 0.000000 0.010138
#
#
# Mechanical properties :
#
#
# Convention : Reuss Voigt Hill
#
# Bulk Modulus (GPa) = 18.04114 18.20159 18.12137
# Shear Modulus (GPa) = 20.76754 39.84906 30.30830
#
# Velocity S-wave (km/s) = 2.93430 4.06463 3.54480
# Velocity P-wave (km/s) = 4.35429 5.43825 4.92617
#
# Compressibility (1/GPa) = 0.05542886
#
# Stress axis : x y z
#
# Youngs Moduli (GPa) = 68.49146 76.00132 60.10750
#
# Poissons Ratio (x) = -0.14856 -0.12368
# Poissons Ratio (y) = -0.13388 -0.09044
# Poissons Ratio (z) = -0.14093 -0.11436
#
# Static dielectric constant tensor:
#      x y z
#    x 1.906530 0.000000 0.000000 
#    y 0.000000 1.951270 0.000000 
#    z 0.000000 0.000000 1.937010 
# 
# From -- ./inp_files/9997.got.cif
#   From: 2010.05.17/outbox.cif.g08.bks.cpg/sg58_5_cif.got.tgz:9997.got - 2010.06.03 14:20:14.
