data_PCOD9442414
_publ_section_title
;
Structure prediction by ZEFSAII (Michael W. Deem and Ramdas Pophale) SiO2 
 PCOD9442414
Probable space group: P N N M
;
_chemical_formula_sum "Si O2"
_cell_formula_units_Z 64
_cell_length_a 15.399465
_cell_length_b 24.626482
_cell_length_c 8.911970
_cell_angle_alpha 90.000000
_cell_angle_beta 90.000000
_cell_angle_gamma 90.000000
_cell_volume 3379.727803
_symmetry_space_group_name_H-M "P N N M"
_symmetry_group_IT_number 58
_symmetry_cell_setting 'orthorhombic'
loop_
_space_group_symop_operation_xyz
x,y,z
-x,-y,z
1/2+x,1/2-y,1/2-z
1/2-x,1/2+y,1/2-z
-x,-y,-z
x,y,-z
1/2-x,1/2+y,1/2+z
1/2+x,1/2-y,1/2+z
loop_
_atom_site_type_symbol
_atom_site_label
_atom_site_fract_x
_atom_site_fract_y
_atom_site_fract_z
Si Si1 0.959921 0.224087 0.675381
Si Si2 0.172047 0.047010 0.320186
Si Si3 0.823277 0.369156 0.179261
Si Si4 0.994247 0.649860 0.325630
Si Si5 0.814993 0.650245 0.821940
Si Si6 0.671323 0.571894 0.678572
Si Si7 0.978417 0.880374 0.821688
Si Si8 0.776491 0.247464 0.821036
O O1 0.941614 0.212674 0.500000
O O2 0.870478 0.225068 0.769038
O O3 0.997635 0.284621 0.685773
O O4 0.021872 0.178244 0.742651
O O5 0.162245 0.043813 0.500000
O O6 0.258434 0.081940 0.287164
O O7 0.091750 0.079772 0.250032
O O8 0.176983 0.987543 0.250041
O O9 0.778383 0.311280 0.218719
O O10 0.915106 0.372525 0.262240
O O11 0.838942 0.367302 0.000000
O O12 0.983759 0.635797 0.500000
O O13 0.910093 0.632861 0.233042
O O14 0.742358 0.611139 0.751718
O O15 0.794020 0.710573 0.760574
O O16 0.809345 0.649584 0.000000
O O17 0.685310 0.569452 0.500000
O O18 0.574737 0.595420 0.703794
O O19 0.964630 0.875401 0.000000
O O20 0.766792 0.241867 0.000000
#
# Coordination Sequence:
#
# PCOD9442414 Si02
#       8
#     8   8   8   8   8   8   8   8
#     4  10  20  35  57  87 122 159 200 244 297 360
#     4  11  24  41  63  90 121 161 206 256 306 365
#     4   9  21  41  62  87 122 160 200 250 307 359
#     4  10  22  39  61  89 124 161 200 252 306 362
#     4  12  24  38  61  91 122 161 206 252 302 364
#     4  11  24  43  63  87 122 162 206 258 307 360
#     4  11  23  38  59  88 123 163 204 250 302 362
#     4  10  19  35  58  85 121 160 196 244 300 359
#
# _framework density 18.936434999999999
#
# number of rings (size 3 to 8) (size 9 to 14) (size 15 to 20)
#    0.000    1.500    1.250    3.750    1.750    6.000 
#    0.000    0.625    0.000    3.750    0.000    0.000 
#    0.000    0.000    0.000    0.000    0.000    0.000 
#
# Total GULP energy -357844.664671 kJ/mol
# GULP energy per Si atom -5591.322885 kJ/mol
# Density = 1.889333 g / cm^3
# Si number density = 18.936435 Si / 1000 Ang^3
#
#
#
# Elastic Constant Matrix: (Units=GPa)
#
#
# Indices 1 2 3 4 5 6 
#
# 1 86.8891 6.1312 56.8706 0.0000 0.0000 0.0000
# 2 6.1312 15.2440 18.6367 0.0000 0.0000 0.0000
# 3 56.8706 18.6367 92.4678 0.0000 0.0000 0.0000
# 4 0.0000 0.0000 0.0000 31.8133 0.0000 0.0000
# 5 0.0000 0.0000 0.0000 0.0000 27.2558 0.0000
# 6 0.0000 0.0000 0.0000 0.0000 0.0000 15.6296
#
#
#
# Elastic Compliance Matrix: (Units=1/GPa)
#
#
# Indices 1 2 3 4 5 6 
#
# 1 0.020227 0.009387 -0.014332 0.000000 0.000000 0.000000
# 2 0.009387 0.091404 -0.024195 0.000000 0.000000 0.000000
# 3 -0.014332 -0.024195 0.024506 0.000000 0.000000 0.000000
# 4 0.000000 0.000000 0.000000 0.031433 0.000000 0.000000
# 5 0.000000 0.000000 0.000000 0.000000 0.036689 0.000000
# 6 0.000000 0.000000 0.000000 0.000000 0.000000 0.063981
#
#
# Mechanical properties :
#
#
# Convention : Reuss Voigt Hill
#
# Bulk Modulus (GPa) = 12.84433 39.76422 26.30428
# Shear Modulus (GPa) = 14.18538 22.47058 18.32798
#
# Velocity S-wave (km/s) = 2.73995 3.44849 3.11443
# Velocity P-wave (km/s) = 4.09968 6.07458 5.18208
#
# Compressibility (1/GPa) = 0.07785534
#
# Stress axis : x y z
#
# Youngs Moduli (GPa) = 49.43807 10.94040 40.80649
#
# Poissons Ratio (x) = -0.10269 0.58485
# Poissons Ratio (y) = -0.46405 0.98733
# Poissons Ratio (z) = 0.70856 0.26471
#
# Static dielectric constant tensor:
#      x y z
#    x 1.640820 0.000000 0.000000 
#    y 0.000000 1.643170 0.000000 
#    z 0.000000 0.000000 1.630660 
# 
# From -- ./inp_files/6840.got.cif
#   From: 2010.05.17/outbox.cif.g08.bks.cpg/sg58_4_cif.got.tgz:6840.got - 2010.06.03 14:20:14.
