data_PCOD9442600
_publ_section_title
;
Structure prediction by ZEFSAII (Michael W. Deem and Ramdas Pophale) SiO2 
 PCOD9442600
Probable space group: P N N M
;
_chemical_formula_sum "Si O2"
_cell_formula_units_Z 60
_cell_length_a 12.475211
_cell_length_b 9.410146
_cell_length_c 22.513954
_cell_angle_alpha 90.000000
_cell_angle_beta 90.000000
_cell_angle_gamma 90.000000
_cell_volume 2642.993140
_symmetry_space_group_name_H-M "P N N M"
_symmetry_group_IT_number 58
_symmetry_cell_setting 'orthorhombic'
loop_
_space_group_symop_operation_xyz
x,y,z
-x,-y,z
1/2+x,1/2-y,1/2-z
1/2-x,1/2+y,1/2-z
-x,-y,-z
x,y,-z
1/2-x,1/2+y,1/2+z
1/2+x,1/2-y,1/2+z
loop_
_atom_site_type_symbol
_atom_site_label
_atom_site_fract_x
_atom_site_fract_y
_atom_site_fract_z
Si Si1 0.806396 0.661598 0.821080
Si Si2 0.251330 0.777825 0.130429
Si Si3 0.050887 0.697720 0.206230
Si Si4 0.339104 0.512787 0.564338
Si Si5 0.818965 0.233942 0.567187
Si Si6 0.796055 0.458084 0.717861
Si Si7 0.547158 0.342087 0.930528
Si Si8 0.000000 0.000000 0.170096
O O1 0.751624 0.648968 0.885194
O O2 0.759891 0.546075 0.775806
O O3 0.774771 0.818976 0.796479
O O4 0.935876 0.645447 0.818346
O O5 0.154812 0.695017 0.162900
O O6 0.196646 0.851683 0.073499
O O7 0.352954 0.688303 0.111067
O O8 0.316107 0.327007 0.000000
O O9 0.090168 0.614765 0.264562
O O10 0.034251 0.868001 0.209939
O O11 0.236572 0.613602 0.565646
O O12 0.209192 0.415282 0.669381
O O13 0.411644 0.547537 0.621274
O O14 0.610577 0.461813 0.500000
O O15 0.942337 0.250510 0.584777
O O16 0.500000 0.500000 0.924708
O O17 0.575078 0.318047 0.000000
#
# Coordination Sequence:
#
# PCOD9442600 Si02
#       8
#     8   8   8   8   8   8   8   4
#     4  12  25  48  70 105 142 185 238 297 349 436
#     4  11  23  45  66 103 139 183 235 291 361 426
#     4  11  24  44  69 100 141 183 229 298 354 416
#     4  10  19  36  67 103 135 173 224 290 354 422
#     4  10  22  42  69  98 134 182 227 281 350 414
#     4  12  26  45  68 103 142 186 239 288 360 422
#     4  10  24  45  71 101 141 187 238 295 353 433
#     4  10  19  40  68 100 140 182 225 284 360 432
#
# _framework density 22.701535
#
# number of rings (size 3 to 8) (size 9 to 14) (size 15 to 20)
#    0.000    1.200    4.000    1.800    1.867    2.667 
#    0.000    2.667    0.000    2.400    0.000    0.000 
#    0.000    0.000    0.000    0.000    0.000    0.000 
#
# Total GULP energy -334862.614733 kJ/mol
# GULP energy per Si atom -5581.043579 kJ/mol
# Density = 2.264987 g / cm^3
# Si number density = 22.701535 Si / 1000 Ang^3
#
#
#
# Elastic Constant Matrix: (Units=GPa)
#
#
# Indices 1 2 3 4 5 6 
#
# 1 171.4816 33.3753 41.0337 0.0000 0.0000 0.0000
# 2 33.3753 69.3091 34.8364 0.0000 0.0000 0.0000
# 3 41.0337 34.8364 89.8611 0.0000 0.0000 0.0000
# 4 0.0000 0.0000 0.0000 24.5645 0.0000 0.0000
# 5 0.0000 0.0000 0.0000 0.0000 23.8904 0.0000
# 6 0.0000 0.0000 0.0000 0.0000 0.0000 42.1887
#
#
#
# Elastic Compliance Matrix: (Units=1/GPa)
#
#
# Indices 1 2 3 4 5 6 
#
# 1 0.006790 -0.002125 -0.002277 0.000000 0.000000 0.000000
# 2 -0.002125 0.018585 -0.006234 0.000000 0.000000 0.000000
# 3 -0.002277 -0.006234 0.014585 0.000000 0.000000 0.000000
# 4 0.000000 0.000000 0.000000 0.040709 0.000000 0.000000
# 5 0.000000 0.000000 0.000000 0.000000 0.041858 0.000000
# 6 0.000000 0.000000 0.000000 0.000000 0.000000 0.023703
#
#
# Mechanical properties :
#
#
# Convention : Reuss Voigt Hill
#
# Bulk Modulus (GPa) = 53.51273 61.01585 57.26429
# Shear Modulus (GPa) = 28.78006 32.88916 30.83461
#
# Velocity S-wave (km/s) = 3.56442 3.81039 3.68946
# Velocity P-wave (km/s) = 6.36896 6.80401 6.59007
#
# Compressibility (1/GPa) = 0.01868714
#
# Stress axis : x y z
#
# Youngs Moduli (GPa) = 147.27646 53.80641 68.56484
#
# Poissons Ratio (x) = 0.11436 0.15609
# Poissons Ratio (y) = 0.31302 0.42746
# Poissons Ratio (z) = 0.33529 0.33545
#
# Static dielectric constant tensor:
#      x y z
#    x 1.907820 0.000000 0.000000 
#    y 0.000000 1.896920 0.000000 
#    z 0.000000 0.000000 1.901750 
# 
# From -- ./inp_files/29660.got.cif
#   From: 2010.05.17/outbox.cif.g08.bks.cpg/sg58_15_cif.got.tgz:29660.got - 2010.06.03 14:20:14.
