data_PCOD9442759
_publ_section_title
;
Structure prediction by ZEFSAII (Michael W. Deem and Ramdas Pophale) SiO2 
 PCOD9442759
Probable space group: P N N M
;
_chemical_formula_sum "Si O2"
_cell_formula_units_Z 42
_cell_length_a 12.907891
_cell_length_b 18.017062
_cell_length_c 7.218540
_cell_angle_alpha 90.000000
_cell_angle_beta 90.000000
_cell_angle_gamma 90.000000
_cell_volume 1678.760066
_symmetry_space_group_name_H-M "P N N M"
_symmetry_group_IT_number 58
_symmetry_cell_setting 'orthorhombic'
loop_
_space_group_symop_operation_xyz
x,y,z
-x,-y,z
1/2+x,1/2-y,1/2-z
1/2-x,1/2+y,1/2-z
-x,-y,-z
x,y,-z
1/2-x,1/2+y,1/2+z
1/2+x,1/2-y,1/2+z
loop_
_atom_site_type_symbol
_atom_site_label
_atom_site_fract_x
_atom_site_fract_y
_atom_site_fract_z
Si Si1 0.947109 0.611863 0.275581
Si Si2 0.228187 0.279518 0.274802
Si Si3 0.431915 0.363526 0.706408
Si Si4 0.000000 0.000000 0.000000
Si Si5 0.153036 0.122915 0.210051
Si Si6 0.845122 0.455856 0.725964
O O1 0.949616 0.613081 0.500000
O O2 0.877403 0.679803 0.215010
O O3 0.886538 0.536637 0.223757
O O4 0.065484 0.601976 0.215669
O O5 0.227603 0.276901 0.500000
O O6 0.328353 0.327470 0.215701
O O7 0.222424 0.196558 0.200347
O O8 0.440450 0.327230 0.500000
O O9 0.434078 0.451237 0.661201
O O10 0.544404 0.353602 0.797363
O O11 0.231581 0.064359 0.293392
O O12 0.120860 0.093880 0.000000
O O13 0.839375 0.453670 0.500000
#
# Coordination Sequence:
#
# PCOD9442759 Si02
#       6
#     8   8   8   2   8   8
#     4   8  15  27  46  71  93 118 160 208 242 275
#     4  10  20  32  49  72 103 132 164 205 255 307
#     4   8  18  30  49  77  98 126 170 214 261 286
#     4   8  16  32  56  76 104 124 178 236 246 298
#     4  10  20  32  49  72 103 132 164 205 255 307
#     4   8  15  27  46  71  93 118 160 208 242 275
#
# _framework density 25.018466
#
# number of rings (size 3 to 8) (size 9 to 14) (size 15 to 20)
#    0.571    2.667    0.000    1.143    5.333    0.000 
#    0.000    0.000    0.000    1.143    0.000    4.000 
#    0.000    0.000    0.000    0.000    0.000    0.000 
#
# Total GULP energy -233810.606052 kJ/mol
# GULP energy per Si atom -5566.919192 kJ/mol
# Density = 2.496152 g / cm^3
# Si number density = 25.018466 Si / 1000 Ang^3
#
#
#
# Elastic Constant Matrix: (Units=GPa)
#
#
# Indices 1 2 3 4 5 6 
#
# 1 124.6734 31.6895 7.4935 0.0000 0.0000 0.0000
# 2 31.6895 60.1599 -5.3819 0.0000 0.0000 0.0000
# 3 7.4935 -5.3819 120.3636 0.0000 0.0000 0.0000
# 4 0.0000 0.0000 0.0000 -1.7360 0.0000 0.0000
# 5 0.0000 0.0000 0.0000 0.0000 -22.7168 0.0000
# 6 0.0000 0.0000 0.0000 0.0000 0.0000 41.8977
#
#
#
# Elastic Compliance Matrix: (Units=1/GPa)
#
#
# Indices 1 2 3 4 5 6 
#
# 1 0.009338 -0.004991 -0.000805 0.000000 0.000000 0.000000
# 2 -0.004991 0.019356 0.001176 0.000000 0.000000 0.000000
# 3 -0.000805 0.001176 0.008411 0.000000 0.000000 0.000000
# 4 0.000000 0.000000 0.000000 -0.576047 0.000000 0.000000
# 5 0.000000 0.000000 0.000000 0.000000 -0.044020 0.000000
# 6 0.000000 0.000000 0.000000 0.000000 0.000000 0.023868
#
#
# Mechanical properties :
#
#
# Convention : Reuss Voigt Hill
#
# Bulk Modulus (GPa) = 35.88457 41.42213 38.65335
# Shear Modulus (GPa) = -9.24953 21.58205 6.16626
#
# Velocity S-wave (km/s) = -1.92487 2.94027 1.57163
# Velocity P-wave (km/s) = 3.07152 5.30278 4.33323
#
# Compressibility (1/GPa) = 0.02786713
#
# Stress axis : x y z
#
# Youngs Moduli (GPa) = 107.09092 51.66229 118.89418
#
# Poissons Ratio (x) = 0.25783 0.09565
# Poissons Ratio (y) = 0.53446 -0.13985
# Poissons Ratio (z) = 0.08616 -0.06077
#
# Static dielectric constant tensor:
#      x y z
#    x 1.910300 0.000000 0.000000 
#    y 0.000000 1.776830 0.000000 
#    z 0.000000 0.000000 1.989490 
# 
# From -- ./inp_files/14446.got.cif
#   From: 2010.05.17/outbox.cif.g08.bks.cpg/sg58_8_cif.got.tgz:14446.got - 2010.06.03 14:20:14.
