data_PCOD9442149
_publ_section_title
;
Structure prediction by ZEFSAII (Michael W. Deem and Ramdas Pophale) SiO2 
 PCOD9442149
Probable space group: P N N M
;
_chemical_formula_sum "Si O2"
_cell_formula_units_Z 64
_cell_length_a 9.852990
_cell_length_b 13.487651
_cell_length_c 25.167754
_cell_angle_alpha 90.000000
_cell_angle_beta 90.000000
_cell_angle_gamma 90.000000
_cell_volume 3344.635709
_symmetry_space_group_name_H-M "P N N M"
_symmetry_group_IT_number 58
_symmetry_cell_setting 'orthorhombic'
loop_
_space_group_symop_operation_xyz
x,y,z
-x,-y,z
1/2+x,1/2-y,1/2-z
1/2-x,1/2+y,1/2-z
-x,-y,-z
x,y,-z
1/2-x,1/2+y,1/2+z
1/2+x,1/2-y,1/2+z
loop_
_atom_site_type_symbol
_atom_site_label
_atom_site_fract_x
_atom_site_fract_y
_atom_site_fract_z
Si Si1 0.699284 0.580325 0.370791
Si Si2 0.240023 0.874437 0.747935
Si Si3 0.846057 0.956049 0.329067
Si Si4 0.162392 0.990744 0.557817
Si Si5 0.440909 0.703053 0.751436
Si Si6 0.454917 0.885434 0.062404
Si Si7 0.599973 0.362812 0.367465
Si Si8 0.208284 0.756534 0.561846
O O1 0.725135 0.587555 0.307990
O O2 0.822675 0.627633 0.402200
O O3 0.675800 0.464345 0.383202
O O4 0.556524 0.631183 0.384098
O O5 0.376699 0.810854 0.744520
O O6 0.102648 0.808006 0.738739
O O7 0.234443 0.965102 0.706866
O O8 0.862093 0.852372 0.298973
O O9 0.792684 0.952399 0.389163
O O10 0.000000 0.000000 0.330765
O O11 0.217585 0.022481 0.500000
O O12 0.188031 0.873884 0.565269
O O13 0.000000 0.000000 0.555062
O O14 0.406182 0.646835 0.696319
O O15 0.572777 0.806469 0.075060
O O16 0.500000 0.000000 0.070733
O O17 0.423508 0.874338 0.000000
O O18 0.677957 0.275957 0.396816
O O19 0.241757 0.732139 0.500000
#
# Coordination Sequence:
#
# PCOD9442149 Si02
#       8
#     8   8   8   8   8   8   8   8
#     4  10  20  33  51  74 109 146 184 220 275 329
#     4  10  20  35  52  78 106 142 182 224 268 326
#     4   9  17  32  53  74 103 142 174 213 267 321
#     4   9  18  32  52  80 107 134 178 230 274 321
#     4  10  20  35  55  77 108 142 182 221 272 322
#     4  10  20  34  50  76 113 144 174 221 274 325
#     4  10  19  34  53  74 107 150 184 228 263 329
#     4  10  20  34  55  82 109 142 187 231 274 328
#
# _framework density 19.135120000000001
#
# number of rings (size 3 to 8) (size 9 to 14) (size 15 to 20)
#    0.000    2.250    2.500    0.750    0.000    4.500 
#    0.000    1.875    0.000    0.000    0.000    2.625 
#    0.000   22.000    0.000    0.000    0.000    0.000 
#
# Total GULP energy -357025.932168 kJ/mol
# GULP energy per Si atom -5578.530190 kJ/mol
# Density = 1.909157 g / cm^3
# Si number density = 19.135120 Si / 1000 Ang^3
#
#
#
# Elastic Constant Matrix: (Units=GPa)
#
#
# Indices 1 2 3 4 5 6 
#
# 1 29.1789 -3.4019 32.6771 0.0000 0.0000 0.0000
# 2 -3.4019 11.9261 11.6572 0.0000 0.0000 0.0000
# 3 32.6771 11.6572 87.2476 0.0000 0.0000 0.0000
# 4 0.0000 0.0000 0.0000 18.5913 0.0000 0.0000
# 5 0.0000 0.0000 0.0000 0.0000 18.2073 0.0000
# 6 0.0000 0.0000 0.0000 0.0000 0.0000 26.1783
#
#
#
# Elastic Compliance Matrix: (Units=1/GPa)
#
#
# Indices 1 2 3 4 5 6 
#
# 1 0.089923 0.067368 -0.042680 0.000000 0.000000 0.000000
# 2 0.067368 0.146917 -0.044861 0.000000 0.000000 0.000000
# 3 -0.042680 -0.044861 0.033441 0.000000 0.000000 0.000000
# 4 0.000000 0.000000 0.000000 0.053788 0.000000 0.000000
# 5 0.000000 0.000000 0.000000 0.000000 0.054923 0.000000
# 6 0.000000 0.000000 0.000000 0.000000 0.000000 0.038200
#
#
# Mechanical properties :
#
#
# Convention : Reuss Voigt Hill
#
# Bulk Modulus (GPa) = 4.34907 23.35749 13.85328
# Shear Modulus (GPa) = 9.36011 18.42340 13.89175
#
# Velocity S-wave (km/s) = 2.21409 3.10628 2.69733
# Velocity P-wave (km/s) = 2.96884 5.00983 4.11779
#
# Compressibility (1/GPa) = 0.22993410
#
# Stress axis : x y z
#
# Youngs Moduli (GPa) = 11.12067 6.80657 29.90369
#
# Poissons Ratio (x) = -0.45855 1.27629
# Poissons Ratio (y) = -0.74918 1.34152
# Poissons Ratio (z) = 0.47463 0.30535
#
# Static dielectric constant tensor:
#      x y z
#    x 1.661330 0.000000 0.000000 
#    y 0.000000 1.700020 0.000000 
#    z 0.000000 0.000000 1.692840 
# 
# From -- ./inp_files/31639.got.cif
#   From: 2010.05.17/outbox.cif.g08.bks.cpg/sg58_16_cif.got.tgz:31639.got - 2010.06.03 14:20:14.
