data_PCOD9442648
_publ_section_title
;
Structure prediction by ZEFSAII (Michael W. Deem and Ramdas Pophale) SiO2 
 PCOD9442648
Probable space group: P N N M
;
_chemical_formula_sum "Si O2"
_cell_formula_units_Z 40
_cell_length_a 5.059074
_cell_length_b 13.295793
_cell_length_c 28.980396
_cell_angle_alpha 90.000000
_cell_angle_beta 90.000000
_cell_angle_gamma 90.000000
_cell_volume 1949.348968
_symmetry_space_group_name_H-M "P N N M"
_symmetry_group_IT_number 58
_symmetry_cell_setting 'orthorhombic'
loop_
_space_group_symop_operation_xyz
x,y,z
-x,-y,z
1/2+x,1/2-y,1/2-z
1/2-x,1/2+y,1/2-z
-x,-y,-z
x,y,-z
1/2-x,1/2+y,1/2+z
1/2+x,1/2-y,1/2+z
loop_
_atom_site_type_symbol
_atom_site_label
_atom_site_fract_x
_atom_site_fract_y
_atom_site_fract_z
Si Si1 0.239375 0.067192 0.553286
Si Si2 0.049360 0.886084 0.750115
Si Si3 0.548061 0.813263 0.804338
Si Si4 0.942197 0.382188 0.407174
Si Si5 0.077931 0.782003 0.052898
O O1 0.155585 0.090549 0.500000
O O2 0.336230 0.173515 0.573612
O O3 0.500000 0.000000 0.552141
O O4 0.000000 0.000000 0.573586
O O5 0.332959 0.872012 0.773755
O O6 0.027205 0.803660 0.709746
O O7 0.832562 0.854207 0.788340
O O8 0.000000 0.000000 0.735437
O O9 0.500210 0.832784 0.857644
O O10 0.651792 0.344036 0.421670
O O11 0.000000 0.500000 0.402195
O O12 0.152836 0.343997 0.444280
O O13 0.990933 0.765643 0.000000
#
# Coordination Sequence:
#
# PCOD9442648 Si02
#       5
#     8   8   8   8   8
#     4   9  17  33  57  80 103 136 182 236 293 349
#     4  10  19  37  63  88 120 153 186 232 288 350
#     4  10  22  37  59  91 118 152 196 233 283 353
#     4  12  24  39  59  84 119 158 201 250 298 351
#     4  11  24  40  59  85 116 155 205 253 297 351
#
# _framework density 20.519670999999999
#
# number of rings (size 3 to 8) (size 9 to 14) (size 15 to 20)
#    0.000    1.600    0.000    5.400    0.000    5.600 
#    0.000    3.000    0.000    2.400    0.000    0.000 
#    0.000    0.000    0.000    0.000    0.000    0.000 
#
# Total GULP energy -223298.703094 kJ/mol
# GULP energy per Si atom -5582.467577 kJ/mol
# Density = 2.047297 g / cm^3
# Si number density = 20.519671 Si / 1000 Ang^3
#
#
#
# Elastic Constant Matrix: (Units=GPa)
#
#
# Indices 1 2 3 4 5 6 
#
# 1 90.8959 13.4746 10.3849 0.0000 0.0000 0.0000
# 2 13.4746 118.6329 45.6467 0.0000 0.0000 0.0000
# 3 10.3849 45.6467 48.1832 0.0000 0.0000 0.0000
# 4 0.0000 0.0000 0.0000 5.2846 0.0000 0.0000
# 5 0.0000 0.0000 0.0000 0.0000 7.0736 0.0000
# 6 0.0000 0.0000 0.0000 0.0000 0.0000 34.8552
#
#
#
# Elastic Compliance Matrix: (Units=1/GPa)
#
#
# Indices 1 2 3 4 5 6 
#
# 1 0.011302 -0.000545 -0.001919 0.000000 0.000000 0.000000
# 2 -0.000545 0.013291 -0.012474 0.000000 0.000000 0.000000
# 3 -0.001919 -0.012474 0.032985 0.000000 0.000000 0.000000
# 4 0.000000 0.000000 0.000000 0.189228 0.000000 0.000000
# 5 0.000000 0.000000 0.000000 0.000000 0.141371 0.000000
# 6 0.000000 0.000000 0.000000 0.000000 0.000000 0.028690
#
#
# Mechanical properties :
#
#
# Convention : Reuss Voigt Hill
#
# Bulk Modulus (GPa) = 36.09985 44.08049 40.09017
# Shear Modulus (GPa) = 10.96548 21.98973 16.47761
#
# Velocity S-wave (km/s) = 2.31419 3.27714 2.83683
# Velocity P-wave (km/s) = 4.97711 5.98734 5.50545
#
# Compressibility (1/GPa) = 0.02770095
#
# Stress axis : x y z
#
# Youngs Moduli (GPa) = 88.48224 75.23994 30.31695
#
# Poissons Ratio (x) = 0.04102 0.05819
# Poissons Ratio (y) = 0.04824 0.37816
# Poissons Ratio (z) = 0.16983 0.93852
#
# Static dielectric constant tensor:
#      x y z
#    x 1.725300 0.000000 0.000000 
#    y 0.000000 1.871310 0.000000 
#    z 0.000000 0.000000 1.705670 
# 
# From -- ./inp_files/32660.got.cif
#   From: 2010.05.17/outbox.cif.g08.bks.cpg/sg58_17_cif.got.tgz:32660.got - 2010.06.03 14:20:14.
