data_PCOD9442914
_publ_section_title
;
Structure prediction by ZEFSAII (Michael W. Deem and Ramdas Pophale) SiO2 
 PCOD9442914
Probable space group: P N N M
;
_chemical_formula_sum "Si O2"
_cell_formula_units_Z 48
_cell_length_a 16.829891
_cell_length_b 19.013783
_cell_length_c 8.773424
_cell_angle_alpha 90.000000
_cell_angle_beta 90.000000
_cell_angle_gamma 90.000000
_cell_volume 2807.494762
_symmetry_space_group_name_H-M "P N N M"
_symmetry_group_IT_number 58
_symmetry_cell_setting 'orthorhombic'
loop_
_space_group_symop_operation_xyz
x,y,z
-x,-y,z
1/2+x,1/2-y,1/2-z
1/2-x,1/2+y,1/2-z
-x,-y,-z
x,y,-z
1/2-x,1/2+y,1/2+z
1/2+x,1/2-y,1/2+z
loop_
_atom_site_type_symbol
_atom_site_label
_atom_site_fract_x
_atom_site_fract_y
_atom_site_fract_z
Si Si1 0.839900 0.091083 0.319850
Si Si2 0.491370 0.329226 0.316636
Si Si3 0.581836 0.954696 0.176112
Si Si4 0.170614 0.412550 0.315341
Si Si5 0.513037 0.174865 0.815012
Si Si6 0.914407 0.960662 0.825602
O O1 0.841895 0.099515 0.500000
O O2 0.909580 0.137980 0.246233
O O3 0.754102 0.109655 0.253171
O O4 0.859040 0.010178 0.274393
O O5 0.488529 0.330105 0.500000
O O6 0.504050 0.251542 0.253995
O O7 0.562918 0.382624 0.271459
O O8 0.555596 0.879491 0.240813
O O9 0.500000 0.000000 0.173294
O O10 0.645942 0.008939 0.241566
O O11 0.604765 0.942290 0.000000
O O12 0.175395 0.415040 0.500000
O O13 0.097962 0.360463 0.276868
O O14 0.508513 0.177811 0.000000
O O15 0.884346 0.958778 0.000000
O O16 0.000000 0.000000 0.829254
#
# Coordination Sequence:
#
# PCOD9442914 Si02
#       6
#     8   8   8   8   8   8
#     4  11  21  32  50  75 100 126 164 211 251 290
#     4  10  20  34  52  73 100 134 167 201 248 303
#     4   7  12  26  49  73  94 122 160 195 232 285
#     4   9  17  32  53  74 100 132 164 201 248 298
#     4   9  17  31  53  78 101 129 166 205 244 292
#     4   8  16  32  51  69  91 123 161 196 239 296
#
# _framework density 17.097093000000001
#
# number of rings (size 3 to 8) (size 9 to 14) (size 15 to 20)
#    0.000    3.000    0.000    5.000    0.000    4.333 
#    0.000    2.500    0.000    5.000    0.000    0.000 
#    0.000    0.000    0.000    0.000    0.000    0.000 
#
# Total GULP energy -267223.898571 kJ/mol
# GULP energy per Si atom -5567.164554 kJ/mol
# Density = 1.705818 g / cm^3
# Si number density = 17.097093 Si / 1000 Ang^3
#
#
#
# Elastic Constant Matrix: (Units=GPa)
#
#
# Indices 1 2 3 4 5 6 
#
# 1 75.4472 42.1123 32.5413 0.0000 0.0000 0.0000
# 2 42.1123 148.1091 35.6885 0.0000 0.0000 0.0000
# 3 32.5413 35.6885 39.5186 0.0000 0.0000 0.0000
# 4 0.0000 0.0000 0.0000 22.3597 0.0000 0.0000
# 5 0.0000 0.0000 0.0000 0.0000 13.8526 0.0000
# 6 0.0000 0.0000 0.0000 0.0000 0.0000 15.7470
#
#
#
# Elastic Compliance Matrix: (Units=1/GPa)
#
#
# Indices 1 2 3 4 5 6 
#
# 1 0.021162 -0.002324 -0.015327 0.000000 0.000000 0.000000
# 2 -0.002324 0.008885 -0.006110 0.000000 0.000000 0.000000
# 3 -0.015327 -0.006110 0.043444 0.000000 0.000000 0.000000
# 4 0.000000 0.000000 0.000000 0.044723 0.000000 0.000000
# 5 0.000000 0.000000 0.000000 0.000000 0.072188 0.000000
# 6 0.000000 0.000000 0.000000 0.000000 0.000000 0.063504
#
#
# Mechanical properties :
#
#
# Convention : Reuss Voigt Hill
#
# Bulk Modulus (GPa) = 38.50870 53.75102 46.12986
# Shear Modulus (GPa) = 16.12457 20.57404 18.34931
#
# Velocity S-wave (km/s) = 3.07435 3.47272 3.27959
# Velocity P-wave (km/s) = 5.93082 6.89831 6.43278
#
# Compressibility (1/GPa) = 0.02596816
#
# Stress axis : x y z
#
# Youngs Moduli (GPa) = 47.25393 112.55122 23.01825
#
# Poissons Ratio (x) = 0.26155 0.35281
# Poissons Ratio (y) = 0.10981 0.14065
# Poissons Ratio (z) = 0.72428 0.68771
#
# Static dielectric constant tensor:
#      x y z
#    x 1.578200 0.000000 0.000000 
#    y 0.000000 1.602010 0.000000 
#    z 0.000000 0.000000 1.576330 
# 
# From -- ./inp_files/8074.got.cif
#   From: 2010.05.17/outbox.cif.g08.bks.cpg/sg58_5_cif.got.tgz:8074.got - 2010.06.03 14:20:14.
