data_PCOD9442439
_publ_section_title
;
Structure prediction by ZEFSAII (Michael W. Deem and Ramdas Pophale) SiO2 
 PCOD9442439
Probable space group: P N N M
;
_chemical_formula_sum "Si O2"
_cell_formula_units_Z 60
_cell_length_a 11.445822
_cell_length_b 11.067244
_cell_length_c 20.989308
_cell_angle_alpha 90.000000
_cell_angle_beta 90.000000
_cell_angle_gamma 90.000000
_cell_volume 2658.793407
_symmetry_space_group_name_H-M "P N N M"
_symmetry_group_IT_number 58
_symmetry_cell_setting 'orthorhombic'
loop_
_space_group_symop_operation_xyz
x,y,z
-x,-y,z
1/2+x,1/2-y,1/2-z
1/2-x,1/2+y,1/2-z
-x,-y,-z
x,y,-z
1/2-x,1/2+y,1/2+z
1/2+x,1/2-y,1/2+z
loop_
_atom_site_type_symbol
_atom_site_label
_atom_site_fract_x
_atom_site_fract_y
_atom_site_fract_z
Si Si1 0.847877 0.643305 0.863275
Si Si2 0.313431 0.855920 0.074771
Si Si3 0.097112 0.755148 0.157204
Si Si4 0.266677 0.589573 0.624615
Si Si5 0.844419 0.058734 0.431185
Si Si6 0.752085 0.439603 0.773322
Si Si7 0.558641 0.344519 0.866146
Si Si8 0.000000 0.000000 0.147453
O O1 0.774771 0.767081 0.873344
O O2 0.793395 0.563912 0.919564
O O3 0.807012 0.562626 0.802807
O O4 0.983194 0.678526 0.864126
O O5 0.192614 0.797802 0.104456
O O6 0.412202 0.792949 0.118536
O O7 0.315257 0.000836 0.085498
O O8 0.323677 0.831358 0.000000
O O9 0.163245 0.670815 0.207096
O O10 0.045715 0.881611 0.184228
O O11 0.256500 0.551021 0.698285
O O12 0.396671 0.549939 0.604146
O O13 0.873941 0.109140 0.500000
O O14 0.924231 0.121618 0.376571
O O15 0.881207 0.920262 0.423616
O O16 0.628718 0.397312 0.805362
#
# Coordination Sequence:
#
# PCOD9442439 Si02
#       8
#     8   8   8   8   8   8   8   4
#     4  10  22  37  54  86 118 154 194 247 310 364
#     4  10  20  37  63  88 118 159 204 253 305 366
#     4   9  19  38  57  86 119 155 195 247 302 364
#     4  10  22  37  57  86 117 157 206 246 305 368
#     4  10  19  35  59  87 119 154 199 250 301 362
#     4  10  21  36  61  83 120 156 198 256 309 366
#     4   9  19  36  58  87 112 154 204 251 301 354
#     4   8  18  36  57  80 118 152 195 248 290 350
#
# _framework density 22.566628000000001
#
# number of rings (size 3 to 8) (size 9 to 14) (size 15 to 20)
#    0.000    2.400    0.000    2.000    5.600    3.200 
#    2.400   13.333    0.000    6.400    0.000    0.000 
#    0.000    0.000    0.000    0.000    0.000    0.000 
#
# Total GULP energy -334067.818963 kJ/mol
# GULP energy per Si atom -5567.796983 kJ/mol
# Density = 2.251527 g / cm^3
# Si number density = 22.566628 Si / 1000 Ang^3
#
#
#
# Elastic Constant Matrix: (Units=GPa)
#
#
# Indices 1 2 3 4 5 6 
#
# 1 52.1602 2.0768 0.8190 0.0000 0.0000 0.0000
# 2 2.0768 51.2755 -27.5112 0.0000 0.0000 0.0000
# 3 0.8190 -27.5112 48.5622 0.0000 0.0000 0.0000
# 4 0.0000 0.0000 0.0000 4.3373 0.0000 0.0000
# 5 0.0000 0.0000 0.0000 0.0000 11.3927 0.0000
# 6 0.0000 0.0000 0.0000 0.0000 0.0000 33.7994
#
#
#
# Elastic Compliance Matrix: (Units=1/GPa)
#
#
# Indices 1 2 3 4 5 6 
#
# 1 0.019244 -0.001370 -0.001101 0.000000 0.000000 0.000000
# 2 -0.001370 0.028117 0.015952 0.000000 0.000000 0.000000
# 3 -0.001101 0.015952 0.029647 0.000000 0.000000 0.000000
# 4 0.000000 0.000000 0.000000 0.230558 0.000000 0.000000
# 5 0.000000 0.000000 0.000000 0.000000 0.087775 0.000000
# 6 0.000000 0.000000 0.000000 0.000000 0.000000 0.029586
#
#
# Mechanical properties :
#
#
# Convention : Reuss Voigt Hill
#
# Bulk Modulus (GPa) = 9.61819 11.41856 10.51837
# Shear Modulus (GPa) = 11.55744 21.68010 16.61877
#
# Velocity S-wave (km/s) = 2.26552 3.10290 2.71667
# Velocity P-wave (km/s) = 3.33389 4.23182 3.80940
#
# Compressibility (1/GPa) = 0.10396964
#
# Stress axis : x y z
#
# Youngs Moduli (GPa) = 51.96551 35.56619 33.72966
#
# Poissons Ratio (x) = 0.04872 0.03712
# Poissons Ratio (y) = 0.07119 -0.53804
# Poissons Ratio (z) = 0.05719 -0.56734
#
# Static dielectric constant tensor:
#      x y z
#    x 2.031720 0.000000 0.000000 
#    y 0.000000 1.947850 0.000000 
#    z 0.000000 0.000000 1.810890 
# 
# From -- ./inp_files/29661.got.cif
#   From: 2010.05.17/outbox.cif.g08.bks.cpg/sg58_15_cif.got.tgz:29661.got - 2010.06.03 14:20:14.
