data_PCOD9442483
_publ_section_title
;
Structure prediction by ZEFSAII (Michael W. Deem and Ramdas Pophale) SiO2 
 PCOD9442483
Probable space group: P N N M
;
_chemical_formula_sum "Si O2"
_cell_formula_units_Z 64
_cell_length_a 9.750029
_cell_length_b 18.115507
_cell_length_c 18.636981
_cell_angle_alpha 90.000000
_cell_angle_beta 90.000000
_cell_angle_gamma 90.000000
_cell_volume 3291.788799
_symmetry_space_group_name_H-M "P N N M"
_symmetry_group_IT_number 58
_symmetry_cell_setting 'orthorhombic'
loop_
_space_group_symop_operation_xyz
x,y,z
-x,-y,z
1/2+x,1/2-y,1/2-z
1/2-x,1/2+y,1/2-z
-x,-y,-z
x,y,-z
1/2-x,1/2+y,1/2+z
1/2+x,1/2-y,1/2+z
loop_
_atom_site_type_symbol
_atom_site_label
_atom_site_fract_x
_atom_site_fract_y
_atom_site_fract_z
Si Si1 0.506839 0.722799 0.083255
Si Si2 0.809800 0.697413 0.694515
Si Si3 0.104674 0.766333 0.919699
Si Si4 0.766060 0.851599 0.770917
Si Si5 0.599134 0.430742 0.143981
Si Si6 0.478092 0.916189 0.724296
Si Si7 0.613372 0.905793 0.581799
Si Si8 0.709806 0.299878 0.580422
O O1 0.424959 0.777503 0.136441
O O2 0.469634 0.639598 0.105083
O O3 0.667557 0.741463 0.090281
O O4 0.468171 0.734818 0.000000
O O5 0.674044 0.690818 0.645766
O O6 0.795117 0.767121 0.747745
O O7 0.851995 0.625894 0.739673
O O8 0.152485 0.681395 0.914526
O O9 0.940855 0.765242 0.913992
O O10 0.139118 0.794028 0.000000
O O11 0.864459 0.903484 0.724239
O O12 0.612098 0.870288 0.747527
O O13 0.779526 0.858056 0.855678
O O14 0.500000 0.500000 0.141631
O O15 0.747900 0.445904 0.107839
O O16 0.489962 0.916791 0.637822
O O17 0.500000 0.000000 0.748899
O O18 0.578635 0.922641 0.500000
O O19 0.724520 0.330671 0.500000
#
# Coordination Sequence:
#
# PCOD9442483 Si02
#       8
#     8   8   8   8   8   8   8   8
#     4  10  19  35  62  92 120 157 205 260 306 360
#     4  11  20  37  67  87 115 167 211 255 300 372
#     4  10  19  36  62  94 121 155 206 258 313 368
#     4  10  21  40  60  87 120 159 211 257 310 361
#     4  10  21  37  58  90 125 165 206 252 307 383
#     4  11  23  41  59  93 129 161 208 261 319 376
#     4  10  20  39  60  84 126 168 202 250 305 375
#     4  10  21  36  60  91 121 150 202 269 313 356
#
# _framework density 19.442318
#
# number of rings (size 3 to 8) (size 9 to 14) (size 15 to 20)
#    0.000    1.750    5.000    1.500    0.000    1.250 
#   13.500    0.000    0.000    3.750    0.000    0.000 
#    0.000    0.000    0.000    0.000    0.000    0.000 
#
# Total GULP energy -357294.620395 kJ/mol
# GULP energy per Si atom -5582.728444 kJ/mol
# Density = 1.939807 g / cm^3
# Si number density = 19.442318 Si / 1000 Ang^3
#
#
#
# Elastic Constant Matrix: (Units=GPa)
#
#
# Indices 1 2 3 4 5 6 
#
# 1 79.4107 9.0861 41.1843 0.0000 0.0000 0.0000
# 2 9.0861 53.5477 27.8217 0.0000 0.0000 0.0000
# 3 41.1843 27.8217 143.8301 0.0000 0.0000 0.0000
# 4 0.0000 0.0000 0.0000 7.4130 0.0000 0.0000
# 5 0.0000 0.0000 0.0000 0.0000 7.7412 0.0000
# 6 0.0000 0.0000 0.0000 0.0000 0.0000 19.7813
#
#
#
# Elastic Compliance Matrix: (Units=1/GPa)
#
#
# Indices 1 2 3 4 5 6 
#
# 1 0.014795 -0.000344 -0.004170 0.000000 0.000000 0.000000
# 2 -0.000344 0.020770 -0.003919 0.000000 0.000000 0.000000
# 3 -0.004170 -0.003919 0.008905 0.000000 0.000000 0.000000
# 4 0.000000 0.000000 0.000000 0.134897 0.000000 0.000000
# 5 0.000000 0.000000 0.000000 0.000000 0.129178 0.000000
# 6 0.000000 0.000000 0.000000 0.000000 0.000000 0.050553
#
#
# Mechanical properties :
#
#
# Convention : Reuss Voigt Hill
#
# Bulk Modulus (GPa) = 36.22744 48.10808 42.16776
# Shear Modulus (GPa) = 12.98149 20.23355 16.60752
#
# Velocity S-wave (km/s) = 2.58678 3.22948 2.92583
# Velocity P-wave (km/s) = 5.25315 6.22124 5.75758
#
# Compressibility (1/GPa) = 0.02760339
#
# Stress axis : x y z
#
# Youngs Moduli (GPa) = 67.59200 48.14748 112.30023
#
# Poissons Ratio (x) = 0.01656 0.46827
# Poissons Ratio (y) = 0.02324 0.44011
# Poissons Ratio (z) = 0.28184 0.18869
#
# Static dielectric constant tensor:
#      x y z
#    x 1.720950 0.000000 0.000000 
#    y 0.000000 1.656610 0.000000 
#    z 0.000000 0.000000 1.727510 
# 
# From -- ./inp_files/29123.got.cif
#   From: 2010.05.17/outbox.cif.g08.bks.cpg/sg58_15_cif.got.tgz:29123.got - 2010.06.03 14:20:14.
