data_PCOD9442522
_publ_section_title
;
Structure prediction by ZEFSAII (Michael W. Deem and Ramdas Pophale) SiO2 
 PCOD9442522
Probable space group: P N N M
;
_chemical_formula_sum "Si O2"
_cell_formula_units_Z 64
_cell_length_a 9.343962
_cell_length_b 24.463024
_cell_length_c 13.837501
_cell_angle_alpha 90.000000
_cell_angle_beta 90.000000
_cell_angle_gamma 90.000000
_cell_volume 3162.997657
_symmetry_space_group_name_H-M "P N N M"
_symmetry_group_IT_number 58
_symmetry_cell_setting 'orthorhombic'
loop_
_space_group_symop_operation_xyz
x,y,z
-x,-y,z
1/2+x,1/2-y,1/2-z
1/2-x,1/2+y,1/2-z
-x,-y,-z
x,y,-z
1/2-x,1/2+y,1/2+z
1/2+x,1/2-y,1/2+z
loop_
_atom_site_type_symbol
_atom_site_label
_atom_site_fract_x
_atom_site_fract_y
_atom_site_fract_z
Si Si1 0.633676 0.963333 0.257438
Si Si2 0.025827 0.708542 0.400589
Si Si3 0.176618 0.204020 0.660602
Si Si4 0.030766 0.654818 0.810678
Si Si5 0.653349 0.530853 0.887444
Si Si6 0.761582 0.717757 0.176353
Si Si7 0.098863 0.054576 0.885092
Si Si8 0.945795 0.130625 0.736906
O O1 0.566098 0.908605 0.303028
O O2 0.751058 0.951720 0.173021
O O3 0.500000 0.000000 0.223255
O O4 0.723852 0.993967 0.340401
O O5 0.035618 0.675844 0.500000
O O6 0.026207 0.674623 0.302022
O O7 0.154262 0.752564 0.395458
O O8 0.886961 0.747027 0.400546
O O9 0.335760 0.185273 0.640777
O O10 0.169662 0.231426 0.767130
O O11 0.073622 0.151948 0.667696
O O12 0.884724 0.676774 0.857043
O O13 0.500000 0.500000 0.880169
O O14 0.638578 0.584414 0.821706
O O15 0.679757 0.542866 0.000000
O O16 0.659926 0.682165 0.247906
O O17 0.013483 0.103749 0.832072
O O18 0.118764 0.062992 0.000000
O O19 0.000000 0.000000 0.872409
#
# Coordination Sequence:
#
# PCOD9442522 Si02
#       8
#     8   8   8   8   8   8   8   8
#     4  12  23  40  62  88 129 163 197 259 320 364
#     4   9  19  36  58  85 115 151 202 250 287 358
#     4   9  18  35  59  82 113 152 194 240 295 355
#     4  10  19  36  58  84 115 161 191 234 307 367
#     4  11  22  39  64  92 119 159 214 256 303 375
#     4   9  20  34  58  86 114 155 196 233 298 364
#     4  11  23  41  64  89 117 156 213 260 294 361
#     4  11  18  39  63  85 120 163 203 248 308 360
#
# _framework density 20.233971
#
# number of rings (size 3 to 8) (size 9 to 14) (size 15 to 20)
#    0.000    1.750    3.750    1.500    0.000    3.000 
#    0.000    4.375    0.000    0.000    0.000    0.000 
#    0.000    0.000    0.000    0.000    0.000    0.000 
#
# Total GULP energy -356834.476892 kJ/mol
# GULP energy per Si atom -5575.538701 kJ/mol
# Density = 2.018792 g / cm^3
# Si number density = 20.233971 Si / 1000 Ang^3
#
#
#
# Elastic Constant Matrix: (Units=GPa)
#
#
# Indices 1 2 3 4 5 6 
#
# 1 87.9154 11.3727 -9.4895 0.0000 0.0000 0.0000
# 2 11.3727 65.4743 -0.7507 0.0000 0.0000 0.0000
# 3 -9.4895 -0.7507 67.4227 0.0000 0.0000 0.0000
# 4 0.0000 0.0000 0.0000 75.1297 0.0000 0.0000
# 5 0.0000 0.0000 0.0000 0.0000 -23.7273 0.0000
# 6 0.0000 0.0000 0.0000 0.0000 0.0000 37.9813
#
#
#
# Elastic Compliance Matrix: (Units=1/GPa)
#
#
# Indices 1 2 3 4 5 6 
#
# 1 0.011815 -0.002033 0.001640 0.000000 0.000000 0.000000
# 2 -0.002033 0.015625 -0.000112 0.000000 0.000000 0.000000
# 3 0.001640 -0.000112 0.015061 0.000000 0.000000 0.000000
# 4 0.000000 0.000000 0.000000 0.013310 0.000000 0.000000
# 5 0.000000 0.000000 0.000000 0.000000 -0.042145 0.000000
# 6 0.000000 0.000000 0.000000 0.000000 0.000000 0.026329
#
#
# Mechanical properties :
#
#
# Convention : Reuss Voigt Hill
#
# Bulk Modulus (GPa) = 24.10195 24.78639 24.44417
# Shear Modulus (GPa) = 91.18179 32.52206 61.85193
#
# Velocity S-wave (km/s) = 6.72023 4.01346 5.53486
# Velocity P-wave (km/s) = 8.49429 5.80979 7.27690
#
# Compressibility (1/GPa) = 0.04149041
#
# Stress axis : x y z
#
# Youngs Moduli (GPa) = 84.64064 63.99975 66.39488
#
# Poissons Ratio (x) = 0.13013 -0.10890
# Poissons Ratio (y) = 0.17211 0.00745
# Poissons Ratio (z) = -0.13883 0.00718
#
# Static dielectric constant tensor:
#      x y z
#    x 1.771670 0.000000 0.000000 
#    y 0.000000 1.731920 0.000000 
#    z 0.000000 0.000000 1.725970 
# 
# From -- ./inp_files/20305.got.cif
#   From: 2010.05.17/outbox.cif.g08.bks.cpg/sg58_11_cif.got.tgz:20305.got - 2010.06.03 14:20:14.
