data_PCOD9442116
_publ_section_title
;
Structure prediction by ZEFSAII (Michael W. Deem and Ramdas Pophale) SiO2 
 PCOD9442116
Probable space group: P N N M
;
_chemical_formula_sum "Si O2"
_cell_formula_units_Z 48
_cell_length_a 9.328730
_cell_length_b 16.252211
_cell_length_c 13.780758
_cell_angle_alpha 90.000000
_cell_angle_beta 90.000000
_cell_angle_gamma 90.000000
_cell_volume 2089.335011
_symmetry_space_group_name_H-M "P N N M"
_symmetry_group_IT_number 58
_symmetry_cell_setting 'orthorhombic'
loop_
_space_group_symop_operation_xyz
x,y,z
-x,-y,z
1/2+x,1/2-y,1/2-z
1/2-x,1/2+y,1/2-z
-x,-y,-z
x,y,-z
1/2-x,1/2+y,1/2+z
1/2+x,1/2-y,1/2+z
loop_
_atom_site_type_symbol
_atom_site_label
_atom_site_fract_x
_atom_site_fract_y
_atom_site_fract_z
Si Si1 0.211081 0.216875 0.818105
Si Si2 0.659127 0.485690 0.109082
Si Si3 0.042507 0.903757 0.116512
Si Si4 0.509548 0.847906 0.103112
Si Si5 0.273415 0.704815 0.103974
Si Si6 0.817539 0.603002 0.243851
O O1 0.073958 0.157958 0.834478
O O2 0.329953 0.183750 0.890459
O O3 0.288012 0.210895 0.711866
O O4 0.177275 0.313866 0.821248
O O5 0.500000 0.500000 0.149141
O O6 0.678186 0.389032 0.101329
O O7 0.775845 0.527817 0.176189
O O8 0.664209 0.521504 0.000000
O O9 0.191464 0.891134 0.174186
O O10 0.053399 0.888123 0.000000
O O11 0.000000 0.000000 0.126096
O O12 0.408266 0.766826 0.107367
O O13 0.461579 0.901643 0.193950
O O14 0.482649 0.889701 0.000000
O O15 0.197095 0.720715 0.000000
#
# Coordination Sequence:
#
# PCOD9442116 Si02
#       6
#     8   8   8   8   8   8
#     4  11  21  37  61  90 120 158 206 256 305 357
#     4  10  19  33  57  86 115 150 192 241 297 358
#     4  11  24  42  64  89 123 168 213 254 302 370
#     4  10  21  37  58  85 119 156 198 249 302 356
#     4   9  19  36  56  80 113 153 191 232 292 358
#     4  11  21  37  60  91 123 155 198 252 311 364
#
# _framework density 22.973815999999999
#
# number of rings (size 3 to 8) (size 9 to 14) (size 15 to 20)
#    0.000    1.667    0.000    6.500    0.000    3.333 
#    0.000    4.167    0.000    8.000    0.000    0.000 
#    0.000    0.000    0.000    0.000    0.000    0.000 
#
# Total GULP energy -268009.149221 kJ/mol
# GULP energy per Si atom -5583.523942 kJ/mol
# Density = 2.292153 g / cm^3
# Si number density = 22.973816 Si / 1000 Ang^3
#
#
#
# Elastic Constant Matrix: (Units=GPa)
#
#
# Indices 1 2 3 4 5 6 
#
# 1 31.1700 4.4090 -2.6087 0.0000 0.0000 0.0000
# 2 4.4090 108.3260 4.1395 0.0000 0.0000 0.0000
# 3 -2.6087 4.1395 113.8485 0.0000 0.0000 0.0000
# 4 0.0000 0.0000 0.0000 13.0771 0.0000 0.0000
# 5 0.0000 0.0000 0.0000 0.0000 5.0689 0.0000
# 6 0.0000 0.0000 0.0000 0.0000 0.0000 23.5691
#
#
#
# Elastic Compliance Matrix: (Units=1/GPa)
#
#
# Indices 1 2 3 4 5 6 
#
# 1 0.032339 -0.001346 0.000790 0.000000 0.000000 0.000000
# 2 -0.001346 0.009300 -0.000369 0.000000 0.000000 0.000000
# 3 0.000790 -0.000369 0.008815 0.000000 0.000000 0.000000
# 4 0.000000 0.000000 0.000000 0.076469 0.000000 0.000000
# 5 0.000000 0.000000 0.000000 0.000000 0.197281 0.000000
# 6 0.000000 0.000000 0.000000 0.000000 0.000000 0.042428
#
#
# Mechanical properties :
#
#
# Convention : Reuss Voigt Hill
#
# Bulk Modulus (GPa) = 20.57478 29.46934 25.02206
# Shear Modulus (GPa) = 12.99765 24.83669 18.91717
#
# Velocity S-wave (km/s) = 2.38115 3.29156 2.87265
# Velocity P-wave (km/s) = 4.06633 5.22503 4.68167
#
# Compressibility (1/GPa) = 0.04860320
#
# Stress axis : x y z
#
# Youngs Moduli (GPa) = 30.92272 107.52347 113.44144
#
# Poissons Ratio (x) = 0.14477 -0.08961
# Poissons Ratio (y) = 0.04163 0.04186
# Poissons Ratio (z) = -0.02443 0.03968
#
# Static dielectric constant tensor:
#      x y z
#    x 1.825440 0.000000 0.000000 
#    y 0.000000 1.837530 0.000000 
#    z 0.000000 0.000000 1.939260 
# 
# From -- ./inp_files/19824.got.cif
#   From: 2010.05.17/outbox.cif.g08.bks.cpg/sg58_10_cif.got.tgz:19824.got - 2010.06.03 14:20:14.
