data_PCOD9442995
_publ_section_title
;
Structure prediction by ZEFSAII (Michael W. Deem and Ramdas Pophale) SiO2 
 PCOD9442995
Probable space group: P N N M
;
_chemical_formula_sum "Si O2"
_cell_formula_units_Z 64
_cell_length_a 12.503877
_cell_length_b 26.040213
_cell_length_c 9.649000
_cell_angle_alpha 90.000000
_cell_angle_beta 90.000000
_cell_angle_gamma 90.000000
_cell_volume 3141.749333
_symmetry_space_group_name_H-M "P N N M"
_symmetry_group_IT_number 58
_symmetry_cell_setting 'orthorhombic'
loop_
_space_group_symop_operation_xyz
x,y,z
-x,-y,z
1/2+x,1/2-y,1/2-z
1/2-x,1/2+y,1/2-z
-x,-y,-z
x,y,-z
1/2-x,1/2+y,1/2+z
1/2+x,1/2-y,1/2+z
loop_
_atom_site_type_symbol
_atom_site_label
_atom_site_fract_x
_atom_site_fract_y
_atom_site_fract_z
Si Si1 0.697770 0.325621 0.344141
Si Si2 0.515657 0.357066 0.842913
Si Si3 0.110163 0.713905 0.157681
Si Si4 0.825969 0.168228 0.159821
Si Si5 0.384840 0.841815 0.661714
Si Si6 0.279954 0.059636 0.153268
Si Si7 0.895295 0.972091 0.656464
Si Si8 0.478510 0.060565 0.656592
O O1 0.681120 0.304516 0.500000
O O2 0.596280 0.320666 0.243162
O O3 0.802703 0.304643 0.268387
O O4 0.717866 0.386533 0.358814
O O5 0.407359 0.363617 0.755608
O O6 0.572879 0.412287 0.853710
O O7 0.495546 0.338557 0.000000
O O8 0.121750 0.775086 0.157418
O O9 0.991924 0.692015 0.187293
O O10 0.137526 0.695961 0.000000
O O11 0.711250 0.170502 0.234757
O O12 0.818432 0.150512 0.000000
O O13 0.353689 0.834032 0.500000
O O14 0.422251 0.901237 0.677548
O O15 0.207582 0.023076 0.247737
O O16 0.388738 0.072130 0.231695
O O17 0.298726 0.038781 0.000000
O O18 0.874717 0.991398 0.500000
O O19 0.000000 0.000000 0.713174
O O20 0.438300 0.071313 0.500000
O O21 0.500000 0.000000 0.665087
#
# Coordination Sequence:
#
# PCOD9442995 Si02
#       8
#     8   8   8   8   8   8   8   8
#     4  10  20  35  59  87 115 148 191 244 297 351
#     4  10  21  38  60  85 117 155 196 240 295 353
#     4  10  22  40  62  87 115 154 200 244 294 353
#     4  11  25  41  59  89 125 159 199 246 304 363
#     4  10  22  42  64  87 121 161 204 252 305 361
#     4  10  20  34  54  84 117 150 189 240 303 357
#     4   9  19  36  59  84 112 152 201 247 288 344
#     4  10  21  38  62  88 115 156 207 253 296 354
#
# _framework density 20.370816999999999
#
# number of rings (size 3 to 8) (size 9 to 14) (size 15 to 20)
#    0.000    2.000    1.250    1.500    1.750    5.000 
#    0.000    5.000    0.000    0.000    0.000    0.000 
#    0.000    0.000    0.000    0.000    0.000    0.000 
#
# Total GULP energy -357146.269665 kJ/mol
# GULP energy per Si atom -5580.410464 kJ/mol
# Density = 2.032445 g / cm^3
# Si number density = 20.370817 Si / 1000 Ang^3
#
#
#
# Elastic Constant Matrix: (Units=GPa)
#
#
# Indices 1 2 3 4 5 6 
#
# 1 94.9687 0.1734 81.3096 0.0000 0.0000 0.0000
# 2 0.1734 40.3155 8.4050 0.0000 0.0000 0.0000
# 3 81.3096 8.4050 154.1979 0.0000 0.0000 0.0000
# 4 0.0000 0.0000 0.0000 33.8804 0.0000 0.0000
# 5 0.0000 0.0000 0.0000 0.0000 23.4018 0.0000
# 6 0.0000 0.0000 0.0000 0.0000 0.0000 26.0585
#
#
#
# Elastic Compliance Matrix: (Units=1/GPa)
#
#
# Indices 1 2 3 4 5 6 
#
# 1 0.019365 0.002069 -0.010324 0.000000 0.000000 0.000000
# 2 0.002069 0.025311 -0.002471 0.000000 0.000000 0.000000
# 3 -0.010324 -0.002471 0.012064 0.000000 0.000000 0.000000
# 4 0.000000 0.000000 0.000000 0.029516 0.000000 0.000000
# 5 0.000000 0.000000 0.000000 0.000000 0.042732 0.000000
# 6 0.000000 0.000000 0.000000 0.000000 0.000000 0.038375
#
#
# Mechanical properties :
#
#
# Convention : Reuss Voigt Hill
#
# Bulk Modulus (GPa) = 28.33813 52.13979 40.23896
# Shear Modulus (GPa) = 24.92811 29.97441 27.45126
#
# Velocity S-wave (km/s) = 3.50196 3.84010 3.67492
# Velocity P-wave (km/s) = 5.50391 6.73147 6.14840
#
# Compressibility (1/GPa) = 0.03528814
#
# Stress axis : x y z
#
# Youngs Moduli (GPa) = 51.63859 39.50921 82.89189
#
# Poissons Ratio (x) = -0.08175 0.85580
# Poissons Ratio (y) = -0.10685 0.20480
# Poissons Ratio (z) = 0.53313 0.09761
#
# Static dielectric constant tensor:
#      x y z
#    x 1.704470 0.000000 0.000000 
#    y 0.000000 1.760900 0.000000 
#    z 0.000000 0.000000 1.739150 
# 
# From -- ./inp_files/4724.got.cif
#   From: 2010.05.17/outbox.cif.g08.bks.cpg/sg58_3_cif.got.tgz:4724.got - 2010.06.03 14:20:14.
