data_PCOD9442747
_publ_section_title
;
Structure prediction by ZEFSAII (Michael W. Deem and Ramdas Pophale) SiO2 
 PCOD9442747
Probable space group: P N N M
;
_chemical_formula_sum "Si O2"
_cell_formula_units_Z 64
_cell_length_a 26.866468
_cell_length_b 5.192211
_cell_length_c 25.922370
_cell_angle_alpha 90.000000
_cell_angle_beta 90.000000
_cell_angle_gamma 90.000000
_cell_volume 3616.076534
_symmetry_space_group_name_H-M "P N N M"
_symmetry_group_IT_number 58
_symmetry_cell_setting 'orthorhombic'
loop_
_space_group_symop_operation_xyz
x,y,z
-x,-y,z
1/2+x,1/2-y,1/2-z
1/2-x,1/2+y,1/2-z
-x,-y,-z
x,y,-z
1/2-x,1/2+y,1/2+z
1/2+x,1/2-y,1/2+z
loop_
_atom_site_type_symbol
_atom_site_label
_atom_site_fract_x
_atom_site_fract_y
_atom_site_fract_z
Si Si1 0.540335 0.702248 0.141682
Si Si2 0.286244 0.169021 0.060359
Si Si3 0.899656 0.474403 0.440204
Si Si4 0.737254 0.340942 0.122433
Si Si5 0.277251 0.007480 0.727771
Si Si6 0.547207 0.641668 0.256890
Si Si7 0.608818 0.123526 0.246673
Si Si8 0.126329 0.174153 0.642551
O O1 0.500000 0.500000 0.120756
O O2 0.554395 0.894975 0.096116
O O3 0.524147 0.739321 0.201118
O O4 0.593004 0.568485 0.151881
O O5 0.346751 0.176279 0.066622
O O6 0.263400 0.436108 0.079715
O O7 0.264638 0.937284 0.095344
O O8 0.277058 0.121028 0.000000
O O9 0.912205 0.475516 0.500000
O O10 0.883297 0.746375 0.416289
O O11 0.775040 0.398887 0.168295
O O12 0.683933 0.365075 0.151071
O O13 0.256619 0.252427 0.760912
O O14 0.333819 0.928521 0.740162
O O15 0.500000 0.500000 0.283060
O O16 0.574880 0.904098 0.272914
O O17 0.588240 0.411211 0.257123
O O18 0.607338 0.114076 0.183650
#
# Coordination Sequence:
#
# PCOD9442747 Si02
#       8
#     8   8   8   8   8   8   8   8
#     4  10  20  32  46  62  83 113 159 212 273 319
#     4  10  21  36  56  75  95 133 179 220 262 316
#     4  10  20  32  46  62  83 114 159 211 272 320
#     4  11  21  35  55  75 104 132 172 218 261 321
#     4  12  24  34  52  82 112 145 176 211 280 337
#     4  10  21  36  56  75  95 133 179 220 262 316
#     4  11  21  35  55  74 104 133 172 218 261 321
#     4  10  20  34  48  64  90 125 157 212 268 310
#
# _framework density 17.698741999999999
#
# number of rings (size 3 to 8) (size 9 to 14) (size 15 to 20)
#    0.000    1.500    3.750    2.250    3.500    1.750 
#    0.000    0.625    0.000    0.000    0.000    0.000 
#    0.000    0.000    0.000    0.000    0.000   43.750 
#
# Total GULP energy -356345.469480 kJ/mol
# GULP energy per Si atom -5567.897961 kJ/mol
# Density = 1.765846 g / cm^3
# Si number density = 17.698742 Si / 1000 Ang^3
#
#
#
# Elastic Constant Matrix: (Units=GPa)
#
#
# Indices 1 2 3 4 5 6 
#
# 1 36.6216 22.7650 7.4659 0.0000 0.0000 0.0000
# 2 22.7650 95.9761 12.4132 0.0000 0.0000 0.0000
# 3 7.4659 12.4132 39.7771 0.0000 0.0000 0.0000
# 4 0.0000 0.0000 0.0000 17.0488 0.0000 0.0000
# 5 0.0000 0.0000 0.0000 0.0000 33.5413 0.0000
# 6 0.0000 0.0000 0.0000 0.0000 0.0000 27.3351
#
#
#
# Elastic Compliance Matrix: (Units=1/GPa)
#
#
# Indices 1 2 3 4 5 6 
#
# 1 0.032588 -0.007230 -0.003860 0.000000 0.000000 0.000000
# 2 -0.007230 0.012462 -0.002532 0.000000 0.000000 0.000000
# 3 -0.003860 -0.002532 0.026655 0.000000 0.000000 0.000000
# 4 0.000000 0.000000 0.000000 0.058655 0.000000 0.000000
# 5 0.000000 0.000000 0.000000 0.000000 0.029814 0.000000
# 6 0.000000 0.000000 0.000000 0.000000 0.000000 0.036583
#
#
# Mechanical properties :
#
#
# Convention : Reuss Voigt Hill
#
# Bulk Modulus (GPa) = 22.49232 28.62921 25.56076
# Shear Modulus (GPa) = 20.93620 24.23376 22.58498
#
# Velocity S-wave (km/s) = 3.44309 3.70433 3.57610
# Velocity P-wave (km/s) = 5.34252 5.87427 5.61470
#
# Compressibility (1/GPa) = 0.04445962
#
# Stress axis : x y z
#
# Youngs Moduli (GPa) = 30.68632 80.24565 37.51679
#
# Poissons Ratio (x) = 0.58021 0.14482
# Poissons Ratio (y) = 0.22187 0.09499
# Poissons Ratio (z) = 0.11845 0.20317
#
# Static dielectric constant tensor:
#      x y z
#    x 1.636460 0.000000 0.000000 
#    y 0.000000 1.696980 0.000000 
#    z 0.000000 0.000000 1.618280 
# 
# From -- ./inp_files/32475.got.cif
#   From: 2010.05.17/outbox.cif.g08.bks.cpg/sg58_17_cif.got.tgz:32475.got - 2010.06.03 14:20:14.
