data_PCOD9442166
_publ_section_title
;
Structure prediction by ZEFSAII (Michael W. Deem and Ramdas Pophale) SiO2 
 PCOD9442166
Probable space group: P N N M
;
_chemical_formula_sum "Si O2"
_cell_formula_units_Z 64
_cell_length_a 22.804108
_cell_length_b 8.125391
_cell_length_c 16.069849
_cell_angle_alpha 90.000000
_cell_angle_beta 90.000000
_cell_angle_gamma 90.000000
_cell_volume 2977.619184
_symmetry_space_group_name_H-M "P N N M"
_symmetry_group_IT_number 58
_symmetry_cell_setting 'orthorhombic'
loop_
_space_group_symop_operation_xyz
x,y,z
-x,-y,z
1/2+x,1/2-y,1/2-z
1/2-x,1/2+y,1/2-z
-x,-y,-z
x,y,-z
1/2-x,1/2+y,1/2+z
1/2+x,1/2-y,1/2+z
loop_
_atom_site_type_symbol
_atom_site_label
_atom_site_fract_x
_atom_site_fract_y
_atom_site_fract_z
Si Si1 0.673078 0.791010 0.404026
Si Si2 0.587587 0.897261 0.267932
Si Si3 0.854392 0.143862 0.341644
Si Si4 0.417639 0.651889 0.905449
Si Si5 0.703711 0.172733 0.100309
Si Si6 0.245242 0.182636 0.901161
Si Si7 0.135411 0.044639 0.168420
Si Si8 0.032287 0.242963 0.761726
O O1 0.671096 0.843731 0.500000
O O2 0.634700 0.896082 0.341296
O O3 0.740444 0.781604 0.373376
O O4 0.646718 0.604379 0.396255
O O5 0.615426 0.814536 0.186077
O O6 0.533812 0.774180 0.290395
O O7 0.561947 0.077512 0.257757
O O8 0.790741 0.176132 0.378601
O O9 0.894335 0.034753 0.401512
O O10 0.850069 0.040470 0.256466
O O11 0.360188 0.759618 0.878054
O O12 0.464914 0.676901 0.833052
O O13 0.434779 0.694488 0.000000
O O14 0.721952 0.988129 0.123848
O O15 0.704643 0.176584 0.000000
O O16 0.183630 0.181596 0.853980
O O17 0.235178 0.180232 0.000000
O O18 0.071776 0.125288 0.180664
#
# Coordination Sequence:
#
# PCOD9442166 Si02
#       8
#     8   8   8   8   8   8   8   8
#     4   9  18  36  59  84 110 142 179 220 266 317
#     4  10  22  40  57  76 106 144 184 225 270 321
#     4  10  21  33  53  81 111 141 176 221 272 319
#     4  10  20  36  57  83 109 139 177 222 270 321
#     4   8  16  31  53  79 110 139 169 211 263 314
#     4  10  19  34  54  81 112 143 177 215 257 318
#     4   9  20  34  54  80 111 144 178 219 269 319
#     4  10  22  40  57  76 106 144 184 225 270 321
#
# _framework density 21.493680999999999
#
# number of rings (size 3 to 8) (size 9 to 14) (size 15 to 20)
#    0.000    2.500    0.000    2.250    0.000   12.500 
#    0.000    9.375    0.000    0.000    0.000    0.000 
#    0.000    0.000    0.000    0.000    0.000    0.000 
#
# Total GULP energy -357355.870011 kJ/mol
# GULP energy per Si atom -5583.685469 kJ/mol
# Density = 2.144476 g / cm^3
# Si number density = 21.493681 Si / 1000 Ang^3
#
#
#
# Elastic Constant Matrix: (Units=GPa)
#
#
# Indices 1 2 3 4 5 6 
#
# 1 51.9976 8.2108 -1.1062 0.0000 0.0000 0.0000
# 2 8.2108 49.6465 3.3678 0.0000 0.0000 0.0000
# 3 -1.1062 3.3678 23.2496 0.0000 0.0000 0.0000
# 4 0.0000 0.0000 0.0000 11.5763 0.0000 0.0000
# 5 0.0000 0.0000 0.0000 0.0000 17.4192 0.0000
# 6 0.0000 0.0000 0.0000 0.0000 0.0000 35.2588
#
#
#
# Elastic Compliance Matrix: (Units=1/GPa)
#
#
# Indices 1 2 3 4 5 6 
#
# 1 0.019794 -0.003371 0.001430 0.000000 0.000000 0.000000
# 2 -0.003371 0.020916 -0.003190 0.000000 0.000000 0.000000
# 3 0.001430 -0.003190 0.043542 0.000000 0.000000 0.000000
# 4 0.000000 0.000000 0.000000 0.086384 0.000000 0.000000
# 5 0.000000 0.000000 0.000000 0.000000 0.057408 0.000000
# 6 0.000000 0.000000 0.000000 0.000000 0.000000 0.028362
#
#
# Mechanical properties :
#
#
# Convention : Reuss Voigt Hill
#
# Bulk Modulus (GPa) = 13.51523 16.20428 14.85976
# Shear Modulus (GPa) = 17.16263 20.47895 18.82079
#
# Velocity S-wave (km/s) = 2.82883 3.09008 2.96234
# Velocity P-wave (km/s) = 4.11963 4.50410 4.31615
#
# Compressibility (1/GPa) = 0.07399062
#
# Stress axis : x y z
#
# Youngs Moduli (GPa) = 50.51947 47.80967 22.96652
#
# Poissons Ratio (x) = 0.16115 -0.03284
# Poissons Ratio (y) = 0.17029 0.07327
# Poissons Ratio (z) = -0.07225 0.15252
#
# Static dielectric constant tensor:
#      x y z
#    x 1.794940 0.000000 0.000000 
#    y 0.000000 1.844280 0.000000 
#    z 0.000000 0.000000 1.744060 
# 
# From -- ./inp_files/27531.got.cif
#   From: 2010.05.17/outbox.cif.g08.bks.cpg/sg58_14_cif.got.tgz:27531.got - 2010.06.03 14:20:14.
