data_PCOD9442288
_publ_section_title
;
Structure prediction by ZEFSAII (Michael W. Deem and Ramdas Pophale) SiO2 
 PCOD9442288
Probable space group: P N N M
;
_chemical_formula_sum "Si O2"
_cell_formula_units_Z 64
_cell_length_a 18.522729
_cell_length_b 15.178510
_cell_length_c 12.370341
_cell_angle_alpha 90.000000
_cell_angle_beta 90.000000
_cell_angle_gamma 90.000000
_cell_volume 3477.889548
_symmetry_space_group_name_H-M "P N N M"
_symmetry_group_IT_number 58
_symmetry_cell_setting 'orthorhombic'
loop_
_space_group_symop_operation_xyz
x,y,z
-x,-y,z
1/2+x,1/2-y,1/2-z
1/2-x,1/2+y,1/2-z
-x,-y,-z
x,y,-z
1/2-x,1/2+y,1/2+z
1/2+x,1/2-y,1/2+z
loop_
_atom_site_type_symbol
_atom_site_label
_atom_site_fract_x
_atom_site_fract_y
_atom_site_fract_z
Si Si1 0.680329 0.506388 0.628534
Si Si2 0.237762 0.673837 0.124797
Si Si3 0.620262 0.331599 0.734561
Si Si4 0.676200 0.157818 0.625986
Si Si5 0.547368 0.912096 0.121133
Si Si6 0.325234 0.018832 0.256414
Si Si7 0.012986 0.783422 0.626439
Si Si8 0.832706 0.178472 0.728531
O O1 0.674526 0.518476 0.500000
O O2 0.636484 0.420656 0.668585
O O3 0.763543 0.491055 0.665078
O O4 0.657611 0.591952 0.697332
O O5 0.318057 0.677274 0.173441
O O6 0.209646 0.575428 0.147353
O O7 0.188679 0.741072 0.192887
O O8 0.236838 0.696870 0.000000
O O9 0.634774 0.246735 0.659378
O O10 0.543586 0.329464 0.793894
O O11 0.666264 0.139782 0.500000
O O12 0.761765 0.167622 0.653210
O O13 0.651614 0.076033 0.699808
O O14 0.609635 0.926427 0.207023
O O15 0.503696 0.822361 0.139036
O O16 0.500000 0.000000 0.123150
O O17 0.579121 0.903650 0.000000
O O18 0.001591 0.805810 0.500000
O O19 0.095075 0.803730 0.661322
#
# Coordination Sequence:
#
# PCOD9442288 Si02
#       8
#     8   8   8   8   8   8   8   8
#     4  10  21  38  59  82 111 150 197 244 285 330
#     4  10  19  35  57  83 113 148 188 235 291 341
#     4  10  22  37  57  83 113 151 194 240 282 342
#     4  10  20  36  58  84 116 151 188 234 288 340
#     4  10  20  34  57  86 116 149 182 229 284 338
#     4  10  19  34  58  86 114 145 188 235 278 345
#     4  11  22  39  60  84 116 150 188 238 292 339
#     4  10  21  37  58  85 112 147 194 245 283 340
#
# _framework density 18.401964
#
# number of rings (size 3 to 8) (size 9 to 14) (size 15 to 20)
#    0.000    1.875    1.250    3.000    0.000    0.500 
#    0.000    9.375    0.000    1.500    0.000    0.000 
#    0.000    0.000    0.000    0.000    0.000    0.000 
#
# Total GULP energy -357207.693641 kJ/mol
# GULP energy per Si atom -5581.370213 kJ/mol
# Density = 1.836008 g / cm^3
# Si number density = 18.401964 Si / 1000 Ang^3
#
#
#
# Elastic Constant Matrix: (Units=GPa)
#
#
# Indices 1 2 3 4 5 6 
#
# 1 38.8098 -8.1356 16.2282 0.0000 0.0000 0.0000
# 2 -8.1356 65.3362 -0.7158 0.0000 0.0000 0.0000
# 3 16.2282 -0.7158 78.0860 0.0000 0.0000 0.0000
# 4 0.0000 0.0000 0.0000 11.4073 0.0000 0.0000
# 5 0.0000 0.0000 0.0000 0.0000 12.5448 0.0000
# 6 0.0000 0.0000 0.0000 0.0000 0.0000 19.1136
#
#
#
# Elastic Compliance Matrix: (Units=1/GPa)
#
#
# Indices 1 2 3 4 5 6 
#
# 1 0.029018 0.003548 -0.005998 0.000000 0.000000 0.000000
# 2 0.003548 0.015741 -0.000593 0.000000 0.000000 0.000000
# 3 -0.005998 -0.000593 0.014048 0.000000 0.000000 0.000000
# 4 0.000000 0.000000 0.000000 0.087663 0.000000 0.000000
# 5 0.000000 0.000000 0.000000 0.000000 0.079714 0.000000
# 6 0.000000 0.000000 0.000000 0.000000 0.000000 0.052319
#
#
# Mechanical properties :
#
#
# Convention : Reuss Voigt Hill
#
# Bulk Modulus (GPa) = 18.96831 21.88730 20.42781
# Shear Modulus (GPa) = 16.54734 20.27016 18.40875
#
# Velocity S-wave (km/s) = 3.00195 3.32252 3.16629
# Velocity P-wave (km/s) = 4.72713 5.16127 4.94896
#
# Compressibility (1/GPa) = 0.05271951
#
# Stress axis : x y z
#
# Youngs Moduli (GPa) = 34.46081 63.52957 71.18689
#
# Poissons Ratio (x) = -0.22538 0.42700
# Poissons Ratio (y) = -0.12225 0.04221
# Poissons Ratio (z) = 0.20670 0.03767
#
# Static dielectric constant tensor:
#      x y z
#    x 1.617050 0.000000 0.000000 
#    y 0.000000 1.647240 0.000000 
#    z 0.000000 0.000000 1.599210 
# 
# From -- ./inp_files/15889.got.cif
#   From: 2010.05.17/outbox.cif.g08.bks.cpg/sg58_8_cif.got.tgz:15889.got - 2010.06.03 14:20:14.
