data_PCOD9442171
_publ_section_title
;
Structure prediction by ZEFSAII (Michael W. Deem and Ramdas Pophale) SiO2 
 PCOD9442171
Probable space group: P N N M
;
_chemical_formula_sum "Si O2"
_cell_formula_units_Z 48
_cell_length_a 8.351454
_cell_length_b 7.502606
_cell_length_c 31.306978
_cell_angle_alpha 90.000000
_cell_angle_beta 90.000000
_cell_angle_gamma 90.000000
_cell_volume 1961.622261
_symmetry_space_group_name_H-M "P N N M"
_symmetry_group_IT_number 58
_symmetry_cell_setting 'orthorhombic'
loop_
_space_group_symop_operation_xyz
x,y,z
-x,-y,z
1/2+x,1/2-y,1/2-z
1/2-x,1/2+y,1/2-z
-x,-y,-z
x,y,-z
1/2-x,1/2+y,1/2+z
1/2+x,1/2-y,1/2+z
loop_
_atom_site_type_symbol
_atom_site_label
_atom_site_fract_x
_atom_site_fract_y
_atom_site_fract_z
Si Si1 0.689810 0.533681 0.000000
Si Si2 0.813660 0.515619 0.911501
Si Si3 0.313343 0.040822 0.000000
Si Si4 0.081310 0.690621 0.231576
Si Si5 0.321281 0.562099 0.831704
Si Si6 0.184852 0.060287 0.092856
Si Si7 0.785636 0.822995 0.185018
O O1 0.500000 0.500000 0.000000
O O2 0.774340 0.453699 0.041138
O O3 0.714247 0.746331 0.000000
O O4 0.705664 0.390202 0.880806
O O5 0.780828 0.727929 0.912423
O O6 0.000000 0.500000 0.900992
O O7 0.249552 0.980755 0.047507
O O8 0.500000 0.000000 0.000000
O O9 0.240381 0.692744 0.201993
O O10 0.144947 0.685646 0.279863
O O11 0.000000 0.500000 0.227207
O O12 0.950794 0.826173 0.212420
O O13 0.500000 0.500000 0.822501
O O14 0.218718 0.379611 0.832073
O O15 0.235325 0.047118 0.144114
O O16 0.000000 0.000000 0.094246
#
# Coordination Sequence:
#
# PCOD9442171 Si02
#       7
#     4   8   4   8   8   8   8
#     4  10  21  36  58  88 114 144 193 244 290 356
#     4  10  20  37  57  83 114 145 187 240 295 353
#     4  10  23  42  60  84 124 160 195 252 312 360
#     4  10  21  36  55  81 115 152 192 243 304 360
#     4  10  19  34  55  77 108 148 185 234 297 353
#     4  10  22  39  60  85 116 156 201 245 295 364
#     4  10  21  37  56  84 116 151 200 250 296 366
#
# _framework density 24.469542000000001
#
# number of rings (size 3 to 8) (size 9 to 14) (size 15 to 20)
#    0.000    2.000    0.000    4.500    0.000    5.333 
#    0.000    6.667    0.000    0.000    0.000    0.000 
#    0.000    0.000    0.000    0.000    0.000    0.000 
#
# Total GULP energy -267274.341762 kJ/mol
# GULP energy per Si atom -5568.215453 kJ/mol
# Density = 2.441385 g / cm^3
# Si number density = 24.469542 Si / 1000 Ang^3
#
#
#
# Elastic Constant Matrix: (Units=GPa)
#
#
# Indices 1 2 3 4 5 6 
#
# 1 98.7427 -12.9134 52.0580 0.0000 0.0000 0.0000
# 2 -12.9134 47.6414 26.7961 0.0000 0.0000 0.0000
# 3 52.0580 26.7961 200.4455 0.0000 0.0000 0.0000
# 4 0.0000 0.0000 0.0000 -6.2050 0.0000 0.0000
# 5 0.0000 0.0000 0.0000 0.0000 25.7458 0.0000
# 6 0.0000 0.0000 0.0000 0.0000 0.0000 22.7660
#
#
#
# Elastic Compliance Matrix: (Units=1/GPa)
#
#
# Indices 1 2 3 4 5 6 
#
# 1 0.013113 0.005915 -0.004196 0.000000 0.000000 0.000000
# 2 0.005915 0.025364 -0.004927 0.000000 0.000000 0.000000
# 3 -0.004196 -0.004927 0.006737 0.000000 0.000000 0.000000
# 4 0.000000 0.000000 0.000000 -0.161161 0.000000 0.000000
# 5 0.000000 0.000000 0.000000 0.000000 0.038841 0.000000
# 6 0.000000 0.000000 0.000000 0.000000 0.000000 0.043925
#
#
# Mechanical properties :
#
#
# Convention : Reuss Voigt Hill
#
# Bulk Modulus (GPa) = 25.77464 53.19012 39.48238
# Shear Modulus (GPa) = -361.52705 27.18729 -167.16988
#
# Velocity S-wave (km/s) = -12.16826 3.33688 -8.27441
# Velocity P-wave (km/s) = 13.66988 6.05234 8.66703
#
# Compressibility (1/GPa) = 0.03879783
#
# Stress axis : x y z
#
# Youngs Moduli (GPa) = 76.25917 39.42520 148.42598
#
# Poissons Ratio (x) = -0.23319 0.62284
# Poissons Ratio (y) = -0.45104 0.73128
# Poissons Ratio (z) = 0.32001 0.19424
#
# Static dielectric constant tensor:
#      x y z
#    x 1.716320 0.000000 0.000000 
#    y 0.000000 1.988230 0.000000 
#    z 0.000000 0.000000 2.371190 
# 
# From -- ./inp_files/34627.got.cif
#   From: 2010.05.17/outbox.cif.g08.bks.cpg/sg58_18_cif.got.tgz:34627.got - 2010.06.03 14:20:14.
