data_PCOD9442160
_publ_section_title
;
Structure prediction by ZEFSAII (Michael W. Deem and Ramdas Pophale) SiO2 
 PCOD9442160
Probable space group: P N N M
;
_chemical_formula_sum "Si O2"
_cell_formula_units_Z 64
_cell_length_a 29.775566
_cell_length_b 7.383526
_cell_length_c 12.055782
_cell_angle_alpha 90.000000
_cell_angle_beta 90.000000
_cell_angle_gamma 90.000000
_cell_volume 2650.447587
_symmetry_space_group_name_H-M "P N N M"
_symmetry_group_IT_number 58
_symmetry_cell_setting 'orthorhombic'
loop_
_space_group_symop_operation_xyz
x,y,z
-x,-y,z
1/2+x,1/2-y,1/2-z
1/2-x,1/2+y,1/2-z
-x,-y,-z
x,y,-z
1/2-x,1/2+y,1/2+z
1/2+x,1/2-y,1/2+z
loop_
_atom_site_type_symbol
_atom_site_label
_atom_site_fract_x
_atom_site_fract_y
_atom_site_fract_z
Si Si1 0.747840 0.891607 0.118953
Si Si2 0.146911 0.445487 0.884657
Si Si3 0.195167 0.795681 0.800096
Si Si4 0.538988 0.371768 0.866649
Si Si5 0.436161 0.033890 0.871535
Si Si6 0.366023 0.472006 0.877358
Si Si7 0.662406 0.142351 0.849937
Si Si8 0.951656 0.401915 0.873321
O O1 0.737685 0.771165 0.226785
O O2 0.789015 0.028534 0.134569
O O3 0.703903 0.021361 0.116554
O O4 0.748751 0.793815 0.000000
O O5 0.173323 0.635853 0.871646
O O6 0.161924 0.332885 0.781416
O O7 0.093494 0.477669 0.880353
O O8 0.158082 0.357381 0.000000
O O9 0.157962 0.844045 0.708512
O O10 0.500000 0.500000 0.821512
O O11 0.537770 0.156252 0.847963
O O12 0.586805 0.452769 0.832328
O O13 0.538988 0.387611 0.000000
O O14 0.384194 0.964220 0.875832
O O15 0.444503 0.155242 0.759808
O O16 0.447244 0.096267 0.000000
O O17 0.337464 0.654596 0.891746
O O18 0.372056 0.388894 0.000000
O O19 0.000000 0.500000 0.874453
O O20 0.950588 0.306168 0.000000
#
# Coordination Sequence:
#
# PCOD9442160 Si02
#       8
#     8   8   8   8   8   8   8   8
#     4  11  22  38  57  78 108 141 179 227 275 325
#     4   9  19  37  56  77 108 144 185 229 272 323
#     4  11  23  37  55  82 108 141 185 223 271 327
#     4   8  15  28  48  75 106 138 170 211 268 328
#     4   9  16  28  49  75 100 130 175 226 273 323
#     4  10  19  34  54  78 111 144 176 220 274 329
#     4   9  18  34  57  79 102 137 178 221 277 332
#     4   9  18  32  50  72 103 144 182 220 273 333
#
# _framework density 24.146864000000001
#
# number of rings (size 3 to 8) (size 9 to 14) (size 15 to 20)
#    0.000    2.500    0.000    3.375    0.000    1.250 
#    0.000   10.000    0.000    1.875    0.000    0.000 
#    0.000    0.000    0.000    0.000    0.000    0.000 
#
# Total GULP energy -356941.317357 kJ/mol
# GULP energy per Si atom -5577.208084 kJ/mol
# Density = 2.409190 g / cm^3
# Si number density = 24.146864 Si / 1000 Ang^3
#
#
#
# Elastic Constant Matrix: (Units=GPa)
#
#
# Indices 1 2 3 4 5 6 
#
# 1 100.8699 14.9924 9.0808 0.0000 0.0000 0.0000
# 2 14.9924 57.0019 20.4467 0.0000 0.0000 0.0000
# 3 9.0808 20.4467 184.2230 0.0000 0.0000 0.0000
# 4 0.0000 0.0000 0.0000 -27.6351 0.0000 0.0000
# 5 0.0000 0.0000 0.0000 0.0000 20.1411 0.0000
# 6 0.0000 0.0000 0.0000 0.0000 0.0000 35.9878
#
#
#
# Elastic Compliance Matrix: (Units=1/GPa)
#
#
# Indices 1 2 3 4 5 6 
#
# 1 0.010325 -0.002638 -0.000216 0.000000 0.000000 0.000000
# 2 -0.002638 0.018945 -0.001973 0.000000 0.000000 0.000000
# 3 -0.000216 -0.001973 0.005658 0.000000 0.000000 0.000000
# 4 0.000000 0.000000 0.000000 -0.036186 0.000000 0.000000
# 5 0.000000 0.000000 0.000000 0.000000 0.049650 0.000000
# 6 0.000000 0.000000 0.000000 0.000000 0.000000 0.027787
#
#
# Mechanical properties :
#
#
# Convention : Reuss Voigt Hill
#
# Bulk Modulus (GPa) = 39.56640 47.90384 43.73512
# Shear Modulus (GPa) = 53.04619 25.53709 39.29164
#
# Velocity S-wave (km/s) = 4.69210 3.25556 4.03823
# Velocity P-wave (km/s) = 6.76578 5.83208 6.31621
#
# Compressibility (1/GPa) = 0.02527397
#
# Stress axis : x y z
#
# Youngs Moduli (GPa) = 96.84917 52.78507 176.74726
#
# Poissons Ratio (x) = 0.13926 0.03820
# Poissons Ratio (y) = 0.25551 0.34865
# Poissons Ratio (z) = 0.02093 0.10412
#
# Static dielectric constant tensor:
#      x y z
#    x 1.962070 0.000000 0.000000 
#    y 0.000000 1.888110 0.000000 
#    z 0.000000 0.000000 1.982310 
# 
# From -- ./inp_files/17991.got.cif
#   From: 2010.05.17/outbox.cif.g08.bks.cpg/sg58_9_cif.got.tgz:17991.got - 2010.06.03 14:20:14.
