data_PCOD9442200
_publ_section_title
;
Structure prediction by ZEFSAII (Michael W. Deem and Ramdas Pophale) SiO2 
 PCOD9442200
Probable space group: P N N M
;
_chemical_formula_sum "Si O2"
_cell_formula_units_Z 64
_cell_length_a 20.191514
_cell_length_b 10.012092
_cell_length_c 18.204992
_cell_angle_alpha 90.000000
_cell_angle_beta 90.000000
_cell_angle_gamma 90.000000
_cell_volume 3680.308363
_symmetry_space_group_name_H-M "P N N M"
_symmetry_group_IT_number 58
_symmetry_cell_setting 'orthorhombic'
loop_
_space_group_symop_operation_xyz
x,y,z
-x,-y,z
1/2+x,1/2-y,1/2-z
1/2-x,1/2+y,1/2-z
-x,-y,-z
x,y,-z
1/2-x,1/2+y,1/2+z
1/2+x,1/2-y,1/2+z
loop_
_atom_site_type_symbol
_atom_site_label
_atom_site_fract_x
_atom_site_fract_y
_atom_site_fract_z
Si Si1 0.722021 0.325248 0.823309
Si Si2 0.961401 0.136708 0.586738
Si Si3 0.015288 0.654899 0.705356
Si Si4 0.115643 0.290175 0.782451
Si Si5 0.842027 0.424629 0.272144
Si Si6 0.806728 0.090696 0.413006
Si Si7 0.280806 0.945887 0.086702
Si Si8 0.192476 0.193689 0.916006
O O1 0.655038 0.294738 0.778600
O O2 0.780477 0.346917 0.763692
O O3 0.714871 0.461297 0.868228
O O4 0.731931 0.199497 0.878095
O O5 0.968117 0.161002 0.500000
O O6 0.991732 0.255827 0.633466
O O7 0.883151 0.124479 0.603598
O O8 0.000000 0.000000 0.604031
O O9 0.091090 0.660269 0.730952
O O10 0.000000 0.500000 0.689571
O O11 0.961512 0.702885 0.764173
O O12 0.144739 0.440079 0.774106
O O13 0.135259 0.230857 0.860248
O O14 0.829831 0.478723 0.355557
O O15 0.803683 0.062012 0.500000
O O16 0.756597 0.212966 0.398815
O O17 0.216525 0.041100 0.089957
O O18 0.301384 0.940646 0.000000
O O19 0.174152 0.220893 0.000000
#
# Coordination Sequence:
#
# PCOD9442200 Si02
#       8
#     8   8   8   8   8   8   8   8
#     4  11  20  34  59  84 114 150 188 238 285 333
#     4  10  21  36  53  80 116 152 186 224 273 344
#     4  10  22  38  55  79 113 151 191 236 283 336
#     4  10  20  36  55  83 110 146 189 238 282 334
#     4  10  20  35  57  82 113 149 190 235 281 343
#     4  10  20  34  57  83 113 148 186 229 280 341
#     4  10  21  35  55  88 121 147 186 238 290 341
#     4  10  19  34  56  80 109 145 185 235 289 339
#
# _framework density 17.389848000000001
#
# number of rings (size 3 to 8) (size 9 to 14) (size 15 to 20)
#    0.000    1.875    2.500    1.875    0.000    1.750 
#    2.250    6.250    0.000    4.875    0.000    1.750 
#    0.000    0.000    0.000    0.000    0.000    0.000 
#
# Total GULP energy -357033.853882 kJ/mol
# GULP energy per Si atom -5578.653967 kJ/mol
# Density = 1.735027 g / cm^3
# Si number density = 17.389848 Si / 1000 Ang^3
#
#
#
# Elastic Constant Matrix: (Units=GPa)
#
#
# Indices 1 2 3 4 5 6 
#
# 1 60.6664 2.7150 38.7757 0.0000 0.0000 0.0000
# 2 2.7150 54.1953 44.7434 0.0000 0.0000 0.0000
# 3 38.7757 44.7434 100.9765 0.0000 0.0000 0.0000
# 4 0.0000 0.0000 0.0000 26.9634 0.0000 0.0000
# 5 0.0000 0.0000 0.0000 0.0000 15.4611 0.0000
# 6 0.0000 0.0000 0.0000 0.0000 0.0000 14.2025
#
#
#
# Elastic Compliance Matrix: (Units=1/GPa)
#
#
# Indices 1 2 3 4 5 6 
#
# 1 0.025197 0.010606 -0.014376 0.000000 0.000000 0.000000
# 2 0.010606 0.033560 -0.018944 0.000000 0.000000 0.000000
# 3 -0.014376 -0.018944 0.023818 0.000000 0.000000 0.000000
# 4 0.000000 0.000000 0.000000 0.037087 0.000000 0.000000
# 5 0.000000 0.000000 0.000000 0.000000 0.064679 0.000000
# 6 0.000000 0.000000 0.000000 0.000000 0.000000 0.070410
#
#
# Mechanical properties :
#
#
# Convention : Reuss Voigt Hill
#
# Bulk Modulus (GPa) = 26.91861 43.14518 35.03189
# Shear Modulus (GPa) = 15.99691 19.96566 17.98128
#
# Velocity S-wave (km/s) = 3.03627 3.39207 3.21909
# Velocity P-wave (km/s) = 5.27305 6.34081 5.83142
#
# Compressibility (1/GPa) = 0.03714903
#
# Stress axis : x y z
#
# Youngs Moduli (GPa) = 39.68680 29.79720 41.98562
#
# Poissons Ratio (x) = -0.31603 0.60357
# Poissons Ratio (y) = -0.42092 0.79536
# Poissons Ratio (z) = 0.57052 0.56447
#
# Static dielectric constant tensor:
#      x y z
#    x 1.587800 0.000000 0.000000 
#    y 0.000000 1.591140 0.000000 
#    z 0.000000 0.000000 1.591590 
# 
# From -- ./inp_files/25674.got.cif
#   From: 2010.05.17/outbox.cif.g08.bks.cpg/sg58_13_cif.got.tgz:25674.got - 2010.06.03 14:20:14.
