data_PCOD9442371
_publ_section_title
;
Structure prediction by ZEFSAII (Michael W. Deem and Ramdas Pophale) SiO2 
 PCOD9442371
Probable space group: P N N M
;
_chemical_formula_sum "Si O2"
_cell_formula_units_Z 64
_cell_length_a 20.560599
_cell_length_b 20.194319
_cell_length_c 8.970880
_cell_angle_alpha 90.000000
_cell_angle_beta 90.000000
_cell_angle_gamma 90.000000
_cell_volume 3724.774819
_symmetry_space_group_name_H-M "P N N M"
_symmetry_group_IT_number 58
_symmetry_cell_setting 'orthorhombic'
loop_
_space_group_symop_operation_xyz
x,y,z
-x,-y,z
1/2+x,1/2-y,1/2-z
1/2-x,1/2+y,1/2-z
-x,-y,-z
x,y,-z
1/2-x,1/2+y,1/2+z
1/2+x,1/2-y,1/2+z
loop_
_atom_site_type_symbol
_atom_site_label
_atom_site_fract_x
_atom_site_fract_y
_atom_site_fract_z
Si Si1 0.472799 0.573046 0.179209
Si Si2 0.837792 0.946954 0.178617
Si Si3 0.201219 0.913287 0.678885
Si Si4 0.915554 0.322885 0.821986
Si Si5 0.972797 0.572876 0.820543
Si Si6 0.196017 0.593858 0.677167
Si Si7 0.664855 0.060287 0.822298
Si Si8 0.082896 0.820000 0.678895
O O1 0.500000 0.500000 0.217972
O O2 0.404188 0.582970 0.259532
O O3 0.525886 0.628305 0.218999
O O4 0.463628 0.574073 0.000000
O O5 0.772609 0.905479 0.214522
O O6 0.827647 0.018819 0.253394
O O7 0.839962 0.954825 0.000000
O O8 0.204088 0.919520 0.500000
O O9 0.273061 0.905630 0.745882
O O10 0.151630 0.854477 0.716781
O O11 0.848896 0.355163 0.763370
O O12 0.924896 0.250302 0.755779
O O13 0.974180 0.372244 0.777355
O O14 0.914403 0.320190 0.000000
O O15 0.903630 0.583199 0.743069
O O16 0.000000 0.500000 0.780710
O O17 0.964596 0.574318 0.000000
O O18 0.189022 0.604793 0.500000
O O19 0.172516 0.518613 0.709153
O O20 0.667830 0.068799 0.000000
O O21 0.081133 0.811729 0.500000
#
# Coordination Sequence:
#
# PCOD9442371 Si02
#       8
#     8   8   8   8   8   8   8   8
#     4  10  19  36  58  83 112 147 192 231 275 338
#     4  10  20  33  54  87 116 141 180 234 283 322
#     4  10  19  35  57  80 110 149 185 225 278 336
#     4  11  23  37  57  83 111 147 190 234 280 335
#     4  10  20  36  56  82 114 148 189 232 278 335
#     4   9  19  35  53  78 113 146 180 222 277 336
#     4  10  20  33  55  87 114 140 181 234 282 325
#     4  10  22  39  58  80 112 152 188 228 283 341
#
# _framework density 17.182247
#
# number of rings (size 3 to 8) (size 9 to 14) (size 15 to 20)
#    0.000    2.000    2.500    2.250    0.000    5.500 
#    0.000    1.250    0.000    1.500    0.000    0.000 
#    0.000    0.000    0.000    0.000    0.000    0.000 
#
# Total GULP energy -357260.464855 kJ/mol
# GULP energy per Si atom -5582.194763 kJ/mol
# Density = 1.714314 g / cm^3
# Si number density = 17.182247 Si / 1000 Ang^3
#
#
#
# Elastic Constant Matrix: (Units=GPa)
#
#
# Indices 1 2 3 4 5 6 
#
# 1 170.5605 87.4601 61.4105 0.0000 0.0000 0.0000
# 2 87.4601 123.5172 52.6325 0.0000 0.0000 0.0000
# 3 61.4105 52.6325 42.4769 0.0000 0.0000 0.0000
# 4 0.0000 0.0000 0.0000 27.3372 0.0000 0.0000
# 5 0.0000 0.0000 0.0000 0.0000 30.9391 0.0000
# 6 0.0000 0.0000 0.0000 0.0000 0.0000 21.9966
#
#
#
# Elastic Compliance Matrix: (Units=1/GPa)
#
#
# Indices 1 2 3 4 5 6 
#
# 1 0.012569 -0.002451 -0.015135 0.000000 0.000000 0.000000
# 2 -0.002451 0.017630 -0.018302 0.000000 0.000000 0.000000
# 3 -0.015135 -0.018302 0.068101 0.000000 0.000000 0.000000
# 4 0.000000 0.000000 0.000000 0.036580 0.000000 0.000000
# 5 0.000000 0.000000 0.000000 0.000000 0.032322 0.000000
# 6 0.000000 0.000000 0.000000 0.000000 0.000000 0.045462
#
#
# Mechanical properties :
#
#
# Convention : Reuss Voigt Hill
#
# Bulk Modulus (GPa) = 37.70047 82.17343 59.93695
# Shear Modulus (GPa) = 17.04847 25.05802 21.05325
#
# Velocity S-wave (km/s) = 3.15336 3.82300 3.50421
# Velocity P-wave (km/s) = 5.93695 8.21070 7.16460
#
# Compressibility (1/GPa) = 0.02652487
#
# Stress axis : x y z
#
# Youngs Moduli (GPa) = 79.56064 56.72095 14.68397
#
# Poissons Ratio (x) = 0.13900 0.22224
# Poissons Ratio (y) = 0.19497 0.26875
# Poissons Ratio (z) = 1.20415 1.03812
#
# Static dielectric constant tensor:
#      x y z
#    x 1.579740 0.000000 0.000000 
#    y 0.000000 1.556680 0.000000 
#    z 0.000000 0.000000 1.570780 
# 
# From -- ./inp_files/9309.got.cif
#   From: 2010.05.17/outbox.cif.g08.bks.cpg/sg58_5_cif.got.tgz:9309.got - 2010.06.03 14:20:14.
