data_PCOD9442663
_publ_section_title
;
Structure prediction by ZEFSAII (Michael W. Deem and Ramdas Pophale) SiO2 
 PCOD9442663
Probable space group: P N N M
;
_chemical_formula_sum "Si O2"
_cell_formula_units_Z 58
_cell_length_a 24.698890
_cell_length_b 12.604990
_cell_length_c 9.531955
_cell_angle_alpha 90.000000
_cell_angle_beta 90.000000
_cell_angle_gamma 90.000000
_cell_volume 2967.576510
_symmetry_space_group_name_H-M "P N N M"
_symmetry_group_IT_number 58
_symmetry_cell_setting 'orthorhombic'
loop_
_space_group_symop_operation_xyz
x,y,z
-x,-y,z
1/2+x,1/2-y,1/2-z
1/2-x,1/2+y,1/2-z
-x,-y,-z
x,y,-z
1/2-x,1/2+y,1/2+z
1/2+x,1/2-y,1/2+z
loop_
_atom_site_type_symbol
_atom_site_label
_atom_site_fract_x
_atom_site_fract_y
_atom_site_fract_z
Si Si1 0.896392 0.146946 0.659917
Si Si2 0.662212 0.821069 0.667954
Si Si3 0.969040 0.607991 0.335235
Si Si4 0.984842 0.838204 0.741995
Si Si5 0.155419 0.461237 0.334986
Si Si6 0.132126 0.081724 0.336151
Si Si7 0.000000 0.000000 0.000000
Si Si8 0.216699 0.253821 0.330219
O O1 0.877730 0.166260 0.500000
O O2 0.880829 0.243458 0.759757
O O3 0.961005 0.133401 0.657237
O O4 0.871274 0.037843 0.720928
O O5 0.655549 0.826408 0.500000
O O6 0.721503 0.772710 0.700472
O O7 0.658835 0.935511 0.739620
O O8 0.982553 0.630895 0.500000
O O9 0.984589 0.710552 0.245613
O O10 0.905051 0.586562 0.327546
O O11 0.000000 0.500000 0.296306
O O12 0.927236 0.867126 0.674064
O O13 0.989456 0.909047 0.879321
O O14 0.165488 0.487055 0.500000
O O15 0.196497 0.369565 0.285556
O O16 0.145009 0.068081 0.500000
O O17 0.176592 0.161711 0.274948
O O18 0.210638 0.254588 0.500000
#
# Coordination Sequence:
#
# PCOD9442663 Si02
#       8
#     8   8   8   8   8   8   2   8
#     4  11  23  38  66  97 123 162 219 266 309 375
#     4  11  25  41  61  89 134 173 205 258 331 389
#     4  10  20  37  65  97 123 159 213 276 323 376
#     4  12  22  41  63  91 132 171 208 264 331 386
#     4  10  20  40  66  91 122 157 214 271 312 368
#     4  10  19  37  66  93 115 152 211 270 313 364
#     4  12  28  40  56  92 148 180 206 266 332 422
#     4   9  20  39  63  90 119 161 207 263 319 375
#
# _framework density 19.544568000000002
#
# number of rings (size 3 to 8) (size 9 to 14) (size 15 to 20)
#    0.000    1.517    2.759    2.483    2.897    2.207 
#    1.241    1.034    3.034    0.000    0.000    0.000 
#    0.000    0.000    0.000    0.000    0.000    0.000 
#
# Total GULP energy -323212.006323 kJ/mol
# GULP energy per Si atom -5572.620799 kJ/mol
# Density = 1.950008 g / cm^3
# Si number density = 19.544568 Si / 1000 Ang^3
#
#
#
# Elastic Constant Matrix: (Units=GPa)
#
#
# Indices 1 2 3 4 5 6 
#
# 1 50.8269 9.0593 17.9689 0.0000 0.0000 0.0000
# 2 9.0593 125.6148 42.5291 0.0000 0.0000 0.0000
# 3 17.9689 42.5291 65.8315 0.0000 0.0000 0.0000
# 4 0.0000 0.0000 0.0000 30.8137 0.0000 0.0000
# 5 0.0000 0.0000 0.0000 0.0000 30.2654 0.0000
# 6 0.0000 0.0000 0.0000 0.0000 0.0000 23.4172
#
#
#
# Elastic Compliance Matrix: (Units=1/GPa)
#
#
# Indices 1 2 3 4 5 6 
#
# 1 0.021807 0.000566 -0.006318 0.000000 0.000000 0.000000
# 2 0.000566 0.010204 -0.006747 0.000000 0.000000 0.000000
# 3 -0.006318 -0.006747 0.021274 0.000000 0.000000 0.000000
# 4 0.000000 0.000000 0.000000 0.032453 0.000000 0.000000
# 5 0.000000 0.000000 0.000000 0.000000 0.033041 0.000000
# 6 0.000000 0.000000 0.000000 0.000000 0.000000 0.042704
#
#
# Mechanical properties :
#
#
# Convention : Reuss Voigt Hill
#
# Bulk Modulus (GPa) = 35.35100 42.37641 38.86371
# Shear Modulus (GPa) = 25.52194 28.41364 26.96779
#
# Velocity S-wave (km/s) = 3.61755 3.81699 3.71861
# Velocity P-wave (km/s) = 5.96452 6.41521 6.19397
#
# Compressibility (1/GPa) = 0.02828774
#
# Stress axis : x y z
#
# Youngs Moduli (GPa) = 45.85600 97.99822 47.00668
#
# Poissons Ratio (x) = -0.05551 0.29700
# Poissons Ratio (y) = -0.02597 0.31715
# Poissons Ratio (z) = 0.28973 0.66118
#
# Static dielectric constant tensor:
#      x y z
#    x 1.698250 0.000000 0.000000 
#    y 0.000000 1.702600 0.000000 
#    z 0.000000 0.000000 1.649990 
# 
# From -- ./inp_files/10414.got.cif
#   From: 2010.05.17/outbox.cif.g08.bks.cpg/sg58_6_cif.got.tgz:10414.got - 2010.06.03 14:20:14.
