data_PCOD9442972
_publ_section_title
;
Structure prediction by ZEFSAII (Michael W. Deem and Ramdas Pophale) SiO2 
 PCOD9442972
Probable space group: P N N M
;
_chemical_formula_sum "Si O2"
_cell_formula_units_Z 64
_cell_length_a 13.824075
_cell_length_b 9.577767
_cell_length_c 22.990924
_cell_angle_alpha 90.000000
_cell_angle_beta 90.000000
_cell_angle_gamma 90.000000
_cell_volume 3044.084998
_symmetry_space_group_name_H-M "P N N M"
_symmetry_group_IT_number 58
_symmetry_cell_setting 'orthorhombic'
loop_
_space_group_symop_operation_xyz
x,y,z
-x,-y,z
1/2+x,1/2-y,1/2-z
1/2-x,1/2+y,1/2-z
-x,-y,-z
x,y,-z
1/2-x,1/2+y,1/2+z
1/2+x,1/2-y,1/2+z
loop_
_atom_site_type_symbol
_atom_site_label
_atom_site_fract_x
_atom_site_fract_y
_atom_site_fract_z
Si Si1 0.473042 0.839181 0.933412
Si Si2 0.850740 0.652261 0.178429
Si Si3 0.903832 0.453079 0.281991
Si Si4 0.701899 0.992070 0.566058
Si Si5 0.632648 0.638337 0.773053
Si Si6 0.087514 0.911673 0.601996
Si Si7 0.251451 0.828979 0.068849
Si Si8 0.313293 0.533063 0.335364
O O1 0.555635 0.749015 0.902452
O O2 0.363856 0.819930 0.910413
O O3 0.500000 0.000000 0.936782
O O4 0.471022 0.785422 0.000000
O O5 0.903391 0.561658 0.227922
O O6 0.854065 0.567011 0.118217
O O7 0.743402 0.656899 0.206521
O O8 0.863768 0.815442 0.163246
O O9 0.912012 0.290932 0.264655
O O10 0.799840 0.459891 0.314047
O O11 0.000000 0.500000 0.316463
O O12 0.668167 0.017965 0.500000
O O13 0.811575 0.051520 0.572525
O O14 0.707687 0.825650 0.576148
O O15 0.593712 0.557656 0.829343
O O16 0.631623 0.553590 0.714058
O O17 0.000000 0.000000 0.576139
O O18 0.194802 0.945487 0.105285
O O19 0.253494 0.862556 0.000000
#
# Coordination Sequence:
#
# PCOD9442972 Si02
#       8
#     8   8   8   8   8   8   8   8
#     4  10  22  34  47  73 113 153 189 229 273 323
#     4   9  20  37  54  77 105 142 182 233 280 329
#     4  10  21  35  58  81 105 145 191 231 278 336
#     4  10  20  34  54  78 107 146 188 224 275 338
#     4   9  21  35  50  76 106 148 182 225 284 327
#     4  11  21  33  52  77 114 150 191 229 273 334
#     4  10  21  34  53  78 107 148 186 224 275 330
#     4  10  21  38  55  77 116 147 185 236 281 336
#
# _framework density 21.024380000000001
#
# number of rings (size 3 to 8) (size 9 to 14) (size 15 to 20)
#    0.000    2.125    1.250    1.125    7.000    5.000 
#    0.000    0.000    0.000    0.375    0.000    0.000 
#    0.000    4.500    0.000    0.000    0.000    0.000 
#
# Total GULP energy -357073.537772 kJ/mol
# GULP energy per Si atom -5579.274028 kJ/mol
# Density = 2.097653 g / cm^3
# Si number density = 21.024380 Si / 1000 Ang^3
#
#
#
# Elastic Constant Matrix: (Units=GPa)
#
#
# Indices 1 2 3 4 5 6 
#
# 1 14.2344 -1.0923 0.6855 0.0000 0.0000 0.0000
# 2 -1.0923 100.5497 43.2196 0.0000 0.0000 0.0000
# 3 0.6855 43.2196 113.0673 0.0000 0.0000 0.0000
# 4 0.0000 0.0000 0.0000 22.0199 0.0000 0.0000
# 5 0.0000 0.0000 0.0000 0.0000 13.6769 0.0000
# 6 0.0000 0.0000 0.0000 0.0000 0.0000 19.0653
#
#
#
# Elastic Compliance Matrix: (Units=1/GPa)
#
#
# Indices 1 2 3 4 5 6 
#
# 1 0.070381 0.001134 -0.000860 0.000000 0.000000 0.000000
# 2 0.001134 0.011919 -0.004563 0.000000 0.000000 0.000000
# 3 -0.000860 -0.004563 0.010594 0.000000 0.000000 0.000000
# 4 0.000000 0.000000 0.000000 0.045414 0.000000 0.000000
# 5 0.000000 0.000000 0.000000 0.000000 0.073116 0.000000
# 6 0.000000 0.000000 0.000000 0.000000 0.000000 0.052451
#
#
# Mechanical properties :
#
#
# Convention : Reuss Voigt Hill
#
# Bulk Modulus (GPa) = 11.86015 34.83077 23.34546
# Shear Modulus (GPa) = 16.63578 23.28833 19.96206
#
# Velocity S-wave (km/s) = 2.81599 3.33180 3.08469
# Velocity P-wave (km/s) = 4.02821 5.60392 4.88008
#
# Compressibility (1/GPa) = 0.08431594
#
# Stress axis : x y z
#
# Youngs Moduli (GPa) = 14.20839 83.90031 94.39635
#
# Poissons Ratio (x) = -0.09517 0.08121
# Poissons Ratio (y) = -0.01612 0.43071
# Poissons Ratio (z) = 0.01222 0.38282
#
# Static dielectric constant tensor:
#      x y z
#    x 1.794090 0.000000 0.000000 
#    y 0.000000 1.776560 0.000000 
#    z 0.000000 0.000000 1.772230 
# 
# From -- ./inp_files/32225.got.cif
#   From: 2010.05.17/outbox.cif.g08.bks.cpg/sg58_17_cif.got.tgz:32225.got - 2010.06.03 14:20:14.
