data_PCOD9442472
_publ_section_title
;
Structure prediction by ZEFSAII (Michael W. Deem and Ramdas Pophale) SiO2 
 PCOD9442472
Probable space group: P N N M
;
_chemical_formula_sum "Si O2"
_cell_formula_units_Z 56
_cell_length_a 12.829257
_cell_length_b 12.112119
_cell_length_c 17.467912
_cell_angle_alpha 90.000000
_cell_angle_beta 90.000000
_cell_angle_gamma 90.000000
_cell_volume 2714.329893
_symmetry_space_group_name_H-M "P N N M"
_symmetry_group_IT_number 58
_symmetry_cell_setting 'orthorhombic'
loop_
_space_group_symop_operation_xyz
x,y,z
-x,-y,z
1/2+x,1/2-y,1/2-z
1/2-x,1/2+y,1/2-z
-x,-y,-z
x,y,-z
1/2-x,1/2+y,1/2+z
1/2+x,1/2-y,1/2+z
loop_
_atom_site_type_symbol
_atom_site_label
_atom_site_fract_x
_atom_site_fract_y
_atom_site_fract_z
Si Si1 0.935503 0.113312 0.088393
Si Si2 0.666577 0.881808 0.090991
Si Si3 0.937548 0.159043 0.410554
Si Si4 0.785571 0.599587 0.333185
Si Si5 0.762661 0.549383 0.156332
Si Si6 0.873012 0.751112 0.091282
Si Si7 0.823455 0.833477 0.408644
O O1 0.833831 0.095201 0.138054
O O2 0.015479 0.205681 0.119399
O O3 0.904943 0.138802 0.000000
O O4 0.000000 0.000000 0.086579
O O5 0.578858 0.789679 0.104823
O O6 0.776161 0.827134 0.119349
O O7 0.651982 0.001019 0.126314
O O8 0.676112 0.895428 0.000000
O O9 0.907352 0.141059 0.500000
O O10 0.852659 0.097837 0.360049
O O11 0.056819 0.125988 0.401894
O O12 0.789371 0.572417 0.243948
O O13 0.819515 0.719985 0.361562
O O14 0.842374 0.626125 0.109267
O O15 0.754300 0.423782 0.127487
O O16 0.876347 0.766526 0.000000
O O17 0.803667 0.817858 0.500000
#
# Coordination Sequence:
#
# PCOD9442472 Si02
#       7
#     8   8   8   8   8   8   8
#     4  10  19  35  61  89 113 150 207 257 296 357
#     4   9  17  35  61  88 117 153 200 250 307 365
#     4   9  20  40  68  91 114 159 213 257 302 376
#     4  12  25  35  59  91 133 160 196 257 320 374
#     4  11  24  38  61  88 127 164 202 257 315 377
#     4   9  18  36  63  85 111 156 209 254 296 359
#     4  11  24  43  64  91 125 166 215 258 308 378
#
# _framework density 20.631242
#
# number of rings (size 3 to 8) (size 9 to 14) (size 15 to 20)
#    0.000    1.857    1.429    3.857    4.000    4.000 
#    0.000    2.857    3.143    2.571    0.000    0.000 
#    0.000    0.000    0.000    0.000    0.000    0.000 
#
# Total GULP energy -312698.038958 kJ/mol
# GULP energy per Si atom -5583.893553 kJ/mol
# Density = 2.058428 g / cm^3
# Si number density = 20.631242 Si / 1000 Ang^3
#
#
#
# Elastic Constant Matrix: (Units=GPa)
#
#
# Indices 1 2 3 4 5 6 
#
# 1 29.7893 -5.6000 4.1137 0.0000 0.0000 0.0000
# 2 -5.6000 109.3197 28.8145 0.0000 0.0000 0.0000
# 3 4.1137 28.8145 45.1343 0.0000 0.0000 0.0000
# 4 0.0000 0.0000 0.0000 17.9707 0.0000 0.0000
# 5 0.0000 0.0000 0.0000 0.0000 11.7960 0.0000
# 6 0.0000 0.0000 0.0000 0.0000 0.0000 34.7245
#
#
#
# Elastic Compliance Matrix: (Units=1/GPa)
#
#
# Indices 1 2 3 4 5 6 
#
# 1 0.034880 0.003156 -0.005194 0.000000 0.000000 0.000000
# 2 0.003156 0.011284 -0.007491 0.000000 0.000000 0.000000
# 3 -0.005194 -0.007491 0.027412 0.000000 0.000000 0.000000
# 4 0.000000 0.000000 0.000000 0.055646 0.000000 0.000000
# 5 0.000000 0.000000 0.000000 0.000000 0.084774 0.000000
# 6 0.000000 0.000000 0.000000 0.000000 0.000000 0.028798
#
#
# Mechanical properties :
#
#
# Convention : Reuss Voigt Hill
#
# Bulk Modulus (GPa) = 18.34302 26.54443 22.44373
# Shear Modulus (GPa) = 17.85556 23.35925 20.60740
#
# Velocity S-wave (km/s) = 2.94507 3.36851 3.16388
# Velocity P-wave (km/s) = 4.52490 5.29369 4.92432
#
# Compressibility (1/GPa) = 0.05451664
#
# Stress axis : x y z
#
# Youngs Moduli (GPa) = 28.67007 88.62343 36.48032
#
# Poissons Ratio (x) = -0.27967 0.18947
# Poissons Ratio (y) = -0.09047 0.27329
# Poissons Ratio (z) = 0.14890 0.66391
#
# Static dielectric constant tensor:
#      x y z
#    x 1.732070 0.000000 0.000000 
#    y 0.000000 1.784180 0.000000 
#    z 0.000000 0.000000 1.628530 
# 
# From -- ./inp_files/22188.got.cif
#   From: 2010.05.17/outbox.cif.g08.bks.cpg/sg58_12_cif.got.tgz:22188.got - 2010.06.03 14:20:14.
