data_PCOD9442209
_publ_section_title
;
Structure prediction by ZEFSAII (Michael W. Deem and Ramdas Pophale) SiO2 
 PCOD9442209
Probable space group: P N N M
;
_chemical_formula_sum "Si O2"
_cell_formula_units_Z 64
_cell_length_a 22.772077
_cell_length_b 10.300655
_cell_length_c 13.872862
_cell_angle_alpha 90.000000
_cell_angle_beta 90.000000
_cell_angle_gamma 90.000000
_cell_volume 3254.119905
_symmetry_space_group_name_H-M "P N N M"
_symmetry_group_IT_number 58
_symmetry_cell_setting 'orthorhombic'
loop_
_space_group_symop_operation_xyz
x,y,z
-x,-y,z
1/2+x,1/2-y,1/2-z
1/2-x,1/2+y,1/2-z
-x,-y,-z
x,y,-z
1/2-x,1/2+y,1/2+z
1/2+x,1/2-y,1/2+z
loop_
_atom_site_type_symbol
_atom_site_label
_atom_site_fract_x
_atom_site_fract_y
_atom_site_fract_z
Si Si1 0.078510 0.234960 0.785079
Si Si2 0.201879 0.375684 0.202305
Si Si3 0.296919 0.224251 0.893836
Si Si4 0.965864 0.301011 0.109429
Si Si5 0.628355 0.902523 0.754013
Si Si6 0.558474 0.088849 0.112304
Si Si7 0.235338 0.940847 0.891973
Si Si8 0.904086 0.022440 0.890253
O O1 0.144466 0.285599 0.802074
O O2 0.057711 0.283329 0.679500
O O3 0.033015 0.303678 0.857631
O O4 0.077874 0.083905 0.811844
O O5 0.249543 0.334980 0.124704
O O6 0.178327 0.522255 0.194849
O O7 0.233312 0.363860 0.306443
O O8 0.345009 0.219677 0.809575
O O9 0.261023 0.087924 0.887234
O O10 0.323460 0.232562 0.000000
O O11 0.925970 0.376559 0.185489
O O12 0.942304 0.152632 0.115029
O O13 0.958323 0.346250 0.000000
O O14 0.608830 0.000501 0.839257
O O15 0.500000 0.000000 0.119747
O O16 0.569036 0.115768 0.000000
O O17 0.165025 0.944993 0.879828
O O18 0.248009 0.891383 0.000000
O O19 0.911725 0.968505 0.000000
#
# Coordination Sequence:
#
# PCOD9442209 Si02
#       8
#     8   8   8   8   8   8   8   8
#     4  11  21  36  58  88 121 155 197 251 298 355
#     4  10  21  33  56  86 118 149 193 245 299 350
#     4  10  19  34  56  82 112 150 194 238 290 352
#     4  11  23  38  58  87 123 162 200 244 301 364
#     4  10  21  38  59  88 119 155 196 249 302 356
#     4  10  20  38  62  86 115 156 204 247 295 353
#     4   9  18  35  58  83 110 148 195 239 290 353
#     4  10  20  37  62  87 117 158 201 243 298 367
#
# _framework density 19.667376999999998
#
# number of rings (size 3 to 8) (size 9 to 14) (size 15 to 20)
#    0.000    1.875    2.500    1.875    0.000    5.000 
#    0.000    6.250    0.000    6.000    0.000    0.000 
#    0.000    0.000    0.000    0.000    0.000    0.000 
#
# Total GULP energy -357206.281953 kJ/mol
# GULP energy per Si atom -5581.348156 kJ/mol
# Density = 1.962261 g / cm^3
# Si number density = 19.667377 Si / 1000 Ang^3
#
#
#
# Elastic Constant Matrix: (Units=GPa)
#
#
# Indices 1 2 3 4 5 6 
#
# 1 69.6870 6.8914 30.5051 0.0000 0.0000 0.0000
# 2 6.8914 36.4281 29.5488 0.0000 0.0000 0.0000
# 3 30.5051 29.5488 106.4928 0.0000 0.0000 0.0000
# 4 0.0000 0.0000 0.0000 32.4643 0.0000 0.0000
# 5 0.0000 0.0000 0.0000 0.0000 29.0038 0.0000
# 6 0.0000 0.0000 0.0000 0.0000 0.0000 24.2919
#
#
#
# Elastic Compliance Matrix: (Units=1/GPa)
#
#
# Indices 1 2 3 4 5 6 
#
# 1 0.016431 0.000916 -0.004961 0.000000 0.000000 0.000000
# 2 0.000916 0.035475 -0.010106 0.000000 0.000000 0.000000
# 3 -0.004961 -0.010106 0.013615 0.000000 0.000000 0.000000
# 4 0.000000 0.000000 0.000000 0.030803 0.000000 0.000000
# 5 0.000000 0.000000 0.000000 0.000000 0.034478 0.000000
# 6 0.000000 0.000000 0.000000 0.000000 0.000000 0.041166
#
#
# Mechanical properties :
#
#
# Convention : Reuss Voigt Hill
#
# Bulk Modulus (GPa) = 26.86734 38.49984 32.68359
# Shear Modulus (GPa) = 23.50978 26.86283 25.18631
#
# Velocity S-wave (km/s) = 3.46116 3.69976 3.58245
# Velocity P-wave (km/s) = 5.44641 6.15377 5.81087
#
# Compressibility (1/GPa) = 0.03721991
#
# Stress axis : x y z
#
# Youngs Moduli (GPa) = 60.86105 28.18850 73.44638
#
# Poissons Ratio (x) = -0.02581 0.36435
# Poissons Ratio (y) = -0.05572 0.74223
# Poissons Ratio (z) = 0.30191 0.28487
#
# Static dielectric constant tensor:
#      x y z
#    x 1.715810 0.000000 0.000000 
#    y 0.000000 1.711520 0.000000 
#    z 0.000000 0.000000 1.686010 
# 
# From -- ./inp_files/17557.got.cif
#   From: 2010.05.17/outbox.cif.g08.bks.cpg/sg58_9_cif.got.tgz:17557.got - 2010.06.03 14:20:14.
