data_PCOD9442779
_publ_section_title
;
Structure prediction by ZEFSAII (Michael W. Deem and Ramdas Pophale) SiO2 
 PCOD9442779
Probable space group: P N N M
;
_chemical_formula_sum "Si O2"
_cell_formula_units_Z 52
_cell_length_a 14.233087
_cell_length_b 18.578964
_cell_length_c 7.292179
_cell_angle_alpha 90.000000
_cell_angle_beta 90.000000
_cell_angle_gamma 90.000000
_cell_volume 1928.314726
_symmetry_space_group_name_H-M "P N N M"
_symmetry_group_IT_number 58
_symmetry_cell_setting 'orthorhombic'
loop_
_space_group_symop_operation_xyz
x,y,z
-x,-y,z
1/2+x,1/2-y,1/2-z
1/2-x,1/2+y,1/2-z
-x,-y,-z
x,y,-z
1/2-x,1/2+y,1/2+z
1/2+x,1/2-y,1/2+z
loop_
_atom_site_type_symbol
_atom_site_label
_atom_site_fract_x
_atom_site_fract_y
_atom_site_fract_z
Si Si1 0.141553 0.261942 0.786691
Si Si2 0.672527 0.476958 0.221730
Si Si3 0.560149 0.085437 0.286671
Si Si4 0.143468 0.614236 0.220063
Si Si5 0.655761 0.717246 0.787394
Si Si6 0.726998 0.060373 0.000000
Si Si7 0.480472 0.629886 0.206675
O O1 0.069565 0.327401 0.781347
O O2 0.239980 0.290246 0.704704
O O3 0.099426 0.191989 0.695679
O O4 0.157319 0.243254 0.000000
O O5 0.760804 0.425028 0.278024
O O6 0.693310 0.547604 0.336851
O O7 0.576613 0.437804 0.280868
O O8 0.674510 0.485221 0.000000
O O9 0.574821 0.063530 0.500000
O O10 0.452482 0.072800 0.228543
O O11 0.643982 0.062377 0.158373
O O12 0.139863 0.696732 0.282912
O O13 0.143953 0.616287 0.000000
O O14 0.568199 0.672976 0.709277
O O15 0.663274 0.695522 0.000000
O O16 0.506946 0.608218 0.000000
#
# Coordination Sequence:
#
# PCOD9442779 Si02
#       7
#     8   8   8   8   8   4   8
#     4  10  20  34  57  87 122 154 196 252 309 363
#     4  10  23  40  58  86 122 158 207 253 299 361
#     4  10  23  40  58  86 122 158 207 253 299 361
#     4  10  20  34  53  86 123 158 195 247 302 365
#     4  10  20  32  56  89 122 159 194 238 311 381
#     4  12  26  41  66  83 118 176 210 249 300 355
#     4  10  20  34  57  87 122 154 196 252 309 363
#
# _framework density 26.966553000000001
#
# number of rings (size 3 to 8) (size 9 to 14) (size 15 to 20)
#    0.000    1.846    3.077    0.462    4.308    1.231 
#    0.000    2.308    0.000    1.846    0.000    5.385 
#    0.000    0.000    0.000    0.000    0.000    0.000 
#
# Total GULP energy -290153.878636 kJ/mol
# GULP energy per Si atom -5579.882281 kJ/mol
# Density = 2.690518 g / cm^3
# Si number density = 26.966553 Si / 1000 Ang^3
#
#
#
# Elastic Constant Matrix: (Units=GPa)
#
#
# Indices 1 2 3 4 5 6 
#
# 1 147.5726 68.8636 1.0742 0.0000 0.0000 0.0000
# 2 68.8636 72.6906 16.2853 0.0000 0.0000 0.0000
# 3 1.0742 16.2853 121.1612 0.0000 0.0000 0.0000
# 4 0.0000 0.0000 0.0000 10.5397 0.0000 0.0000
# 5 0.0000 0.0000 0.0000 0.0000 18.0257 0.0000
# 6 0.0000 0.0000 0.0000 0.0000 0.0000 75.7358
#
#
#
# Elastic Compliance Matrix: (Units=1/GPa)
#
#
# Indices 1 2 3 4 5 6 
#
# 1 0.012410 -0.012096 0.001516 0.000000 0.000000 0.000000
# 2 -0.012096 0.025974 -0.003384 0.000000 0.000000 0.000000
# 3 0.001516 -0.003384 0.008695 0.000000 0.000000 0.000000
# 4 0.000000 0.000000 0.000000 0.094880 0.000000 0.000000
# 5 0.000000 0.000000 0.000000 0.000000 0.055476 0.000000
# 6 0.000000 0.000000 0.000000 0.000000 0.000000 0.013204
#
#
# Mechanical properties :
#
#
# Convention : Reuss Voigt Hill
#
# Bulk Modulus (GPa) = 52.21785 57.09674 54.65729
# Shear Modulus (GPa) = 20.41227 37.87365 29.14296
#
# Velocity S-wave (km/s) = 2.75425 3.75169 3.29098
# Velocity P-wave (km/s) = 5.43328 6.32345 5.89519
#
# Compressibility (1/GPa) = 0.01915054
#
# Stress axis : x y z
#
# Youngs Moduli (GPa) = 80.58137 38.49960 115.01037
#
# Poissons Ratio (x) = 0.46569 -0.17433
# Poissons Ratio (y) = 0.97472 0.38919
# Poissons Ratio (z) = -0.12215 0.13028
#
# Static dielectric constant tensor:
#      x y z
#    x 2.106870 0.000000 0.000000 
#    y 0.000000 2.191810 0.000000 
#    z 0.000000 0.000000 2.009740 
# 
# From -- ./inp_files/6163.got.cif
#   From: 2010.05.17/outbox.cif.g08.bks.cpg/sg58_4_cif.got.tgz:6163.got - 2010.06.03 14:20:14.
