data_PCOD9442811
_publ_section_title
;
Structure prediction by ZEFSAII (Michael W. Deem and Ramdas Pophale) SiO2 
 PCOD9442811
Probable space group: P N N M
;
_chemical_formula_sum "Si O2"
_cell_formula_units_Z 48
_cell_length_a 13.998886
_cell_length_b 24.239686
_cell_length_c 8.820686
_cell_angle_alpha 90.000000
_cell_angle_beta 90.000000
_cell_angle_gamma 90.000000
_cell_volume 2993.111040
_symmetry_space_group_name_H-M "P N N M"
_symmetry_group_IT_number 58
_symmetry_cell_setting 'orthorhombic'
loop_
_space_group_symop_operation_xyz
x,y,z
-x,-y,z
1/2+x,1/2-y,1/2-z
1/2-x,1/2+y,1/2-z
-x,-y,-z
x,y,-z
1/2-x,1/2+y,1/2+z
1/2+x,1/2-y,1/2+z
loop_
_atom_site_type_symbol
_atom_site_label
_atom_site_fract_x
_atom_site_fract_y
_atom_site_fract_z
Si Si1 0.605424 0.228881 0.681445
Si Si2 0.393648 0.557267 0.818135
Si Si3 0.284258 0.668334 0.181527
Si Si4 0.396404 0.440110 0.319554
Si Si5 0.100824 0.722464 0.681258
Si Si6 0.294245 0.337152 0.819338
O O1 0.601180 0.234994 0.500000
O O2 0.643062 0.285993 0.752899
O O3 0.502674 0.214129 0.747333
O O4 0.687280 0.183674 0.715539
O O5 0.323442 0.607661 0.781933
O O6 0.498856 0.569972 0.752524
O O7 0.363470 0.498999 0.746724
O O8 0.400511 0.551972 0.000000
O O9 0.181385 0.682258 0.251601
O O10 0.280388 0.674066 0.000000
O O11 0.404932 0.443441 0.500000
O O12 0.328168 0.390501 0.269965
O O13 0.097557 0.716856 0.500000
O O14 0.137660 0.784733 0.715070
O O15 0.300844 0.347679 0.000000
#
# Coordination Sequence:
#
# PCOD9442811 Si02
#       6
#     8   8   8   8   8   8
#     4  10  20  33  51  74 101 132 164 201 243 289
#     4  10  20  34  51  70  98 133 162 195 242 294
#     4  10  20  33  51  74  99 130 166 201 242 291
#     4  11  21  31  49  75  99 126 162 204 243 282
#     4  10  20  33  51  74 101 132 163 200 245 291
#     4   9  19  34  49  69  99 133 163 193 239 293
#
# _framework density 16.036823999999999
#
# number of rings (size 3 to 8) (size 9 to 14) (size 15 to 20)
#    0.000    2.000    0.000    6.500    0.000   10.667 
#    0.000    0.000    0.000    1.000    0.000    7.000 
#    0.000    0.000    0.000    0.000    0.000    0.000 
#
# Total GULP energy -267981.415208 kJ/mol
# GULP energy per Si atom -5582.946150 kJ/mol
# Density = 1.600032 g / cm^3
# Si number density = 16.036824 Si / 1000 Ang^3
#
#
#
# Elastic Constant Matrix: (Units=GPa)
#
#
# Indices 1 2 3 4 5 6 
#
# 1 113.1850 77.9514 59.5691 0.0000 0.0000 0.0000
# 2 77.9514 127.1558 72.6980 0.0000 0.0000 0.0000
# 3 59.5691 72.6980 86.5616 0.0000 0.0000 0.0000
# 4 0.0000 0.0000 0.0000 27.3043 0.0000 0.0000
# 5 0.0000 0.0000 0.0000 0.0000 29.5094 0.0000
# 6 0.0000 0.0000 0.0000 0.0000 0.0000 17.8504
#
#
#
# Elastic Compliance Matrix: (Units=1/GPa)
#
#
# Indices 1 2 3 4 5 6 
#
# 1 0.016557 -0.006994 -0.005520 0.000000 0.000000 0.000000
# 2 -0.006994 0.018083 -0.010374 0.000000 0.000000 0.000000
# 3 -0.005520 -0.010374 0.024063 0.000000 0.000000 0.000000
# 4 0.000000 0.000000 0.000000 0.036624 0.000000 0.000000
# 5 0.000000 0.000000 0.000000 0.000000 0.033888 0.000000
# 6 0.000000 0.000000 0.000000 0.000000 0.000000 0.056021
#
#
# Mechanical properties :
#
#
# Convention : Reuss Voigt Hill
#
# Bulk Modulus (GPa) = 77.35334 83.03773 80.19554
# Shear Modulus (GPa) = 21.24746 22.71173 21.97960
#
# Velocity S-wave (km/s) = 3.64389 3.76736 3.70614
# Velocity P-wave (km/s) = 8.12671 8.41521 8.27222
#
# Compressibility (1/GPa) = 0.01292769
#
# Stress axis : x y z
#
# Youngs Moduli (GPa) = 60.39596 55.30073 41.55683
#
# Poissons Ratio (x) = 0.38679 0.22940
# Poissons Ratio (y) = 0.42243 0.43109
# Poissons Ratio (z) = 0.33340 0.57366
#
# Static dielectric constant tensor:
#      x y z
#    x 1.518320 0.000000 0.000000 
#    y 0.000000 1.522300 0.000000 
#    z 0.000000 0.000000 1.534140 
# 
# From -- ./inp_files/4262.got.cif
#   From: 2010.05.17/outbox.cif.g08.bks.cpg/sg58_3_cif.got.tgz:4262.got - 2010.06.03 14:20:14.
