data_PCOD9442653
_publ_section_title
;
Structure prediction by ZEFSAII (Michael W. Deem and Ramdas Pophale) SiO2 
 PCOD9442653
Probable space group: P N N M
;
_chemical_formula_sum "Si O2"
_cell_formula_units_Z 24
_cell_length_a 8.546140
_cell_length_b 24.882535
_cell_length_c 5.374898
_cell_angle_alpha 90.000000
_cell_angle_beta 90.000000
_cell_angle_gamma 90.000000
_cell_volume 1142.970058
_symmetry_space_group_name_H-M "P N N M"
_symmetry_group_IT_number 58
_symmetry_cell_setting 'orthorhombic'
loop_
_space_group_symop_operation_xyz
x,y,z
-x,-y,z
1/2+x,1/2-y,1/2-z
1/2-x,1/2+y,1/2-z
-x,-y,-z
x,y,-z
1/2-x,1/2+y,1/2+z
1/2+x,1/2-y,1/2+z
loop_
_atom_site_type_symbol
_atom_site_label
_atom_site_fract_x
_atom_site_fract_y
_atom_site_fract_z
Si Si1 0.701183 0.155092 0.500000
Si Si2 0.812480 0.489529 0.500000
Si Si3 0.440288 0.667522 0.000000
Si Si4 0.744161 0.363311 0.500000
Si Si5 0.660278 0.034273 0.500000
Si Si6 0.935553 0.704135 0.500000
O O1 0.619109 0.096926 0.500000
O O2 0.654191 0.186569 0.250615
O O3 0.885440 0.144315 0.500000
O O4 0.785296 0.426276 0.500000
O O5 0.751414 0.517636 0.749399
O O6 0.000000 0.500000 0.500000
O O7 0.350396 0.650156 0.750762
O O8 0.456408 0.732108 0.000000
O O9 0.900219 0.327200 0.500000
O O10 0.500000 0.000000 0.500000
#
# Coordination Sequence:
#
# PCOD9442653 Si02
#       6
#     4   4   4   4   4   4
#     4  12  25  43  68  99 133 173 220 274 326 388
#     4  10  20  38  63  92 119 159 217 267 308 375
#     4  12  26  43  62  99 140 170 211 275 339 381
#     4  12  25  44  69  98 133 174 219 272 325 388
#     4  10  19  37  63  92 119 158 217 269 309 375
#     4  12  23  43  69  94 128 182 226 259 313 401
#
# _framework density 20.997926
#
# number of rings (size 3 to 8) (size 9 to 14) (size 15 to 20)
#    0.000    0.667    0.000   11.000    0.000    0.000 
#    0.000    5.000    0.000    0.000    0.000    0.000 
#    0.000    0.000    0.000    0.000    0.000    0.000 
#
# Total GULP energy -134307.414276 kJ/mol
# GULP energy per Si atom -5596.142261 kJ/mol
# Density = 2.095013 g / cm^3
# Si number density = 20.997926 Si / 1000 Ang^3
#
#
#
# Elastic Constant Matrix: (Units=GPa)
#
#
# Indices 1 2 3 4 5 6 
#
# 1 67.7135 -35.7172 28.3058 0.0000 0.0000 0.0000
# 2 -35.7172 99.7390 11.1305 0.0000 0.0000 0.0000
# 3 28.3058 11.1305 207.7807 0.0000 0.0000 0.0000
# 4 0.0000 0.0000 0.0000 81.8169 0.0000 0.0000
# 5 0.0000 0.0000 0.0000 0.0000 79.3367 0.0000
# 6 0.0000 0.0000 0.0000 0.0000 0.0000 292.4265
#
#
#
# Elastic Compliance Matrix: (Units=1/GPa)
#
#
# Indices 1 2 3 4 5 6 
#
# 1 0.020050 0.007530 -0.003135 0.000000 0.000000 0.000000
# 2 0.007530 0.012914 -0.001718 0.000000 0.000000 0.000000
# 3 -0.003135 -0.001718 0.005332 0.000000 0.000000 0.000000
# 4 0.000000 0.000000 0.000000 0.012222 0.000000 0.000000
# 5 0.000000 0.000000 0.000000 0.000000 0.012605 0.000000
# 6 0.000000 0.000000 0.000000 0.000000 0.000000 0.003420
#
#
# Mechanical properties :
#
#
# Convention : Reuss Voigt Hill
#
# Bulk Modulus (GPa) = 22.90852 42.51905 32.71378
# Shear Modulus (GPa) = 66.01640 115.48362 90.75001
#
# Velocity S-wave (km/s) = 5.61318 7.42408 6.58121
# Velocity P-wave (km/s) = 7.27626 9.68414 8.56523
#
# Compressibility (1/GPa) = 0.04365189
#
# Stress axis : x y z
#
# Youngs Moduli (GPa) = 49.87416 77.43288 187.55268
#
# Poissons Ratio (x) = -0.58307 0.58795
# Poissons Ratio (y) = -0.37555 0.32214
# Poissons Ratio (z) = 0.15635 0.13300
#
# Static dielectric constant tensor:
#      x y z
#    x 1.744790 0.000000 0.000000 
#    y 0.000000 1.734940 0.000000 
#    z 0.000000 0.000000 1.721810 
# 
# From -- ./inp_files/213.got.cif
#   From: 2010.05.17/outbox.cif.g08.bks.cpg/sg58_1_cif.got.tgz:213.got - 2010.06.03 14:20:14.
