data_PCOD9442666
_publ_section_title
;
Structure prediction by ZEFSAII (Michael W. Deem and Ramdas Pophale) SiO2 
 PCOD9442666
Probable space group: P N N M
;
_chemical_formula_sum "Si O2"
_cell_formula_units_Z 56
_cell_length_a 15.477066
_cell_length_b 8.936059
_cell_length_c 19.313276
_cell_angle_alpha 90.000000
_cell_angle_beta 90.000000
_cell_angle_gamma 90.000000
_cell_volume 2671.102840
_symmetry_space_group_name_H-M "P N N M"
_symmetry_group_IT_number 58
_symmetry_cell_setting 'orthorhombic'
loop_
_space_group_symop_operation_xyz
x,y,z
-x,-y,z
1/2+x,1/2-y,1/2-z
1/2-x,1/2+y,1/2-z
-x,-y,-z
x,y,-z
1/2-x,1/2+y,1/2+z
1/2+x,1/2-y,1/2+z
loop_
_atom_site_type_symbol
_atom_site_label
_atom_site_fract_x
_atom_site_fract_y
_atom_site_fract_z
Si Si1 0.590827 0.916174 0.577453
Si Si2 0.720180 0.044176 0.080072
Si Si3 0.832057 0.366456 0.780119
Si Si4 0.443161 0.150635 0.920841
Si Si5 0.912736 0.059326 0.920848
Si Si6 0.483625 0.324222 0.215998
Si Si7 0.336642 0.818738 0.792028
O O1 0.379567 0.036617 0.500000
O O2 0.654902 0.931564 0.642257
O O3 0.577849 0.737470 0.574812
O O4 0.500000 0.000000 0.591073
O O5 0.817721 0.022635 0.108323
O O6 0.674198 0.172144 0.124888
O O7 0.656758 0.902486 0.081989
O O8 0.728783 0.090507 0.000000
O O9 0.909366 0.250705 0.762956
O O10 0.743913 0.278390 0.768282
O O11 0.833945 0.509743 0.731184
O O12 0.461072 0.272092 0.862407
O O13 0.500000 0.000000 0.906282
O O14 0.463074 0.195520 0.000000
O O15 0.911350 0.996955 0.000000
O O16 0.000000 0.000000 0.885926
O O17 0.500000 0.500000 0.220453
O O18 0.574119 0.246852 0.233247
#
# Coordination Sequence:
#
# PCOD9442666 Si02
#       7
#     8   8   8   8   8   8   8
#     4  10  21  39  63  92 124 161 207 263 333 392
#     4  10  19  37  68  97 124 168 219 263 320 388
#     4  12  25  45  65  94 131 175 220 275 330 401
#     4  10  19  37  67  97 129 172 218 268 329 393
#     4   9  18  35  59  90 126 162 208 261 310 375
#     4  12  25  43  65  95 133 175 220 272 332 399
#     4  12  24  44  68  93 128 171 220 272 329 399
#
# _framework density 20.965125
#
# number of rings (size 3 to 8) (size 9 to 14) (size 15 to 20)
#    0.000    1.286    4.286    2.143    0.000    0.857 
#    5.143    0.000    0.000    2.571    0.000    0.000 
#    0.000    0.000    0.000    0.000    0.000    0.000 
#
# Total GULP energy -312678.922833 kJ/mol
# GULP energy per Si atom -5583.552193 kJ/mol
# Density = 2.091741 g / cm^3
# Si number density = 20.965125 Si / 1000 Ang^3
#
#
#
# Elastic Constant Matrix: (Units=GPa)
#
#
# Indices 1 2 3 4 5 6 
#
# 1 129.8286 36.1252 -5.9892 0.0000 0.0000 0.0000
# 2 36.1252 86.0425 19.0726 0.0000 0.0000 0.0000
# 3 -5.9892 19.0726 73.2261 0.0000 0.0000 0.0000
# 4 0.0000 0.0000 0.0000 11.1623 0.0000 0.0000
# 5 0.0000 0.0000 0.0000 0.0000 19.6480 0.0000
# 6 0.0000 0.0000 0.0000 0.0000 0.0000 34.6209
#
#
#
# Elastic Compliance Matrix: (Units=1/GPa)
#
#
# Indices 1 2 3 4 5 6 
#
# 1 0.008943 -0.004157 0.001814 0.000000 0.000000 0.000000
# 2 -0.004157 0.014266 -0.004056 0.000000 0.000000 0.000000
# 3 0.001814 -0.004056 0.014861 0.000000 0.000000 0.000000
# 4 0.000000 0.000000 0.000000 0.089587 0.000000 0.000000
# 5 0.000000 0.000000 0.000000 0.000000 0.050896 0.000000
# 6 0.000000 0.000000 0.000000 0.000000 0.000000 0.028884
#
#
# Mechanical properties :
#
#
# Convention : Reuss Voigt Hill
#
# Bulk Modulus (GPa) = 39.56745 43.05716 41.31230
# Shear Modulus (GPa) = 21.86663 29.07881 25.47272
#
# Velocity S-wave (km/s) = 3.23306 3.72830 3.48947
# Velocity P-wave (km/s) = 5.73156 6.25425 5.99860
#
# Compressibility (1/GPa) = 0.02527330
#
# Stress axis : x y z
#
# Youngs Moduli (GPa) = 111.82197 70.09462 67.28976
#
# Poissons Ratio (x) = 0.29137 -0.12207
# Poissons Ratio (y) = 0.46482 0.27292
# Poissons Ratio (z) = -0.20286 0.28429
#
# Static dielectric constant tensor:
#      x y z
#    x 1.791020 0.000000 0.000000 
#    y 0.000000 1.704910 0.000000 
#    z 0.000000 0.000000 1.844770 
# 
# From -- ./inp_files/30008.got.cif
#   From: 2010.05.17/outbox.cif.g08.bks.cpg/sg58_16_cif.got.tgz:30008.got - 2010.06.03 14:20:14.
