data_PCOD9442267
_publ_section_title
;
Structure prediction by ZEFSAII (Michael W. Deem and Ramdas Pophale) SiO2 
 PCOD9442267
Probable space group: P N N M
;
_chemical_formula_sum "Si O2"
_cell_formula_units_Z 56
_cell_length_a 19.685847
_cell_length_b 8.520578
_cell_length_c 16.042970
_cell_angle_alpha 90.000000
_cell_angle_beta 90.000000
_cell_angle_gamma 90.000000
_cell_volume 2690.964282
_symmetry_space_group_name_H-M "P N N M"
_symmetry_group_IT_number 58
_symmetry_cell_setting 'orthorhombic'
loop_
_space_group_symop_operation_xyz
x,y,z
-x,-y,z
1/2+x,1/2-y,1/2-z
1/2-x,1/2+y,1/2-z
-x,-y,-z
x,y,-z
1/2-x,1/2+y,1/2+z
1/2+x,1/2-y,1/2+z
loop_
_atom_site_type_symbol
_atom_site_label
_atom_site_fract_x
_atom_site_fract_y
_atom_site_fract_z
Si Si1 0.693970 0.902448 0.251507
Si Si2 0.435210 0.884583 0.743864
Si Si3 0.985854 0.687377 0.592608
Si Si4 0.768280 0.011423 0.406361
Si Si5 0.281928 0.625830 0.406638
Si Si6 0.394264 0.378425 0.816499
Si Si7 0.067278 0.073394 0.153025
O O1 0.738899 0.943185 0.170309
O O2 0.656478 0.741753 0.229582
O O3 0.633966 0.024300 0.268401
O O4 0.738804 0.902184 0.334059
O O5 0.430127 0.805651 0.835321
O O6 0.447443 0.752876 0.676017
O O7 0.500000 0.000000 0.743407
O O8 0.970535 0.746182 0.500000
O O9 0.049053 0.779863 0.633573
O O10 0.000000 0.500000 0.585099
O O11 0.758688 0.953060 0.500000
O O12 0.731989 0.184840 0.401438
O O13 0.847144 0.036054 0.383780
O O14 0.259341 0.579404 0.500000
O O15 0.360451 0.577751 0.393581
O O16 0.423143 0.483252 0.741707
O O17 0.000000 0.000000 0.111856
#
# Coordination Sequence:
#
# PCOD9442267 Si02
#       7
#     8   8   8   8   8   8   8
#     4  11  20  39  67  86 124 162 207 260 312 371
#     4  11  21  39  60  92 120 166 209 251 307 380
#     4  10  19  34  57  89 123 158 204 249 305 382
#     4  10  21  38  64  92 122 164 211 259 313 376
#     4  10  23  40  63  93 122 164 217 258 309 375
#     4  11  21  37  60  92 125 161 201 256 318 376
#     4  12  22  38  65  89 124 166 208 254 321 366
#
# _framework density 20.810383999999999
#
# number of rings (size 3 to 8) (size 9 to 14) (size 15 to 20)
#    0.000    1.286    7.143    0.429    0.000    1.429 
#    0.000    2.857    0.000    3.429    0.000    0.000 
#    0.000    0.000    0.000    0.000    0.000    0.000 
#
# Total GULP energy -312549.993380 kJ/mol
# GULP energy per Si atom -5581.249882 kJ/mol
# Density = 2.076302 g / cm^3
# Si number density = 20.810384 Si / 1000 Ang^3
#
#
#
# Elastic Constant Matrix: (Units=GPa)
#
#
# Indices 1 2 3 4 5 6 
#
# 1 68.8775 17.6931 11.1611 0.0000 0.0000 0.0000
# 2 17.6931 40.9362 15.7573 0.0000 0.0000 0.0000
# 3 11.1611 15.7573 101.4275 0.0000 0.0000 0.0000
# 4 0.0000 0.0000 0.0000 31.8904 0.0000 0.0000
# 5 0.0000 0.0000 0.0000 0.0000 249.3758 0.0000
# 6 0.0000 0.0000 0.0000 0.0000 0.0000 25.3132
#
#
#
# Elastic Compliance Matrix: (Units=1/GPa)
#
#
# Indices 1 2 3 4 5 6 
#
# 1 0.016385 -0.006794 -0.000748 0.000000 0.000000 0.000000
# 2 -0.006794 0.028799 -0.003726 0.000000 0.000000 0.000000
# 3 -0.000748 -0.003726 0.010520 0.000000 0.000000 0.000000
# 4 0.000000 0.000000 0.000000 0.031357 0.000000 0.000000
# 5 0.000000 0.000000 0.000000 0.000000 0.004010 0.000000
# 6 0.000000 0.000000 0.000000 0.000000 0.000000 0.039505
#
#
# Mechanical properties :
#
#
# Convention : Reuss Voigt Hill
#
# Bulk Modulus (GPa) = 30.14914 33.38492 31.76703
# Shear Modulus (GPa) = 30.45640 72.42452 51.44046
#
# Velocity S-wave (km/s) = 3.82975 5.90573 4.97718
# Velocity P-wave (km/s) = 5.83738 7.91080 6.95183
#
# Compressibility (1/GPa) = 0.03316844
#
# Stress axis : x y z
#
# Youngs Moduli (GPa) = 61.03187 34.72330 95.05310
#
# Poissons Ratio (x) = 0.23591 0.07105
# Poissons Ratio (y) = 0.41465 0.35421
# Poissons Ratio (z) = 0.04562 0.12940
#
# Static dielectric constant tensor:
#      x y z
#    x 1.742910 0.000000 0.000000 
#    y 0.000000 1.321480 0.000000 
#    z 0.000000 0.000000 1.746700 
# 
# From -- ./inp_files/23253.got.cif
#   From: 2010.05.17/outbox.cif.g08.bks.cpg/sg58_12_cif.got.tgz:23253.got - 2010.06.03 14:20:14.
