data_PCOD9442163
_publ_section_title
;
Structure prediction by ZEFSAII (Michael W. Deem and Ramdas Pophale) SiO2 
 PCOD9442163
Probable space group: P N N M
;
_chemical_formula_sum "Si O2"
_cell_formula_units_Z 64
_cell_length_a 25.953288
_cell_length_b 14.803981
_cell_length_c 7.638705
_cell_angle_alpha 90.000000
_cell_angle_beta 90.000000
_cell_angle_gamma 90.000000
_cell_volume 2934.881991
_symmetry_space_group_name_H-M "P N N M"
_symmetry_group_IT_number 58
_symmetry_cell_setting 'orthorhombic'
loop_
_space_group_symop_operation_xyz
x,y,z
-x,-y,z
1/2+x,1/2-y,1/2-z
1/2-x,1/2+y,1/2-z
-x,-y,-z
x,y,-z
1/2-x,1/2+y,1/2+z
1/2+x,1/2-y,1/2+z
loop_
_atom_site_type_symbol
_atom_site_label
_atom_site_fract_x
_atom_site_fract_y
_atom_site_fract_z
Si Si1 0.619783 0.373004 0.197534
Si Si2 0.599735 0.027812 0.713781
Si Si3 0.216261 0.237144 0.202569
Si Si4 0.830819 0.252616 0.794135
Si Si5 0.452338 0.789048 0.293395
Si Si6 0.562986 0.838040 0.286064
Si Si7 0.674322 0.541618 0.213224
Si Si8 0.287348 0.948171 0.712715
O O1 0.675535 0.323915 0.197958
O O2 0.579164 0.302907 0.273889
O O3 0.632273 0.470403 0.279380
O O4 0.602454 0.388655 0.000000
O O5 0.601192 0.030401 0.500000
O O6 0.564037 0.943755 0.761415
O O7 0.579420 0.124652 0.776862
O O8 0.658655 0.010823 0.771618
O O9 0.276505 0.213928 0.217333
O O10 0.211734 0.341749 0.259833
O O11 0.200264 0.233618 0.000000
O O12 0.883439 0.295129 0.723852
O O13 0.833872 0.144706 0.767576
O O14 0.827529 0.272962 0.000000
O O15 0.456795 0.805881 0.500000
O O16 0.510654 0.790868 0.224113
O O17 0.564386 0.832401 0.500000
O O18 0.732258 0.514748 0.272683
O O19 0.673931 0.539293 0.000000
O O20 0.286520 0.952812 0.500000
#
# Coordination Sequence:
#
# PCOD9442163 Si02
#       8
#     8   8   8   8   8   8   8   8
#     4  11  22  35  55  82 109 145 188 232 279 326
#     4   9  15  27  52  82 108 139 180 219 261 321
#     4  10  19  34  54  79 111 147 181 219 271 331
#     4  10  20  35  55  82 112 142 182 233 280 325
#     4  10  19  35  56  81 110 143 183 229 274 328
#     4   9  19  32  53  82 110 141 183 228 274 326
#     4   9  20  36  54  76 108 146 185 228 279 335
#     4   8  14  27  49  76 102 133 171 213 260 316
#
# _framework density 21.806667999999998
#
# number of rings (size 3 to 8) (size 9 to 14) (size 15 to 20)
#    0.000    2.500    1.250    2.250    1.750    2.500 
#    0.000    1.875    0.000    6.750    0.000    0.000 
#    0.000    0.000    0.000    0.000    0.000    0.000 
#
# Total GULP energy -357222.695255 kJ/mol
# GULP energy per Si atom -5581.604613 kJ/mol
# Density = 2.175703 g / cm^3
# Si number density = 21.806668 Si / 1000 Ang^3
#
#
#
# Elastic Constant Matrix: (Units=GPa)
#
#
# Indices 1 2 3 4 5 6 
#
# 1 89.4991 7.8793 -3.9106 0.0000 0.0000 0.0000
# 2 7.8793 27.4222 -6.4749 0.0000 0.0000 0.0000
# 3 -3.9106 -6.4749 38.5403 0.0000 0.0000 0.0000
# 4 0.0000 0.0000 0.0000 12.9478 0.0000 0.0000
# 5 0.0000 0.0000 0.0000 0.0000 16.2324 0.0000
# 6 0.0000 0.0000 0.0000 0.0000 0.0000 27.7398
#
#
#
# Elastic Compliance Matrix: (Units=1/GPa)
#
#
# Indices 1 2 3 4 5 6 
#
# 1 0.011478 -0.003148 0.000636 0.000000 0.000000 0.000000
# 2 -0.003148 0.038837 0.006205 0.000000 0.000000 0.000000
# 3 0.000636 0.006205 0.027054 0.000000 0.000000 0.000000
# 4 0.000000 0.000000 0.000000 0.077233 0.000000 0.000000
# 5 0.000000 0.000000 0.000000 0.000000 0.061605 0.000000
# 6 0.000000 0.000000 0.000000 0.000000 0.000000 0.036049
#
#
# Mechanical properties :
#
#
# Convention : Reuss Voigt Hill
#
# Bulk Modulus (GPa) = 11.79873 16.71657 14.25765
# Shear Modulus (GPa) = 18.30687 21.91520 20.11103
#
# Velocity S-wave (km/s) = 2.90057 3.17358 3.04014
# Velocity P-wave (km/s) = 4.07923 4.59470 4.34461
#
# Compressibility (1/GPa) = 0.08475488
#
# Stress axis : x y z
#
# Youngs Moduli (GPa) = 87.12154 25.74897 36.96328
#
# Poissons Ratio (x) = 0.08106 -0.02350
# Poissons Ratio (y) = 0.27425 -0.22937
# Poissons Ratio (z) = -0.05539 -0.15978
#
# Static dielectric constant tensor:
#      x y z
#    x 1.799160 0.000000 0.000000 
#    y 0.000000 1.791650 0.000000 
#    z 0.000000 0.000000 1.826350 
# 
# From -- ./inp_files/10116.got.cif
#   From: 2010.05.17/outbox.cif.g08.bks.cpg/sg58_6_cif.got.tgz:10116.got - 2010.06.03 14:20:14.
