data_PCOD9442620
_publ_section_title
;
Structure prediction by ZEFSAII (Michael W. Deem and Ramdas Pophale) SiO2 
 PCOD9442620
Probable space group: P N N M
;
_chemical_formula_sum "Si O2"
_cell_formula_units_Z 64
_cell_length_a 23.814797
_cell_length_b 15.308273
_cell_length_c 9.592871
_cell_angle_alpha 90.000000
_cell_angle_beta 90.000000
_cell_angle_gamma 90.000000
_cell_volume 3497.209801
_symmetry_space_group_name_H-M "P N N M"
_symmetry_group_IT_number 58
_symmetry_cell_setting 'orthorhombic'
loop_
_space_group_symop_operation_xyz
x,y,z
-x,-y,z
1/2+x,1/2-y,1/2-z
1/2-x,1/2+y,1/2-z
-x,-y,-z
x,y,-z
1/2-x,1/2+y,1/2+z
1/2+x,1/2-y,1/2+z
loop_
_atom_site_type_symbol
_atom_site_label
_atom_site_fract_x
_atom_site_fract_y
_atom_site_fract_z
Si Si1 0.458431 0.581619 0.659979
Si Si2 0.246226 0.566633 0.164105
Si Si3 0.756962 0.735031 0.334129
Si Si4 0.038952 0.417344 0.666412
Si Si5 0.629001 0.676199 0.335392
Si Si6 0.829223 0.568151 0.331098
Si Si7 0.371630 0.496865 0.160885
Si Si8 0.980340 0.267101 0.162110
O O1 0.500000 0.500000 0.684061
O O2 0.438253 0.575049 0.500000
O O3 0.407413 0.572533 0.766125
O O4 0.491613 0.671664 0.674763
O O5 0.257725 0.665246 0.217995
O O6 0.202125 0.511370 0.254075
O O7 0.305814 0.517600 0.169413
O O8 0.228683 0.571418 0.000000
O O9 0.767766 0.741875 0.500000
O O10 0.693403 0.702067 0.314145
O O11 0.799779 0.659792 0.284552
O O12 0.035915 0.404557 0.500000
O O13 0.104543 0.431025 0.700974
O O14 0.000000 0.500000 0.702355
O O15 0.013074 0.334663 0.743749
O O16 0.620575 0.656385 0.500000
O O17 0.616586 0.591318 0.245033
O O18 0.585064 0.752677 0.300344
O O19 0.822236 0.560526 0.500000
O O20 0.387640 0.488046 0.000000
O O21 0.983549 0.293689 0.000000
#
# Coordination Sequence:
#
# PCOD9442620 Si02
#       8
#     8   8   8   8   8   8   8   8
#     4  10  20  37  57  80 117 155 190 235 282 342
#     4  10  22  38  58  86 117 147 188 244 295 343
#     4   9  19  36  60  84 109 150 194 235 290 350
#     4  10  24  43  61  85 120 160 200 247 298 349
#     4  10  19  37  61  82 112 151 196 241 288 350
#     4  10  21  40  64  85 114 158 200 235 290 357
#     4  11  22  34  54  86 121 152 187 234 293 351
#     4  10  22  38  60  88 112 151 202 244 287 338
#
# _framework density 18.300303
#
# number of rings (size 3 to 8) (size 9 to 14) (size 15 to 20)
#    0.000    2.000    2.500    0.375    3.500    2.500 
#    0.000    1.250    0.000    0.000    0.000    0.000 
#    0.000    0.000    0.000    0.000    0.000    0.000 
#
# Total GULP energy -357090.703832 kJ/mol
# GULP energy per Si atom -5579.542247 kJ/mol
# Density = 1.825865 g / cm^3
# Si number density = 18.300303 Si / 1000 Ang^3
#
#
#
# Elastic Constant Matrix: (Units=GPa)
#
#
# Indices 1 2 3 4 5 6 
#
# 1 112.3205 57.8556 55.0816 0.0000 0.0000 0.0000
# 2 57.8556 104.6070 35.1825 0.0000 0.0000 0.0000
# 3 55.0816 35.1825 42.9313 0.0000 0.0000 0.0000
# 4 0.0000 0.0000 0.0000 31.0576 0.0000 0.0000
# 5 0.0000 0.0000 0.0000 0.0000 23.4223 0.0000
# 6 0.0000 0.0000 0.0000 0.0000 0.0000 20.4766
#
#
#
# Elastic Compliance Matrix: (Units=1/GPa)
#
#
# Indices 1 2 3 4 5 6 
#
# 1 0.025306 -0.004247 -0.028988 0.000000 0.000000 0.000000
# 2 -0.004247 0.013910 -0.005950 0.000000 0.000000 0.000000
# 3 -0.028988 -0.005950 0.065362 0.000000 0.000000 0.000000
# 4 0.000000 0.000000 0.000000 0.032198 0.000000 0.000000
# 5 0.000000 0.000000 0.000000 0.000000 0.042694 0.000000
# 6 0.000000 0.000000 0.000000 0.000000 0.000000 0.048836
#
#
# Mechanical properties :
#
#
# Convention : Reuss Voigt Hill
#
# Bulk Modulus (GPa) = 38.15763 61.78868 49.97315
# Shear Modulus (GPa) = 15.85221 22.44058 19.14640
#
# Velocity S-wave (km/s) = 2.94637 3.50557 3.23806
# Velocity P-wave (km/s) = 5.69832 7.08678 6.43013
#
# Compressibility (1/GPa) = 0.02620708
#
# Stress axis : x y z
#
# Youngs Moduli (GPa) = 39.51586 71.89259 15.29941
#
# Poissons Ratio (x) = 0.30530 0.44350
# Poissons Ratio (y) = 0.16781 0.09104
# Poissons Ratio (z) = 1.14550 0.42780
#
# Static dielectric constant tensor:
#      x y z
#    x 1.637740 0.000000 0.000000 
#    y 0.000000 1.629870 0.000000 
#    z 0.000000 0.000000 1.614240 
# 
# From -- ./inp_files/6784.got.cif
#   From: 2010.05.17/outbox.cif.g08.bks.cpg/sg58_4_cif.got.tgz:6784.got - 2010.06.03 14:20:14.
