data_PCOD9442764
_publ_section_title
;
Structure prediction by ZEFSAII (Michael W. Deem and Ramdas Pophale) SiO2 
 PCOD9442764
Probable space group: P N N M
;
_chemical_formula_sum "Si O2"
_cell_formula_units_Z 40
_cell_length_a 7.558292
_cell_length_b 25.623645
_cell_length_c 7.299404
_cell_angle_alpha 90.000000
_cell_angle_beta 90.000000
_cell_angle_gamma 90.000000
_cell_volume 1413.682806
_symmetry_space_group_name_H-M "P N N M"
_symmetry_group_IT_number 58
_symmetry_cell_setting 'orthorhombic'
loop_
_space_group_symop_operation_xyz
x,y,z
-x,-y,z
1/2+x,1/2-y,1/2-z
1/2-x,1/2+y,1/2-z
-x,-y,-z
x,y,-z
1/2-x,1/2+y,1/2+z
1/2+x,1/2-y,1/2+z
loop_
_atom_site_type_symbol
_atom_site_label
_atom_site_fract_x
_atom_site_fract_y
_atom_site_fract_z
Si Si1 0.167624 0.669254 0.791105
Si Si2 0.186792 0.270554 0.723066
Si Si3 0.137034 0.875513 0.777112
Si Si4 0.645294 0.457240 0.278066
Si Si5 0.016031 0.435238 0.706819
O O1 0.299966 0.711273 0.708544
O O2 0.101471 0.617966 0.692523
O O3 0.996156 0.706459 0.789540
O O4 0.205962 0.655653 0.000000
O O5 0.188863 0.268402 0.500000
O O6 0.323354 0.316355 0.781694
O O7 0.952391 0.902826 0.726092
O O8 0.300988 0.912745 0.712344
O O9 0.144954 0.875977 0.000000
O O10 0.500000 0.500000 0.221088
O O11 0.652307 0.459105 0.500000
O O12 0.848629 0.469335 0.215995
O O13 0.061511 0.450988 0.500000
#
# Coordination Sequence:
#
# PCOD9442764 Si02
#       5
#     8   8   8   8   8
#     4  10  20  32  50  75 102 134 172 211 250 304
#     4   9  19  33  48  71 101 134 169 205 253 303
#     4   8  15  29  45  66  99 129 161 204 249 303
#     4   9  17  28  48  77 100 127 170 215 262 308
#     4   9  18  32  50  70 101 138 165 207 262 304
#
# _framework density 28.294892000000001
#
# number of rings (size 3 to 8) (size 9 to 14) (size 15 to 20)
#    0.000    3.000    0.000    1.800    2.800    2.400 
#    0.000    4.000    0.000    0.600    0.000    5.600 
#    0.000    0.000    0.000    0.000    0.000    0.000 
#
# Total GULP energy -223468.151810 kJ/mol
# GULP energy per Si atom -5586.703795 kJ/mol
# Density = 2.823049 g / cm^3
# Si number density = 28.294892 Si / 1000 Ang^3
#
#
#
# Elastic Constant Matrix: (Units=GPa)
#
#
# Indices 1 2 3 4 5 6 
#
# 1 183.3872 -36.4197 -0.0028 0.0000 0.0000 0.0000
# 2 -36.4197 30.9360 14.1968 0.0000 0.0000 0.0000
# 3 -0.0028 14.1968 137.8529 0.0000 0.0000 0.0000
# 4 0.0000 0.0000 0.0000 3.6843 0.0000 0.0000
# 5 0.0000 0.0000 0.0000 0.0000 1.7358 0.0000
# 6 0.0000 0.0000 0.0000 0.0000 0.0000 62.9501
#
#
#
# Elastic Compliance Matrix: (Units=1/GPa)
#
#
# Indices 1 2 3 4 5 6 
#
# 1 0.007226 0.008929 -0.000919 0.000000 0.000000 0.000000
# 2 0.008929 0.044961 -0.004630 0.000000 0.000000 0.000000
# 3 -0.000919 -0.004630 0.007731 0.000000 0.000000 0.000000
# 4 0.000000 0.000000 0.000000 0.271421 0.000000 0.000000
# 5 0.000000 0.000000 0.000000 0.000000 0.576117 0.000000
# 6 0.000000 0.000000 0.000000 0.000000 0.000000 0.015886
#
#
# Mechanical properties :
#
#
# Convention : Reuss Voigt Hill
#
# Bulk Modulus (GPa) = 14.99762 34.19164 24.59463
# Shear Modulus (GPa) = 5.32590 38.63416 21.98003
#
# Velocity S-wave (km/s) = 1.37345 3.69916 2.79017
# Velocity P-wave (km/s) = 2.79770 5.50956 4.36935
#
# Compressibility (1/GPa) = 0.06667724
#
# Stress axis : x y z
#
# Youngs Moduli (GPa) = 138.38576 22.24135 129.35053
#
# Poissons Ratio (x) = -0.19859 0.11893
# Poissons Ratio (y) = -1.23565 0.59891
# Poissons Ratio (z) = 0.12723 0.10298
#
# Static dielectric constant tensor:
#      x y z
#    x 2.331770 0.000000 0.000000 
#    y 0.000000 2.600760 0.000000 
#    z 0.000000 0.000000 2.035350 
# 
# From -- ./inp_files/2427.got.cif
#   From: 2010.05.17/outbox.cif.g08.bks.cpg/sg58_2_cif.got.tgz:2427.got - 2010.06.03 14:20:14.
