data_PCOD9442306
_publ_section_title
;
Structure prediction by ZEFSAII (Michael W. Deem and Ramdas Pophale) SiO2 
 PCOD9442306
Probable space group: P N N M
;
_chemical_formula_sum "Si O2"
_cell_formula_units_Z 48
_cell_length_a 10.191698
_cell_length_b 29.938443
_cell_length_c 9.044917
_cell_angle_alpha 90.000000
_cell_angle_beta 90.000000
_cell_angle_gamma 90.000000
_cell_volume 2759.817362
_symmetry_space_group_name_H-M "P N N M"
_symmetry_group_IT_number 58
_symmetry_cell_setting 'orthorhombic'
loop_
_space_group_symop_operation_xyz
x,y,z
-x,-y,z
1/2+x,1/2-y,1/2-z
1/2-x,1/2+y,1/2-z
-x,-y,-z
x,y,-z
1/2-x,1/2+y,1/2+z
1/2+x,1/2-y,1/2+z
loop_
_atom_site_type_symbol
_atom_site_label
_atom_site_fract_x
_atom_site_fract_y
_atom_site_fract_z
Si Si1 0.981679 0.715085 0.322876
Si Si2 0.375186 0.968500 0.824071
Si Si3 0.141687 0.021685 0.324828
Si Si4 0.710362 0.286646 0.676429
Si Si5 0.529766 0.120304 0.326203
Si Si6 0.283034 0.619647 0.826345
O O1 0.970170 0.714203 0.500000
O O2 0.887677 0.752455 0.254738
O O3 0.944379 0.666947 0.255582
O O4 0.136110 0.722865 0.286329
O O5 0.395072 0.921170 0.744752
O O6 0.500000 0.000000 0.790016
O O7 0.248292 0.994062 0.765242
O O8 0.369689 0.962137 0.000000
O O9 0.175735 0.020000 0.500000
O O10 0.145853 0.073894 0.282377
O O11 0.000000 0.000000 0.305139
O O12 0.696278 0.283743 0.500000
O O13 0.682660 0.336897 0.732078
O O14 0.559227 0.124301 0.500000
O O15 0.373331 0.111550 0.310699
O O16 0.308950 0.628785 0.000000
#
# Coordination Sequence:
#
# PCOD9442306 Si02
#       6
#     8   8   8   8   8   8
#     4  10  21  38  59  84 115 145 182 231 280 331
#     4  11  22  35  56  84 114 148 187 231 276 326
#     4  10  21  38  58  82 113 150 189 232 281 335
#     4  10  21  37  59  85 111 146 187 228 279 335
#     4  10  19  34  59  85 110 144 188 233 278 330
#     4   9  18  34  57  82 109 146 187 228 279 332
#
# _framework density 17.392455000000002
#
# number of rings (size 3 to 8) (size 9 to 14) (size 15 to 20)
#    0.000    2.000    1.667    2.000    0.000    4.333 
#    3.000    0.000    0.000    0.000    0.000    0.000 
#    0.000    0.000    0.000    0.000    0.000    0.000 
#
# Total GULP energy -268000.280748 kJ/mol
# GULP energy per Si atom -5583.339182 kJ/mol
# Density = 1.735287 g / cm^3
# Si number density = 17.392455 Si / 1000 Ang^3
#
#
#
# Elastic Constant Matrix: (Units=GPa)
#
#
# Indices 1 2 3 4 5 6 
#
# 1 63.4290 72.3250 52.6641 0.0000 0.0000 0.0000
# 2 72.3250 163.6429 73.9877 0.0000 0.0000 0.0000
# 3 52.6641 73.9877 71.7368 0.0000 0.0000 0.0000
# 4 0.0000 0.0000 0.0000 33.4117 0.0000 0.0000
# 5 0.0000 0.0000 0.0000 0.0000 26.4399 0.0000
# 6 0.0000 0.0000 0.0000 0.0000 0.0000 34.4340
#
#
#
# Elastic Compliance Matrix: (Units=1/GPa)
#
#
# Indices 1 2 3 4 5 6 
#
# 1 0.047498 -0.009794 -0.024768 0.000000 0.000000 0.000000
# 2 -0.009794 0.013470 -0.006702 0.000000 0.000000 0.000000
# 3 -0.024768 -0.006702 0.039036 0.000000 0.000000 0.000000
# 4 0.000000 0.000000 0.000000 0.029930 0.000000 0.000000
# 5 0.000000 0.000000 0.000000 0.000000 0.037822 0.000000
# 6 0.000000 0.000000 0.000000 0.000000 0.000000 0.029041
#
#
# Mechanical properties :
#
#
# Convention : Reuss Voigt Hill
#
# Bulk Modulus (GPa) = 57.22774 77.41805 67.32289
# Shear Modulus (GPa) = 17.53457 25.51259 21.52358
#
# Velocity S-wave (km/s) = 3.17862 3.83414 3.52166
# Velocity P-wave (km/s) = 6.81518 8.01311 7.43830
#
# Compressibility (1/GPa) = 0.01747404
#
# Stress axis : x y z
#
# Youngs Moduli (GPa) = 21.05334 74.23931 25.61759
#
# Poissons Ratio (x) = 0.72712 0.63451
# Poissons Ratio (y) = 0.20620 0.17170
# Poissons Ratio (z) = 0.52146 0.49757
#
# Static dielectric constant tensor:
#      x y z
#    x 1.570500 0.000000 0.000000 
#    y 0.000000 1.566120 0.000000 
#    z 0.000000 0.000000 1.580500 
# 
# From -- ./inp_files/2863.got.cif
#   From: 2010.05.17/outbox.cif.g08.bks.cpg/sg58_2_cif.got.tgz:2863.got - 2010.06.03 14:20:14.
