data_PCOD9442484
_publ_section_title
;
Structure prediction by ZEFSAII (Michael W. Deem and Ramdas Pophale) SiO2 
 PCOD9442484
Probable space group: P N N M
;
_chemical_formula_sum "Si O2"
_cell_formula_units_Z 52
_cell_length_a 9.136784
_cell_length_b 14.450294
_cell_length_c 19.365716
_cell_angle_alpha 90.000000
_cell_angle_beta 90.000000
_cell_angle_gamma 90.000000
_cell_volume 2556.840282
_symmetry_space_group_name_H-M "P N N M"
_symmetry_group_IT_number 58
_symmetry_cell_setting 'orthorhombic'
loop_
_space_group_symop_operation_xyz
x,y,z
-x,-y,z
1/2+x,1/2-y,1/2-z
1/2-x,1/2+y,1/2-z
-x,-y,-z
x,y,-z
1/2-x,1/2+y,1/2+z
1/2+x,1/2-y,1/2+z
loop_
_atom_site_type_symbol
_atom_site_label
_atom_site_fract_x
_atom_site_fract_y
_atom_site_fract_z
Si Si1 0.866396 0.267884 0.181457
Si Si2 0.793067 0.284738 0.420791
Si Si3 0.376149 0.724191 0.079535
Si Si4 0.848168 0.853119 0.208009
Si Si5 0.050588 0.380125 0.922162
Si Si6 0.000000 0.000000 0.301238
Si Si7 0.690919 0.496106 0.078156
O O1 0.744782 0.229441 0.128294
O O2 0.998174 0.200914 0.201252
O O3 0.772070 0.299599 0.246495
O O4 0.945211 0.350885 0.139610
O O5 0.796618 0.317739 0.500000
O O6 0.957796 0.252174 0.402215
O O7 0.725298 0.358184 0.367233
O O8 0.681541 0.197485 0.419123
O O9 0.346315 0.612875 0.084268
O O10 0.353204 0.749256 0.000000
O O11 0.894948 0.941806 0.251907
O O12 0.859117 0.524797 0.916883
O O13 0.985704 0.370874 0.000000
O O14 0.110415 0.955326 0.357684
O O15 0.648048 0.526796 0.000000
#
# Coordination Sequence:
#
# PCOD9442484 Si02
#       7
#     8   8   8   8   8   4   8
#     4  11  22  38  56  84 120 162 203 249 294 355
#     4   9  19  38  61  84 110 152 205 251 300 356
#     4  10  19  35  62  92 121 159 199 240 296 368
#     4  11  25  39  61  83 119 158 207 251 308 354
#     4   9  19  34  56  85 123 162 197 235 285 350
#     4  12  23  40  57  88 122 160 202 244 297 364
#     4  10  20  34  56  87 127 166 192 226 284 364
#
# _framework density 20.337600999999999
#
# number of rings (size 3 to 8) (size 9 to 14) (size 15 to 20)
#    0.000    1.846    1.538    2.538    4.308    3.692 
#    0.000    2.692    0.000    0.000    0.000    2.154 
#    0.000    0.000    0.000    0.000    0.000    0.154 
#
# Total GULP energy -290059.632607 kJ/mol
# GULP energy per Si atom -5578.069858 kJ/mol
# Density = 2.029131 g / cm^3
# Si number density = 20.337601 Si / 1000 Ang^3
#
#
#
# Elastic Constant Matrix: (Units=GPa)
#
#
# Indices 1 2 3 4 5 6 
#
# 1 149.3709 12.1301 71.9518 0.0000 0.0000 0.0000
# 2 12.1301 18.2603 30.0305 0.0000 0.0000 0.0000
# 3 71.9518 30.0305 126.7762 0.0000 0.0000 0.0000
# 4 0.0000 0.0000 0.0000 16.5792 0.0000 0.0000
# 5 0.0000 0.0000 0.0000 0.0000 53.1463 0.0000
# 6 0.0000 0.0000 0.0000 0.0000 0.0000 30.0048
#
#
#
# Elastic Compliance Matrix: (Units=1/GPa)
#
#
# Indices 1 2 3 4 5 6 
#
# 1 0.009401 0.004144 -0.006317 0.000000 0.000000 0.000000
# 2 0.004144 0.091539 -0.024036 0.000000 0.000000 0.000000
# 3 -0.006317 -0.024036 0.017167 0.000000 0.000000 0.000000
# 4 0.000000 0.000000 0.000000 0.060316 0.000000 0.000000
# 5 0.000000 0.000000 0.000000 0.000000 0.018816 0.000000
# 6 0.000000 0.000000 0.000000 0.000000 0.000000 0.033328
#
#
# Mechanical properties :
#
#
# Convention : Reuss Voigt Hill
#
# Bulk Modulus (GPa) = 15.22308 58.07023 36.64666
# Shear Modulus (GPa) = 16.39980 31.96573 24.18276
#
# Velocity S-wave (km/s) = 2.84276 3.96884 3.45203
# Velocity P-wave (km/s) = 4.27510 7.04396 5.82640
#
# Compressibility (1/GPa) = 0.06568971
#
# Stress axis : x y z
#
# Youngs Moduli (GPa) = 106.36852 10.92429 58.25172
#
# Poissons Ratio (x) = -0.04527 0.36800
# Poissons Ratio (y) = -0.44082 1.40012
# Poissons Ratio (z) = 0.67197 0.26257
#
# Static dielectric constant tensor:
#      x y z
#    x 1.816600 0.000000 0.000000 
#    y 0.000000 1.759600 0.000000 
#    z 0.000000 0.000000 1.738860 
# 
# From -- ./inp_files/25475.got.cif
#   From: 2010.05.17/outbox.cif.g08.bks.cpg/sg58_13_cif.got.tgz:25475.got - 2010.06.03 14:20:14.
