data_PCOD9442255
_publ_section_title
;
Structure prediction by ZEFSAII (Michael W. Deem and Ramdas Pophale) SiO2 
 PCOD9442255
Probable space group: P N N M
;
_chemical_formula_sum "Si O2"
_cell_formula_units_Z 32
_cell_length_a 5.345706
_cell_length_b 7.435236
_cell_length_c 36.594134
_cell_angle_alpha 90.000000
_cell_angle_beta 90.000000
_cell_angle_gamma 90.000000
_cell_volume 1454.491883
_symmetry_space_group_name_H-M "P N N M"
_symmetry_group_IT_number 58
_symmetry_cell_setting 'orthorhombic'
loop_
_space_group_symop_operation_xyz
x,y,z
-x,-y,z
1/2+x,1/2-y,1/2-z
1/2-x,1/2+y,1/2-z
-x,-y,-z
x,y,-z
1/2-x,1/2+y,1/2+z
1/2+x,1/2-y,1/2+z
loop_
_atom_site_type_symbol
_atom_site_label
_atom_site_fract_x
_atom_site_fract_y
_atom_site_fract_z
Si Si1 0.749198 0.622556 0.152403
Si Si2 0.258359 0.807901 0.956866
Si Si3 0.120935 0.802936 0.268875
Si Si4 0.740705 0.286351 0.425758
O O1 0.500000 0.500000 0.147442
O O2 0.703769 0.734611 0.189529
O O3 0.776695 0.746603 0.116925
O O4 0.000000 0.500000 0.156402
O O5 0.503566 0.711766 0.942235
O O6 0.003757 0.712905 0.945691
O O7 0.249433 0.001934 0.936470
O O8 0.271041 0.839679 0.000000
O O9 0.379453 0.805693 0.245876
O O10 0.000000 0.000000 0.268962
#
# Coordination Sequence:
#
# PCOD9442255 Si02
#       4
#     8   8   8   8
#     4  11  23  41  63  83 124 165 199 247 311 366
#     4  10  19  35  60  85 120 155 191 261 317 345
#     4  11  23  44  67  94 126 170 212 261 322 387
#     4  10  19  34  57  85 112 150 204 234 301 362
#
# _framework density 22.000810000000001
#
# number of rings (size 3 to 8) (size 9 to 14) (size 15 to 20)
#    0.000    1.500    0.000    9.000    0.000    0.000 
#   13.500    0.000    0.000   25.500    0.000    0.000 
#    0.000    0.000    0.000    0.000    0.000    0.000 
#
# Total GULP energy -178622.279311 kJ/mol
# GULP energy per Si atom -5581.946228 kJ/mol
# Density = 2.195073 g / cm^3
# Si number density = 22.000810 Si / 1000 Ang^3
#
#
#
# Elastic Constant Matrix: (Units=GPa)
#
#
# Indices 1 2 3 4 5 6 
#
# 1 238.0039 16.2731 83.5182 0.0000 0.0000 0.0000
# 2 16.2731 48.0640 35.5010 0.0000 0.0000 0.0000
# 3 83.5182 35.5010 226.5531 0.0000 0.0000 0.0000
# 4 0.0000 0.0000 0.0000 21.9639 0.0000 0.0000
# 5 0.0000 0.0000 0.0000 0.0000 42.8273 0.0000
# 6 0.0000 0.0000 0.0000 0.0000 0.0000 8.0213
#
#
#
# Elastic Compliance Matrix: (Units=1/GPa)
#
#
# Indices 1 2 3 4 5 6 
#
# 1 0.004831 -0.000362 -0.001724 0.000000 0.000000 0.000000
# 2 -0.000362 0.023556 -0.003558 0.000000 0.000000 0.000000
# 3 -0.001724 -0.003558 0.005607 0.000000 0.000000 0.000000
# 4 0.000000 0.000000 0.000000 0.045529 0.000000 0.000000
# 5 0.000000 0.000000 0.000000 0.000000 0.023350 0.000000
# 6 0.000000 0.000000 0.000000 0.000000 0.000000 0.124668
#
#
# Mechanical properties :
#
#
# Convention : Reuss Voigt Hill
#
# Bulk Modulus (GPa) = 44.04095 87.02286 65.53191
# Shear Modulus (GPa) = 20.29231 39.71776 30.00503
#
# Velocity S-wave (km/s) = 3.04031 4.25348 3.69699
# Velocity P-wave (km/s) = 5.69087 7.98517 6.93358
#
# Compressibility (1/GPa) = 0.02270614
#
# Stress axis : x y z
#
# Youngs Moduli (GPa) = 206.97633 42.45201 178.34350
#
# Poissons Ratio (x) = 0.01537 0.30753
# Poissons Ratio (y) = 0.07496 0.63450
# Poissons Ratio (z) = 0.35690 0.15103
#
# Static dielectric constant tensor:
#      x y z
#    x 1.741480 0.000000 0.000000 
#    y 0.000000 1.814070 0.000000 
#    z 0.000000 0.000000 1.776280 
# 
# From -- ./inp_files/34006.got.cif
#   From: 2010.05.17/outbox.cif.g08.bks.cpg/sg58_18_cif.got.tgz:34006.got - 2010.06.03 14:20:14.
