data_PCOD9442809
_publ_section_title
;
Structure prediction by ZEFSAII (Michael W. Deem and Ramdas Pophale) SiO2 
 PCOD9442809
Probable space group: P N N M
;
_chemical_formula_sum "Si O2"
_cell_formula_units_Z 56
_cell_length_a 14.876327
_cell_length_b 21.327809
_cell_length_c 8.653659
_cell_angle_alpha 90.000000
_cell_angle_beta 90.000000
_cell_angle_gamma 90.000000
_cell_volume 2745.628262
_symmetry_space_group_name_H-M "P N N M"
_symmetry_group_IT_number 58
_symmetry_cell_setting 'orthorhombic'
loop_
_space_group_symop_operation_xyz
x,y,z
-x,-y,z
1/2+x,1/2-y,1/2-z
1/2-x,1/2+y,1/2-z
-x,-y,-z
x,y,-z
1/2-x,1/2+y,1/2+z
1/2+x,1/2-y,1/2+z
loop_
_atom_site_type_symbol
_atom_site_label
_atom_site_fract_x
_atom_site_fract_y
_atom_site_fract_z
Si Si1 0.550124 0.868907 0.321414
Si Si2 0.577817 0.045432 0.183521
Si Si3 0.220094 0.976253 0.185715
Si Si4 0.193570 0.246535 0.685696
Si Si5 0.003791 0.769689 0.178247
Si Si6 0.160544 0.846341 0.316937
Si Si7 0.754098 0.395266 0.813849
O O1 0.535839 0.887656 0.500000
O O2 0.463774 0.887663 0.223431
O O3 0.560911 0.794546 0.320696
O O4 0.641839 0.899215 0.259873
O O5 0.677438 0.036258 0.243259
O O6 0.500000 0.000000 0.248065
O O7 0.582087 0.036458 0.000000
O O8 0.167282 0.916546 0.249552
O O9 0.199323 0.046608 0.243686
O O10 0.217131 0.975347 0.000000
O O11 0.191943 0.252737 0.500000
O O12 0.261634 0.299950 0.748790
O O13 0.224290 0.175225 0.724796
O O14 0.093082 0.247812 0.753702
O O15 0.063173 0.818604 0.272558
O O16 0.994081 0.789884 0.000000
O O17 0.172044 0.847902 0.500000
O O18 0.753583 0.400520 0.000000
#
# Coordination Sequence:
#
# PCOD9442809 Si02
#       7
#     8   8   8   8   8   8   8
#     4  10  20  35  57  84 117 158 197 246 306 367
#     4  10  20  33  50  81 119 155 195 243 299 366
#     4  11  23  39  60  87 125 166 208 262 319 376
#     4  11  23  43  67  95 130 169 212 265 321 378
#     4  11  23  42  65  94 126 162 212 267 320 379
#     4  12  25  42  65  94 128 170 215 263 321 380
#     4  10  21  39  61  87 123 163 204 252 311 374
#
# _framework density 20.396061
#
# number of rings (size 3 to 8) (size 9 to 14) (size 15 to 20)
#    0.000    1.286    2.857    3.429    0.000    6.000 
#    0.000    0.714    0.000    4.286    0.000    0.000 
#    0.000    0.000    0.000    0.000    0.000    0.000 
#
# Total GULP energy -312626.074834 kJ/mol
# GULP energy per Si atom -5582.608479 kJ/mol
# Density = 2.034964 g / cm^3
# Si number density = 20.396061 Si / 1000 Ang^3
#
#
#
# Elastic Constant Matrix: (Units=GPa)
#
#
# Indices 1 2 3 4 5 6 
#
# 1 44.6604 5.1178 7.9850 0.0000 0.0000 0.0000
# 2 5.1178 92.8776 28.5579 0.0000 0.0000 0.0000
# 3 7.9850 28.5579 57.1420 0.0000 0.0000 0.0000
# 4 0.0000 0.0000 0.0000 32.2306 0.0000 0.0000
# 5 0.0000 0.0000 0.0000 0.0000 27.9663 0.0000
# 6 0.0000 0.0000 0.0000 0.0000 0.0000 27.0992
#
#
#
# Elastic Compliance Matrix: (Units=1/GPa)
#
#
# Indices 1 2 3 4 5 6 
#
# 1 0.022973 -0.000329 -0.003046 0.000000 0.000000 0.000000
# 2 -0.000329 0.012727 -0.006314 0.000000 0.000000 0.000000
# 3 -0.003046 -0.006314 0.021082 0.000000 0.000000 0.000000
# 4 0.000000 0.000000 0.000000 0.031026 0.000000 0.000000
# 5 0.000000 0.000000 0.000000 0.000000 0.035757 0.000000
# 6 0.000000 0.000000 0.000000 0.000000 0.000000 0.036901
#
#
# Mechanical properties :
#
#
# Convention : Reuss Voigt Hill
#
# Bulk Modulus (GPa) = 26.73597 30.88904 28.81250
# Shear Modulus (GPa) = 25.99925 27.66050 26.82988
#
# Velocity S-wave (km/s) = 3.57419 3.68661 3.63084
# Velocity P-wave (km/s) = 5.49272 5.77053 5.63334
#
# Compressibility (1/GPa) = 0.03740280
#
# Stress axis : x y z
#
# Youngs Moduli (GPa) = 43.52842 78.57601 47.43481
#
# Poissons Ratio (x) = 0.02588 0.14447
# Poissons Ratio (y) = 0.01434 0.29952
# Poissons Ratio (z) = 0.13257 0.49615
#
# Static dielectric constant tensor:
#      x y z
#    x 1.734160 0.000000 0.000000 
#    y 0.000000 1.801220 0.000000 
#    z 0.000000 0.000000 1.698240 
# 
# From -- ./inp_files/6360.got.cif
#   From: 2010.05.17/outbox.cif.g08.bks.cpg/sg58_4_cif.got.tgz:6360.got - 2010.06.03 14:20:14.
