data_PCOD9442792
_publ_section_title
;
Structure prediction by ZEFSAII (Michael W. Deem and Ramdas Pophale) SiO2 
 PCOD9442792
Probable space group: P N N M
;
_chemical_formula_sum "Si O2"
_cell_formula_units_Z 64
_cell_length_a 21.376165
_cell_length_b 17.633594
_cell_length_c 9.285109
_cell_angle_alpha 90.000000
_cell_angle_beta 90.000000
_cell_angle_gamma 90.000000
_cell_volume 3499.916126
_symmetry_space_group_name_H-M "P N N M"
_symmetry_group_IT_number 58
_symmetry_cell_setting 'orthorhombic'
loop_
_space_group_symop_operation_xyz
x,y,z
-x,-y,z
1/2+x,1/2-y,1/2-z
1/2-x,1/2+y,1/2-z
-x,-y,-z
x,y,-z
1/2-x,1/2+y,1/2+z
1/2+x,1/2-y,1/2+z
loop_
_atom_site_type_symbol
_atom_site_label
_atom_site_fract_x
_atom_site_fract_y
_atom_site_fract_z
Si Si1 0.489337 0.908837 0.838101
Si Si2 0.872037 0.562296 0.167006
Si Si3 0.046752 0.073410 0.335008
Si Si4 0.855815 0.016932 0.835348
Si Si5 0.264722 0.376896 0.168638
Si Si6 0.450647 0.339394 0.661785
Si Si7 0.168494 0.740653 0.172140
Si Si8 0.631172 0.902818 0.828075
O O1 0.433093 0.895655 0.728911
O O2 0.558340 0.879543 0.803851
O O3 0.500000 0.000000 0.840174
O O4 0.471503 0.885512 0.000000
O O5 0.809284 0.611112 0.177511
O O6 0.861691 0.485749 0.259014
O O7 0.882430 0.541742 0.000000
O O8 0.064244 0.086561 0.500000
O O9 0.006467 0.142116 0.269791
O O10 0.106708 0.051072 0.240010
O O11 0.000000 0.000000 0.332450
O O12 0.799537 0.051125 0.741406
O O13 0.906168 0.085927 0.840813
O O14 0.837233 0.000266 0.000000
O O15 0.286904 0.302676 0.254239
O O16 0.283087 0.371849 0.000000
O O17 0.475349 0.328613 0.500000
O O18 0.401725 0.273535 0.696731
O O19 0.172788 0.659511 0.248103
O O20 0.178150 0.737251 0.000000
O O21 0.641460 0.905153 0.000000
#
# Coordination Sequence:
#
# PCOD9442792 Si02
#       8
#     8   8   8   8   8   8   8   8
#     4   8  16  31  51  77 105 131 161 200 250 304
#     4  10  20  33  53  80 107 137 172 212 257 306
#     4   9  15  22  36  58  83 114 152 197 246 290
#     4   9  16  26  41  61  87 121 160 201 244 290
#     4  10  20  33  49  73 105 138 175 217 259 307
#     4   8  15  26  39  59  87 118 155 199 245 293
#     4  10  20  33  51  75 103 137 175 215 260 310
#     4  10  20  34  54  79 107 137 169 211 261 310
#
# _framework density 18.286152999999999
#
# number of rings (size 3 to 8) (size 9 to 14) (size 15 to 20)
#    0.000    2.750    0.000    3.750    0.000    9.750 
#    0.000    0.000    0.000    1.500    0.000    7.000 
#    0.000    0.000    0.000    0.000    0.000    0.000 
#
# Total GULP energy -356632.686654 kJ/mol
# GULP energy per Si atom -5572.385729 kJ/mol
# Density = 1.824453 g / cm^3
# Si number density = 18.286153 Si / 1000 Ang^3
#
#
#
# Elastic Constant Matrix: (Units=GPa)
#
#
# Indices 1 2 3 4 5 6 
#
# 1 47.0909 6.2481 46.6971 0.0000 0.0000 0.0000
# 2 6.2481 35.1095 40.1318 0.0000 0.0000 0.0000
# 3 46.6971 40.1318 110.4500 0.0000 0.0000 0.0000
# 4 0.0000 0.0000 0.0000 -4.5762 0.0000 0.0000
# 5 0.0000 0.0000 0.0000 0.0000 27.5365 0.0000
# 6 0.0000 0.0000 0.0000 0.0000 0.0000 12.3166
#
#
#
# Elastic Compliance Matrix: (Units=1/GPa)
#
#
# Indices 1 2 3 4 5 6 
#
# 1 0.045976 0.024008 -0.028161 0.000000 0.000000 0.000000
# 2 0.024008 0.061251 -0.032406 0.000000 0.000000 0.000000
# 3 -0.028161 -0.032406 0.032735 0.000000 0.000000 0.000000
# 4 0.000000 0.000000 0.000000 -0.218521 0.000000 0.000000
# 5 0.000000 0.000000 0.000000 0.000000 0.036315 0.000000
# 6 0.000000 0.000000 0.000000 0.000000 0.000000 0.081191
#
#
# Mechanical properties :
#
#
# Convention : Reuss Voigt Hill
#
# Bulk Modulus (GPa) = 14.96033 42.08936 28.52485
# Shear Modulus (GPa) = 37.21717 13.69362 25.45539
#
# Velocity S-wave (km/s) = 4.51629 2.73948 3.73508
# Velocity P-wave (km/s) = 5.94935 5.75095 5.85099
#
# Compressibility (1/GPa) = 0.06684344
#
# Stress axis : x y z
#
# Youngs Moduli (GPa) = 21.75049 16.32621 30.54857
#
# Poissons Ratio (x) = -0.39196 0.86029
# Poissons Ratio (y) = -0.52218 0.98995
# Poissons Ratio (z) = 0.61252 0.52906
#
# Static dielectric constant tensor:
#      x y z
#    x 1.626090 0.000000 0.000000 
#    y 0.000000 1.635790 0.000000 
#    z 0.000000 0.000000 1.626530 
# 
# From -- ./inp_files/9294.got.cif
#   From: 2010.05.17/outbox.cif.g08.bks.cpg/sg58_5_cif.got.tgz:9294.got - 2010.06.03 14:20:14.
