data_PCOD9442366
_publ_section_title
;
Structure prediction by ZEFSAII (Michael W. Deem and Ramdas Pophale) SiO2 
 PCOD9442366
Probable space group: P N N M
;
_chemical_formula_sum "Si O2"
_cell_formula_units_Z 48
_cell_length_a 8.070905
_cell_length_b 28.887319
_cell_length_c 7.743180
_cell_angle_alpha 90.000000
_cell_angle_beta 90.000000
_cell_angle_gamma 90.000000
_cell_volume 1805.297696
_symmetry_space_group_name_H-M "P N N M"
_symmetry_group_IT_number 58
_symmetry_cell_setting 'orthorhombic'
loop_
_space_group_symop_operation_xyz
x,y,z
-x,-y,z
1/2+x,1/2-y,1/2-z
1/2-x,1/2+y,1/2-z
-x,-y,-z
x,y,-z
1/2-x,1/2+y,1/2+z
1/2+x,1/2-y,1/2+z
loop_
_atom_site_type_symbol
_atom_site_label
_atom_site_fract_x
_atom_site_fract_y
_atom_site_fract_z
Si Si1 0.429279 0.595227 0.288590
Si Si2 0.273400 0.178605 0.800390
Si Si3 0.256666 0.849079 0.206485
Si Si4 0.047709 0.765674 0.703786
Si Si5 0.762738 0.991878 0.805111
Si Si6 0.527587 0.069574 0.305765
O O1 0.423334 0.595369 0.500000
O O2 0.284537 0.629796 0.223587
O O3 0.600489 0.618969 0.238734
O O4 0.403305 0.542477 0.233766
O O5 0.405212 0.214939 0.726912
O O6 0.101014 0.207909 0.796568
O O7 0.319911 0.170781 0.000000
O O8 0.208689 0.798887 0.277396
O O9 0.415895 0.878644 0.261178
O O10 0.258735 0.845536 0.000000
O O11 0.007076 0.762186 0.500000
O O12 0.608812 0.955190 0.811538
O O13 0.687989 0.035843 0.709977
O O14 0.803380 0.007058 0.000000
O O15 0.466264 0.066412 0.500000
#
# Coordination Sequence:
#
# PCOD9442366 Si02
#       6
#     8   8   8   8   8   8
#     4   8  17  34  56  78 101 133 176 219 255 304
#     4   9  19  36  54  76 108 141 173 212 259 309
#     4  10  20  37  57  77 104 139 176 216 265 317
#     4  10  20  34  54  81 109 138 177 221 261 306
#     4  10  19  35  57  79 103 138 180 217 260 313
#     4  11  22  36  52  77 110 139 172 217 265 313
#
# _framework density 26.588408999999999
#
# number of rings (size 3 to 8) (size 9 to 14) (size 15 to 20)
#    0.000    2.333    0.000    5.000    0.000    3.333 
#    0.000   13.333    0.000    0.000    0.000    0.000 
#    0.000    0.000    0.000    0.000    0.000    0.000 
#
# Total GULP energy -268655.161177 kJ/mol
# GULP energy per Si atom -5596.982525 kJ/mol
# Density = 2.652789 g / cm^3
# Si number density = 26.588409 Si / 1000 Ang^3
#
#
#
# Elastic Constant Matrix: (Units=GPa)
#
#
# Indices 1 2 3 4 5 6 
#
# 1 77.2148 16.3948 -3.4237 0.0000 0.0000 0.0000
# 2 16.3948 177.5014 1.6481 0.0000 0.0000 0.0000
# 3 -3.4237 1.6481 86.3116 0.0000 0.0000 0.0000
# 4 0.0000 0.0000 0.0000 7.2815 0.0000 0.0000
# 5 0.0000 0.0000 0.0000 0.0000 30.6851 0.0000
# 6 0.0000 0.0000 0.0000 0.0000 0.0000 64.5344
#
#
#
# Elastic Compliance Matrix: (Units=1/GPa)
#
#
# Indices 1 2 3 4 5 6 
#
# 1 0.013236 -0.001228 0.000548 0.000000 0.000000 0.000000
# 2 -0.001228 0.005749 -0.000158 0.000000 0.000000 0.000000
# 3 0.000548 -0.000158 0.011611 0.000000 0.000000 0.000000
# 4 0.000000 0.000000 0.000000 0.137334 0.000000 0.000000
# 5 0.000000 0.000000 0.000000 0.000000 0.032589 0.000000
# 6 0.000000 0.000000 0.000000 0.000000 0.000000 0.015496
#
#
# Mechanical properties :
#
#
# Convention : Reuss Voigt Hill
#
# Bulk Modulus (GPa) = 34.57818 41.14069 37.85943
# Shear Modulus (GPa) = 21.99454 42.26078 32.12766
#
# Velocity S-wave (km/s) = 2.87927 3.99111 3.47988
# Velocity P-wave (km/s) = 4.90783 6.06179 5.51508
#
# Compressibility (1/GPa) = 0.02891997
#
# Stress axis : x y z
#
# Youngs Moduli (GPa) = 75.55228 173.95489 86.12737
#
# Poissons Ratio (x) = 0.21355 -0.04724
# Poissons Ratio (y) = 0.09275 0.01365
# Poissons Ratio (z) = -0.04144 0.02757
#
# Static dielectric constant tensor:
#      x y z
#    x 2.212320 0.000000 0.000000 
#    y 0.000000 2.075420 0.000000 
#    z 0.000000 0.000000 1.954560 
# 
# From -- ./inp_files/3008.got.cif
#   From: 2010.05.17/outbox.cif.g08.bks.cpg/sg58_2_cif.got.tgz:3008.got - 2010.06.03 14:20:14.
