data_PCOD9442841
_publ_section_title
;
Structure prediction by ZEFSAII (Michael W. Deem and Ramdas Pophale) SiO2 
 PCOD9442841
Probable space group: P N N M
;
_chemical_formula_sum "Si O2"
_cell_formula_units_Z 48
_cell_length_a 5.139964
_cell_length_b 20.193401
_cell_length_c 24.260136
_cell_angle_alpha 90.000000
_cell_angle_beta 90.000000
_cell_angle_gamma 90.000000
_cell_volume 2518.040888
_symmetry_space_group_name_H-M "P N N M"
_symmetry_group_IT_number 58
_symmetry_cell_setting 'orthorhombic'
loop_
_space_group_symop_operation_xyz
x,y,z
-x,-y,z
1/2+x,1/2-y,1/2-z
1/2-x,1/2+y,1/2-z
-x,-y,-z
x,y,-z
1/2-x,1/2+y,1/2+z
1/2+x,1/2-y,1/2+z
loop_
_atom_site_type_symbol
_atom_site_label
_atom_site_fract_x
_atom_site_fract_y
_atom_site_fract_z
Si Si1 0.059504 0.339733 0.218930
Si Si2 0.612434 0.846394 0.939766
Si Si3 0.754381 0.958560 0.703089
Si Si4 0.306825 0.217425 0.826252
Si Si5 0.457603 0.406287 0.703113
Si Si6 0.877817 0.069138 0.081311
O O1 0.197891 0.291237 0.176419
O O2 0.255592 0.391657 0.247966
O O3 0.824273 0.381654 0.191772
O O4 0.980396 0.294780 0.271754
O O5 0.567596 0.802501 0.884748
O O6 0.399436 0.905234 0.939054
O O7 0.900105 0.877286 0.933338
O O8 0.592805 0.813353 0.000000
O O9 0.815895 0.949677 0.768670
O O10 0.500000 0.000000 0.690148
O O11 0.000000 0.000000 0.680012
O O12 0.079337 0.163901 0.815124
O O13 0.345155 0.435182 0.647435
O O14 0.000000 0.000000 0.062278
#
# Coordination Sequence:
#
# PCOD9442841 Si02
#       6
#     8   8   8   8   8   8
#     4  11  19  34  56  81 110 144 182 235 280 353
#     4  11  24  41  56  77 109 148 195 247 288 326
#     4  11  22  34  49  76 113 149 177 214 276 344
#     4  10  21  34  56  83 107 143 190 234 293 335
#     4  10  20  33  53  77 109 145 181 231 279 334
#     4  11  23  36  56  78 107 149 201 240 282 324
#
# _framework density 19.062436999999999
#
# number of rings (size 3 to 8) (size 9 to 14) (size 15 to 20)
#    0.000    1.333    5.000    1.500    0.000    2.000 
#    0.000    0.000    0.000    0.000    0.000    0.000 
#    0.000    1.333    0.000    1.000    0.000    0.333 
#
# Total GULP energy -267521.936660 kJ/mol
# GULP energy per Si atom -5573.373680 kJ/mol
# Density = 1.901905 g / cm^3
# Si number density = 19.062437 Si / 1000 Ang^3
#
#
#
# Elastic Constant Matrix: (Units=GPa)
#
#
# Indices 1 2 3 4 5 6 
#
# 1 82.0735 17.5938 6.6098 0.0000 0.0000 0.0000
# 2 17.5938 65.9689 32.1085 0.0000 0.0000 0.0000
# 3 6.6098 32.1085 60.6013 0.0000 0.0000 0.0000
# 4 0.0000 0.0000 0.0000 36.6766 0.0000 0.0000
# 5 0.0000 0.0000 0.0000 0.0000 20.4109 0.0000
# 6 0.0000 0.0000 0.0000 0.0000 0.0000 38.0146
#
#
#
# Elastic Compliance Matrix: (Units=1/GPa)
#
#
# Indices 1 2 3 4 5 6 
#
# 1 0.012937 -0.003724 0.000562 0.000000 0.000000 0.000000
# 2 -0.003724 0.021498 -0.010984 0.000000 0.000000 0.000000
# 3 0.000562 -0.010984 0.022260 0.000000 0.000000 0.000000
# 4 0.000000 0.000000 0.000000 0.027265 0.000000 0.000000
# 5 0.000000 0.000000 0.000000 0.000000 0.048993 0.000000
# 6 0.000000 0.000000 0.000000 0.000000 0.000000 0.026306
#
#
# Mechanical properties :
#
#
# Convention : Reuss Voigt Hill
#
# Bulk Modulus (GPa) = 35.20771 35.69643 35.45207
# Shear Modulus (GPa) = 25.37824 29.17587 27.27706
#
# Velocity S-wave (km/s) = 3.65269 3.91646 3.78687
# Velocity P-wave (km/s) = 6.02489 6.26245 6.14482
#
# Compressibility (1/GPa) = 0.02840287
#
# Stress axis : x y z
#
# Youngs Moduli (GPa) = 77.29642 46.51587 44.92405
#
# Poissons Ratio (x) = 0.17322 -0.02525
# Poissons Ratio (y) = 0.28784 0.49345
# Poissons Ratio (z) = -0.04344 0.51094
#
# Static dielectric constant tensor:
#      x y z
#    x 1.767900 0.000000 0.000000 
#    y 0.000000 1.744110 0.000000 
#    z 0.000000 0.000000 1.666540 
# 
# From -- ./inp_files/30962.got.cif
#   From: 2010.05.17/outbox.cif.g08.bks.cpg/sg58_16_cif.got.tgz:30962.got - 2010.06.03 14:20:14.
