data_PCOD9442513
_publ_section_title
;
Structure prediction by ZEFSAII (Michael W. Deem and Ramdas Pophale) SiO2 
 PCOD9442513
Probable space group: P N N M
;
_chemical_formula_sum "Si O2"
_cell_formula_units_Z 48
_cell_length_a 20.603567
_cell_length_b 14.575227
_cell_length_c 7.517924
_cell_angle_alpha 90.000000
_cell_angle_beta 90.000000
_cell_angle_gamma 90.000000
_cell_volume 2257.645102
_symmetry_space_group_name_H-M "P N N M"
_symmetry_group_IT_number 58
_symmetry_cell_setting 'orthorhombic'
loop_
_space_group_symop_operation_xyz
x,y,z
-x,-y,z
1/2+x,1/2-y,1/2-z
1/2-x,1/2+y,1/2-z
-x,-y,-z
x,y,-z
1/2-x,1/2+y,1/2+z
1/2+x,1/2-y,1/2+z
loop_
_atom_site_type_symbol
_atom_site_label
_atom_site_fract_x
_atom_site_fract_y
_atom_site_fract_z
Si Si1 0.177091 0.445585 0.705440
Si Si2 0.763096 0.741423 0.282648
Si Si3 0.386483 0.251394 0.288130
Si Si4 0.556063 0.936759 0.296881
Si Si5 0.066101 0.953115 0.714333
Si Si6 0.694867 0.442187 0.215757
O O1 0.156876 0.435987 0.500000
O O2 0.196019 0.346017 0.778890
O O3 0.120927 0.502214 0.799272
O O4 0.243323 0.502877 0.715079
O O5 0.761573 0.736209 0.500000
O O6 0.687911 0.739856 0.221336
O O7 0.796473 0.836611 0.232390
O O8 0.380224 0.236508 0.500000
O O9 0.423642 0.161552 0.216251
O O10 0.423897 0.346438 0.259328
O O11 0.534375 0.917253 0.500000
O O12 0.500000 0.000000 0.213685
O O13 0.065543 0.958813 0.500000
O O14 0.129004 0.009580 0.776864
O O15 0.000000 0.000000 0.779552
O O16 0.696845 0.446117 0.000000
#
# Coordination Sequence:
#
# PCOD9442513 Si02
#       6
#     8   8   8   8   8   8
#     4  11  21  34  56  86 113 139 183 235 278 324
#     4   9  18  33  55  81 109 146 186 226 278 330
#     4  10  19  36  59  80 109 148 187 228 279 335
#     4  10  22  40  60  82 112 151 190 225 273 339
#     4  10  22  37  56  85 117 148 186 231 280 335
#     4  10  19  36  58  78 109 152 189 224 272 329
#
# _framework density 21.261092000000001
#
# number of rings (size 3 to 8) (size 9 to 14) (size 15 to 20)
#    0.000    2.000    3.333    0.500    0.000    2.667 
#    0.000    3.333    0.000    0.000    0.000    0.000 
#    0.000    0.000    0.000    0.000    0.000    0.000 
#
# Total GULP energy -268113.331449 kJ/mol
# GULP energy per Si atom -5585.694405 kJ/mol
# Density = 2.121270 g / cm^3
# Si number density = 21.261092 Si / 1000 Ang^3
#
#
#
# Elastic Constant Matrix: (Units=GPa)
#
#
# Indices 1 2 3 4 5 6 
#
# 1 138.7094 80.5354 -5.2445 0.0000 0.0000 0.0000
# 2 80.5354 207.7221 -4.3605 0.0000 0.0000 0.0000
# 3 -5.2445 -4.3605 56.2940 0.0000 0.0000 0.0000
# 4 0.0000 0.0000 0.0000 -4.8817 0.0000 0.0000
# 5 0.0000 0.0000 0.0000 0.0000 38.8724 0.0000
# 6 0.0000 0.0000 0.0000 0.0000 0.0000 32.6928
#
#
#
# Elastic Compliance Matrix: (Units=1/GPa)
#
#
# Indices 1 2 3 4 5 6 
#
# 1 0.009323 -0.003602 0.000590 0.000000 0.000000 0.000000
# 2 -0.003602 0.006214 0.000146 0.000000 0.000000 0.000000
# 3 0.000590 0.000146 0.017830 0.000000 0.000000 0.000000
# 4 0.000000 0.000000 0.000000 -0.204846 0.000000 0.000000
# 5 0.000000 0.000000 0.000000 0.000000 0.025725 0.000000
# 6 0.000000 0.000000 0.000000 0.000000 0.000000 0.030588
#
#
# Mechanical properties :
#
#
# Convention : Reuss Voigt Hill
#
# Bulk Modulus (GPa) = 36.18863 60.50959 48.34911
# Shear Modulus (GPa) = -49.88986 35.45638 -7.21674
#
# Velocity S-wave (km/s) = -4.84936 4.08814 -1.84437
# Velocity P-wave (km/s) = 3.78114 7.12782 4.27252
#
# Compressibility (1/GPa) = 0.02763299
#
# Stress axis : x y z
#
# Youngs Moduli (GPa) = 107.26053 160.93205 56.08498
#
# Poissons Ratio (x) = 0.57972 -0.03306
# Poissons Ratio (y) = 0.38638 -0.00817
# Poissons Ratio (z) = -0.06323 -0.02345
#
# Static dielectric constant tensor:
#      x y z
#    x 1.724980 0.000000 0.000000 
#    y 0.000000 1.785980 0.000000 
#    z 0.000000 0.000000 1.805510 
# 
# From -- ./inp_files/5761.got.cif
#   From: 2010.05.17/outbox.cif.g08.bks.cpg/sg58_3_cif.got.tgz:5761.got - 2010.06.03 14:20:14.
