data_PCOD9442110
_publ_section_title
;
Structure prediction by ZEFSAII (Michael W. Deem and Ramdas Pophale) SiO2 
 PCOD9442110
Probable space group: P N N M
;
_chemical_formula_sum "Si O2"
_cell_formula_units_Z 48
_cell_length_a 29.362786
_cell_length_b 9.790634
_cell_length_c 7.526916
_cell_angle_alpha 90.000000
_cell_angle_beta 90.000000
_cell_angle_gamma 90.000000
_cell_volume 2163.840002
_symmetry_space_group_name_H-M "P N N M"
_symmetry_group_IT_number 58
_symmetry_cell_setting 'orthorhombic'
loop_
_space_group_symop_operation_xyz
x,y,z
-x,-y,z
1/2+x,1/2-y,1/2-z
1/2-x,1/2+y,1/2-z
-x,-y,-z
x,y,-z
1/2-x,1/2+y,1/2+z
1/2+x,1/2-y,1/2+z
loop_
_atom_site_type_symbol
_atom_site_label
_atom_site_fract_x
_atom_site_fract_y
_atom_site_fract_z
Si Si1 0.697449 0.505575 0.211588
Si Si2 0.041165 0.402386 0.283550
Si Si3 0.118058 0.809480 0.716793
Si Si4 0.014463 0.850937 0.282834
Si Si5 0.778304 0.693576 0.204582
Si Si6 0.860562 0.492554 0.284671
O O1 0.648525 0.561900 0.275288
O O2 0.736153 0.608258 0.285697
O O3 0.709145 0.346109 0.234122
O O4 0.696628 0.524195 0.000000
O O5 0.042704 0.406940 0.500000
O O6 0.090434 0.450806 0.224385
O O7 0.000000 0.500000 0.228432
O O8 0.024477 0.254188 0.227717
O O9 0.116219 0.809345 0.500000
O O10 0.065526 0.813263 0.775817
O O11 0.141661 0.666371 0.768890
O O12 0.015454 0.847656 0.500000
O O13 0.000000 0.000000 0.225961
O O14 0.820963 0.591395 0.220030
O O15 0.766580 0.714712 0.000000
O O16 0.859083 0.496106 0.500000
#
# Coordination Sequence:
#
# PCOD9442110 Si02
#       6
#     8   8   8   8   8   8
#     4  10  22  39  59  81 107 142 183 224 273 329
#     4   9  15  26  45  77 112 143 182 229 275 316
#     4   9  17  31  51  80 113 142 179 230 279 323
#     4   9  16  24  40  73 114 143 171 224 282 320
#     4  11  24  40  58  84 114 142 180 228 276 332
#     4  10  19  33  57  84 114 149 187 228 275 330
#
# _framework density 22.182784000000002
#
# number of rings (size 3 to 8) (size 9 to 14) (size 15 to 20)
#    0.000    2.333    1.667    1.500    2.333    2.667 
#    0.000    0.833    0.000    0.500    0.000    1.167 
#    0.000    0.000    0.000    0.000    0.000    0.000 
#
# Total GULP energy -267975.698125 kJ/mol
# GULP energy per Si atom -5582.827044 kJ/mol
# Density = 2.213229 g / cm^3
# Si number density = 22.182784 Si / 1000 Ang^3
#
#
#
# Elastic Constant Matrix: (Units=GPa)
#
#
# Indices 1 2 3 4 5 6 
#
# 1 66.7372 14.8772 -6.9874 0.0000 0.0000 0.0000
# 2 14.8772 130.9120 -3.9300 0.0000 0.0000 0.0000
# 3 -6.9874 -3.9300 52.1910 0.0000 0.0000 0.0000
# 4 0.0000 0.0000 0.0000 7.4501 0.0000 0.0000
# 5 0.0000 0.0000 0.0000 0.0000 6.3010 0.0000
# 6 0.0000 0.0000 0.0000 0.0000 0.0000 38.7852
#
#
#
# Elastic Compliance Matrix: (Units=1/GPa)
#
#
# Indices 1 2 3 4 5 6 
#
# 1 0.015570 -0.001711 0.001956 0.000000 0.000000 0.000000
# 2 -0.001711 0.007844 0.000362 0.000000 0.000000 0.000000
# 3 0.001956 0.000362 0.019449 0.000000 0.000000 0.000000
# 4 0.000000 0.000000 0.000000 0.134227 0.000000 0.000000
# 5 0.000000 0.000000 0.000000 0.000000 0.158705 0.000000
# 6 0.000000 0.000000 0.000000 0.000000 0.000000 0.025783
#
#
# Mechanical properties :
#
#
# Convention : Reuss Voigt Hill
#
# Bulk Modulus (GPa) = 22.68757 28.63997 25.66377
# Shear Modulus (GPa) = 13.33129 26.89929 20.11529
#
# Velocity S-wave (km/s) = 2.45414 3.48605 3.01457
# Velocity P-wave (km/s) = 4.27553 5.39836 4.86942
#
# Compressibility (1/GPa) = 0.04407699
#
# Stress axis : x y z
#
# Youngs Moduli (GPa) = 64.22496 127.48616 51.41534
#
# Poissons Ratio (x) = 0.21810 -0.10056
# Poissons Ratio (y) = 0.10987 -0.01859
# Poissons Ratio (z) = -0.12561 -0.04610
#
# Static dielectric constant tensor:
#      x y z
#    x 1.797350 0.000000 0.000000 
#    y 0.000000 1.829810 0.000000 
#    z 0.000000 0.000000 1.863330 
# 
# From -- ./inp_files/10734.got.cif
#   From: 2010.05.17/outbox.cif.g08.bks.cpg/sg58_6_cif.got.tgz:10734.got - 2010.06.03 14:20:14.
