data_PCOD9442557
_publ_section_title
;
Structure prediction by ZEFSAII (Michael W. Deem and Ramdas Pophale) SiO2 
 PCOD9442557
Probable space group: P N N M
;
_chemical_formula_sum "Si O2"
_cell_formula_units_Z 48
_cell_length_a 14.523435
_cell_length_b 18.957774
_cell_length_c 7.698170
_cell_angle_alpha 90.000000
_cell_angle_beta 90.000000
_cell_angle_gamma 90.000000
_cell_volume 2119.552530
_symmetry_space_group_name_H-M "P N N M"
_symmetry_group_IT_number 58
_symmetry_cell_setting 'orthorhombic'
loop_
_space_group_symop_operation_xyz
x,y,z
-x,-y,z
1/2+x,1/2-y,1/2-z
1/2-x,1/2+y,1/2-z
-x,-y,-z
x,y,-z
1/2-x,1/2+y,1/2+z
1/2+x,1/2-y,1/2+z
loop_
_atom_site_type_symbol
_atom_site_label
_atom_site_fract_x
_atom_site_fract_y
_atom_site_fract_z
Si Si1 0.661919 0.005951 0.789246
Si Si2 0.955471 0.890687 0.210119
Si Si3 0.183550 0.232101 0.705081
Si Si4 0.136152 0.656254 0.797735
Si Si5 0.635376 0.541051 0.289560
Si Si6 0.931258 0.640723 0.294910
O O1 0.758804 0.041969 0.737597
O O2 0.583863 0.060978 0.730647
O O3 0.657207 0.926969 0.720041
O O4 0.658914 0.998035 0.000000
O O5 0.896313 0.826478 0.279589
O O6 0.061403 0.900596 0.268773
O O7 0.904983 0.964108 0.257192
O O8 0.954516 0.885580 0.000000
O O9 0.199857 0.243671 0.500000
O O10 0.278451 0.200432 0.778641
O O11 0.141458 0.303740 0.780794
O O12 0.034860 0.667487 0.723436
O O13 0.129199 0.673582 0.000000
O O14 0.634800 0.544250 0.500000
O O15 0.912339 0.636264 0.500000
#
# Coordination Sequence:
#
# PCOD9442557 Si02
#       6
#     8   8   8   8   8   8
#     4  10  19  36  61  84 110 150 193 232 274 328
#     4   9  16  30  54  83 111 143 186 230 270 324
#     4  10  22  39  56  81 116 151 184 228 288 341
#     4  11  23  39  60  85 114 146 182 233 289 334
#     4   8  15  28  52  85 111 137 184 234 269 316
#     4  10  23  40  58  81 111 149 193 231 270 333
#
# _framework density 22.646291000000002
#
# number of rings (size 3 to 8) (size 9 to 14) (size 15 to 20)
#    0.000    2.333    1.667    2.000    0.000    5.333 
#    0.000    5.833    0.000    0.000    0.000    0.000 
#    0.000    0.000    0.000    0.000    0.000    0.000 
#
# Total GULP energy -267960.161154 kJ/mol
# GULP energy per Si atom -5582.503357 kJ/mol
# Density = 2.259475 g / cm^3
# Si number density = 22.646291 Si / 1000 Ang^3
#
#
#
# Elastic Constant Matrix: (Units=GPa)
#
#
# Indices 1 2 3 4 5 6 
#
# 1 85.1537 43.2571 -11.3236 0.0000 0.0000 0.0000
# 2 43.2571 71.7764 -5.1253 0.0000 0.0000 0.0000
# 3 -11.3236 -5.1253 32.4103 0.0000 0.0000 0.0000
# 4 0.0000 0.0000 0.0000 18.8192 0.0000 0.0000
# 5 0.0000 0.0000 0.0000 0.0000 18.7277 0.0000
# 6 0.0000 0.0000 0.0000 0.0000 0.0000 18.5662
#
#
#
# Elastic Compliance Matrix: (Units=1/GPa)
#
#
# Indices 1 2 3 4 5 6 
#
# 1 0.017554 -0.010257 0.004511 0.000000 0.000000 0.000000
# 2 -0.010257 0.020085 -0.000407 0.000000 0.000000 0.000000
# 3 0.004511 -0.000407 0.032366 0.000000 0.000000 0.000000
# 4 0.000000 0.000000 0.000000 0.053137 0.000000 0.000000
# 5 0.000000 0.000000 0.000000 0.000000 0.053397 0.000000
# 6 0.000000 0.000000 0.000000 0.000000 0.000000 0.053861
#
#
# Mechanical properties :
#
#
# Convention : Reuss Voigt Hill
#
# Bulk Modulus (GPa) = 17.33178 26.99520 22.16349
# Shear Modulus (GPa) = 19.08845 22.05813 20.57329
#
# Velocity S-wave (km/s) = 2.90642 3.12433 3.01734
# Velocity P-wave (km/s) = 4.35119 4.99615 4.68478
#
# Compressibility (1/GPa) = 0.05769746
#
# Stress axis : x y z
#
# Youngs Moduli (GPa) = 56.96803 49.78963 30.89663
#
# Poissons Ratio (x) = 0.51069 -0.13937
# Poissons Ratio (y) = 0.58431 0.01259
# Poissons Ratio (z) = -0.25698 0.02029
#
# Static dielectric constant tensor:
#      x y z
#    x 1.860750 0.000000 0.000000 
#    y 0.000000 1.843000 0.000000 
#    z 0.000000 0.000000 1.850630 
# 
# From -- ./inp_files/5823.got.cif
#   From: 2010.05.17/outbox.cif.g08.bks.cpg/sg58_3_cif.got.tgz:5823.got - 2010.06.03 14:20:14.
