data_PCOD9442369
_publ_section_title
;
Structure prediction by ZEFSAII (Michael W. Deem and Ramdas Pophale) SiO2 
 PCOD9442369
Probable space group: P N N M
;
_chemical_formula_sum "Si O2"
_cell_formula_units_Z 64
_cell_length_a 14.891794
_cell_length_b 24.573547
_cell_length_c 7.479208
_cell_angle_alpha 90.000000
_cell_angle_beta 90.000000
_cell_angle_gamma 90.000000
_cell_volume 2736.972786
_symmetry_space_group_name_H-M "P N N M"
_symmetry_group_IT_number 58
_symmetry_cell_setting 'orthorhombic'
loop_
_space_group_symop_operation_xyz
x,y,z
-x,-y,z
1/2+x,1/2-y,1/2-z
1/2-x,1/2+y,1/2-z
-x,-y,-z
x,y,-z
1/2-x,1/2+y,1/2+z
1/2+x,1/2-y,1/2+z
loop_
_atom_site_type_symbol
_atom_site_label
_atom_site_fract_x
_atom_site_fract_y
_atom_site_fract_z
Si Si1 0.702084 0.192859 0.209463
Si Si2 0.774587 0.532828 0.208657
Si Si3 0.968988 0.559787 0.216408
Si Si4 0.641908 0.616774 0.701335
Si Si5 0.971238 0.939350 0.780933
Si Si6 0.268841 0.585185 0.715071
Si Si7 0.498166 0.820756 0.206475
Si Si8 0.809063 0.300084 0.717561
O O1 0.781409 0.154510 0.286993
O O2 0.601149 0.188692 0.286667
O O3 0.741860 0.253066 0.224080
O O4 0.694179 0.177306 0.000000
O O5 0.864495 0.562696 0.269944
O O6 0.688960 0.557358 0.306045
O O7 0.785459 0.468584 0.231965
O O8 0.761900 0.543371 0.000000
O O9 0.000000 0.500000 0.275517
O O10 0.015466 0.614042 0.286516
O O11 0.974740 0.560814 0.000000
O O12 0.627405 0.637746 0.500000
O O13 0.544955 0.604672 0.781851
O O14 0.871024 0.924542 0.723835
O O15 0.973543 0.938903 0.000000
O O16 0.000000 0.000000 0.724031
O O17 0.270019 0.586840 0.500000
O O18 0.227240 0.641411 0.778738
O O19 0.587907 0.792906 0.281272
O O20 0.492210 0.803374 0.000000
O O21 0.810931 0.300156 0.500000
#
# Coordination Sequence:
#
# PCOD9442369 Si02
#       8
#     8   8   8   8   8   8   8   8
#     4  10  22  39  61  84 112 151 195 237 283 343
#     4  11  21  32  52  83 115 145 181 232 286 338
#     4  10  21  35  53  82 117 152 189 231 284 344
#     4  10  19  35  57  80 107 147 192 233 275 330
#     4   9  16  29  54  81 107 143 189 233 270 324
#     4  10  20  36  56  80 111 151 191 231 282 343
#     4  10  21  39  60  86 115 147 191 240 288 340
#     4  10  23  40  60  86 116 148 190 242 289 335
#
# _framework density 23.383500000000002
#
# number of rings (size 3 to 8) (size 9 to 14) (size 15 to 20)
#    0.000    2.000    2.500    1.125    0.000    3.750 
#    0.000    2.500    0.000    0.000    0.000    0.000 
#    0.000    0.000    0.000    0.000    0.000    0.000 
#
# Total GULP energy -357574.462546 kJ/mol
# GULP energy per Si atom -5587.100977 kJ/mol
# Density = 2.333028 g / cm^3
# Si number density = 23.383500 Si / 1000 Ang^3
#
#
#
# Elastic Constant Matrix: (Units=GPa)
#
#
# Indices 1 2 3 4 5 6 
#
# 1 128.7879 30.5286 8.5537 0.0000 0.0000 0.0000
# 2 30.5286 92.4918 -5.0079 0.0000 0.0000 0.0000
# 3 8.5537 -5.0079 73.3442 0.0000 0.0000 0.0000
# 4 0.0000 0.0000 0.0000 20.7101 0.0000 0.0000
# 5 0.0000 0.0000 0.0000 0.0000 -1.2543 0.0000
# 6 0.0000 0.0000 0.0000 0.0000 0.0000 39.2984
#
#
#
# Elastic Compliance Matrix: (Units=1/GPa)
#
#
# Indices 1 2 3 4 5 6 
#
# 1 0.008526 -0.002879 -0.001191 0.000000 0.000000 0.000000
# 2 -0.002879 0.011824 0.001143 0.000000 0.000000 0.000000
# 3 -0.001191 0.001143 0.013851 0.000000 0.000000 0.000000
# 4 0.000000 0.000000 0.000000 0.048286 0.000000 0.000000
# 5 0.000000 0.000000 0.000000 0.000000 -0.797264 0.000000
# 6 0.000000 0.000000 0.000000 0.000000 0.000000 0.025446
#
#
# Mechanical properties :
#
#
# Convention : Reuss Voigt Hill
#
# Bulk Modulus (GPa) = 35.27566 40.30808 37.79187
# Shear Modulus (GPa) = -7.41809 29.12083 10.85137
#
# Velocity S-wave (km/s) = -1.78304 3.53279 2.15654
# Velocity P-wave (km/s) = 3.29840 5.82375 4.73263
#
# Compressibility (1/GPa) = 0.02834816
#
# Stress axis : x y z
#
# Youngs Moduli (GPa) = 117.28580 84.57501 72.19551
#
# Poissons Ratio (x) = 0.24347 0.08598
# Poissons Ratio (y) = 0.33763 -0.08252
# Poissons Ratio (z) = 0.13968 -0.09667
#
# Static dielectric constant tensor:
#      x y z
#    x 1.896240 0.000000 0.000000 
#    y 0.000000 1.862660 0.000000 
#    z 0.000000 0.000000 1.875840 
# 
# From -- ./inp_files/6964.got.cif
#   From: 2010.05.17/outbox.cif.g08.bks.cpg/sg58_4_cif.got.tgz:6964.got - 2010.06.03 14:20:14.
