data_PCOD9442192
_publ_section_title
;
Structure prediction by ZEFSAII (Michael W. Deem and Ramdas Pophale) SiO2 
 PCOD9442192
Probable space group: P N N M
;
_chemical_formula_sum "Si O2"
_cell_formula_units_Z 64
_cell_length_a 17.727876
_cell_length_b 23.156097
_cell_length_c 8.792921
_cell_angle_alpha 90.000000
_cell_angle_beta 90.000000
_cell_angle_gamma 90.000000
_cell_volume 3609.568074
_symmetry_space_group_name_H-M "P N N M"
_symmetry_group_IT_number 58
_symmetry_cell_setting 'orthorhombic'
loop_
_space_group_symop_operation_xyz
x,y,z
-x,-y,z
1/2+x,1/2-y,1/2-z
1/2-x,1/2+y,1/2-z
-x,-y,-z
x,y,-z
1/2-x,1/2+y,1/2+z
1/2+x,1/2-y,1/2+z
loop_
_atom_site_type_symbol
_atom_site_label
_atom_site_fract_x
_atom_site_fract_y
_atom_site_fract_z
Si Si1 0.073967 0.036410 0.316681
Si Si2 0.716178 0.884565 0.318245
Si Si3 0.430707 0.161961 0.824913
Si Si4 0.624598 0.346991 0.681148
Si Si5 0.761154 0.010752 0.684255
Si Si6 0.583810 0.223742 0.817425
Si Si7 0.491008 0.932633 0.333450
Si Si8 0.173493 0.379700 0.174250
O O1 0.075480 0.043732 0.500000
O O2 0.075368 0.099105 0.240424
O O3 0.152368 0.004145 0.274817
O O4 0.000000 0.000000 0.276520
O O5 0.724605 0.882966 0.500000
O O6 0.646286 0.845344 0.266859
O O7 0.791500 0.860701 0.240946
O O8 0.712540 0.953240 0.274125
O O9 0.499618 0.202394 0.768874
O O10 0.468145 0.099179 0.802867
O O11 0.414702 0.175423 0.000000
O O12 0.623419 0.344428 0.500000
O O13 0.598878 0.286473 0.750843
O O14 0.756634 0.014539 0.500000
O O15 0.732425 0.073309 0.740113
O O16 0.647284 0.178055 0.760891
O O17 0.584504 0.224303 0.000000
O O18 0.522365 0.913156 0.500000
O O19 0.403878 0.916103 0.332432
O O20 0.500000 0.000000 0.324754
O O21 0.194966 0.364256 0.000000
#
# Coordination Sequence:
#
# PCOD9442192 Si02
#       8
#     8   8   8   8   8   8   8   8
#     4   9  18  35  59  84 109 139 175 217 271 330
#     4  10  19  34  56  79 105 137 173 214 266 326
#     4  10  20  32  48  73 103 134 173 220 262 305
#     4  11  22  37  58  81 105 137 180 227 272 317
#     4   8  15  29  51  78 105 136 173 213 260 316
#     4  10  21  37  53  72 104 145 184 220 265 321
#     4   9  16  26  42  65  95 134 174 208 249 302
#     4   9  16  28  47  71 100 134 173 213 252 302
#
# _framework density 17.730654000000001
#
# number of rings (size 3 to 8) (size 9 to 14) (size 15 to 20)
#    0.000    2.500    0.000    3.750    0.000    4.000 
#    0.000    6.875    0.000    6.000    0.000    0.000 
#    0.000    0.000    0.000    0.000    0.000    0.000 
#
# Total GULP energy -356510.402365 kJ/mol
# GULP energy per Si atom -5570.475037 kJ/mol
# Density = 1.769030 g / cm^3
# Si number density = 17.730654 Si / 1000 Ang^3
#
#
#
# Elastic Constant Matrix: (Units=GPa)
#
#
# Indices 1 2 3 4 5 6 
#
# 1 75.4730 68.2117 32.6151 0.0000 0.0000 0.0000
# 2 68.2117 144.7319 48.9543 0.0000 0.0000 0.0000
# 3 32.6151 48.9543 49.7136 0.0000 0.0000 0.0000
# 4 0.0000 0.0000 0.0000 22.5058 0.0000 0.0000
# 5 0.0000 0.0000 0.0000 0.0000 22.9321 0.0000
# 6 0.0000 0.0000 0.0000 0.0000 0.0000 20.3915
#
#
#
# Elastic Compliance Matrix: (Units=1/GPa)
#
#
# Indices 1 2 3 4 5 6 
#
# 1 0.024644 -0.009215 -0.007093 0.000000 0.000000 0.000000
# 2 -0.009215 0.013806 -0.007549 0.000000 0.000000 0.000000
# 3 -0.007093 -0.007549 0.032203 0.000000 0.000000 0.000000
# 4 0.000000 0.000000 0.000000 0.044433 0.000000 0.000000
# 5 0.000000 0.000000 0.000000 0.000000 0.043607 0.000000
# 6 0.000000 0.000000 0.000000 0.000000 0.000000 0.049040
#
#
# Mechanical properties :
#
#
# Convention : Reuss Voigt Hill
#
# Bulk Modulus (GPa) = 43.59799 63.27564 53.43681
# Shear Modulus (GPa) = 19.00463 21.17505 20.08984
#
# Velocity S-wave (km/s) = 3.27747 3.45956 3.36974
# Velocity P-wave (km/s) = 6.24218 7.19185 6.73378
#
# Compressibility (1/GPa) = 0.02293684
#
# Stress axis : x y z
#
# Youngs Moduli (GPa) = 40.57820 72.43247 31.05321
#
# Poissons Ratio (x) = 0.66749 0.22027
# Poissons Ratio (y) = 0.37394 0.23443
# Poissons Ratio (z) = 0.28783 0.54681
#
# Static dielectric constant tensor:
#      x y z
#    x 1.634820 0.000000 0.000000 
#    y 0.000000 1.620730 0.000000 
#    z 0.000000 0.000000 1.621470 
# 
# From -- ./inp_files/8281.got.cif
#   From: 2010.05.17/outbox.cif.g08.bks.cpg/sg58_5_cif.got.tgz:8281.got - 2010.06.03 14:20:14.
