data_PCOD9442047
_publ_section_title
;
Structure prediction by ZEFSAII (Michael W. Deem and Ramdas Pophale) SiO2 
 PCOD9442047
Probable space group: P N N M
;
_chemical_formula_sum "Si O2"
_cell_formula_units_Z 64
_cell_length_a 24.298888
_cell_length_b 14.900643
_cell_length_c 7.364480
_cell_angle_alpha 90.000000
_cell_angle_beta 90.000000
_cell_angle_gamma 90.000000
_cell_volume 2666.450317
_symmetry_space_group_name_H-M "P N N M"
_symmetry_group_IT_number 58
_symmetry_cell_setting 'orthorhombic'
loop_
_space_group_symop_operation_xyz
x,y,z
-x,-y,z
1/2+x,1/2-y,1/2-z
1/2-x,1/2+y,1/2-z
-x,-y,-z
x,y,-z
1/2-x,1/2+y,1/2+z
1/2+x,1/2-y,1/2+z
loop_
_atom_site_type_symbol
_atom_site_label
_atom_site_fract_x
_atom_site_fract_y
_atom_site_fract_z
Si Si1 0.150634 0.882827 0.297111
Si Si2 0.273272 0.863019 0.279971
Si Si3 0.378895 0.185862 0.720624
Si Si4 0.448883 0.721158 0.215563
Si Si5 0.037821 0.917013 0.721344
Si Si6 0.829038 0.827353 0.289735
Si Si7 0.276417 0.064153 0.279302
Si Si8 0.993613 0.399200 0.217925
O O1 0.161037 0.919306 0.500000
O O2 0.210091 0.868098 0.214266
O O3 0.125069 0.783820 0.302714
O O4 0.099719 0.934274 0.210644
O O5 0.274312 0.855989 0.500000
O O6 0.302816 0.773089 0.214674
O O7 0.293232 0.962697 0.228594
O O8 0.378795 0.193266 0.500000
O O9 0.324797 0.131059 0.775326
O O10 0.435012 0.139115 0.779165
O O11 0.503297 0.669633 0.285139
O O12 0.390658 0.684111 0.288113
O O13 0.458835 0.827164 0.240125
O O14 0.447848 0.704629 0.000000
O O15 0.042835 0.912963 0.500000
O O16 0.000000 0.000000 0.767028
O O17 0.835979 0.853246 0.500000
O O18 0.782957 0.897013 0.215699
O O19 0.274272 0.065277 0.500000
O O20 0.000000 0.500000 0.286884
O O21 0.991426 0.403874 0.000000
#
# Coordination Sequence:
#
# PCOD9442047 Si02
#       8
#     8   8   8   8   8   8   8   8
#     4  10  19  33  55  82 107 134 175 225 268 306
#     4  10  21  35  56  82 106 138 180 223 265 310
#     4  10  19  35  57  76 101 142 181 214 262 316
#     4  10  21  36  55  80 109 141 175 216 269 318
#     4   9  18  32  53  80 109 138 171 215 264 314
#     4  10  21  37  55  77 108 143 177 215 265 323
#     4   9  19  35  55  78 106 140 178 218 260 314
#     4  10  22  37  56  80 106 141 183 220 260 315
#
# _framework density 24.001949
#
# number of rings (size 3 to 8) (size 9 to 14) (size 15 to 20)
#    0.000    2.250    2.500    0.000    3.500    0.750 
#    0.000    1.250    0.000    1.500    0.000    0.000 
#    0.000    0.000    0.000    0.000    0.000    0.000 
#
# Total GULP energy -357433.350643 kJ/mol
# GULP energy per Si atom -5584.896104 kJ/mol
# Density = 2.394732 g / cm^3
# Si number density = 24.001949 Si / 1000 Ang^3
#
#
#
# Elastic Constant Matrix: (Units=GPa)
#
#
# Indices 1 2 3 4 5 6 
#
# 1 78.3016 -17.6829 -0.6960 0.0000 0.0000 0.0000
# 2 -17.6829 63.7738 -8.3863 0.0000 0.0000 0.0000
# 3 -0.6960 -8.3863 91.3121 0.0000 0.0000 0.0000
# 4 0.0000 0.0000 0.0000 25.4407 0.0000 0.0000
# 5 0.0000 0.0000 0.0000 0.0000 -0.5797 0.0000
# 6 0.0000 0.0000 0.0000 0.0000 0.0000 39.8998
#
#
#
# Elastic Compliance Matrix: (Units=1/GPa)
#
#
# Indices 1 2 3 4 5 6 
#
# 1 0.013643 0.003843 0.000457 0.000000 0.000000 0.000000
# 2 0.003843 0.016955 0.001586 0.000000 0.000000 0.000000
# 3 0.000457 0.001586 0.011101 0.000000 0.000000 0.000000
# 4 0.000000 0.000000 0.000000 0.039307 0.000000 0.000000
# 5 0.000000 0.000000 0.000000 0.000000 -1.724903 0.000000
# 6 0.000000 0.000000 0.000000 0.000000 0.000000 0.025063
#
#
# Mechanical properties :
#
#
# Convention : Reuss Voigt Hill
#
# Bulk Modulus (GPa) = 18.70172 19.98411 19.34292
# Shear Modulus (GPa) = -3.10023 30.29568 13.59772
#
# Velocity S-wave (km/s) = -1.13774 3.55662 2.38276
# Velocity P-wave (km/s) = 2.46632 5.02098 3.95556
#
# Compressibility (1/GPa) = 0.05347100
#
# Stress axis : x y z
#
# Youngs Moduli (GPa) = 73.29736 58.98108 90.08487
#
# Poissons Ratio (x) = -0.22666 -0.04116
# Poissons Ratio (y) = -0.28168 -0.14291
# Poissons Ratio (z) = -0.03349 -0.09357
#
# Static dielectric constant tensor:
#      x y z
#    x 1.927790 0.000000 0.000000 
#    y 0.000000 1.896740 0.000000 
#    z 0.000000 0.000000 1.943620 
# 
# From -- ./inp_files/9966.got.cif
#   From: 2010.05.17/outbox.cif.g08.bks.cpg/sg58_5_cif.got.tgz:9966.got - 2010.06.03 14:20:14.
