data_PCOD9442516
_publ_section_title
;
Structure prediction by ZEFSAII (Michael W. Deem and Ramdas Pophale) SiO2 
 PCOD9442516
Probable space group: P N N M
;
_chemical_formula_sum "Si O2"
_cell_formula_units_Z 48
_cell_length_a 10.440530
_cell_length_b 16.416132
_cell_length_c 14.700552
_cell_angle_alpha 90.000000
_cell_angle_beta 90.000000
_cell_angle_gamma 90.000000
_cell_volume 2519.573453
_symmetry_space_group_name_H-M "P N N M"
_symmetry_group_IT_number 58
_symmetry_cell_setting 'orthorhombic'
loop_
_space_group_symop_operation_xyz
x,y,z
-x,-y,z
1/2+x,1/2-y,1/2-z
1/2-x,1/2+y,1/2-z
-x,-y,-z
x,y,-z
1/2-x,1/2+y,1/2+z
1/2+x,1/2-y,1/2+z
loop_
_atom_site_type_symbol
_atom_site_label
_atom_site_fract_x
_atom_site_fract_y
_atom_site_fract_z
Si Si1 0.570243 0.081079 0.740070
Si Si2 0.171967 0.287215 0.897445
Si Si3 0.187215 0.676486 0.745334
Si Si4 0.922120 0.190759 0.142780
Si Si5 0.730722 0.534405 0.601327
Si Si6 0.913920 0.929380 0.756006
O O1 0.651264 0.132888 0.666136
O O2 0.453412 0.139862 0.769858
O O3 0.657463 0.053423 0.825573
O O4 0.500000 0.000000 0.702689
O O5 0.259221 0.221302 0.844356
O O6 0.033816 0.242429 0.903119
O O7 0.215618 0.305534 0.000000
O O8 0.180360 0.746071 0.820744
O O9 0.282816 0.606722 0.781881
O O10 0.852731 0.116508 0.094777
O O11 0.993355 0.146449 0.227087
O O12 0.773327 0.510237 0.500000
O O13 0.638097 0.467627 0.648322
O O14 0.000000 0.000000 0.711867
#
# Coordination Sequence:
#
# PCOD9442516 Si02
#       6
#     8   8   8   8   8   8
#     4  11  22  38  56  82 121 153 188 235 290 338
#     4  10  21  37  61  85 110 150 199 238 277 334
#     4  10  19  36  58  80 116 150 186 234 290 334
#     4   9  19  35  56  85 113 146 186 235 283 332
#     4  11  21  35  56  85 119 151 184 229 291 351
#     4   9  19  33  54  81 110 150 184 227 280 343
#
# _framework density 19.050844999999999
#
# number of rings (size 3 to 8) (size 9 to 14) (size 15 to 20)
#    0.000    2.000    3.333    0.500    0.000    7.000 
#    0.000    0.000    0.000    0.000    0.000    2.333 
#    0.000    0.000    0.000    0.000    0.000    0.000 
#
# Total GULP energy -267248.328581 kJ/mol
# GULP energy per Si atom -5567.673512 kJ/mol
# Density = 1.900748 g / cm^3
# Si number density = 19.050845 Si / 1000 Ang^3
#
#
#
# Elastic Constant Matrix: (Units=GPa)
#
#
# Indices 1 2 3 4 5 6 
#
# 1 60.4457 11.8611 14.7294 0.0000 0.0000 0.0000
# 2 11.8611 85.1264 17.6607 0.0000 0.0000 0.0000
# 3 14.7294 17.6607 44.7339 0.0000 0.0000 0.0000
# 4 0.0000 0.0000 0.0000 5.0257 0.0000 0.0000
# 5 0.0000 0.0000 0.0000 0.0000 40.7460 0.0000
# 6 0.0000 0.0000 0.0000 0.0000 0.0000 46.6792
#
#
#
# Elastic Compliance Matrix: (Units=1/GPa)
#
#
# Indices 1 2 3 4 5 6 
#
# 1 0.018140 -0.001403 -0.005419 0.000000 0.000000 0.000000
# 2 -0.001403 0.012904 -0.004632 0.000000 0.000000 0.000000
# 3 -0.005419 -0.004632 0.025967 0.000000 0.000000 0.000000
# 4 0.000000 0.000000 0.000000 0.198979 0.000000 0.000000
# 5 0.000000 0.000000 0.000000 0.000000 0.024542 0.000000
# 6 0.000000 0.000000 0.000000 0.000000 0.000000 0.021423
#
#
# Mechanical properties :
#
#
# Convention : Reuss Voigt Hill
#
# Bulk Modulus (GPa) = 29.32367 30.97870 30.15118
# Shear Modulus (GPa) = 14.87074 28.22716 21.54895
#
# Velocity S-wave (km/s) = 2.79692 3.85343 3.36687
# Velocity P-wave (km/s) = 5.08489 6.00790 5.56556
#
# Compressibility (1/GPa) = 0.03410215
#
# Stress axis : x y z
#
# Youngs Moduli (GPa) = 55.12804 77.49660 38.50981
#
# Poissons Ratio (x) = 0.10875 0.20868
# Poissons Ratio (y) = 0.07736 0.17839
# Poissons Ratio (z) = 0.29873 0.35899
#
# Static dielectric constant tensor:
#      x y z
#    x 1.699840 0.000000 0.000000 
#    y 0.000000 1.697110 0.000000 
#    z 0.000000 0.000000 1.656710 
# 
# From -- ./inp_files/14385.got.cif
#   From: 2010.05.17/outbox.cif.g08.bks.cpg/sg58_8_cif.got.tgz:14385.got - 2010.06.03 14:20:14.
