data_PCOD9442031
_publ_section_title
;
Structure prediction by ZEFSAII (Michael W. Deem and Ramdas Pophale) SiO2 
 PCOD9442031
Probable space group: P N N M
;
_chemical_formula_sum "Si O2"
_cell_formula_units_Z 48
_cell_length_a 20.263977
_cell_length_b 15.483799
_cell_length_c 8.069912
_cell_angle_alpha 90.000000
_cell_angle_beta 90.000000
_cell_angle_gamma 90.000000
_cell_volume 2532.042598
_symmetry_space_group_name_H-M "P N N M"
_symmetry_group_IT_number 58
_symmetry_cell_setting 'orthorhombic'
loop_
_space_group_symop_operation_xyz
x,y,z
-x,-y,z
1/2+x,1/2-y,1/2-z
1/2-x,1/2+y,1/2-z
-x,-y,-z
x,y,-z
1/2-x,1/2+y,1/2+z
1/2+x,1/2-y,1/2+z
loop_
_atom_site_type_symbol
_atom_site_label
_atom_site_fract_x
_atom_site_fract_y
_atom_site_fract_z
Si Si1 0.439426 0.559194 0.695192
Si Si2 0.464054 0.086965 0.700543
Si Si3 0.488393 0.275613 0.197493
Si Si4 0.685988 0.883813 0.300067
Si Si5 0.162608 0.804578 0.299990
Si Si6 0.200410 0.990387 0.696792
O O1 0.500000 0.500000 0.759638
O O2 0.432614 0.542289 0.500000
O O3 0.460510 0.657773 0.724362
O O4 0.370805 0.533685 0.777605
O O5 0.464205 0.087379 0.500000
O O6 0.498005 0.175441 0.758897
O O7 0.387763 0.091045 0.757168
O O8 0.500000 0.000000 0.756967
O O9 0.413988 0.299669 0.256694
O O10 0.490534 0.286367 0.000000
O O11 0.685829 0.887441 0.500000
O O12 0.696867 0.784345 0.251334
O O13 0.741708 0.948792 0.235387
O O14 0.160948 0.807281 0.500000
O O15 0.195555 0.892585 0.236990
O O16 0.212041 0.983037 0.500000
#
# Coordination Sequence:
#
# PCOD9442031 Si02
#       6
#     8   8   8   8   8   8
#     4  11  22  34  53  82 110 137 175 223 274 325
#     4   9  18  35  57  80 109 143 181 224 270 316
#     4  10  19  33  55  79 106 141 179 220 266 322
#     4   9  19  35  55  77 105 141 180 221 263 316
#     4   9  18  33  54  76 102 141 179 215 264 318
#     4  10  20  36  55  76 107 145 181 219 269 323
#
# _framework density 18.957028000000001
#
# number of rings (size 3 to 8) (size 9 to 14) (size 15 to 20)
#    0.000    2.333    1.667    1.000    0.000    3.000 
#    3.000    0.000    0.000    0.000    0.000    0.000 
#    0.000    0.000    0.000    0.000    0.000    0.000 
#
# Total GULP energy -267840.082493 kJ/mol
# GULP energy per Si atom -5580.001719 kJ/mol
# Density = 1.891388 g / cm^3
# Si number density = 18.957028 Si / 1000 Ang^3
#
#
#
# Elastic Constant Matrix: (Units=GPa)
#
#
# Indices 1 2 3 4 5 6 
#
# 1 68.0493 73.5564 -3.0373 0.0000 0.0000 0.0000
# 2 73.5564 177.8212 -0.9154 0.0000 0.0000 0.0000
# 3 -3.0373 -0.9154 7.2603 0.0000 0.0000 0.0000
# 4 0.0000 0.0000 0.0000 24.1455 0.0000 0.0000
# 5 0.0000 0.0000 0.0000 0.0000 16.2394 0.0000
# 6 0.0000 0.0000 0.0000 0.0000 0.0000 35.9094
#
#
#
# Elastic Compliance Matrix: (Units=1/GPa)
#
#
# Indices 1 2 3 4 5 6 
#
# 1 0.027286 -0.011236 0.009999 0.000000 0.000000 0.000000
# 2 -0.011236 0.010254 -0.003408 0.000000 0.000000 0.000000
# 3 0.009999 -0.003408 0.141488 0.000000 0.000000 0.000000
# 4 0.000000 0.000000 0.000000 0.041416 0.000000 0.000000
# 5 0.000000 0.000000 0.000000 0.000000 0.061579 0.000000
# 6 0.000000 0.000000 0.000000 0.000000 0.000000 0.027848
#
#
# Mechanical properties :
#
#
# Convention : Reuss Voigt Hill
#
# Bulk Modulus (GPa) = 5.89141 43.59314 24.74227
# Shear Modulus (GPa) = 13.30711 27.49401 20.40056
#
# Velocity S-wave (km/s) = 2.65233 3.81246 3.28403
# Velocity P-wave (km/s) = 3.53473 6.51348 5.24022
#
# Compressibility (1/GPa) = 0.16973876
#
# Stress axis : x y z
#
# Youngs Moduli (GPa) = 36.64826 97.52525 7.06774
#
# Poissons Ratio (x) = 1.09576 -0.07067
# Poissons Ratio (y) = 0.41177 0.02408
# Poissons Ratio (z) = -0.36643 0.33233
#
# Static dielectric constant tensor:
#      x y z
#    x 1.642940 0.000000 0.000000 
#    y 0.000000 1.661230 0.000000 
#    z 0.000000 0.000000 1.671860 
# 
# From -- ./inp_files/5774.got.cif
#   From: 2010.05.17/outbox.cif.g08.bks.cpg/sg58_3_cif.got.tgz:5774.got - 2010.06.03 14:20:14.
