data_PCOD9442453
_publ_section_title
;
Structure prediction by ZEFSAII (Michael W. Deem and Ramdas Pophale) SiO2 
 PCOD9442453
Probable space group: P N N M
;
_chemical_formula_sum "Si O2"
_cell_formula_units_Z 48
_cell_length_a 17.331736
_cell_length_b 14.773794
_cell_length_c 7.496442
_cell_angle_alpha 90.000000
_cell_angle_beta 90.000000
_cell_angle_gamma 90.000000
_cell_volume 1919.505184
_symmetry_space_group_name_H-M "P N N M"
_symmetry_group_IT_number 58
_symmetry_cell_setting 'orthorhombic'
loop_
_space_group_symop_operation_xyz
x,y,z
-x,-y,z
1/2+x,1/2-y,1/2-z
1/2-x,1/2+y,1/2-z
-x,-y,-z
x,y,-z
1/2-x,1/2+y,1/2+z
1/2+x,1/2-y,1/2+z
loop_
_atom_site_type_symbol
_atom_site_label
_atom_site_fract_x
_atom_site_fract_y
_atom_site_fract_z
Si Si1 0.614613 0.440420 0.216928
Si Si2 0.943368 0.124353 0.712808
Si Si3 0.837990 0.656307 0.218444
Si Si4 0.009148 0.683460 0.212370
Si Si5 0.619223 0.960448 0.702561
Si Si6 0.757601 0.317931 0.703153
O O1 0.615316 0.546274 0.273006
O O2 0.529780 0.404739 0.269163
O O3 0.679693 0.377827 0.297567
O O4 0.621684 0.435433 0.000000
O O5 0.942436 0.117804 0.500000
O O6 0.937495 0.229423 0.756355
O O7 0.843285 0.551849 0.277349
O O8 0.768813 0.721000 0.279120
O O9 0.921408 0.696507 0.274859
O O10 0.832353 0.659470 0.000000
O O11 0.046287 0.591249 0.285907
O O12 0.004505 0.673162 0.000000
O O13 0.597503 0.985746 0.500000
O O14 0.682022 0.880936 0.697985
O O15 0.785661 0.306298 0.500000
#
# Coordination Sequence:
#
# PCOD9442453 Si02
#       6
#     8   8   8   8   8   8
#     4   9  18  34  54  79 112 151 189 220 269 340
#     4   9  18  32  54  83 114 147 182 226 278 330
#     4   9  19  38  61  82 107 147 190 231 278 331
#     4  10  19  35  60  87 111 144 193 239 278 327
#     4  10  22  39  59  82 112 150 190 229 278 346
#     4  11  22  37  58  84 114 146 186 238 290 331
#
# _framework density 25.006444999999999
#
# number of rings (size 3 to 8) (size 9 to 14) (size 15 to 20)
#    0.000    2.333    1.667    2.000    0.000    4.667 
#    0.000    9.167    0.000    2.000    0.000    0.000 
#    0.000    0.000    0.000    0.000    0.000    0.000 
#
# Total GULP energy -268144.746685 kJ/mol
# GULP energy per Si atom -5586.348889 kJ/mol
# Density = 2.494953 g / cm^3
# Si number density = 25.006445 Si / 1000 Ang^3
#
#
#
# Elastic Constant Matrix: (Units=GPa)
#
#
# Indices 1 2 3 4 5 6 
#
# 1 31.1646 20.9815 -2.4738 0.0000 0.0000 0.0000
# 2 20.9815 186.0271 -3.1877 0.0000 0.0000 0.0000
# 3 -2.4738 -3.1877 70.8316 0.0000 0.0000 0.0000
# 4 0.0000 0.0000 0.0000 11.5956 0.0000 0.0000
# 5 0.0000 0.0000 0.0000 0.0000 14.1998 0.0000
# 6 0.0000 0.0000 0.0000 0.0000 0.0000 41.8075
#
#
#
# Elastic Compliance Matrix: (Units=1/GPa)
#
#
# Indices 1 2 3 4 5 6 
#
# 1 0.034801 -0.003907 0.001040 0.000000 0.000000 0.000000
# 2 -0.003907 0.005818 0.000125 0.000000 0.000000 0.000000
# 3 0.001040 0.000125 0.014160 0.000000 0.000000 0.000000
# 4 0.000000 0.000000 0.000000 0.086240 0.000000 0.000000
# 5 0.000000 0.000000 0.000000 0.000000 0.070424 0.000000
# 6 0.000000 0.000000 0.000000 0.000000 0.000000 0.023919
#
#
# Mechanical properties :
#
#
# Convention : Reuss Voigt Hill
#
# Bulk Modulus (GPa) = 20.28626 35.40704 27.84665
# Shear Modulus (GPa) = 19.43426 31.70080 25.56753
#
# Velocity S-wave (km/s) = 2.79080 3.56435 3.20103
# Velocity P-wave (km/s) = 4.30288 5.57937 4.98217
#
# Compressibility (1/GPa) = 0.04929444
#
# Stress axis : x y z
#
# Youngs Moduli (GPa) = 28.73504 171.86861 70.62176
#
# Poissons Ratio (x) = 0.67154 -0.07342
# Poissons Ratio (y) = 0.11228 -0.00886
# Poissons Ratio (z) = -0.02987 -0.02155
#
# Static dielectric constant tensor:
#      x y z
#    x 1.994310 0.000000 0.000000 
#    y 0.000000 2.015200 0.000000 
#    z 0.000000 0.000000 1.937890 
# 
# From -- ./inp_files/5792.got.cif
#   From: 2010.05.17/outbox.cif.g08.bks.cpg/sg58_3_cif.got.tgz:5792.got - 2010.06.03 14:20:14.
