data_PCOD9442883
_publ_section_title
;
Structure prediction by ZEFSAII (Michael W. Deem and Ramdas Pophale) SiO2 
 PCOD9442883
Probable space group: P N N M
;
_chemical_formula_sum "Si O2"
_cell_formula_units_Z 56
_cell_length_a 14.529924
_cell_length_b 21.477692
_cell_length_c 9.795676
_cell_angle_alpha 90.000000
_cell_angle_beta 90.000000
_cell_angle_gamma 90.000000
_cell_volume 3056.929091
_symmetry_space_group_name_H-M "P N N M"
_symmetry_group_IT_number 58
_symmetry_cell_setting 'orthorhombic'
loop_
_space_group_symop_operation_xyz
x,y,z
-x,-y,z
1/2+x,1/2-y,1/2-z
1/2-x,1/2+y,1/2-z
-x,-y,-z
x,y,-z
1/2-x,1/2+y,1/2+z
1/2+x,1/2-y,1/2+z
loop_
_atom_site_type_symbol
_atom_site_label
_atom_site_fract_x
_atom_site_fract_y
_atom_site_fract_z
Si Si1 0.499384 0.071848 0.833733
Si Si2 0.528096 0.599325 0.337978
Si Si3 0.762453 0.257254 0.342017
Si Si4 0.526150 0.717993 0.152615
Si Si5 0.704220 0.893852 0.166934
Si Si6 0.131614 0.322122 0.340220
Si Si7 0.648601 0.489991 0.662986
O O1 0.402008 0.101491 0.790779
O O2 0.587183 0.112778 0.791987
O O3 0.500000 0.000000 0.791689
O O4 0.500409 0.073388 0.000000
O O5 0.538801 0.609395 0.500000
O O6 0.517366 0.663660 0.261395
O O7 0.437006 0.557238 0.319766
O O8 0.613950 0.557077 0.286070
O O9 0.731264 0.252828 0.500000
O O10 0.871718 0.246123 0.339766
O O11 0.749193 0.328523 0.292454
O O12 0.712176 0.206562 0.249945
O O13 0.451720 0.772335 0.168614
O O14 0.514036 0.691548 0.000000
O O15 0.761686 0.953968 0.214671
O O16 0.705305 0.893569 0.000000
O O17 0.158595 0.327722 0.500000
O O18 0.661391 0.497972 0.500000
#
# Coordination Sequence:
#
# PCOD9442883 Si02
#       7
#     8   8   8   8   8   8   8
#     4   9  17  30  50  75 102 132 170 216 264 308
#     4   9  17  30  48  75 104 130 166 214 259 298
#     4  10  20  34  54  76 101 139 177 206 254 320
#     4  10  20  34  50  72 106 139 165 204 257 311
#     4   9  15  28  49  71  97 135 175 207 252 314
#     4  10  20  35  53  78 108 133 169 224 266 299
#     4   8  15  27  46  72 102 130 165 215 259 297
#
# _framework density 18.319037000000002
#
# number of rings (size 3 to 8) (size 9 to 14) (size 15 to 20)
#    0.000    2.714    1.429    1.714    0.000    3.429 
#    0.000    4.286    0.000    1.286    0.000    0.000 
#    0.000    0.000    0.000    0.000    0.000    0.000 
#
# Total GULP energy -312075.966796 kJ/mol
# GULP energy per Si atom -5572.785121 kJ/mol
# Density = 1.827734 g / cm^3
# Si number density = 18.319037 Si / 1000 Ang^3
#
#
#
# Elastic Constant Matrix: (Units=GPa)
#
#
# Indices 1 2 3 4 5 6 
#
# 1 15.7285 -15.5683 6.1319 0.0000 0.0000 0.0000
# 2 -15.5683 69.1024 19.4858 0.0000 0.0000 0.0000
# 3 6.1319 19.4858 23.9342 0.0000 0.0000 0.0000
# 4 0.0000 0.0000 0.0000 20.3359 0.0000 0.0000
# 5 0.0000 0.0000 0.0000 0.0000 17.8063 0.0000
# 6 0.0000 0.0000 0.0000 0.0000 0.0000 28.0416
#
#
#
# Elastic Compliance Matrix: (Units=1/GPa)
#
#
# Indices 1 2 3 4 5 6 
#
# 1 0.160849 0.062120 -0.091784 0.000000 0.000000 0.000000
# 2 0.062120 0.042774 -0.050739 0.000000 0.000000 0.000000
# 3 -0.091784 -0.050739 0.106605 0.000000 0.000000 0.000000
# 4 0.000000 0.000000 0.000000 0.049174 0.000000 0.000000
# 5 0.000000 0.000000 0.000000 0.000000 0.056160 0.000000
# 6 0.000000 0.000000 0.000000 0.000000 0.000000 0.035661
#
#
# Mechanical properties :
#
#
# Convention : Reuss Voigt Hill
#
# Bulk Modulus (GPa) = 6.69244 14.31821 10.50533
# Shear Modulus (GPa) = 7.55472 19.81780 13.68626
#
# Velocity S-wave (km/s) = 2.03296 3.29266 2.73629
# Velocity P-wave (km/s) = 3.02849 4.72107 3.96612
#
# Compressibility (1/GPa) = 0.14942224
#
# Stress axis : x y z
#
# Youngs Moduli (GPa) = 6.21700 23.37856 9.38041
#
# Poissons Ratio (x) = -1.45228 0.86097
# Poissons Ratio (y) = -0.38620 0.47596
# Poissons Ratio (z) = 0.57062 1.18621
#
# Static dielectric constant tensor:
#      x y z
#    x 1.657030 0.000000 0.000000 
#    y 0.000000 1.659700 0.000000 
#    z 0.000000 0.000000 1.604100 
# 
# From -- ./inp_files/6250.got.cif
#   From: 2010.05.17/outbox.cif.g08.bks.cpg/sg58_4_cif.got.tgz:6250.got - 2010.06.03 14:20:14.
