data_PCOD9442243
_publ_section_title
;
Structure prediction by ZEFSAII (Michael W. Deem and Ramdas Pophale) SiO2 
 PCOD9442243
Probable space group: P N N M
;
_chemical_formula_sum "Si O2"
_cell_formula_units_Z 64
_cell_length_a 15.176696
_cell_length_b 25.421930
_cell_length_c 7.648464
_cell_angle_alpha 90.000000
_cell_angle_beta 90.000000
_cell_angle_gamma 90.000000
_cell_volume 2950.937290
_symmetry_space_group_name_H-M "P N N M"
_symmetry_group_IT_number 58
_symmetry_cell_setting 'orthorhombic'
loop_
_space_group_symop_operation_xyz
x,y,z
-x,-y,z
1/2+x,1/2-y,1/2-z
1/2-x,1/2+y,1/2-z
-x,-y,-z
x,y,-z
1/2-x,1/2+y,1/2+z
1/2+x,1/2-y,1/2+z
loop_
_atom_site_type_symbol
_atom_site_label
_atom_site_fract_x
_atom_site_fract_y
_atom_site_fract_z
Si Si1 0.752651 0.942920 0.710194
Si Si2 0.095401 0.978337 0.714344
Si Si3 0.504228 0.167662 0.714596
Si Si4 0.446999 0.051519 0.714110
Si Si5 0.666179 0.235084 0.293443
Si Si6 0.372676 0.649204 0.292292
Si Si7 0.132788 0.755734 0.800945
Si Si8 0.562208 0.634836 0.800244
O O1 0.751685 0.946715 0.500000
O O2 0.654172 0.952328 0.772388
O O3 0.786826 0.885127 0.757353
O O4 0.825762 0.984250 0.773825
O O5 0.094539 0.977625 0.500000
O O6 0.106980 0.917828 0.770898
O O7 0.000000 0.000000 0.770453
O O8 0.502399 0.167771 0.500000
O O9 0.485901 0.107951 0.769690
O O10 0.599408 0.190369 0.772367
O O11 0.427959 0.208835 0.774207
O O12 0.447855 0.051748 0.500000
O O13 0.500000 0.000000 0.770669
O O14 0.649618 0.237350 0.500000
O O15 0.638365 0.292001 0.222188
O O16 0.771003 0.231187 0.273467
O O17 0.388198 0.650106 0.500000
O O18 0.457921 0.623517 0.205043
O O19 0.079070 0.810283 0.794181
O O20 0.149567 0.740304 0.000000
O O21 0.590759 0.642878 0.000000
#
# Coordination Sequence:
#
# PCOD9442243 Si02
#       8
#     8   8   8   8   8   8   8   8
#     4  10  19  34  57  83 110 147 195 242 286 342
#     4   9  17  31  51  79 113 145 185 232 277 337
#     4   9  18  35  55  77 113 148 179 230 290 335
#     4   9  18  32  55  85 108 137 189 244 285 329
#     4  10  21  37  56  79 111 153 191 226 282 347
#     4  11  21  35  55  82 116 151 190 237 288 341
#     4  11  22  38  57  84 118 150 187 237 289 340
#     4  11  21  35  57  82 113 153 190 230 286 344
#
# _framework density 21.688025
#
# number of rings (size 3 to 8) (size 9 to 14) (size 15 to 20)
#    0.000    2.000    2.500    1.875    0.000    3.000 
#    0.000    5.625    0.000    1.125    0.000    0.000 
#    0.000    0.000    0.000    0.000    0.000    0.000 
#
# Total GULP energy -357386.272051 kJ/mol
# GULP energy per Si atom -5584.160501 kJ/mol
# Density = 2.163866 g / cm^3
# Si number density = 21.688025 Si / 1000 Ang^3
#
#
#
# Elastic Constant Matrix: (Units=GPa)
#
#
# Indices 1 2 3 4 5 6 
#
# 1 147.6855 91.2280 2.9975 0.0000 0.0000 0.0000
# 2 91.2280 175.2098 5.0031 0.0000 0.0000 0.0000
# 3 2.9975 5.0031 39.5012 0.0000 0.0000 0.0000
# 4 0.0000 0.0000 0.0000 14.9119 0.0000 0.0000
# 5 0.0000 0.0000 0.0000 0.0000 13.5536 0.0000
# 6 0.0000 0.0000 0.0000 0.0000 0.0000 34.6443
#
#
#
# Elastic Compliance Matrix: (Units=1/GPa)
#
#
# Indices 1 2 3 4 5 6 
#
# 1 0.009982 -0.005195 -0.000100 0.000000 0.000000 0.000000
# 2 -0.005195 0.008431 -0.000674 0.000000 0.000000 0.000000
# 3 -0.000100 -0.000674 0.025409 0.000000 0.000000 0.000000
# 4 0.000000 0.000000 0.000000 0.067060 0.000000 0.000000
# 5 0.000000 0.000000 0.000000 0.000000 0.073781 0.000000
# 6 0.000000 0.000000 0.000000 0.000000 0.000000 0.028865
#
#
# Mechanical properties :
#
#
# Convention : Reuss Voigt Hill
#
# Bulk Modulus (GPa) = 31.36147 62.31709 46.83928
# Shear Modulus (GPa) = 21.17814 30.16650 25.67232
#
# Velocity S-wave (km/s) = 3.12827 3.73356 3.44424
# Velocity P-wave (km/s) = 5.24784 6.88344 6.12052
#
# Compressibility (1/GPa) = 0.03188626
#
# Stress axis : x y z
#
# Youngs Moduli (GPa) = 100.18113 118.60481 39.35684
#
# Poissons Ratio (x) = 0.61610 0.00392
# Poissons Ratio (y) = 0.52039 0.02652
# Poissons Ratio (z) = 0.00997 0.07991
#
# Static dielectric constant tensor:
#      x y z
#    x 1.792480 0.000000 0.000000 
#    y 0.000000 1.781580 0.000000 
#    z 0.000000 0.000000 1.823650 
# 
# From -- ./inp_files/6880.got.cif
#   From: 2010.05.17/outbox.cif.g08.bks.cpg/sg58_4_cif.got.tgz:6880.got - 2010.06.03 14:20:14.
