data_PCOD9442338
_publ_section_title
;
Structure prediction by ZEFSAII (Michael W. Deem and Ramdas Pophale) SiO2 
 PCOD9442338
Probable space group: P N N M
;
_chemical_formula_sum "Si O2"
_cell_formula_units_Z 44
_cell_length_a 20.171772
_cell_length_b 13.173743
_cell_length_c 8.389379
_cell_angle_alpha 90.000000
_cell_angle_beta 90.000000
_cell_angle_gamma 90.000000
_cell_volume 2229.374617
_symmetry_space_group_name_H-M "P N N M"
_symmetry_group_IT_number 58
_symmetry_cell_setting 'orthorhombic'
loop_
_space_group_symop_operation_xyz
x,y,z
-x,-y,z
1/2+x,1/2-y,1/2-z
1/2-x,1/2+y,1/2-z
-x,-y,-z
x,y,-z
1/2-x,1/2+y,1/2+z
1/2+x,1/2-y,1/2+z
loop_
_atom_site_type_symbol
_atom_site_label
_atom_site_fract_x
_atom_site_fract_y
_atom_site_fract_z
Si Si1 0.018378 0.613813 0.692166
Si Si2 0.423722 0.708416 0.320930
Si Si3 0.797616 0.892920 0.686449
Si Si4 0.161605 0.700694 0.308560
Si Si5 0.500000 0.500000 0.258136
Si Si6 0.129534 0.920366 0.186284
O O1 0.012812 0.616840 0.500000
O O2 0.969906 0.700968 0.758977
O O3 0.000000 0.500000 0.745604
O O4 0.094229 0.640635 0.733888
O O5 0.401704 0.731309 0.500000
O O6 0.358449 0.685060 0.217694
O O7 0.465787 0.603040 0.326173
O O8 0.794815 0.916728 0.500000
O O9 0.727973 0.850870 0.745692
O O10 0.816673 0.993128 0.785264
O O11 0.164293 0.709833 0.500000
O O12 0.155445 0.810780 0.229579
O O13 0.567741 0.551621 0.197340
O O14 0.107015 0.923687 0.000000
#
# Coordination Sequence:
#
# PCOD9442338 Si02
#       6
#     8   8   8   8   4   8
#     4  10  23  42  63  90 127 169 214 262 317 382
#     4  11  21  38  63  94 127 162 210 265 323 384
#     4  11  24  41  61  90 127 168 213 262 321 382
#     4  11  23  41  63  91 125 168 217 265 321 387
#     4  10  19  34  61  94 125 156 199 260 325 380
#     4  11  21  38  63  93 126 162 205 263 324 381
#
# _framework density 19.736476
#
# number of rings (size 3 to 8) (size 9 to 14) (size 15 to 20)
#    0.000    1.273    1.818    6.000    0.000    2.545 
#    0.000    8.182    0.000    0.000    0.000    0.000 
#    0.000    0.000    0.000    0.000    0.000    0.000 
#
# Total GULP energy -245362.630432 kJ/mol
# GULP energy per Si atom -5576.423419 kJ/mol
# Density = 1.969156 g / cm^3
# Si number density = 19.736476 Si / 1000 Ang^3
#
#
#
# Elastic Constant Matrix: (Units=GPa)
#
#
# Indices 1 2 3 4 5 6 
#
# 1 132.0925 77.2161 28.0429 0.0000 0.0000 0.0000
# 2 77.2161 121.2161 22.4974 0.0000 0.0000 0.0000
# 3 28.0429 22.4974 63.0612 0.0000 0.0000 0.0000
# 4 0.0000 0.0000 0.0000 -2.6832 0.0000 0.0000
# 5 0.0000 0.0000 0.0000 0.0000 23.0638 0.0000
# 6 0.0000 0.0000 0.0000 0.0000 0.0000 31.3069
#
#
#
# Elastic Compliance Matrix: (Units=1/GPa)
#
#
# Indices 1 2 3 4 5 6 
#
# 1 0.012545 -0.007449 -0.002921 0.000000 0.000000 0.000000
# 2 -0.007449 0.013258 -0.001417 0.000000 0.000000 0.000000
# 3 -0.002921 -0.001417 0.017662 0.000000 0.000000 0.000000
# 4 0.000000 0.000000 0.000000 -0.372694 0.000000 0.000000
# 5 0.000000 0.000000 0.000000 0.000000 0.043358 0.000000
# 6 0.000000 0.000000 0.000000 0.000000 0.000000 0.031942
#
#
# Mechanical properties :
#
#
# Convention : Reuss Voigt Hill
#
# Bulk Modulus (GPa) = 50.27630 63.54250 56.90940
# Shear Modulus (GPa) = -22.34900 22.91175 0.28137
#
# Velocity S-wave (km/s) = -3.36872 3.41087 0.37799
# Velocity P-wave (km/s) = 3.22460 6.91212 5.39330
#
# Compressibility (1/GPa) = 0.01989009
#
# Stress axis : x y z
#
# Youngs Moduli (GPa) = 79.71210 75.42604 56.61793
#
# Poissons Ratio (x) = 0.56187 0.16539
# Poissons Ratio (y) = 0.59379 0.08024
# Poissons Ratio (z) = 0.23285 0.10690
#
# Static dielectric constant tensor:
#      x y z
#    x 1.674910 0.000000 0.000000 
#    y 0.000000 1.671050 0.000000 
#    z 0.000000 0.000000 1.695640 
# 
# From -- ./inp_files/7659.got.cif
#   From: 2010.05.17/outbox.cif.g08.bks.cpg/sg58_4_cif.got.tgz:7659.got - 2010.06.03 14:20:14.
