data_PCOD9442048
_publ_section_title
;
Structure prediction by ZEFSAII (Michael W. Deem and Ramdas Pophale) SiO2 
 PCOD9442048
Probable space group: P N N M
;
_chemical_formula_sum "Si O2"
_cell_formula_units_Z 64
_cell_length_a 25.144716
_cell_length_b 15.349414
_cell_length_c 7.588231
_cell_angle_alpha 90.000000
_cell_angle_beta 90.000000
_cell_angle_gamma 90.000000
_cell_volume 2928.728260
_symmetry_space_group_name_H-M "P N N M"
_symmetry_group_IT_number 58
_symmetry_cell_setting 'orthorhombic'
loop_
_space_group_symop_operation_xyz
x,y,z
-x,-y,z
1/2+x,1/2-y,1/2-z
1/2-x,1/2+y,1/2-z
-x,-y,-z
x,y,-z
1/2-x,1/2+y,1/2+z
1/2+x,1/2-y,1/2+z
loop_
_atom_site_type_symbol
_atom_site_label
_atom_site_fract_x
_atom_site_fract_y
_atom_site_fract_z
Si Si1 0.269763 0.665392 0.704086
Si Si2 0.564747 0.748449 0.295269
Si Si3 0.667809 0.499746 0.710675
Si Si4 0.347861 0.128194 0.714180
Si Si5 0.488580 0.903317 0.204096
Si Si6 0.050539 0.944157 0.783763
Si Si7 0.626069 0.061485 0.712342
Si Si8 0.239468 0.362409 0.787085
O O1 0.285703 0.677661 0.500000
O O2 0.308607 0.591778 0.781926
O O3 0.211102 0.625123 0.713585
O O4 0.262575 0.762661 0.779716
O O5 0.576868 0.732168 0.500000
O O6 0.618873 0.789311 0.219695
O O7 0.521155 0.824479 0.286843
O O8 0.546495 0.656156 0.223362
O O9 0.664322 0.490032 0.500000
O O10 0.608463 0.521299 0.773659
O O11 0.709875 0.578333 0.739151
O O12 0.344630 0.130021 0.500000
O O13 0.378046 0.039823 0.763446
O O14 0.425428 0.889106 0.218799
O O15 0.500000 0.000000 0.281076
O O16 0.504341 0.905425 0.000000
O O17 0.049750 0.946754 0.000000
O O18 0.000000 0.000000 0.724564
O O19 0.624727 0.066907 0.500000
O O20 0.683752 0.094585 0.770217
O O21 0.239823 0.360425 0.000000
#
# Coordination Sequence:
#
# PCOD9442048 Si02
#       8
#     8   8   8   8   8   8   8   8
#     4  10  21  34  54  83 114 147 183 225 278 332
#     4  10  20  35  58  83 108 145 190 232 275 327
#     4  10  20  36  58  83 111 143 184 232 277 326
#     4  10  19  33  55  82 110 143 187 229 270 326
#     4  11  23  36  53  80 114 147 181 225 279 334
#     4   9  19  36  59  85 109 140 187 238 279 321
#     4  10  20  35  56  79 109 146 184 227 272 327
#     4  10  21  37  55  82 115 148 184 223 274 332
#
# _framework density 21.852488999999998
#
# number of rings (size 3 to 8) (size 9 to 14) (size 15 to 20)
#    0.000    2.000    2.500    1.125    0.000    4.500 
#    0.000    4.375    0.000    3.000    0.000    0.000 
#    0.000    0.000    0.000    0.000    0.000    0.000 
#
# Total GULP energy -357346.070962 kJ/mol
# GULP energy per Si atom -5583.532359 kJ/mol
# Density = 2.180275 g / cm^3
# Si number density = 21.852489 Si / 1000 Ang^3
#
#
#
# Elastic Constant Matrix: (Units=GPa)
#
#
# Indices 1 2 3 4 5 6 
#
# 1 153.0975 71.3234 -5.7848 0.0000 0.0000 0.0000
# 2 71.3234 142.9250 2.3619 0.0000 0.0000 0.0000
# 3 -5.7848 2.3619 46.2438 0.0000 0.0000 0.0000
# 4 0.0000 0.0000 0.0000 9.6313 0.0000 0.0000
# 5 0.0000 0.0000 0.0000 0.0000 11.5315 0.0000
# 6 0.0000 0.0000 0.0000 0.0000 0.0000 32.4814
#
#
#
# Elastic Compliance Matrix: (Units=1/GPa)
#
#
# Indices 1 2 3 4 5 6 
#
# 1 0.008587 -0.004307 0.001294 0.000000 0.000000 0.000000
# 2 -0.004307 0.009162 -0.001007 0.000000 0.000000 0.000000
# 3 0.001294 -0.001007 0.021838 0.000000 0.000000 0.000000
# 4 0.000000 0.000000 0.000000 0.103828 0.000000 0.000000
# 5 0.000000 0.000000 0.000000 0.000000 0.086719 0.000000
# 6 0.000000 0.000000 0.000000 0.000000 0.000000 0.030787
#
#
# Mechanical properties :
#
#
# Convention : Reuss Voigt Hill
#
# Bulk Modulus (GPa) = 31.69668 53.11858 42.40763
# Shear Modulus (GPa) = 17.89066 29.01990 23.45528
#
# Velocity S-wave (km/s) = 2.86440 3.64811 3.27975
# Velocity P-wave (km/s) = 5.04738 6.48888 5.81298
#
# Compressibility (1/GPa) = 0.03154904
#
# Stress axis : x y z
#
# Youngs Moduli (GPa) = 116.45579 109.14202 45.79206
#
# Poissons Ratio (x) = 0.47002 -0.05926
# Poissons Ratio (y) = 0.50152 0.04610
# Poissons Ratio (z) = -0.15071 0.10987
#
# Static dielectric constant tensor:
#      x y z
#    x 1.772720 0.000000 0.000000 
#    y 0.000000 1.827940 0.000000 
#    z 0.000000 0.000000 1.849960 
# 
# From -- ./inp_files/6770.got.cif
#   From: 2010.05.17/outbox.cif.g08.bks.cpg/sg58_4_cif.got.tgz:6770.got - 2010.06.03 14:20:14.
