data_PCOD9442124
_publ_section_title
;
Structure prediction by ZEFSAII (Michael W. Deem and Ramdas Pophale) SiO2 
 PCOD9442124
Probable space group: P N N M
;
_chemical_formula_sum "Si O2"
_cell_formula_units_Z 64
_cell_length_a 24.420701
_cell_length_b 15.961076
_cell_length_c 7.676531
_cell_angle_alpha 90.000000
_cell_angle_beta 90.000000
_cell_angle_gamma 90.000000
_cell_volume 2992.163355
_symmetry_space_group_name_H-M "P N N M"
_symmetry_group_IT_number 58
_symmetry_cell_setting 'orthorhombic'
loop_
_space_group_symop_operation_xyz
x,y,z
-x,-y,z
1/2+x,1/2-y,1/2-z
1/2-x,1/2+y,1/2-z
-x,-y,-z
x,y,-z
1/2-x,1/2+y,1/2+z
1/2+x,1/2-y,1/2+z
loop_
_atom_site_type_symbol
_atom_site_label
_atom_site_fract_x
_atom_site_fract_y
_atom_site_fract_z
Si Si1 0.496749 0.156065 0.212580
Si Si2 0.510486 0.348412 0.793988
Si Si3 0.128714 0.089914 0.800113
Si Si4 0.191368 0.256256 0.705352
Si Si5 0.390871 0.407551 0.711514
Si Si6 0.620456 0.909701 0.210138
Si Si7 0.385372 0.905316 0.786603
Si Si8 0.685614 0.744179 0.291916
O O1 0.500775 0.253000 0.266969
O O2 0.440417 0.114965 0.272516
O O3 0.551740 0.108843 0.266573
O O4 0.495563 0.155446 0.000000
O O5 0.564419 0.386591 0.708657
O O6 0.454137 0.397469 0.764463
O O7 0.522148 0.345732 0.000000
O O8 0.163306 0.165590 0.720848
O O9 0.133062 0.996258 0.725224
O O10 0.146395 0.085801 0.000000
O O11 0.196126 0.273572 0.500000
O O12 0.151365 0.328180 0.776713
O O13 0.252676 0.260330 0.778720
O O14 0.390197 0.408637 0.500000
O O15 0.355473 0.328078 0.774458
O O16 0.660902 0.835656 0.260552
O O17 0.634852 0.003266 0.268920
O O18 0.618712 0.911471 0.000000
O O19 0.385402 0.903374 0.000000
O O20 0.687886 0.732133 0.500000
#
# Coordination Sequence:
#
# PCOD9442124 Si02
#       8
#     8   8   8   8   8   8   8   8
#     4   9  16  29  53  85 112 136 173 221 271 323
#     4  11  20  34  59  87 115 148 187 229 276 334
#     4  11  23  38  58  85 115 148 186 230 281 334
#     4  10  21  39  59  80 107 147 193 231 275 329
#     4  10  22  39  57  81 116 153 187 228 282 338
#     4  10  19  33  58  87 111 139 180 229 278 331
#     4   9  17  32  57  84 110 139 178 228 274 326
#     4  10  22  39  57  77 110 150 187 232 280 326
#
# _framework density 21.389206999999999
#
# number of rings (size 3 to 8) (size 9 to 14) (size 15 to 20)
#    0.000    2.000    2.500    1.500    0.000    5.500 
#    0.000    3.125    0.000    0.750    0.000    0.000 
#    0.000    0.000    0.000    0.000    0.000    0.000 
#
# Total GULP energy -357541.916611 kJ/mol
# GULP energy per Si atom -5586.592447 kJ/mol
# Density = 2.134052 g / cm^3
# Si number density = 21.389207 Si / 1000 Ang^3
#
#
#
# Elastic Constant Matrix: (Units=GPa)
#
#
# Indices 1 2 3 4 5 6 
#
# 1 90.9380 8.0955 -8.6358 0.0000 0.0000 0.0000
# 2 8.0955 99.8940 -6.7951 0.0000 0.0000 0.0000
# 3 -8.6358 -6.7951 35.9999 0.0000 0.0000 0.0000
# 4 0.0000 0.0000 0.0000 19.5744 0.0000 0.0000
# 5 0.0000 0.0000 0.0000 0.0000 17.1494 0.0000
# 6 0.0000 0.0000 0.0000 0.0000 0.0000 1.1124
#
#
#
# Elastic Compliance Matrix: (Units=1/GPa)
#
#
# Indices 1 2 3 4 5 6 
#
# 1 0.011307 -0.000741 0.002572 0.000000 0.000000 0.000000
# 2 -0.000741 0.010189 0.001745 0.000000 0.000000 0.000000
# 3 0.002572 0.001745 0.028724 0.000000 0.000000 0.000000
# 4 0.000000 0.000000 0.000000 0.051087 0.000000 0.000000
# 5 0.000000 0.000000 0.000000 0.000000 0.058311 0.000000
# 6 0.000000 0.000000 0.000000 0.000000 0.000000 0.898924
#
#
# Mechanical properties :
#
#
# Convention : Reuss Voigt Hill
#
# Bulk Modulus (GPa) = 17.42961 23.57344 20.50153
# Shear Modulus (GPa) = 4.67065 23.17840 13.92453
#
# Velocity S-wave (km/s) = 1.47932 3.29545 2.55425
# Velocity P-wave (km/s) = 3.32931 5.05224 4.27840
#
# Compressibility (1/GPa) = 0.05737364
#
# Stress axis : x y z
#
# Youngs Moduli (GPa) = 88.44255 98.14097 34.81360
#
# Poissons Ratio (x) = 0.07275 -0.08955
# Poissons Ratio (y) = 0.06556 -0.06077
# Poissons Ratio (z) = -0.22751 -0.17130
#
# Static dielectric constant tensor:
#      x y z
#    x 1.738130 0.000000 0.000000 
#    y 0.000000 1.770250 0.000000 
#    z 0.000000 0.000000 1.813900 
# 
# From -- ./inp_files/10069.got.cif
#   From: 2010.05.17/outbox.cif.g08.bks.cpg/sg58_6_cif.got.tgz:10069.got - 2010.06.03 14:20:14.
