data_PCOD9442917
_publ_section_title
;
Structure prediction by ZEFSAII (Michael W. Deem and Ramdas Pophale) SiO2 
 PCOD9442917
Probable space group: P N N M
;
_chemical_formula_sum "Si O2"
_cell_formula_units_Z 64
_cell_length_a 35.010781
_cell_length_b 11.380973
_cell_length_c 7.640541
_cell_angle_alpha 90.000000
_cell_angle_beta 90.000000
_cell_angle_gamma 90.000000
_cell_volume 3044.425160
_symmetry_space_group_name_H-M "P N N M"
_symmetry_group_IT_number 58
_symmetry_cell_setting 'orthorhombic'
loop_
_space_group_symop_operation_xyz
x,y,z
-x,-y,z
1/2+x,1/2-y,1/2-z
1/2-x,1/2+y,1/2-z
-x,-y,-z
x,y,-z
1/2-x,1/2+y,1/2+z
1/2+x,1/2-y,1/2+z
loop_
_atom_site_type_symbol
_atom_site_label
_atom_site_fract_x
_atom_site_fract_y
_atom_site_fract_z
Si Si1 0.555029 0.234865 0.296963
Si Si2 0.283873 0.820254 0.710075
Si Si3 0.044186 0.008695 0.287864
Si Si4 0.345305 0.144159 0.709884
Si Si5 0.131341 0.389687 0.786222
Si Si6 0.083821 0.774485 0.291574
Si Si7 0.480821 0.113812 0.799235
Si Si8 0.238521 0.582157 0.789632
O O1 0.549710 0.202529 0.500000
O O2 0.562068 0.372399 0.281817
O O3 0.591952 0.167437 0.225182
O O4 0.515138 0.207662 0.202198
O O5 0.283950 0.828172 0.500000
O O6 0.328186 0.832898 0.768941
O O7 0.267712 0.689721 0.750913
O O8 0.261707 0.942560 0.770137
O O9 0.044866 0.012681 0.500000
O O10 0.067595 0.896557 0.224835
O O11 0.000000 0.000000 0.233352
O O12 0.343408 0.142038 0.500000
O O13 0.371916 0.251398 0.761251
O O14 0.302155 0.134315 0.774140
O O15 0.366255 0.025131 0.768115
O O16 0.130788 0.384285 0.000000
O O17 0.077238 0.774920 0.500000
O O18 0.056814 0.670646 0.218124
O O19 0.500000 0.000000 0.714466
O O20 0.471227 0.081258 0.000000
O O21 0.238184 0.574014 0.000000
#
# Coordination Sequence:
#
# PCOD9442917 Si02
#       8
#     8   8   8   8   8   8   8   8
#     4  11  21  33  53  78 103 130 174 222 259 310
#     4   9  18  36  60  81 110 148 180 217 266 323
#     4  10  20  38  55  66  98 145 178 211 262 313
#     4   9  18  35  57  77 105 139 168 209 263 313
#     4   8  17  35  55  77 106 139 169 208 265 313
#     4  10  20  34  52  74 100 134 175 215 255 307
#     4  10  20  34  52  74 102 135 170 210 259 311
#     4   9  19  36  57  84 113 142 179 219 266 323
#
# _framework density 21.022029
#
# number of rings (size 3 to 8) (size 9 to 14) (size 15 to 20)
#    0.000    2.500    1.250    2.625    0.000    2.500 
#    2.250    3.750    0.000    0.000    0.000    0.000 
#    0.000    0.000    0.000    0.000    0.000    0.000 
#
# Total GULP energy -356713.779301 kJ/mol
# GULP energy per Si atom -5573.652802 kJ/mol
# Density = 2.097418 g / cm^3
# Si number density = 21.022029 Si / 1000 Ang^3
#
#
#
# Elastic Constant Matrix: (Units=GPa)
#
#
# Indices 1 2 3 4 5 6 
#
# 1 51.6328 -5.4253 -3.2811 0.0000 0.0000 0.0000
# 2 -5.4253 35.8164 -1.7173 0.0000 0.0000 0.0000
# 3 -3.2811 -1.7173 43.2990 0.0000 0.0000 0.0000
# 4 0.0000 0.0000 0.0000 14.9821 0.0000 0.0000
# 5 0.0000 0.0000 0.0000 0.0000 10.7458 0.0000
# 6 0.0000 0.0000 0.0000 0.0000 0.0000 43.7754
#
#
#
# Elastic Compliance Matrix: (Units=1/GPa)
#
#
# Indices 1 2 3 4 5 6 
#
# 1 0.019794 0.003076 0.001622 0.000000 0.000000 0.000000
# 2 0.003076 0.028451 0.001361 0.000000 0.000000 0.000000
# 3 0.001622 0.001361 0.023272 0.000000 0.000000 0.000000
# 4 0.000000 0.000000 0.000000 0.066746 0.000000 0.000000
# 5 0.000000 0.000000 0.000000 0.000000 0.093060 0.000000
# 6 0.000000 0.000000 0.000000 0.000000 0.000000 0.022844
#
#
# Mechanical properties :
#
#
# Convention : Reuss Voigt Hill
#
# Bulk Modulus (GPa) = 11.95652 12.21119 12.08386
# Shear Modulus (GPa) = 18.52354 23.31212 20.91783
#
# Velocity S-wave (km/s) = 2.97164 3.33368 3.15785
# Velocity P-wave (km/s) = 4.18021 4.54305 4.36540
#
# Compressibility (1/GPa) = 0.08363636
#
# Stress axis : x y z
#
# Youngs Moduli (GPa) = 50.52078 35.14764 42.96985
#
# Poissons Ratio (x) = -0.10812 -0.06969
# Poissons Ratio (y) = -0.15541 -0.05850
# Poissons Ratio (z) = -0.08194 -0.04785
#
# Static dielectric constant tensor:
#      x y z
#    x 1.756460 0.000000 0.000000 
#    y 0.000000 1.797890 0.000000 
#    z 0.000000 0.000000 1.798430 
# 
# From -- ./inp_files/11079.got.cif
#   From: 2010.05.17/outbox.cif.g08.bks.cpg/sg58_6_cif.got.tgz:11079.got - 2010.06.03 14:20:14.
