data_PCOD9442393
_publ_section_title
;
Structure prediction by ZEFSAII (Michael W. Deem and Ramdas Pophale) SiO2 
 PCOD9442393
Probable space group: P N N M
;
_chemical_formula_sum "Si O2"
_cell_formula_units_Z 48
_cell_length_a 13.819837
_cell_length_b 18.929274
_cell_length_c 9.899756
_cell_angle_alpha 90.000000
_cell_angle_beta 90.000000
_cell_angle_gamma 90.000000
_cell_volume 2589.771034
_symmetry_space_group_name_H-M "P N N M"
_symmetry_group_IT_number 58
_symmetry_cell_setting 'orthorhombic'
loop_
_space_group_symop_operation_xyz
x,y,z
-x,-y,z
1/2+x,1/2-y,1/2-z
1/2-x,1/2+y,1/2-z
-x,-y,-z
x,y,-z
1/2-x,1/2+y,1/2+z
1/2+x,1/2-y,1/2+z
loop_
_atom_site_type_symbol
_atom_site_label
_atom_site_fract_x
_atom_site_fract_y
_atom_site_fract_z
Si Si1 0.609403 0.994848 0.337290
Si Si2 0.388172 0.481855 0.348724
Si Si3 0.912001 0.767351 0.342316
Si Si4 0.330218 0.848505 0.344349
Si Si5 0.715973 0.404159 0.161969
Si Si6 0.888810 0.149919 0.345734
O O1 0.603104 0.993253 0.500000
O O2 0.664175 0.068533 0.303937
O O3 0.500000 0.000000 0.283604
O O4 0.673135 0.925689 0.302949
O O5 0.500000 0.500000 0.363062
O O6 0.344646 0.478928 0.500000
O O7 0.342782 0.540908 0.252638
O O8 0.386701 0.408954 0.268496
O O9 0.901870 0.749009 0.500000
O O10 0.894541 0.700075 0.249837
O O11 0.830732 0.827555 0.312209
O O12 0.019169 0.800031 0.323576
O O13 0.363320 0.844944 0.500000
O O14 0.219973 0.820178 0.340458
O O15 0.703258 0.417047 0.000000
O O16 0.899991 0.120537 0.500000
#
# Coordination Sequence:
#
# PCOD9442393 Si02
#       6
#     8   8   8   8   8   8
#     4   9  18  34  58  85 109 143 195 239 273 327
#     4  11  21  31  52  87 116 137 172 231 289 331
#     4  10  22  36  56  84 114 148 190 237 281 338
#     4  10  21  37  58  82 113 151 187 233 286 336
#     4  10  19  35  58  81 109 149 192 230 272 335
#     4  10  20  37  58  80 107 149 191 225 278 343
#
# _framework density 18.534455999999999
#
# number of rings (size 3 to 8) (size 9 to 14) (size 15 to 20)
#    0.000    2.000    3.333    0.500    0.000    4.000 
#    0.000    1.667    0.000    2.000    0.000    0.000 
#    0.000    0.000    0.000    0.000    0.000    0.000 
#
# Total GULP energy -267319.276027 kJ/mol
# GULP energy per Si atom -5569.151584 kJ/mol
# Density = 1.849227 g / cm^3
# Si number density = 18.534456 Si / 1000 Ang^3
#
#
#
# Elastic Constant Matrix: (Units=GPa)
#
#
# Indices 1 2 3 4 5 6 
#
# 1 83.6559 1.8941 -5.2538 0.0000 0.0000 0.0000
# 2 1.8941 32.8171 16.4465 0.0000 0.0000 0.0000
# 3 -5.2538 16.4465 43.6892 0.0000 0.0000 0.0000
# 4 0.0000 0.0000 0.0000 41.7383 0.0000 0.0000
# 5 0.0000 0.0000 0.0000 0.0000 24.0062 0.0000
# 6 0.0000 0.0000 0.0000 0.0000 0.0000 17.3457
#
#
#
# Elastic Compliance Matrix: (Units=1/GPa)
#
#
# Indices 1 2 3 4 5 6 
#
# 1 0.012127 -0.001763 0.002122 0.000000 0.000000 0.000000
# 2 -0.001763 0.037814 -0.014447 0.000000 0.000000 0.000000
# 3 0.002122 -0.014447 0.028583 0.000000 0.000000 0.000000
# 4 0.000000 0.000000 0.000000 0.023959 0.000000 0.000000
# 5 0.000000 0.000000 0.000000 0.000000 0.041656 0.000000
# 6 0.000000 0.000000 0.000000 0.000000 0.000000 0.057651
#
#
# Mechanical properties :
#
#
# Convention : Reuss Voigt Hill
#
# Bulk Modulus (GPa) = 19.86216 20.70401 20.28309
# Shear Modulus (GPa) = 20.26362 26.42307 23.34335
#
# Velocity S-wave (km/s) = 3.31009 3.77983 3.55273
# Velocity P-wave (km/s) = 5.03473 5.49948 5.27223
#
# Compressibility (1/GPa) = 0.05034698
#
# Stress axis : x y z
#
# Youngs Moduli (GPa) = 82.46113 26.44540 34.98641
#
# Poissons Ratio (x) = 0.04664 -0.07425
# Poissons Ratio (y) = 0.14542 0.50544
# Poissons Ratio (z) = -0.17499 0.38205
#
# Static dielectric constant tensor:
#      x y z
#    x 1.698430 0.000000 0.000000 
#    y 0.000000 1.619060 0.000000 
#    z 0.000000 0.000000 1.630380 
# 
# From -- ./inp_files/5804.got.cif
#   From: 2010.05.17/outbox.cif.g08.bks.cpg/sg58_3_cif.got.tgz:5804.got - 2010.06.03 14:20:14.
