data_PCOD9442890
_publ_section_title
;
Structure prediction by ZEFSAII (Michael W. Deem and Ramdas Pophale) SiO2 
 PCOD9442890
Probable space group: P N N M
;
_chemical_formula_sum "Si O2"
_cell_formula_units_Z 64
_cell_length_a 22.435618
_cell_length_b 19.151827
_cell_length_c 8.806815
_cell_angle_alpha 90.000000
_cell_angle_beta 90.000000
_cell_angle_gamma 90.000000
_cell_volume 3784.139346
_symmetry_space_group_name_H-M "P N N M"
_symmetry_group_IT_number 58
_symmetry_cell_setting 'orthorhombic'
loop_
_space_group_symop_operation_xyz
x,y,z
-x,-y,z
1/2+x,1/2-y,1/2-z
1/2-x,1/2+y,1/2-z
-x,-y,-z
x,y,-z
1/2-x,1/2+y,1/2+z
1/2+x,1/2-y,1/2+z
loop_
_atom_site_type_symbol
_atom_site_label
_atom_site_fract_x
_atom_site_fract_y
_atom_site_fract_z
Si Si1 0.269606 0.615759 0.818581
Si Si2 0.356928 0.073289 0.681326
Si Si3 0.117877 0.171347 0.183096
Si Si4 0.194435 0.419628 0.182310
Si Si5 0.016061 0.578702 0.318817
Si Si6 0.914693 0.675961 0.182939
Si Si7 0.434323 0.521046 0.684872
Si Si8 0.689297 0.532131 0.318485
O O1 0.199551 0.622996 0.785802
O O2 0.316324 0.671127 0.755585
O O3 0.289082 0.543921 0.737738
O O4 0.275828 0.607887 0.000000
O O5 0.367151 0.073236 0.500000
O O6 0.417024 0.093244 0.764798
O O7 0.336111 0.994326 0.723427
O O8 0.084964 0.242661 0.224960
O O9 0.084461 0.099888 0.230445
O O10 0.123829 0.169172 0.000000
O O11 0.148031 0.359884 0.228808
O O12 0.260727 0.416672 0.251126
O O13 0.200287 0.419398 0.000000
O O14 0.012696 0.580280 0.500000
O O15 0.000000 0.500000 0.266389
O O16 0.968610 0.632292 0.251547
O O17 0.917982 0.670904 0.000000
O O18 0.500000 0.500000 0.738779
O O19 0.435589 0.520977 0.500000
O O20 0.380419 0.468438 0.728948
O O21 0.691581 0.535934 0.500000
#
# Coordination Sequence:
#
# PCOD9442890 Si02
#       8
#     8   8   8   8   8   8   8   8
#     4   9  17  30  49  72  96 123 155 199 249 294
#     4   9  17  30  49  70  93 127 167 202 243 294
#     4   9  18  32  52  76  96 127 171 208 250 304
#     4   9  17  29  46  68  94 126 161 200 246 291
#     4  11  22  32  46  74 104 132 170 215 256 293
#     4  10  20  34  51  69  96 137 175 206 247 309
#     4   8  14  27  49  75  99 122 155 202 249 290
#     4   9  16  26  45  72  96 119 153 198 243 291
#
# _framework density 16.912697000000001
#
# number of rings (size 3 to 8) (size 9 to 14) (size 15 to 20)
#    0.000    2.750    1.250    2.625    0.000    4.000 
#    0.000    0.000    2.750    9.375    0.000    0.000 
#    0.000    0.000    0.000    0.000    0.000    0.000 
#
# Total GULP energy -356365.825024 kJ/mol
# GULP energy per Si atom -5568.216016 kJ/mol
# Density = 1.687420 g / cm^3
# Si number density = 16.912697 Si / 1000 Ang^3
#
#
#
# Elastic Constant Matrix: (Units=GPa)
#
#
# Indices 1 2 3 4 5 6 
#
# 1 157.7866 51.6131 30.8719 0.0000 0.0000 0.0000
# 2 51.6131 63.5936 18.0931 0.0000 0.0000 0.0000
# 3 30.8719 18.0931 14.1489 0.0000 0.0000 0.0000
# 4 0.0000 0.0000 0.0000 18.2773 0.0000 0.0000
# 5 0.0000 0.0000 0.0000 0.0000 24.5656 0.0000
# 6 0.0000 0.0000 0.0000 0.0000 0.0000 24.0850
#
#
#
# Elastic Compliance Matrix: (Units=1/GPa)
#
#
# Indices 1 2 3 4 5 6 
#
# 1 0.011523 -0.003456 -0.020722 0.000000 0.000000 0.000000
# 2 -0.003456 0.025755 -0.025393 0.000000 0.000000 0.000000
# 3 -0.020722 -0.025393 0.148362 0.000000 0.000000 0.000000
# 4 0.000000 0.000000 0.000000 0.054713 0.000000 0.000000
# 5 0.000000 0.000000 0.000000 0.000000 0.040707 0.000000
# 6 0.000000 0.000000 0.000000 0.000000 0.000000 0.041520
#
#
# Mechanical properties :
#
#
# Convention : Reuss Voigt Hill
#
# Bulk Modulus (GPa) = 11.56103 48.52058 30.04080
# Shear Modulus (GPa) = 11.09748 22.38230 16.73989
#
# Velocity S-wave (km/s) = 2.56435 3.64181 3.14949
# Velocity P-wave (km/s) = 3.95201 6.81431 5.57015
#
# Compressibility (1/GPa) = 0.08649749
#
# Stress axis : x y z
#
# Youngs Moduli (GPa) = 86.78631 38.82811 6.74027
#
# Poissons Ratio (x) = 0.13420 0.13967
# Poissons Ratio (y) = 0.29995 0.17115
# Poissons Ratio (z) = 1.79836 0.98596
#
# Static dielectric constant tensor:
#      x y z
#    x 1.597330 0.000000 0.000000 
#    y 0.000000 1.578120 0.000000 
#    z 0.000000 0.000000 1.568820 
# 
# From -- ./inp_files/9470.got.cif
#   From: 2010.05.17/outbox.cif.g08.bks.cpg/sg58_5_cif.got.tgz:9470.got - 2010.06.03 14:20:14.
