data_PCOD9442273
_publ_section_title
;
Structure prediction by ZEFSAII (Michael W. Deem and Ramdas Pophale) SiO2 
 PCOD9442273
Probable space group: P N N M
;
_chemical_formula_sum "Si O2"
_cell_formula_units_Z 64
_cell_length_a 20.546419
_cell_length_b 20.030144
_cell_length_c 9.093098
_cell_angle_alpha 90.000000
_cell_angle_beta 90.000000
_cell_angle_gamma 90.000000
_cell_volume 3742.243852
_symmetry_space_group_name_H-M "P N N M"
_symmetry_group_IT_number 58
_symmetry_cell_setting 'orthorhombic'
loop_
_space_group_symop_operation_xyz
x,y,z
-x,-y,z
1/2+x,1/2-y,1/2-z
1/2-x,1/2+y,1/2-z
-x,-y,-z
x,y,-z
1/2-x,1/2+y,1/2+z
1/2+x,1/2-y,1/2+z
loop_
_atom_site_type_symbol
_atom_site_label
_atom_site_fract_x
_atom_site_fract_y
_atom_site_fract_z
Si Si1 0.479572 0.576328 0.176525
Si Si2 0.831111 0.938086 0.325347
Si Si3 0.201623 0.906458 0.675151
Si Si4 0.913765 0.326220 0.823940
Si Si5 0.970951 0.573339 0.823549
Si Si6 0.200290 0.594106 0.674182
Si Si7 0.665997 0.060920 0.824882
Si Si8 0.085280 0.829456 0.824109
O O1 0.500000 0.500000 0.209182
O O2 0.403642 0.584338 0.215227
O O3 0.526445 0.626905 0.259576
O O4 0.486842 0.585065 0.000000
O O5 0.822450 0.928045 0.500000
O O6 0.772652 0.902841 0.240208
O O7 0.824546 0.017836 0.299096
O O8 0.204327 0.896066 0.500000
O O9 0.273059 0.903909 0.746232
O O10 0.151281 0.856608 0.750690
O O11 0.849687 0.355182 0.747645
O O12 0.923817 0.248619 0.790010
O O13 0.975620 0.371507 0.781477
O O14 0.906014 0.333188 0.000000
O O15 0.902881 0.582255 0.741386
O O16 0.000000 0.500000 0.789894
O O17 0.960492 0.576422 0.000000
O O18 0.202050 0.603548 0.500000
O O19 0.174920 0.518564 0.704255
O O20 0.668652 0.071073 0.000000
O O21 0.088823 0.837454 0.000000
#
# Coordination Sequence:
#
# PCOD9442273 Si02
#       8
#     8   8   8   8   8   8   8   8
#     4  10  19  36  58  83 111 145 189 229 269 331
#     4   9  18  33  56  81 108 141 180 227 273 319
#     4  10  19  35  57  80 108 145 186 224 268 333
#     4  10  22  39  56  78 112 150 189 228 277 340
#     4  10  19  34  58  82 106 148 196 231 272 333
#     4  10  20  33  53  82 112 141 180 228 278 329
#     4  10  20  33  53  85 117 139 175 234 287 324
#     4  11  23  37  55  82 115 148 182 231 287 334
#
# _framework density 17.102039999999999
#
# number of rings (size 3 to 8) (size 9 to 14) (size 15 to 20)
#    0.000    2.000    2.500    1.500    0.000    4.000 
#    0.000    1.250    0.000    3.000    0.000    0.000 
#    0.000    0.000    0.000    0.000    0.000    0.000 
#
# Total GULP energy -357304.886389 kJ/mol
# GULP energy per Si atom -5582.888850 kJ/mol
# Density = 1.706311 g / cm^3
# Si number density = 17.102040 Si / 1000 Ang^3
#
#
#
# Elastic Constant Matrix: (Units=GPa)
#
#
# Indices 1 2 3 4 5 6 
#
# 1 179.0031 89.1690 73.6578 0.0000 0.0000 0.0000
# 2 89.1690 108.0759 63.3119 0.0000 0.0000 0.0000
# 3 73.6578 63.3119 53.1391 0.0000 0.0000 0.0000
# 4 0.0000 0.0000 0.0000 20.6582 0.0000 0.0000
# 5 0.0000 0.0000 0.0000 0.0000 30.6045 0.0000
# 6 0.0000 0.0000 0.0000 0.0000 0.0000 23.9689
#
#
#
# Elastic Compliance Matrix: (Units=1/GPa)
#
#
# Indices 1 2 3 4 5 6 
#
# 1 0.013014 -0.000562 -0.017369 0.000000 0.000000 0.000000
# 2 -0.000562 0.030658 -0.035747 0.000000 0.000000 0.000000
# 3 -0.017369 -0.035747 0.085484 0.000000 0.000000 0.000000
# 4 0.000000 0.000000 0.000000 0.048407 0.000000 0.000000
# 5 0.000000 0.000000 0.000000 0.000000 0.032675 0.000000
# 6 0.000000 0.000000 0.000000 0.000000 0.000000 0.041721
#
#
# Mechanical properties :
#
#
# Convention : Reuss Voigt Hill
#
# Bulk Modulus (GPa) = 45.87321 88.05506 66.96413
# Shear Modulus (GPa) = 13.63953 22.65163 18.14558
#
# Velocity S-wave (km/s) = 2.82714 3.64331 3.26086
# Velocity P-wave (km/s) = 6.12686 8.32455 7.30878
#
# Compressibility (1/GPa) = 0.02179922
#
# Stress axis : x y z
#
# Youngs Moduli (GPa) = 76.84278 32.61803 11.69803
#
# Poissons Ratio (x) = 0.01834 0.20318
# Poissons Ratio (y) = 0.04321 0.41818
# Poissons Ratio (z) = 1.33465 1.16601
#
# Static dielectric constant tensor:
#      x y z
#    x 1.560070 0.000000 0.000000 
#    y 0.000000 1.560990 0.000000 
#    z 0.000000 0.000000 1.566170 
# 
# From -- ./inp_files/9306.got.cif
#   From: 2010.05.17/outbox.cif.g08.bks.cpg/sg58_5_cif.got.tgz:9306.got - 2010.06.03 14:20:14.
