data_PCOD9442846
_publ_section_title
;
Structure prediction by ZEFSAII (Michael W. Deem and Ramdas Pophale) SiO2 
 PCOD9442846
Probable space group: P N N M
;
_chemical_formula_sum "Si O2"
_cell_formula_units_Z 64
_cell_length_a 17.327816
_cell_length_b 21.104626
_cell_length_c 9.268811
_cell_angle_alpha 90.000000
_cell_angle_beta 90.000000
_cell_angle_gamma 90.000000
_cell_volume 3389.577081
_symmetry_space_group_name_H-M "P N N M"
_symmetry_group_IT_number 58
_symmetry_cell_setting 'orthorhombic'
loop_
_space_group_symop_operation_xyz
x,y,z
-x,-y,z
1/2+x,1/2-y,1/2-z
1/2-x,1/2+y,1/2-z
-x,-y,-z
x,y,-z
1/2-x,1/2+y,1/2+z
1/2+x,1/2-y,1/2+z
loop_
_atom_site_type_symbol
_atom_site_label
_atom_site_fract_x
_atom_site_fract_y
_atom_site_fract_z
Si Si1 0.172224 0.991593 0.330070
Si Si2 0.894020 0.123480 0.827689
Si Si3 0.076019 0.242688 0.670402
Si Si4 0.347333 0.999803 0.332129
Si Si5 0.942741 0.896908 0.671135
Si Si6 0.612972 0.123125 0.834733
Si Si7 0.426334 0.111654 0.166891
Si Si8 0.914847 0.263404 0.828419
O O1 0.160305 0.977270 0.500000
O O2 0.162730 0.928020 0.238879
O O3 0.257972 0.018892 0.315437
O O4 0.108895 0.043534 0.285684
O O5 0.873337 0.196762 0.794025
O O6 0.977510 0.108159 0.757365
O O7 0.898758 0.117961 0.000000
O O8 0.052485 0.248906 0.500000
O O9 0.101913 0.170248 0.689206
O O10 0.130479 0.302986 0.697445
O O11 0.002071 0.250968 0.772633
O O12 0.368401 0.002244 0.500000
O O13 0.400186 0.047334 0.242441
O O14 0.354655 0.928679 0.272744
O O15 0.960246 0.903098 0.500000
O O16 0.519468 0.117475 0.827220
O O17 0.636446 0.109217 0.000000
O O18 0.390800 0.172689 0.247548
O O19 0.403837 0.111475 0.000000
O O20 0.913265 0.273184 0.000000
#
# Coordination Sequence:
#
# PCOD9442846 Si02
#       8
#     8   8   8   8   8   8   8   8
#     4  10  22  37  51  71 103 142 179 212 250 302
#     4  10  20  33  53  81 107 132 167 212 257 300
#     4   8  15  29  51  77 101 127 163 207 253 303
#     4  11  23  36  50  72 104 139 175 215 255 297
#     4   9  17  33  56  77 100 134 171 207 253 306
#     4   9  18  33  53  77 102 129 166 209 254 309
#     4  10  20  35  56  79 102 131 168 209 254 308
#     4   9  17  30  50  78 107 130 159 205 256 302
#
# _framework density 18.881411
#
# number of rings (size 3 to 8) (size 9 to 14) (size 15 to 20)
#    0.000    2.500    0.000    3.000    0.000    8.500 
#    0.000    1.250    0.000    3.000    0.000    0.000 
#    0.000    0.000    0.000    0.000    0.000    0.000 
#
# Total GULP energy -356819.704739 kJ/mol
# GULP energy per Si atom -5575.307887 kJ/mol
# Density = 1.883844 g / cm^3
# Si number density = 18.881411 Si / 1000 Ang^3
#
#
#
# Elastic Constant Matrix: (Units=GPa)
#
#
# Indices 1 2 3 4 5 6 
#
# 1 10.9411 5.7165 10.6006 0.0000 0.0000 0.0000
# 2 5.7165 78.7117 33.2719 0.0000 0.0000 0.0000
# 3 10.6006 33.2719 62.2588 0.0000 0.0000 0.0000
# 4 0.0000 0.0000 0.0000 26.9907 0.0000 0.0000
# 5 0.0000 0.0000 0.0000 0.0000 11.6011 0.0000
# 6 0.0000 0.0000 0.0000 0.0000 0.0000 2.8707
#
#
#
# Elastic Compliance Matrix: (Units=1/GPa)
#
#
# Indices 1 2 3 4 5 6 
#
# 1 0.109455 -0.000092 -0.018587 0.000000 0.000000 0.000000
# 2 -0.000092 0.016412 -0.008755 0.000000 0.000000 0.000000
# 3 -0.018587 -0.008755 0.023906 0.000000 0.000000 0.000000
# 4 0.000000 0.000000 0.000000 0.037050 0.000000 0.000000
# 5 0.000000 0.000000 0.000000 0.000000 0.086199 0.000000
# 6 0.000000 0.000000 0.000000 0.000000 0.000000 0.348353
#
#
# Mechanical properties :
#
#
# Convention : Reuss Voigt Hill
#
# Bulk Modulus (GPa) = 10.53701 27.89885 19.21793
# Shear Modulus (GPa) = 7.06336 15.11400 11.08868
#
# Velocity S-wave (km/s) = 1.93624 2.83233 2.42602
# Velocity P-wave (km/s) = 3.25445 5.05015 4.24826
#
# Compressibility (1/GPa) = 0.09490359
#
# Stress axis : x y z
#
# Youngs Moduli (GPa) = 9.13616 60.93047 41.83120
#
# Poissons Ratio (x) = 0.00563 0.77752
# Poissons Ratio (y) = 0.00084 0.36624
# Poissons Ratio (z) = 0.16982 0.53345
#
# Static dielectric constant tensor:
#      x y z
#    x 1.653680 0.000000 0.000000 
#    y 0.000000 1.691920 0.000000 
#    z 0.000000 0.000000 1.629080 
# 
# From -- ./inp_files/8240.got.cif
#   From: 2010.05.17/outbox.cif.g08.bks.cpg/sg58_5_cif.got.tgz:8240.got - 2010.06.03 14:20:14.
