data_PCOD9442254
_publ_section_title
;
Structure prediction by ZEFSAII (Michael W. Deem and Ramdas Pophale) SiO2 
 PCOD9442254
Probable space group: P N N M
;
_chemical_formula_sum "Si O2"
_cell_formula_units_Z 64
_cell_length_a 16.019532
_cell_length_b 24.273692
_cell_length_c 7.939761
_cell_angle_alpha 90.000000
_cell_angle_beta 90.000000
_cell_angle_gamma 90.000000
_cell_volume 3087.401359
_symmetry_space_group_name_H-M "P N N M"
_symmetry_group_IT_number 58
_symmetry_cell_setting 'orthorhombic'
loop_
_space_group_symop_operation_xyz
x,y,z
-x,-y,z
1/2+x,1/2-y,1/2-z
1/2-x,1/2+y,1/2-z
-x,-y,-z
x,y,-z
1/2-x,1/2+y,1/2+z
1/2+x,1/2-y,1/2+z
loop_
_atom_site_type_symbol
_atom_site_label
_atom_site_fract_x
_atom_site_fract_y
_atom_site_fract_z
Si Si1 0.670321 0.871325 0.198238
Si Si2 0.155076 0.372027 0.304099
Si Si3 0.146940 0.140796 0.693996
Si Si4 0.161991 0.866203 0.206814
Si Si5 0.906610 0.741769 0.804748
Si Si6 0.100558 0.746114 0.203957
Si Si7 0.995958 0.062584 0.203304
Si Si8 0.007185 0.563773 0.293761
O O1 0.759788 0.881267 0.280478
O O2 0.645017 0.807730 0.225425
O O3 0.593014 0.907781 0.263711
O O4 0.679552 0.882075 0.000000
O O5 0.158391 0.388410 0.500000
O O6 0.246563 0.383883 0.232100
O O7 0.139728 0.306599 0.293088
O O8 0.073860 0.402552 0.232385
O O9 0.133226 0.154127 0.500000
O O10 0.134766 0.198516 0.789703
O O11 0.077448 0.097411 0.750249
O O12 0.141783 0.803518 0.257807
O O13 0.086808 0.905451 0.262083
O O14 0.162832 0.866378 0.000000
O O15 0.002912 0.745983 0.747375
O O16 0.906993 0.725132 0.000000
O O17 0.104498 0.743675 0.000000
O O18 0.991870 0.061108 0.000000
O O19 0.000000 0.000000 0.265624
O O20 0.008406 0.566875 0.500000
O O21 0.000000 0.500000 0.247036
#
# Coordination Sequence:
#
# PCOD9442254 Si02
#       8
#     8   8   8   8   8   8   8   8
#     4  11  22  37  60  89 120 153 198 246 294 353
#     4  10  19  34  58  86 116 152 193 237 293 352
#     4  12  25  40  60  86 120 159 199 244 300 354
#     4   9  18  34  57  85 114 147 186 234 289 348
#     4  11  21  36  60  87 118 152 194 243 294 354
#     4  10  19  34  57  84 120 154 188 237 298 356
#     4  10  21  40  64  89 116 153 200 246 296 351
#     4   9  19  35  56  85 119 154 197 244 288 342
#
# _framework density 20.729407999999999
#
# number of rings (size 3 to 8) (size 9 to 14) (size 15 to 20)
#    0.000    1.750    2.500    2.625    0.000    2.750 
#    0.000    4.375    0.000    4.875    0.000    0.000 
#    0.000    0.000    0.000    0.000    0.000    0.000 
#
# Total GULP energy -357643.360657 kJ/mol
# GULP energy per Si atom -5588.177510 kJ/mol
# Density = 2.068223 g / cm^3
# Si number density = 20.729408 Si / 1000 Ang^3
#
#
#
# Elastic Constant Matrix: (Units=GPa)
#
#
# Indices 1 2 3 4 5 6 
#
# 1 182.3151 71.2081 -3.3711 0.0000 0.0000 0.0000
# 2 71.2081 118.6486 -5.4558 0.0000 0.0000 0.0000
# 3 -3.3711 -5.4558 18.6662 0.0000 0.0000 0.0000
# 4 0.0000 0.0000 0.0000 76.4220 0.0000 0.0000
# 5 0.0000 0.0000 0.0000 0.0000 12.7813 0.0000
# 6 0.0000 0.0000 0.0000 0.0000 0.0000 -0.6250
#
#
#
# Elastic Compliance Matrix: (Units=1/GPa)
#
#
# Indices 1 2 3 4 5 6 
#
# 1 0.007164 -0.004298 0.000038 0.000000 0.000000 0.000000
# 2 -0.004298 0.011122 0.002474 0.000000 0.000000 0.000000
# 3 0.000038 0.002474 0.054303 0.000000 0.000000 0.000000
# 4 0.000000 0.000000 0.000000 0.013085 0.000000 0.000000
# 5 0.000000 0.000000 0.000000 0.000000 0.078239 0.000000
# 6 0.000000 0.000000 0.000000 0.000000 0.000000 -1.600088
#
#
# Mechanical properties :
#
#
# Convention : Reuss Voigt Hill
#
# Bulk Modulus (GPa) = 14.48925 49.37694 31.93310
# Shear Modulus (GPa) = -3.54711 34.86560 15.65924
#
# Velocity S-wave (km/s) = -1.30953 4.10559 2.75146
# Velocity P-wave (km/s) = 2.17219 6.80779 5.05294
#
# Compressibility (1/GPa) = 0.06901667
#
# Stress axis : x y z
#
# Youngs Moduli (GPa) = 139.57838 89.91546 18.41528
#
# Poissons Ratio (x) = 0.38646 -0.00069
# Poissons Ratio (y) = 0.59992 -0.04557
# Poissons Ratio (z) = -0.00525 -0.22249
#
# Static dielectric constant tensor:
#      x y z
#    x 1.735480 0.000000 0.000000 
#    y 0.000000 1.701130 0.000000 
#    z 0.000000 0.000000 1.745580 
# 
# From -- ./inp_files/6951.got.cif
#   From: 2010.05.17/outbox.cif.g08.bks.cpg/sg58_4_cif.got.tgz:6951.got - 2010.06.03 14:20:14.
