data_PCOD9442460
_publ_section_title
;
Structure prediction by ZEFSAII (Michael W. Deem and Ramdas Pophale) SiO2 
 PCOD9442460
Probable space group: P N N M
;
_chemical_formula_sum "Si O2"
_cell_formula_units_Z 64
_cell_length_a 14.196416
_cell_length_b 24.679075
_cell_length_c 7.483004
_cell_angle_alpha 90.000000
_cell_angle_beta 90.000000
_cell_angle_gamma 90.000000
_cell_volume 2621.703490
_symmetry_space_group_name_H-M "P N N M"
_symmetry_group_IT_number 58
_symmetry_cell_setting 'orthorhombic'
loop_
_space_group_symop_operation_xyz
x,y,z
-x,-y,z
1/2+x,1/2-y,1/2-z
1/2-x,1/2+y,1/2-z
-x,-y,-z
x,y,-z
1/2-x,1/2+y,1/2+z
1/2+x,1/2-y,1/2+z
loop_
_atom_site_type_symbol
_atom_site_label
_atom_site_fract_x
_atom_site_fract_y
_atom_site_fract_z
Si Si1 0.263628 0.561302 0.709126
Si Si2 0.948829 0.444164 0.281954
Si Si3 0.384055 0.873129 0.793884
Si Si4 0.817886 0.136140 0.784900
Si Si5 0.406286 0.471657 0.210612
Si Si6 0.528440 0.235131 0.283133
Si Si7 0.139883 0.166010 0.204887
Si Si8 0.319548 0.238743 0.283301
O O1 0.253662 0.575501 0.500000
O O2 0.158014 0.560347 0.784321
O O3 0.315708 0.504019 0.718689
O O4 0.330212 0.608686 0.787426
O O5 0.943196 0.442343 0.500000
O O6 0.000000 0.500000 0.234991
O O7 0.021594 0.398747 0.216237
O O8 0.282516 0.886498 0.715399
O O9 0.397983 0.808757 0.786372
O O10 0.380751 0.891309 0.000000
O O11 0.897374 0.092404 0.742368
O O12 0.822920 0.198304 0.725447
O O13 0.813780 0.138918 0.000000
O O14 0.500000 0.500000 0.285486
O O15 0.405684 0.480405 0.000000
O O16 0.532904 0.235386 0.500000
O O17 0.559318 0.294720 0.218852
O O18 0.423305 0.218025 0.231210
O O19 0.234563 0.203105 0.208642
O O20 0.110517 0.155756 0.000000
O O21 0.311671 0.236938 0.500000
#
# Coordination Sequence:
#
# PCOD9442460 Si02
#       8
#     8   8   8   8   8   8   8   8
#     4  10  21  38  61  86 113 154 201 241 286 347
#     4   9  17  31  55  85 114 141 180 236 286 333
#     4  10  19  35  60  89 117 149 192 236 284 346
#     4  10  21  38  63  89 114 152 201 246 289 344
#     4  11  26  44  60  84 117 154 197 248 303 351
#     4  10  21  35  53  81 118 153 187 235 293 345
#     4  10  21  37  58  85 117 154 195 237 287 345
#     4  10  21  37  58  87 120 155 197 243 291 347
#
# _framework density 24.41161
#
# number of rings (size 3 to 8) (size 9 to 14) (size 15 to 20)
#    0.000    2.000    1.250    1.875    1.750    6.000 
#    0.000    0.625    0.000    1.500    0.000    0.000 
#    0.000    0.000    0.000    0.000    0.000    0.000 
#
# Total GULP energy -357691.865516 kJ/mol
# GULP energy per Si atom -5588.935399 kJ/mol
# Density = 2.435605 g / cm^3
# Si number density = 24.411610 Si / 1000 Ang^3
#
#
#
# Elastic Constant Matrix: (Units=GPa)
#
#
# Indices 1 2 3 4 5 6 
#
# 1 50.0949 -17.2042 -3.4615 0.0000 0.0000 0.0000
# 2 -17.2042 85.1617 -14.0372 0.0000 0.0000 0.0000
# 3 -3.4615 -14.0372 70.8791 0.0000 0.0000 0.0000
# 4 0.0000 0.0000 0.0000 11.7306 0.0000 0.0000
# 5 0.0000 0.0000 0.0000 0.0000 -12.9827 0.0000
# 6 0.0000 0.0000 0.0000 0.0000 0.0000 41.4364
#
#
#
# Elastic Compliance Matrix: (Units=1/GPa)
#
#
# Indices 1 2 3 4 5 6 
#
# 1 0.021720 0.004717 0.001995 0.000000 0.000000 0.000000
# 2 0.004717 0.013163 0.002837 0.000000 0.000000 0.000000
# 3 0.001995 0.002837 0.014768 0.000000 0.000000 0.000000
# 4 0.000000 0.000000 0.000000 0.085247 0.000000 0.000000
# 5 0.000000 0.000000 0.000000 0.000000 -0.077026 0.000000
# 6 0.000000 0.000000 0.000000 0.000000 0.000000 0.024133
#
#
# Mechanical properties :
#
#
# Convention : Reuss Voigt Hill
#
# Bulk Modulus (GPa) = 14.54596 15.19221 14.86908
# Shear Modulus (GPa) = 58.25910 24.09280 41.17595
#
# Velocity S-wave (km/s) = 4.89051 3.14497 4.11145
# Velocity P-wave (km/s) = 6.15314 4.40734 5.35190
#
# Compressibility (1/GPa) = 0.06874763
#
# Stress axis : x y z
#
# Youngs Moduli (GPa) = 46.04099 75.97138 67.71472
#
# Poissons Ratio (x) = -0.35833 -0.13508
# Poissons Ratio (y) = -0.21716 -0.19212
# Poissons Ratio (z) = -0.09184 -0.21554
#
# Static dielectric constant tensor:
#      x y z
#    x 1.956690 0.000000 0.000000 
#    y 0.000000 1.936940 0.000000 
#    z 0.000000 0.000000 1.924480 
# 
# From -- ./inp_files/6983.got.cif
#   From: 2010.05.17/outbox.cif.g08.bks.cpg/sg58_4_cif.got.tgz:6983.got - 2010.06.03 14:20:14.
