data_PCOD9442148
_publ_section_title
;
Structure prediction by ZEFSAII (Michael W. Deem and Ramdas Pophale) SiO2 
 PCOD9442148
Probable space group: P N N M
;
_chemical_formula_sum "Si O2"
_cell_formula_units_Z 56
_cell_length_a 19.824065
_cell_length_b 19.805916
_cell_length_c 8.460056
_cell_angle_alpha 90.000000
_cell_angle_beta 90.000000
_cell_angle_gamma 90.000000
_cell_volume 3321.703649
_symmetry_space_group_name_H-M "P N N M"
_symmetry_group_IT_number 58
_symmetry_cell_setting 'orthorhombic'
loop_
_space_group_symop_operation_xyz
x,y,z
-x,-y,z
1/2+x,1/2-y,1/2-z
1/2-x,1/2+y,1/2-z
-x,-y,-z
x,y,-z
1/2-x,1/2+y,1/2+z
1/2+x,1/2-y,1/2+z
loop_
_atom_site_type_symbol
_atom_site_label
_atom_site_fract_x
_atom_site_fract_y
_atom_site_fract_z
Si Si1 0.944512 0.445090 0.810736
Si Si2 0.475737 0.204277 0.188983
Si Si3 0.296439 0.016306 0.809061
Si Si4 0.271592 0.650039 0.308154
Si Si5 0.664244 0.734764 0.809396
Si Si6 0.620372 0.244870 0.310681
Si Si7 0.272603 0.863680 0.810857
O O1 0.871738 0.463451 0.740917
O O2 0.000000 0.500000 0.757891
O O3 0.966501 0.370360 0.759730
O O4 0.940254 0.447796 0.000000
O O5 0.412125 0.250147 0.239602
O O6 0.547103 0.234827 0.238306
O O7 0.472439 0.197954 0.000000
O O8 0.278806 0.940856 0.755481
O O9 0.245759 0.075069 0.752000
O O10 0.294099 0.016227 0.000000
O O11 0.273908 0.648370 0.500000
O O12 0.209612 0.699783 0.266342
O O13 0.339467 0.687983 0.255720
O O14 0.702015 0.670983 0.735444
O O15 0.666936 0.728317 0.000000
O O16 0.614814 0.246615 0.500000
O O17 0.668688 0.182340 0.264268
O O18 0.280575 0.861747 0.000000
#
# Coordination Sequence:
#
# PCOD9442148 Si02
#       7
#     8   8   8   8   8   8   8
#     4  11  23  34  47  74 110 142 170 206 257 314
#     4  11  21  35  54  75 101 137 177 214 259 310
#     4  10  19  34  53  74 101 136 175 210 254 307
#     4   8  15  32  53  71  94 131 172 207 251 303
#     4   9  18  34  54  72  98 136 172 213 260 308
#     4  10  20  34  52  74 104 136 170 214 260 309
#     4  10  20  32  52  79 105 133 171 217 254 306
#
# _framework density 16.858819
#
# number of rings (size 3 to 8) (size 9 to 14) (size 15 to 20)
#    0.000    2.143    1.429    3.429    0.000    5.714 
#    0.000    0.714    0.000    0.857    0.000    6.000 
#    0.000    0.000    0.000    0.000    0.000    0.000 
#
# Total GULP energy -312449.505303 kJ/mol
# GULP energy per Si atom -5579.455452 kJ/mol
# Density = 1.682045 g / cm^3
# Si number density = 16.858819 Si / 1000 Ang^3
#
#
#
# Elastic Constant Matrix: (Units=GPa)
#
#
# Indices 1 2 3 4 5 6 
#
# 1 111.6849 53.9796 -5.2517 0.0000 0.0000 0.0000
# 2 53.9796 59.5008 -2.1323 0.0000 0.0000 0.0000
# 3 -5.2517 -2.1323 4.8857 0.0000 0.0000 0.0000
# 4 0.0000 0.0000 0.0000 9.0915 0.0000 0.0000
# 5 0.0000 0.0000 0.0000 0.0000 331.9345 0.0000
# 6 0.0000 0.0000 0.0000 0.0000 0.0000 24.4743
#
#
#
# Elastic Compliance Matrix: (Units=1/GPa)
#
#
# Indices 1 2 3 4 5 6 
#
# 1 0.016549 -0.014604 0.011415 0.000000 0.000000 0.000000
# 2 -0.014604 0.029962 -0.002622 0.000000 0.000000 0.000000
# 3 0.011415 -0.002622 0.215805 0.000000 0.000000 0.000000
# 4 0.000000 0.000000 0.000000 0.109992 0.000000 0.000000
# 5 0.000000 0.000000 0.000000 0.000000 0.003013 0.000000
# 6 0.000000 0.000000 0.000000 0.000000 0.000000 0.040859
#
#
# Mechanical properties :
#
#
# Convention : Reuss Voigt Hill
#
# Bulk Modulus (GPa) = 3.98894 29.91807 16.95350
# Shear Modulus (GPa) = 9.77770 81.73178 45.75474
#
# Velocity S-wave (km/s) = 2.41088 6.97032 5.21525
# Velocity P-wave (km/s) = 3.18135 9.08654 6.80758
#
# Compressibility (1/GPa) = 0.25069330
#
# Stress axis : x y z
#
# Youngs Moduli (GPa) = 60.42617 33.37586 4.63381
#
# Poissons Ratio (x) = 0.48744 -0.05289
# Poissons Ratio (y) = 0.88249 0.01215
# Poissons Ratio (z) = -0.68975 0.08750
#
# Static dielectric constant tensor:
#      x y z
#    x 1.554120 0.000000 0.000000 
#    y 0.000000 1.568770 0.000000 
#    z 0.000000 0.000000 1.577230 
# 
# From -- ./inp_files/8167.got.cif
#   From: 2010.05.17/outbox.cif.g08.bks.cpg/sg58_5_cif.got.tgz:8167.got - 2010.06.03 14:20:14.
