data_PCOD9442969
_publ_section_title
;
Structure prediction by ZEFSAII (Michael W. Deem and Ramdas Pophale) SiO2 
 PCOD9442969
Probable space group: P N N M
;
_chemical_formula_sum "Si O2"
_cell_formula_units_Z 56
_cell_length_a 20.784421
_cell_length_b 16.477738
_cell_length_c 7.517652
_cell_angle_alpha 90.000000
_cell_angle_beta 90.000000
_cell_angle_gamma 90.000000
_cell_volume 2574.647289
_symmetry_space_group_name_H-M "P N N M"
_symmetry_group_IT_number 58
_symmetry_cell_setting 'orthorhombic'
loop_
_space_group_symop_operation_xyz
x,y,z
-x,-y,z
1/2+x,1/2-y,1/2-z
1/2-x,1/2+y,1/2-z
-x,-y,-z
x,y,-z
1/2-x,1/2+y,1/2+z
1/2+x,1/2-y,1/2+z
loop_
_atom_site_type_symbol
_atom_site_label
_atom_site_fract_x
_atom_site_fract_y
_atom_site_fract_z
Si Si1 0.844924 0.678803 0.702685
Si Si2 0.022575 0.245991 0.204198
Si Si3 0.396448 0.168019 0.717873
Si Si4 0.330553 0.005866 0.292292
Si Si5 0.685523 0.507039 0.284901
Si Si6 0.051684 0.067835 0.781967
Si Si7 0.797327 0.192532 0.217024
O O1 0.848950 0.707685 0.500000
O O2 0.908479 0.711182 0.794393
O O3 0.842118 0.581084 0.704131
O O4 0.775984 0.706317 0.778343
O O5 0.030640 0.156405 0.282797
O O6 0.966776 0.303384 0.278941
O O7 0.002419 0.231942 0.000000
O O8 0.395117 0.163698 0.500000
O O9 0.372634 0.080084 0.778851
O O10 0.346077 0.237713 0.771671
O O11 0.345453 0.994089 0.500000
O O12 0.254695 0.025669 0.275557
O O13 0.686134 0.506339 0.500000
O O14 0.623281 0.457574 0.224530
O O15 0.681661 0.601773 0.228978
O O16 0.053166 0.069501 0.000000
O O17 0.000000 0.000000 0.730734
O O18 0.795682 0.191924 0.000000
#
# Coordination Sequence:
#
# PCOD9442969 Si02
#       7
#     8   8   8   8   8   8   8
#     4  10  21  37  56  77 107 141 176 221 275 329
#     4  10  20  34  54  80 108 138 180 226 266 313
#     4   9  18  32  52  77 102 136 180 221 260 311
#     4  10  20  34  54  77 102 135 182 228 267 313
#     4   9  17  31  52  79 109 138 173 216 268 320
#     4   9  17  30  53  83 112 144 180 221 265 319
#     4   8  15  30  52  74 100 136 175 211 252 313
#
# _framework density 21.750553
#
# number of rings (size 3 to 8) (size 9 to 14) (size 15 to 20)
#    0.000    2.714    0.000    2.571    2.000    4.000 
#    0.000    4.286    0.000   10.286    0.000    0.000 
#    0.000    0.000    0.000    0.000    0.000    0.000 
#
# Total GULP energy -312717.022426 kJ/mol
# GULP energy per Si atom -5584.232543 kJ/mol
# Density = 2.170105 g / cm^3
# Si number density = 21.750553 Si / 1000 Ang^3
#
#
#
# Elastic Constant Matrix: (Units=GPa)
#
#
# Indices 1 2 3 4 5 6 
#
# 1 97.0821 31.9162 -8.3746 0.0000 0.0000 0.0000
# 2 31.9162 35.6214 -6.2039 0.0000 0.0000 0.0000
# 3 -8.3746 -6.2039 55.9120 0.0000 0.0000 0.0000
# 4 0.0000 0.0000 0.0000 6.5599 0.0000 0.0000
# 5 0.0000 0.0000 0.0000 0.0000 14.2302 0.0000
# 6 0.0000 0.0000 0.0000 0.0000 0.0000 33.0214
#
#
#
# Elastic Compliance Matrix: (Units=1/GPa)
#
#
# Indices 1 2 3 4 5 6 
#
# 1 0.014632 -0.012980 0.000751 0.000000 0.000000 0.000000
# 2 -0.012980 0.040140 0.002510 0.000000 0.000000 0.000000
# 3 0.000751 0.002510 0.018276 0.000000 0.000000 0.000000
# 4 0.000000 0.000000 0.000000 0.152442 0.000000 0.000000
# 5 0.000000 0.000000 0.000000 0.000000 0.070273 0.000000
# 6 0.000000 0.000000 0.000000 0.000000 0.000000 0.030283
#
#
# Mechanical properties :
#
#
# Convention : Reuss Voigt Hill
#
# Bulk Modulus (GPa) = 18.65270 24.81013 21.73142
# Shear Modulus (GPa) = 13.76068 22.18081 17.97075
#
# Velocity S-wave (km/s) = 2.51800 3.19687 2.87752
# Velocity P-wave (km/s) = 4.12894 5.00580 4.58836
#
# Compressibility (1/GPa) = 0.05361153
#
# Stress axis : x y z
#
# Youngs Moduli (GPa) = 68.34111 24.91307 54.71576
#
# Poissons Ratio (x) = 0.32336 -0.04112
# Poissons Ratio (y) = 0.88704 -0.13732
# Poissons Ratio (z) = -0.05136 -0.06252
#
# Static dielectric constant tensor:
#      x y z
#    x 1.762320 0.000000 0.000000 
#    y 0.000000 1.757570 0.000000 
#    z 0.000000 0.000000 1.836830 
# 
# From -- ./inp_files/8995.got.cif
#   From: 2010.05.17/outbox.cif.g08.bks.cpg/sg58_5_cif.got.tgz:8995.got - 2010.06.03 14:20:14.
