data_PCOD9442348
_publ_section_title
;
Structure prediction by ZEFSAII (Michael W. Deem and Ramdas Pophale) SiO2 
 PCOD9442348
Probable space group: P N N M
;
_chemical_formula_sum "Si O2"
_cell_formula_units_Z 58
_cell_length_a 14.837728
_cell_length_b 25.728645
_cell_length_c 7.610174
_cell_angle_alpha 90.000000
_cell_angle_beta 90.000000
_cell_angle_gamma 90.000000
_cell_volume 2905.219208
_symmetry_space_group_name_H-M "P N N M"
_symmetry_group_IT_number 58
_symmetry_cell_setting 'orthorhombic'
loop_
_space_group_symop_operation_xyz
x,y,z
-x,-y,z
1/2+x,1/2-y,1/2-z
1/2-x,1/2+y,1/2-z
-x,-y,-z
x,y,-z
1/2-x,1/2+y,1/2+z
1/2+x,1/2-y,1/2+z
loop_
_atom_site_type_symbol
_atom_site_label
_atom_site_fract_x
_atom_site_fract_y
_atom_site_fract_z
Si Si1 0.248823 0.397951 0.288331
Si Si2 0.439684 0.844715 0.785808
Si Si3 0.379239 0.309742 0.290661
Si Si4 0.640355 0.010366 0.691922
Si Si5 0.000000 0.500000 0.500000
Si Si6 0.381503 0.102250 0.796298
Si Si7 0.775195 0.294873 0.785647
Si Si8 0.071709 0.227091 0.288968
O O1 0.253948 0.401162 0.500000
O O2 0.157193 0.367224 0.240443
O O3 0.330394 0.361823 0.224112
O O4 0.230092 0.455584 0.219521
O O5 0.523400 0.878404 0.721516
O O6 0.447404 0.785513 0.723941
O O7 0.445711 0.844023 0.000000
O O8 0.364677 0.309176 0.500000
O O9 0.330471 0.256581 0.226881
O O10 0.485401 0.307147 0.257144
O O11 0.603481 0.022757 0.500000
O O12 0.656874 0.948649 0.705728
O O13 0.569222 0.021900 0.845288
O O14 0.318906 0.152630 0.787534
O O15 0.398751 0.084976 0.000000
O O16 0.670904 0.290071 0.730840
O O17 0.779526 0.297256 0.000000
O O18 0.076446 0.229698 0.500000
#
# Coordination Sequence:
#
# PCOD9442348 Si02
#       8
#     8   8   8   8   2   8   8   8
#     4  10  19  37  60  80 117 163 203 249 303 358
#     4   9  17  29  53  80 111 156 194 229 293 359
#     4  10  20  34  56  85 116 154 198 250 304 358
#     4  12  25  40  60  88 122 167 209 251 303 369
#     4  12  22  44  60  90 132 158 206 252 312 360
#     4  11  21  36  59  84 117 161 202 251 301 353
#     4  10  20  35  55  84 116 156 199 246 303 366
#     4  10  19  35  54  80 117 155 195 240 299 358
#
# _framework density 19.964071000000001
#
# number of rings (size 3 to 8) (size 9 to 14) (size 15 to 20)
#    0.000    1.655    4.138    1.448    1.931    1.103 
#    0.000    1.379    0.000    0.828    0.000    5.793 
#    0.000    0.000    0.000    0.000    0.000    0.000 
#
# Total GULP energy -323602.864842 kJ/mol
# GULP energy per Si atom -5579.359739 kJ/mol
# Density = 1.991863 g / cm^3
# Si number density = 19.964071 Si / 1000 Ang^3
#
#
#
# Elastic Constant Matrix: (Units=GPa)
#
#
# Indices 1 2 3 4 5 6 
#
# 1 81.1305 14.4191 1.2606 0.0000 0.0000 0.0000
# 2 14.4191 65.8816 7.3342 0.0000 0.0000 0.0000
# 3 1.2606 7.3342 83.4922 0.0000 0.0000 0.0000
# 4 0.0000 0.0000 0.0000 16.6074 0.0000 0.0000
# 5 0.0000 0.0000 0.0000 0.0000 17.7087 0.0000
# 6 0.0000 0.0000 0.0000 0.0000 0.0000 27.7861
#
#
#
# Elastic Compliance Matrix: (Units=1/GPa)
#
#
# Indices 1 2 3 4 5 6 
#
# 1 0.012825 -0.002813 0.000053 0.000000 0.000000 0.000000
# 2 -0.002813 0.015946 -0.001358 0.000000 0.000000 0.000000
# 3 0.000053 -0.001358 0.012096 0.000000 0.000000 0.000000
# 4 0.000000 0.000000 0.000000 0.060214 0.000000 0.000000
# 5 0.000000 0.000000 0.000000 0.000000 0.056469 0.000000
# 6 0.000000 0.000000 0.000000 0.000000 0.000000 0.035989
#
#
# Mechanical properties :
#
#
# Convention : Reuss Voigt Hill
#
# Bulk Modulus (GPa) = 30.64582 30.72579 30.68581
# Shear Modulus (GPa) = 23.51269 26.25314 24.88291
#
# Velocity S-wave (km/s) = 3.43556 3.63025 3.53425
# Velocity P-wave (km/s) = 5.57864 5.74418 5.66202
#
# Compressibility (1/GPa) = 0.03263087
#
# Stress axis : x y z
#
# Youngs Moduli (GPa) = 77.97323 62.71329 82.67422
#
# Poissons Ratio (x) = 0.17640 -0.00442
# Poissons Ratio (y) = 0.21933 0.11229
# Poissons Ratio (z) = -0.00417 0.08518
#
# Static dielectric constant tensor:
#      x y z
#    x 1.792470 0.000000 0.000000 
#    y 0.000000 1.981970 0.000000 
#    z 0.000000 0.000000 2.022560 
# 
# From -- ./inp_files/7055.got.cif
#   From: 2010.05.17/outbox.cif.g08.bks.cpg/sg58_4_cif.got.tgz:7055.got - 2010.06.03 14:20:14.
