data_PCOD9442660
_publ_section_title
;
Structure prediction by ZEFSAII (Michael W. Deem and Ramdas Pophale) SiO2 
 PCOD9442660
Probable space group: P N N M
;
_chemical_formula_sum "Si O2"
_cell_formula_units_Z 58
_cell_length_a 18.835530
_cell_length_b 18.266531
_cell_length_c 8.066047
_cell_angle_alpha 90.000000
_cell_angle_beta 90.000000
_cell_angle_gamma 90.000000
_cell_volume 2775.202458
_symmetry_space_group_name_H-M "P N N M"
_symmetry_group_IT_number 58
_symmetry_cell_setting 'orthorhombic'
loop_
_space_group_symop_operation_xyz
x,y,z
-x,-y,z
1/2+x,1/2-y,1/2-z
1/2-x,1/2+y,1/2-z
-x,-y,-z
x,y,-z
1/2-x,1/2+y,1/2+z
1/2+x,1/2-y,1/2+z
loop_
_atom_site_type_symbol
_atom_site_label
_atom_site_fract_x
_atom_site_fract_y
_atom_site_fract_z
Si Si1 0.160327 0.157627 0.811739
Si Si2 0.016811 0.396906 0.692894
Si Si3 0.186088 0.999533 0.692290
Si Si4 0.000000 0.500000 0.000000
Si Si5 0.391882 0.361958 0.309214
Si Si6 0.480492 0.723847 0.188259
Si Si7 0.827019 0.587022 0.804702
Si Si8 0.757603 0.227734 0.801841
O O1 0.099797 0.195983 0.703497
O O2 0.235004 0.193309 0.761153
O O3 0.163135 0.071136 0.789076
O O4 0.144073 0.176902 0.000000
O O5 0.993052 0.409510 0.500000
O O6 0.013781 0.309667 0.728362
O O7 0.100372 0.418622 0.705262
O O8 0.982514 0.439752 0.848115
O O9 0.192653 0.019924 0.500000
O O10 0.129136 0.934310 0.709761
O O11 0.262553 0.966498 0.745249
O O12 0.376797 0.380570 0.500000
O O13 0.469718 0.329597 0.292710
O O14 0.336571 0.298330 0.258827
O O15 0.505094 0.715146 0.000000
O O16 0.794570 0.667826 0.779830
O O17 0.844497 0.574655 0.000000
O O18 0.749135 0.224263 0.000000
#
# Coordination Sequence:
#
# PCOD9442660 Si02
#       8
#     8   8   8   2   8   8   8   8
#     4  12  24  38  62  94 127 164 218 271 319 388
#     4  11  24  43  67  96 129 176 221 269 326 395
#     4  10  22  40  62  91 130 166 211 266 332 386
#     4  12  26  44  68  90 136 162 222 266 332 380
#     4  10  22  40  64  92 128 169 212 266 328 393
#     4  11  24  42  66  93 127 169 220 266 322 392
#     4  10  19  37  65  91 120 165 212 259 320 387
#     4  10  20  37  61  91 122 160 209 264 320 385
#
# _framework density 20.899376
#
# number of rings (size 3 to 8) (size 9 to 14) (size 15 to 20)
#    0.000    1.379    2.069    3.517    1.931    3.862 
#    2.483    2.759    0.000    0.000    0.000    0.000 
#    0.000    0.000    0.000    0.000    0.000    0.000 
#
# Total GULP energy -323398.366591 kJ/mol
# GULP energy per Si atom -5575.833907 kJ/mol
# Density = 2.085181 g / cm^3
# Si number density = 20.899376 Si / 1000 Ang^3
#
#
#
# Elastic Constant Matrix: (Units=GPa)
#
#
# Indices 1 2 3 4 5 6 
#
# 1 14.2424 1.7605 -4.7409 0.0000 0.0000 0.0000
# 2 1.7605 92.0905 16.7276 0.0000 0.0000 0.0000
# 3 -4.7409 16.7276 83.6387 0.0000 0.0000 0.0000
# 4 0.0000 0.0000 0.0000 31.0349 0.0000 0.0000
# 5 0.0000 0.0000 0.0000 0.0000 11.9591 0.0000
# 6 0.0000 0.0000 0.0000 0.0000 0.0000 2.8808
#
#
#
# Elastic Compliance Matrix: (Units=1/GPa)
#
#
# Indices 1 2 3 4 5 6 
#
# 1 0.071989 -0.002197 0.004520 0.000000 0.000000 0.000000
# 2 -0.002197 0.011335 -0.002392 0.000000 0.000000 0.000000
# 3 0.004520 -0.002392 0.012691 0.000000 0.000000 0.000000
# 4 0.000000 0.000000 0.000000 0.032222 0.000000 0.000000
# 5 0.000000 0.000000 0.000000 0.000000 0.083618 0.000000
# 6 0.000000 0.000000 0.000000 0.000000 0.000000 0.347125
#
#
# Mechanical properties :
#
#
# Convention : Reuss Voigt Hill
#
# Bulk Modulus (GPa) = 10.42998 24.16289 17.29643
# Shear Modulus (GPa) = 8.45913 20.92325 14.69119
#
# Velocity S-wave (km/s) = 2.01404 3.16752 2.65419
# Velocity P-wave (km/s) = 3.22643 4.99642 4.20559
#
# Compressibility (1/GPa) = 0.09587749
#
# Stress axis : x y z
#
# Youngs Moduli (GPa) = 13.89099 88.21993 78.79776
#
# Poissons Ratio (x) = 0.19384 -0.35617
# Poissons Ratio (y) = 0.03052 0.18845
# Poissons Ratio (z) = -0.06279 0.21099
#
# Static dielectric constant tensor:
#      x y z
#    x 1.751040 0.000000 0.000000 
#    y 0.000000 1.742830 0.000000 
#    z 0.000000 0.000000 1.718580 
# 
# From -- ./inp_files/8008.got.cif
#   From: 2010.05.17/outbox.cif.g08.bks.cpg/sg58_5_cif.got.tgz:8008.got - 2010.06.03 14:20:14.
