data_PCOD9442361
_publ_section_title
;
Structure prediction by ZEFSAII (Michael W. Deem and Ramdas Pophale) SiO2 
 PCOD9442361
Probable space group: P N N M
;
_chemical_formula_sum "Si O2"
_cell_formula_units_Z 64
_cell_length_a 8.876836
_cell_length_b 13.117535
_cell_length_c 23.415961
_cell_angle_alpha 90.000000
_cell_angle_beta 90.000000
_cell_angle_gamma 90.000000
_cell_volume 2726.606176
_symmetry_space_group_name_H-M "P N N M"
_symmetry_group_IT_number 58
_symmetry_cell_setting 'orthorhombic'
loop_
_space_group_symop_operation_xyz
x,y,z
-x,-y,z
1/2+x,1/2-y,1/2-z
1/2-x,1/2+y,1/2-z
-x,-y,-z
x,y,-z
1/2-x,1/2+y,1/2+z
1/2+x,1/2-y,1/2+z
loop_
_atom_site_type_symbol
_atom_site_label
_atom_site_fract_x
_atom_site_fract_y
_atom_site_fract_z
Si Si1 0.031405 0.688659 0.652687
Si Si2 0.095897 0.856253 0.061826
Si Si3 0.490380 0.260434 0.725112
Si Si4 0.643298 0.315881 0.063267
Si Si5 0.160082 0.051412 0.275563
Si Si6 0.319845 0.995757 0.391200
Si Si7 0.234043 0.917446 0.831312
Si Si8 0.170336 0.265949 0.113413
O O1 0.057265 0.696084 0.720586
O O2 0.957615 0.785265 0.618119
O O3 0.903267 0.603491 0.648818
O O4 0.194765 0.687346 0.624909
O O5 0.946539 0.790942 0.073057
O O6 0.227994 0.771135 0.063779
O O7 0.134291 0.933184 0.112663
O O8 0.097272 0.904388 0.000000
O O9 0.605488 0.338744 0.755250
O O10 0.347423 0.318473 0.697742
O O11 0.580365 0.211888 0.672853
O O12 0.726486 0.423437 0.071515
O O13 0.569673 0.311676 0.000000
O O14 0.275229 0.031723 0.326835
O O15 0.220004 0.998586 0.218220
O O16 0.000000 0.000000 0.292916
O O17 0.275863 0.878574 0.403871
O O18 0.500000 0.000000 0.399864
#
# Coordination Sequence:
#
# PCOD9442361 Si02
#       8
#     8   8   8   8   8   8   8   8
#     4  11  20  36  56  81 116 148 195 238 294 343
#     4   9  19  39  60  81 113 153 199 241 284 348
#     4  10  19  35  56  80 117 152 186 234 291 355
#     4  10  22  39  57  78 112 156 198 235 278 339
#     4  10  20  36  58  85 119 149 188 243 291 346
#     4  12  23  36  54  83 116 154 199 236 288 346
#     4   9  20  35  57  85 111 153 191 234 295 352
#     4  11  23  34  56  84 112 150 193 241 291 341
#
# _framework density 23.472403
#
# number of rings (size 3 to 8) (size 9 to 14) (size 15 to 20)
#    0.000    1.750    2.500    3.000    0.000    3.250 
#    0.000    0.625    0.000    9.375    0.000    0.000 
#    0.000   20.500    0.000    0.000    0.000    0.000 
#
# Total GULP energy -357658.719407 kJ/mol
# GULP energy per Si atom -5588.417491 kJ/mol
# Density = 2.341898 g / cm^3
# Si number density = 23.472403 Si / 1000 Ang^3
#
#
#
# Elastic Constant Matrix: (Units=GPa)
#
#
# Indices 1 2 3 4 5 6 
#
# 1 85.9752 13.3194 13.0627 0.0000 0.0000 0.0000
# 2 13.3194 31.5811 -2.3247 0.0000 0.0000 0.0000
# 3 13.0627 -2.3247 119.7653 0.0000 0.0000 0.0000
# 4 0.0000 0.0000 0.0000 8.2660 0.0000 0.0000
# 5 0.0000 0.0000 0.0000 0.0000 -29.0560 0.0000
# 6 0.0000 0.0000 0.0000 0.0000 0.0000 35.6383
#
#
#
# Elastic Compliance Matrix: (Units=1/GPa)
#
#
# Indices 1 2 3 4 5 6 
#
# 1 0.012705 -0.005468 -0.001492 0.000000 0.000000 0.000000
# 2 -0.005468 0.034063 0.001258 0.000000 0.000000 0.000000
# 3 -0.001492 0.001258 0.008537 0.000000 0.000000 0.000000
# 4 0.000000 0.000000 0.000000 0.120978 0.000000 0.000000
# 5 0.000000 0.000000 0.000000 0.000000 -0.034416 0.000000
# 6 0.000000 0.000000 0.000000 0.000000 0.000000 0.028060
#
#
# Mechanical properties :
#
#
# Convention : Reuss Voigt Hill
#
# Bulk Modulus (GPa) = 22.77890 31.71513 27.24702
# Shear Modulus (GPa) = 25.51477 17.18728 21.35102
#
# Velocity S-wave (km/s) = 3.30056 2.70892 3.01927
# Velocity P-wave (km/s) = 4.92449 4.82963 4.87729
#
# Compressibility (1/GPa) = 0.04390027
#
# Stress axis : x y z
#
# Youngs Moduli (GPa) = 78.70872 29.35707 117.14006
#
# Poissons Ratio (x) = 0.16053 0.17476
# Poissons Ratio (y) = 0.43040 -0.14732
# Poissons Ratio (z) = 0.11742 -0.03692
#
# Static dielectric constant tensor:
#      x y z
#    x 1.895850 0.000000 0.000000 
#    y 0.000000 1.917060 0.000000 
#    z 0.000000 0.000000 1.870300 
# 
# From -- ./inp_files/31621.got.cif
#   From: 2010.05.17/outbox.cif.g08.bks.cpg/sg58_16_cif.got.tgz:31621.got - 2010.06.03 14:20:14.
