data_PCOD9442897
_publ_section_title
;
Structure prediction by ZEFSAII (Michael W. Deem and Ramdas Pophale) SiO2 
 PCOD9442897
Probable space group: P N N M
;
_chemical_formula_sum "Si O2"
_cell_formula_units_Z 64
_cell_length_a 30.975301
_cell_length_b 14.743592
_cell_length_c 8.644051
_cell_angle_alpha 90.000000
_cell_angle_beta 90.000000
_cell_angle_gamma 90.000000
_cell_volume 3947.627448
_symmetry_space_group_name_H-M "P N N M"
_symmetry_group_IT_number 58
_symmetry_cell_setting 'orthorhombic'
loop_
_space_group_symop_operation_xyz
x,y,z
-x,-y,z
1/2+x,1/2-y,1/2-z
1/2-x,1/2+y,1/2-z
-x,-y,-z
x,y,-z
1/2-x,1/2+y,1/2+z
1/2+x,1/2-y,1/2+z
loop_
_atom_site_type_symbol
_atom_site_label
_atom_site_fract_x
_atom_site_fract_y
_atom_site_fract_z
Si Si1 0.217063 0.767074 0.813704
Si Si2 0.545168 0.101098 0.314746
Si Si3 0.694647 0.338213 0.187352
Si Si4 0.819301 0.520221 0.316551
Si Si5 0.366042 0.150738 0.685535
Si Si6 0.774504 0.031938 0.315656
Si Si7 0.634846 0.192762 0.315463
Si Si8 0.047127 0.603186 0.684497
O O1 0.260785 0.713853 0.763248
O O2 0.172957 0.716830 0.764323
O O3 0.216260 0.870679 0.758475
O O4 0.218040 0.765649 0.000000
O O5 0.541657 0.093084 0.500000
O O6 0.585391 0.166684 0.278923
O O7 0.499681 0.133296 0.245678
O O8 0.552859 0.999981 0.247747
O O9 0.697441 0.444285 0.229884
O O10 0.653796 0.288451 0.261827
O O11 0.692638 0.331862 0.000000
O O12 0.815532 0.509913 0.500000
O O13 0.851785 0.447557 0.246210
O O14 0.773765 0.506141 0.234651
O O15 0.836151 0.619385 0.273881
O O16 0.368170 0.150981 0.500000
O O17 0.413621 0.164385 0.753849
O O18 0.776524 0.041247 0.500000
O O19 0.640591 0.181784 0.500000
O O20 0.047529 0.600129 0.500000
#
# Coordination Sequence:
#
# PCOD9442897 Si02
#       8
#     8   8   8   8   8   8   8   8
#     4  10  21  36  53  75 103 136 176 216 255 305
#     4  10  20  34  51  72 104 140 172 209 258 309
#     4  10  21  36  52  74 104 137 174 214 256 302
#     4  12  22  31  49  74 104 138 175 216 255 300
#     4  11  21  36  53  72 104 141 176 213 259 308
#     4  11  22  37  53  72 103 139 176 217 259 303
#     4  11  22  34  52  76 102 138 178 212 253 308
#     4  11  21  32  50  77 105 134 173 213 255 308
#
# _framework density 16.21227
#
# number of rings (size 3 to 8) (size 9 to 14) (size 15 to 20)
#    0.000    1.250    3.750    4.500    0.000    3.500 
#    0.000    0.000    0.000    0.000    0.000    0.875 
#    0.000    7.000    0.000    0.000    0.000    0.000 
#
# Total GULP energy -357276.981694 kJ/mol
# GULP energy per Si atom -5582.452839 kJ/mol
# Density = 1.617537 g / cm^3
# Si number density = 16.212270 Si / 1000 Ang^3
#
#
#
# Elastic Constant Matrix: (Units=GPa)
#
#
# Indices 1 2 3 4 5 6 
#
# 1 96.2489 0.0081 39.3751 0.0000 0.0000 0.0000
# 2 0.0081 42.5751 -1.6375 0.0000 0.0000 0.0000
# 3 39.3751 -1.6375 65.4390 0.0000 0.0000 0.0000
# 4 0.0000 0.0000 0.0000 3.1765 0.0000 0.0000
# 5 0.0000 0.0000 0.0000 0.0000 22.3978 0.0000
# 6 0.0000 0.0000 0.0000 0.0000 0.0000 23.6267
#
#
#
# Elastic Compliance Matrix: (Units=1/GPa)
#
#
# Indices 1 2 3 4 5 6 
#
# 1 0.013787 -0.000322 -0.008304 0.000000 0.000000 0.000000
# 2 -0.000322 0.023518 0.000782 0.000000 0.000000 0.000000
# 3 -0.008304 0.000782 0.020297 0.000000 0.000000 0.000000
# 4 0.000000 0.000000 0.000000 0.314815 0.000000 0.000000
# 5 0.000000 0.000000 0.000000 0.000000 0.044647 0.000000
# 6 0.000000 0.000000 0.000000 0.000000 0.000000 0.042325
#
#
# Mechanical properties :
#
#
# Convention : Reuss Voigt Hill
#
# Bulk Modulus (GPa) = 23.85762 31.08384 27.47073
# Shear Modulus (GPa) = 10.22394 20.94135 15.58265
#
# Velocity S-wave (km/s) = 2.51396 3.59792 3.10363
# Velocity P-wave (km/s) = 4.81398 6.03943 5.46118
#
# Compressibility (1/GPa) = 0.04191532
#
# Stress axis : x y z
#
# Youngs Moduli (GPa) = 72.53335 42.52057 49.26753
#
# Poissons Ratio (x) = 0.01369 0.40910
# Poissons Ratio (y) = 0.02335 -0.03854
# Poissons Ratio (z) = 0.60229 -0.03326
#
# Static dielectric constant tensor:
#      x y z
#    x 1.562240 0.000000 0.000000 
#    y 0.000000 1.539970 0.000000 
#    z 0.000000 0.000000 1.541810 
# 
# From -- ./inp_files/11151.got.cif
#   From: 2010.05.17/outbox.cif.g08.bks.cpg/sg58_6_cif.got.tgz:11151.got - 2010.06.03 14:20:14.
