data_PCOD9442086
_publ_section_title
;
Structure prediction by ZEFSAII (Michael W. Deem and Ramdas Pophale) SiO2 
 PCOD9442086
Probable space group: P N N M
;
_chemical_formula_sum "Si O2"
_cell_formula_units_Z 56
_cell_length_a 21.021954
_cell_length_b 15.205927
_cell_length_c 7.432487
_cell_angle_alpha 90.000000
_cell_angle_beta 90.000000
_cell_angle_gamma 90.000000
_cell_volume 2375.856144
_symmetry_space_group_name_H-M "P N N M"
_symmetry_group_IT_number 58
_symmetry_cell_setting 'orthorhombic'
loop_
_space_group_symop_operation_xyz
x,y,z
-x,-y,z
1/2+x,1/2-y,1/2-z
1/2-x,1/2+y,1/2-z
-x,-y,-z
x,y,-z
1/2-x,1/2+y,1/2+z
1/2+x,1/2-y,1/2+z
loop_
_atom_site_type_symbol
_atom_site_label
_atom_site_fract_x
_atom_site_fract_y
_atom_site_fract_z
Si Si1 0.726655 0.617273 0.780491
Si Si2 0.414499 0.078237 0.705271
Si Si3 0.208013 0.685194 0.712651
Si Si4 0.023478 0.090480 0.206979
Si Si5 0.331238 0.569116 0.784864
Si Si6 0.127136 0.392367 0.780396
Si Si7 0.987000 0.720784 0.779296
O O1 0.703316 0.713893 0.722400
O O2 0.690270 0.528854 0.723022
O O3 0.800168 0.610589 0.722564
O O4 0.725619 0.617323 0.000000
O O5 0.436233 0.064468 0.500000
O O6 0.345346 0.123097 0.703296
O O7 0.463382 0.147882 0.784826
O O8 0.406330 0.981751 0.784640
O O9 0.195971 0.685931 0.500000
O O10 0.276870 0.640570 0.740741
O O11 0.099865 0.092458 0.209263
O O12 0.998938 0.181608 0.286830
O O13 0.000847 0.089494 0.000000
O O14 0.000000 0.000000 0.292115
O O15 0.336843 0.566190 0.000000
O O16 0.083591 0.310552 0.728900
O O17 0.128509 0.395416 0.000000
O O18 0.989239 0.723077 0.000000
#
# Coordination Sequence:
#
# PCOD9442086 Si02
#       7
#     8   8   8   8   8   8   8
#     4   9  19  34  56  83 112 148 188 232 282 343
#     4  10  19  33  56  85 112 143 192 242 281 332
#     4  11  22  37  58  85 117 153 189 234 296 349
#     4  10  22  39  58  84 119 155 193 237 288 342
#     4  11  22  40  62  86 114 150 196 242 285 341
#     4   9  15  30  55  82 108 139 185 234 276 328
#     4   9  18  32  55  83 112 150 192 233 279 334
#
# _framework density 23.570450000000001
#
# number of rings (size 3 to 8) (size 9 to 14) (size 15 to 20)
#    0.000    2.143    1.429    2.143    2.000    4.286 
#    0.000    2.857    0.000    1.714    0.000    0.000 
#    0.000    0.000    0.000    0.000    0.000    0.000 
#
# Total GULP energy -313095.102762 kJ/mol
# GULP energy per Si atom -5590.983978 kJ/mol
# Density = 2.351680 g / cm^3
# Si number density = 23.570450 Si / 1000 Ang^3
#
#
#
# Elastic Constant Matrix: (Units=GPa)
#
#
# Indices 1 2 3 4 5 6 
#
# 1 38.2849 -7.1289 -14.4738 0.0000 0.0000 0.0000
# 2 -7.1289 139.1315 4.0392 0.0000 0.0000 0.0000
# 3 -14.4738 4.0392 84.8601 0.0000 0.0000 0.0000
# 4 0.0000 0.0000 0.0000 -0.3478 0.0000 0.0000
# 5 0.0000 0.0000 0.0000 0.0000 26.7689 0.0000
# 6 0.0000 0.0000 0.0000 0.0000 0.0000 29.3987
#
#
#
# Elastic Compliance Matrix: (Units=1/GPa)
#
#
# Indices 1 2 3 4 5 6 
#
# 1 0.028155 0.001305 0.004740 0.000000 0.000000 0.000000
# 2 0.001305 0.007258 -0.000123 0.000000 0.000000 0.000000
# 3 0.004740 -0.000123 0.012598 0.000000 0.000000 0.000000
# 4 0.000000 0.000000 0.000000 -2.875107 0.000000 0.000000
# 5 0.000000 0.000000 0.000000 0.000000 0.037357 0.000000
# 6 0.000000 0.000000 0.000000 0.000000 0.000000 0.034015
#
#
# Mechanical properties :
#
#
# Convention : Reuss Voigt Hill
#
# Bulk Modulus (GPa) = 16.70692 25.23886 20.97289
# Shear Modulus (GPa) = -1.81976 29.81995 14.00010
#
# Velocity S-wave (km/s) = -0.87962 3.56074 2.43979
# Velocity P-wave (km/s) = 2.46411 5.25702 4.10537
#
# Compressibility (1/GPa) = 0.05985542
#
# Stress axis : x y z
#
# Youngs Moduli (GPa) = 35.51779 137.78130 79.37517
#
# Poissons Ratio (x) = -0.17981 -0.37624
# Poissons Ratio (y) = -0.04635 0.00975
# Poissons Ratio (z) = -0.16835 0.01693
#
# Static dielectric constant tensor:
#      x y z
#    x 1.835720 0.000000 0.000000 
#    y 0.000000 1.888500 0.000000 
#    z 0.000000 0.000000 1.903660 
# 
# From -- ./inp_files/9050.got.cif
#   From: 2010.05.17/outbox.cif.g08.bks.cpg/sg58_5_cif.got.tgz:9050.got - 2010.06.03 14:20:14.
