data_PCOD9442857
_publ_section_title
;
Structure prediction by ZEFSAII (Michael W. Deem and Ramdas Pophale) SiO2 
 PCOD9442857
Probable space group: P N N M
;
_chemical_formula_sum "Si O2"
_cell_formula_units_Z 64
_cell_length_a 20.006521
_cell_length_b 20.407380
_cell_length_c 8.634471
_cell_angle_alpha 90.000000
_cell_angle_beta 90.000000
_cell_angle_gamma 90.000000
_cell_volume 3525.287661
_symmetry_space_group_name_H-M "P N N M"
_symmetry_group_IT_number 58
_symmetry_cell_setting 'orthorhombic'
loop_
_space_group_symop_operation_xyz
x,y,z
-x,-y,z
1/2+x,1/2-y,1/2-z
1/2-x,1/2+y,1/2-z
-x,-y,-z
x,y,-z
1/2-x,1/2+y,1/2+z
1/2+x,1/2-y,1/2+z
loop_
_atom_site_type_symbol
_atom_site_label
_atom_site_fract_x
_atom_site_fract_y
_atom_site_fract_z
Si Si1 0.207307 0.008480 0.812339
Si Si2 0.467903 0.931116 0.812424
Si Si3 0.070550 0.673209 0.815883
Si Si4 0.595896 0.686033 0.186500
Si Si5 0.818456 0.595032 0.314298
Si Si6 0.250734 0.284894 0.814741
Si Si7 0.715860 0.859784 0.812924
Si Si8 0.066237 0.960929 0.312671
O O1 0.240762 0.077566 0.766475
O O2 0.258843 0.952093 0.758656
O O3 0.133995 0.994590 0.747162
O O4 0.203762 0.007106 0.000000
O O5 0.511409 0.871513 0.748817
O O6 0.391210 0.927143 0.759910
O O7 0.500000 0.000000 0.764478
O O8 0.469285 0.928373 0.000000
O O9 0.065063 0.748263 0.757920
O O10 0.141187 0.644129 0.754581
O O11 0.070946 0.672304 0.000000
O O12 0.674861 0.689347 0.226046
O O13 0.567063 0.615730 0.236130
O O14 0.590745 0.690954 0.000000
O O15 0.818424 0.590763 0.500000
O O16 0.802476 0.668550 0.264205
O O17 0.248902 0.208714 0.770261
O O18 0.243823 0.289409 0.000000
O O19 0.708805 0.861106 0.000000
O O20 0.067926 0.961356 0.500000
O O21 0.000000 0.000000 0.262319
#
# Coordination Sequence:
#
# PCOD9442857 Si02
#       8
#     8   8   8   8   8   8   8   8
#     4  10  20  36  59  85 112 143 184 229 275 329
#     4  10  21  39  59  78 109 153 193 227 276 345
#     4  11  22  35  56  87 116 146 189 240 280 321
#     4   9  18  36  59  79 108 151 188 220 273 340
#     4  10  20  33  55  83 107 139 183 231 274 324
#     4   9  17  32  55  78 104 142 181 221 269 324
#     4   9  19  37  58  80 111 152 188 220 272 339
#     4  10  21  38  59  83 112 146 186 231 281 335
#
# _framework density 18.154547000000001
#
# number of rings (size 3 to 8) (size 9 to 14) (size 15 to 20)
#    0.000    2.250    1.250    2.625    0.000    6.000 
#    2.250    1.250    0.000    0.000    0.000    0.000 
#    0.000    0.000    0.000    0.000    0.000    0.000 
#
# Total GULP energy -357157.229762 kJ/mol
# GULP energy per Si atom -5580.581715 kJ/mol
# Density = 1.811323 g / cm^3
# Si number density = 18.154547 Si / 1000 Ang^3
#
#
#
# Elastic Constant Matrix: (Units=GPa)
#
#
# Indices 1 2 3 4 5 6 
#
# 1 133.5722 79.4675 23.4653 0.0000 0.0000 0.0000
# 2 79.4675 133.4816 22.4339 0.0000 0.0000 0.0000
# 3 23.4653 22.4339 9.5085 0.0000 0.0000 0.0000
# 4 0.0000 0.0000 0.0000 19.9020 0.0000 0.0000
# 5 0.0000 0.0000 0.0000 0.0000 28.8811 0.0000
# 6 0.0000 0.0000 0.0000 0.0000 0.0000 30.4485
#
#
#
# Elastic Compliance Matrix: (Units=1/GPa)
#
#
# Indices 1 2 3 4 5 6 
#
# 1 0.014609 -0.004372 -0.025738 0.000000 0.000000 0.000000
# 2 -0.004372 0.013722 -0.021588 0.000000 0.000000 0.000000
# 3 -0.025738 -0.021588 0.219620 0.000000 0.000000 0.000000
# 4 0.000000 0.000000 0.000000 0.050246 0.000000 0.000000
# 5 0.000000 0.000000 0.000000 0.000000 0.034625 0.000000
# 6 0.000000 0.000000 0.000000 0.000000 0.000000 0.032842
#
#
# Mechanical properties :
#
#
# Convention : Reuss Voigt Hill
#
# Bulk Modulus (GPa) = 6.91773 58.58839 32.75306
# Shear Modulus (GPa) = 9.66658 25.92602 17.79630
#
# Velocity S-wave (km/s) = 2.31001 3.78308 3.13432
# Velocity P-wave (km/s) = 3.30660 7.17108 5.58382
#
# Compressibility (1/GPa) = 0.14455612
#
# Stress axis : x y z
#
# Youngs Moduli (GPa) = 68.45066 72.87314 4.55332
#
# Poissons Ratio (x) = 0.31857 0.11720
# Poissons Ratio (y) = 0.29924 0.09830
# Poissons Ratio (z) = 1.76182 1.57316
#
# Static dielectric constant tensor:
#      x y z
#    x 1.596970 0.000000 0.000000 
#    y 0.000000 1.616390 0.000000 
#    z 0.000000 0.000000 1.619160 
# 
# From -- ./inp_files/8407.got.cif
#   From: 2010.05.17/outbox.cif.g08.bks.cpg/sg58_5_cif.got.tgz:8407.got - 2010.06.03 14:20:14.
