data_PCOD9442961
_publ_section_title
;
Structure prediction by ZEFSAII (Michael W. Deem and Ramdas Pophale) SiO2 
 PCOD9442961
Probable space group: P N N M
;
_chemical_formula_sum "Si O2"
_cell_formula_units_Z 64
_cell_length_a 29.221445
_cell_length_b 12.755935
_cell_length_c 9.301233
_cell_angle_alpha 90.000000
_cell_angle_beta 90.000000
_cell_angle_gamma 90.000000
_cell_volume 3467.005330
_symmetry_space_group_name_H-M "P N N M"
_symmetry_group_IT_number 58
_symmetry_cell_setting 'orthorhombic'
loop_
_space_group_symop_operation_xyz
x,y,z
-x,-y,z
1/2+x,1/2-y,1/2-z
1/2-x,1/2+y,1/2-z
-x,-y,-z
x,y,-z
1/2-x,1/2+y,1/2+z
1/2+x,1/2-y,1/2+z
loop_
_atom_site_type_symbol
_atom_site_label
_atom_site_fract_x
_atom_site_fract_y
_atom_site_fract_z
Si Si1 0.052384 0.508836 0.330550
Si Si2 0.700906 0.498634 0.327446
Si Si3 0.979339 0.884290 0.671078
Si Si4 0.567673 0.745253 0.169406
Si Si5 0.293513 0.060277 0.673394
Si Si6 0.660360 0.718642 0.672256
Si Si7 0.868488 0.611334 0.172291
Si Si8 0.116779 0.150422 0.172502
O O1 0.054075 0.481541 0.500000
O O2 0.066878 0.629528 0.314079
O O3 0.086174 0.434870 0.244287
O O4 0.000000 0.500000 0.282620
O O5 0.706955 0.489348 0.500000
O O6 0.744782 0.453271 0.247570
O O7 0.692668 0.620619 0.291617
O O8 0.654998 0.434992 0.288337
O O9 0.971551 0.870828 0.500000
O O10 0.931745 0.868509 0.752178
O O11 0.019147 0.803167 0.716220
O O12 0.000000 0.000000 0.694511
O O13 0.611155 0.703393 0.255029
O O14 0.572666 0.720332 0.000000
O O15 0.288667 0.059941 0.500000
O O16 0.317753 0.169866 0.714648
O O17 0.326260 0.963020 0.715382
O O18 0.654237 0.719697 0.500000
O O19 0.864523 0.733572 0.209291
O O20 0.872535 0.603127 0.000000
O O21 0.110348 0.145859 0.000000
#
# Coordination Sequence:
#
# PCOD9442961 Si02
#       8
#     8   8   8   8   8   8   8   8
#     4  10  20  34  53  80 113 148 187 230 278 331
#     4  10  23  40  60  85 113 146 189 236 284 341
#     4  10  21  37  58  85 118 154 194 237 281 335
#     4  10  20  34  55  84 114 148 190 234 282 336
#     4  10  22  39  59  84 112 146 187 234 288 339
#     4  10  21  39  60  84 114 146 187 236 282 336
#     4  10  21  38  57  80 113 148 186 231 281 338
#     4  10  22  39  58  85 118 153 191 233 284 342
#
# _framework density 18.459734999999998
#
# number of rings (size 3 to 8) (size 9 to 14) (size 15 to 20)
#    0.000    2.000    1.250    1.500    1.750    4.500 
#    0.000    0.000    0.000    0.000    0.000    0.000 
#    0.000    0.000    0.000    0.000    0.000    0.000 
#
# Total GULP energy -357397.051035 kJ/mol
# GULP energy per Si atom -5584.328922 kJ/mol
# Density = 1.841772 g / cm^3
# Si number density = 18.459735 Si / 1000 Ang^3
#
#
#
# Elastic Constant Matrix: (Units=GPa)
#
#
# Indices 1 2 3 4 5 6 
#
# 1 128.8629 54.7488 34.5192 0.0000 0.0000 0.0000
# 2 54.7488 98.8286 31.7218 0.0000 0.0000 0.0000
# 3 34.5192 31.7218 11.1911 0.0000 0.0000 0.0000
# 4 0.0000 0.0000 0.0000 14.6119 0.0000 0.0000
# 5 0.0000 0.0000 0.0000 0.0000 38.9165 0.0000
# 6 0.0000 0.0000 0.0000 0.0000 0.0000 29.8459
#
#
#
# Elastic Compliance Matrix: (Units=1/GPa)
#
#
# Indices 1 2 3 4 5 6 
#
# 1 -0.005375 -0.025995 0.090263 0.000000 0.000000 0.000000
# 2 -0.025995 -0.013503 0.118457 0.000000 0.000000 0.000000
# 3 0.090263 0.118457 -0.524838 0.000000 0.000000 0.000000
# 4 0.000000 0.000000 0.000000 0.068437 0.000000 0.000000
# 5 0.000000 0.000000 0.000000 0.000000 0.025696 0.000000
# 6 0.000000 0.000000 0.000000 0.000000 0.000000 0.033505
#
#
# Mechanical properties :
#
#
# Convention : Reuss Voigt Hill
#
# Bulk Modulus (GPa) = -5.60965 53.42912 23.90974
# Shear Modulus (GPa) = -5.94566 24.53437 9.29436
#
# Velocity S-wave (km/s) = -1.79663 3.64960 2.24630
# Velocity P-wave (km/s) = 2.71096 6.83856 4.43940
#
# Compressibility (1/GPa) = -0.17826435
#
# Stress axis : x y z
#
# Youngs Moduli (GPa) = -186.04835 -74.05773 -1.90535
#
# Poissons Ratio (x) = -1.92512 0.17198
# Poissons Ratio (y) = -4.83631 0.22570
# Poissons Ratio (z) = 16.79335 8.77267
#
# Static dielectric constant tensor:
#      x y z
#    x 1.595920 0.000000 0.000000 
#    y 0.000000 1.653500 0.000000 
#    z 0.000000 0.000000 1.614210 
# 
# From -- ./inp_files/10953.got.cif
#   From: 2010.05.17/outbox.cif.g08.bks.cpg/sg58_6_cif.got.tgz:10953.got - 2010.06.03 14:20:14.
