data_PCOD9442478
_publ_section_title
;
Structure prediction by ZEFSAII (Michael W. Deem and Ramdas Pophale) SiO2 
 PCOD9442478
Probable space group: P N N M
;
_chemical_formula_sum "Si O2"
_cell_formula_units_Z 64
_cell_length_a 12.299943
_cell_length_b 31.955499
_cell_length_c 7.840492
_cell_angle_alpha 90.000000
_cell_angle_beta 90.000000
_cell_angle_gamma 90.000000
_cell_volume 3081.711780
_symmetry_space_group_name_H-M "P N N M"
_symmetry_group_IT_number 58
_symmetry_cell_setting 'orthorhombic'
loop_
_space_group_symop_operation_xyz
x,y,z
-x,-y,z
1/2+x,1/2-y,1/2-z
1/2-x,1/2+y,1/2-z
-x,-y,-z
x,y,-z
1/2-x,1/2+y,1/2+z
1/2+x,1/2-y,1/2+z
loop_
_atom_site_type_symbol
_atom_site_label
_atom_site_fract_x
_atom_site_fract_y
_atom_site_fract_z
Si Si1 0.640866 0.625714 0.705503
Si Si2 0.269448 0.958473 0.705720
Si Si3 0.394080 0.628741 0.702215
Si Si4 0.720740 0.205040 0.796109
Si Si5 0.254032 0.049692 0.293753
Si Si6 0.004253 0.666494 0.206086
Si Si7 0.001625 0.570718 0.208193
Si Si8 0.766995 0.297806 0.795657
O O1 0.637750 0.628780 0.500000
O O2 0.702879 0.582668 0.745561
O O3 0.516960 0.625521 0.770846
O O4 0.707132 0.666262 0.770835
O O5 0.272176 0.959342 0.500000
O O6 0.395098 0.954417 0.764362
O O7 0.221360 0.003003 0.763290
O O8 0.401928 0.632463 0.500000
O O9 0.323856 0.587351 0.740660
O O10 0.329834 0.669708 0.763526
O O11 0.595491 0.194733 0.762219
O O12 0.748786 0.251038 0.727709
O O13 0.737158 0.206062 0.000000
O O14 0.255294 0.050464 0.500000
O O15 0.378574 0.057059 0.235765
O O16 0.985245 0.618807 0.260867
O O17 0.120262 0.682719 0.269600
O O18 0.006876 0.666037 0.000000
O O19 0.003040 0.568702 0.000000
O O20 0.777615 0.294595 0.000000
#
# Coordination Sequence:
#
# PCOD9442478 Si02
#       8
#     8   8   8   8   8   8   8   8
#     4  10  23  41  57  78 115 156 187 230 288 338
#     4  10  20  35  60  89 112 145 192 234 276 336
#     4  11  24  40  59  82 112 152 195 235 280 337
#     4  10  22  39  59  84 115 150 188 230 282 336
#     4  10  20  37  60  85 116 149 184 232 287 337
#     4  10  19  35  62  87 113 149 186 230 285 335
#     4   9  16  32  57  86 115 143 179 227 283 334
#     4  10  22  40  61  85 115 151 188 232 285 336
#
# _framework density 20.767678
#
# number of rings (size 3 to 8) (size 9 to 14) (size 15 to 20)
#    0.000    2.000    2.500    0.750    1.750    4.500 
#    0.000    3.125    0.000    1.500    0.000    0.000 
#    0.000    0.000    0.000    0.000    0.000    0.000 
#
# Total GULP energy -357409.551087 kJ/mol
# GULP energy per Si atom -5584.524236 kJ/mol
# Density = 2.072041 g / cm^3
# Si number density = 20.767678 Si / 1000 Ang^3
#
#
#
# Elastic Constant Matrix: (Units=GPa)
#
#
# Indices 1 2 3 4 5 6 
#
# 1 110.6703 30.0796 -7.2809 0.0000 0.0000 0.0000
# 2 30.0796 118.3459 -3.0026 0.0000 0.0000 0.0000
# 3 -7.2809 -3.0026 18.9962 0.0000 0.0000 0.0000
# 4 0.0000 0.0000 0.0000 21.4342 0.0000 0.0000
# 5 0.0000 0.0000 0.0000 0.0000 22.9823 0.0000
# 6 0.0000 0.0000 0.0000 0.0000 0.0000 13.8617
#
#
#
# Elastic Compliance Matrix: (Units=1/GPa)
#
#
# Indices 1 2 3 4 5 6 
#
# 1 0.009923 -0.002435 0.003418 0.000000 0.000000 0.000000
# 2 -0.002435 0.009082 0.000502 0.000000 0.000000 0.000000
# 3 0.003418 0.000502 0.054032 0.000000 0.000000 0.000000
# 4 0.000000 0.000000 0.000000 0.046654 0.000000 0.000000
# 5 0.000000 0.000000 0.000000 0.000000 0.043512 0.000000
# 6 0.000000 0.000000 0.000000 0.000000 0.000000 0.072141
#
#
# Mechanical properties :
#
#
# Convention : Reuss Voigt Hill
#
# Bulk Modulus (GPa) = 13.15692 31.95607 22.55649
# Shear Modulus (GPa) = 19.40177 26.87005 23.13591
#
# Velocity S-wave (km/s) = 3.05983 3.60090 3.34134
# Velocity P-wave (km/s) = 4.33964 5.71922 5.07651
#
# Compressibility (1/GPa) = 0.07600566
#
# Stress axis : x y z
#
# Youngs Moduli (GPa) = 100.77978 110.11389 18.50771
#
# Poissons Ratio (x) = 0.26816 -0.06326
# Poissons Ratio (y) = 0.24543 -0.00929
# Poissons Ratio (z) = -0.34449 -0.05528
#
# Static dielectric constant tensor:
#      x y z
#    x 1.722940 0.000000 0.000000 
#    y 0.000000 1.740430 0.000000 
#    z 0.000000 0.000000 1.760340 
# 
# From -- ./inp_files/4769.got.cif
#   From: 2010.05.17/outbox.cif.g08.bks.cpg/sg58_3_cif.got.tgz:4769.got - 2010.06.03 14:20:14.
