data_PCOD9442126
_publ_section_title
;
Structure prediction by ZEFSAII (Michael W. Deem and Ramdas Pophale) SiO2 
 PCOD9442126
Probable space group: P N N M
;
_chemical_formula_sum "Si O2"
_cell_formula_units_Z 52
_cell_length_a 23.823273
_cell_length_b 13.872975
_cell_length_c 8.001679
_cell_angle_alpha 90.000000
_cell_angle_beta 90.000000
_cell_angle_gamma 90.000000
_cell_volume 2644.552275
_symmetry_space_group_name_H-M "P N N M"
_symmetry_group_IT_number 58
_symmetry_cell_setting 'orthorhombic'
loop_
_space_group_symop_operation_xyz
x,y,z
-x,-y,z
1/2+x,1/2-y,1/2-z
1/2-x,1/2+y,1/2-z
-x,-y,-z
x,y,-z
1/2-x,1/2+y,1/2+z
1/2+x,1/2-y,1/2+z
loop_
_atom_site_type_symbol
_atom_site_label
_atom_site_fract_x
_atom_site_fract_y
_atom_site_fract_z
Si Si1 0.231707 0.099442 0.303102
Si Si2 0.903754 0.244323 0.500000
Si Si3 0.160571 0.804895 0.186636
Si Si4 0.647882 0.993612 0.304525
Si Si5 0.622765 0.486042 0.673021
Si Si6 0.285785 0.825474 0.802078
Si Si7 0.438445 0.049393 0.000000
Si Si8 0.935022 0.015301 0.500000
O O1 0.223944 0.076451 0.500000
O O2 0.187313 0.042607 0.193074
O O3 0.213482 0.210462 0.277552
O O4 0.296058 0.070960 0.265380
O O5 0.866633 0.256152 0.332773
O O6 0.946004 0.333915 0.500000
O O7 0.922747 0.131462 0.500000
O O8 0.220969 0.843872 0.244785
O O9 0.122067 0.898352 0.166845
O O10 0.167853 0.760632 0.000000
O O11 0.631620 0.976030 0.500000
O O12 0.671758 0.103480 0.289443
O O13 0.599392 0.977700 0.165014
O O14 0.599603 0.445952 0.500000
O O15 0.590645 0.462527 0.839739
O O16 0.292338 0.844728 0.000000
O O17 0.500000 0.000000 0.000000
O O18 0.000000 0.000000 0.500000
#
# Coordination Sequence:
#
# PCOD9442126 Si02
#       8
#     8   4   8   8   8   8   4   4
#     4  10  20  34  58  96 134 163 197 251 328 400
#     4  10  22  40  68  90 114 176 220 253 326 368
#     4   9  18  33  57  92 130 155 196 255 307 380
#     4  11  24  42  66  95 128 166 217 271 329 389
#     4  10  19  33  58  87 123 163 195 247 311 382
#     4  10  19  34  57  91 130 164 193 246 319 385
#     4  12  28  50  66  88 122 178 237 280 310 373
#     4  10  22  42  62  90 124 164 210 259 313 376
#
# _framework density 19.663065
#
# number of rings (size 3 to 8) (size 9 to 14) (size 15 to 20)
#    0.000    1.846    3.077    0.923    2.154    3.077 
#    2.769    0.000    0.000    0.000    0.000    0.000 
#    0.000    0.000    0.000    0.000    0.000    0.000 
#
# Total GULP energy -289626.753384 kJ/mol
# GULP energy per Si atom -5569.745257 kJ/mol
# Density = 1.961831 g / cm^3
# Si number density = 19.663065 Si / 1000 Ang^3
#
#
#
# Elastic Constant Matrix: (Units=GPa)
#
#
# Indices 1 2 3 4 5 6 
#
# 1 86.6468 10.7136 63.0799 0.0000 0.0000 0.0000
# 2 10.7136 56.1829 26.9995 0.0000 0.0000 0.0000
# 3 63.0799 26.9995 134.4551 0.0000 0.0000 0.0000
# 4 0.0000 0.0000 0.0000 11.3809 0.0000 0.0000
# 5 0.0000 0.0000 0.0000 0.0000 18.4429 0.0000
# 6 0.0000 0.0000 0.0000 0.0000 0.0000 26.4161
#
#
#
# Elastic Compliance Matrix: (Units=1/GPa)
#
#
# Indices 1 2 3 4 5 6 
#
# 1 0.017551 0.000675 -0.008370 0.000000 0.000000 0.000000
# 2 0.000675 0.019726 -0.004278 0.000000 0.000000 0.000000
# 3 -0.008370 -0.004278 0.012223 0.000000 0.000000 0.000000
# 4 0.000000 0.000000 0.000000 0.087867 0.000000 0.000000
# 5 0.000000 0.000000 0.000000 0.000000 0.054221 0.000000
# 6 0.000000 0.000000 0.000000 0.000000 0.000000 0.037856
#
#
# Mechanical properties :
#
#
# Convention : Reuss Voigt Hill
#
# Bulk Modulus (GPa) = 39.13052 53.20786 46.16919
# Shear Modulus (GPa) = 19.09076 23.01410 21.05243
#
# Velocity S-wave (km/s) = 3.11930 3.42486 3.27564
# Velocity P-wave (km/s) = 5.73734 6.53896 6.15123
#
# Compressibility (1/GPa) = 0.02555550
#
# Stress axis : x y z
#
# Youngs Moduli (GPa) = 56.97764 50.69432 81.81248
#
# Poissons Ratio (x) = -0.03424 0.68474
# Poissons Ratio (y) = -0.03848 0.34999
# Poissons Ratio (z) = 0.47688 0.21687
#
# Static dielectric constant tensor:
#      x y z
#    x 1.647660 0.000000 0.000000 
#    y 0.000000 1.824180 0.000000 
#    z 0.000000 0.000000 1.759240 
# 
# From -- ./inp_files/6227.got.cif
#   From: 2010.05.17/outbox.cif.g08.bks.cpg/sg58_4_cif.got.tgz:6227.got - 2010.06.03 14:20:14.
