data_PCOD9442043
_publ_section_title
;
Structure prediction by ZEFSAII (Michael W. Deem and Ramdas Pophale) SiO2 
 PCOD9442043
Probable space group: P N N M
;
_chemical_formula_sum "Si O2"
_cell_formula_units_Z 56
_cell_length_a 8.363876
_cell_length_b 18.826139
_cell_length_c 19.410305
_cell_angle_alpha 90.000000
_cell_angle_beta 90.000000
_cell_angle_gamma 90.000000
_cell_volume 3056.336768
_symmetry_space_group_name_H-M "P N N M"
_symmetry_group_IT_number 58
_symmetry_cell_setting 'orthorhombic'
loop_
_space_group_symop_operation_xyz
x,y,z
-x,-y,z
1/2+x,1/2-y,1/2-z
1/2-x,1/2+y,1/2-z
-x,-y,-z
x,y,-z
1/2-x,1/2+y,1/2+z
1/2+x,1/2-y,1/2+z
loop_
_atom_site_type_symbol
_atom_site_label
_atom_site_fract_x
_atom_site_fract_y
_atom_site_fract_z
Si Si1 0.987143 0.688674 0.790655
Si Si2 0.881969 0.432767 0.576109
Si Si3 0.005340 0.274892 0.579120
Si Si4 0.118117 0.812170 0.702428
Si Si5 0.192570 0.679455 0.919867
Si Si6 0.847192 0.447574 0.726744
Si Si7 0.394538 0.562123 0.154809
O O1 0.032851 0.764838 0.760183
O O2 0.042332 0.685220 0.869638
O O3 0.090610 0.629880 0.750312
O O4 0.801313 0.673845 0.780437
O O5 0.801734 0.428711 0.500000
O O6 0.981698 0.359376 0.584443
O O7 0.786779 0.442494 0.647724
O O8 0.000000 0.500000 0.573615
O O9 0.970063 0.254754 0.500000
O O10 0.891961 0.235234 0.632917
O O11 0.182953 0.244389 0.593871
O O12 0.015810 0.881857 0.688772
O O13 0.287490 0.607994 0.897678
O O14 0.152490 0.678850 0.000000
O O15 0.717132 0.468038 0.783980
O O16 0.000000 0.500000 0.728930
O O17 0.500000 0.500000 0.122280
#
# Coordination Sequence:
#
# PCOD9442043 Si02
#       7
#     8   8   8   8   8   8   8
#     4  11  21  34  55  77 108 139 181 224 272 324
#     4   9  17  29  50  76 106 141 179 216 258 316
#     4   9  17  32  53  77 107 139 177 216 264 325
#     4  11  21  34  54  79 108 143 182 224 274 322
#     4   9  20  37  57  80 108 140 179 229 277 330
#     4  10  19  33  55  81 108 140 180 223 269 323
#     4  10  21  37  56  81 111 143 182 226 276 329
#
# _framework density 18.322588
#
# number of rings (size 3 to 8) (size 9 to 14) (size 15 to 20)
#    0.000    2.143    1.429    3.429    0.000    0.857 
#    0.000    0.000    0.000   15.000    0.000    0.000 
#    0.000    0.000    0.000    0.000    0.000    0.000 
#
# Total GULP energy -312176.048879 kJ/mol
# GULP energy per Si atom -5574.572301 kJ/mol
# Density = 1.828088 g / cm^3
# Si number density = 18.322588 Si / 1000 Ang^3
#
#
#
# Elastic Constant Matrix: (Units=GPa)
#
#
# Indices 1 2 3 4 5 6 
#
# 1 38.0446 -5.9441 2.9629 0.0000 0.0000 0.0000
# 2 -5.9441 69.9325 -2.7565 0.0000 0.0000 0.0000
# 3 2.9629 -2.7565 77.9881 0.0000 0.0000 0.0000
# 4 0.0000 0.0000 0.0000 4.4550 0.0000 0.0000
# 5 0.0000 0.0000 0.0000 0.0000 16.9826 0.0000
# 6 0.0000 0.0000 0.0000 0.0000 0.0000 17.7855
#
#
#
# Elastic Compliance Matrix: (Units=1/GPa)
#
#
# Indices 1 2 3 4 5 6 
#
# 1 0.026707 0.002233 -0.000936 0.000000 0.000000 0.000000
# 2 0.002233 0.014506 0.000428 0.000000 0.000000 0.000000
# 3 -0.000936 0.000428 0.012873 0.000000 0.000000 0.000000
# 4 0.000000 0.000000 0.000000 0.224465 0.000000 0.000000
# 5 0.000000 0.000000 0.000000 0.000000 0.058884 0.000000
# 6 0.000000 0.000000 0.000000 0.000000 0.000000 0.056226
#
#
# Mechanical properties :
#
#
# Convention : Reuss Voigt Hill
#
# Bulk Modulus (GPa) = 17.38023 19.38775 18.38399
# Shear Modulus (GPa) = 12.21332 20.62482 16.41907
#
# Velocity S-wave (km/s) = 2.58461 3.35871 2.99676
# Velocity P-wave (km/s) = 4.29106 5.06414 4.69355
#
# Compressibility (1/GPa) = 0.05753665
#
# Stress axis : x y z
#
# Youngs Moduli (GPa) = 37.44379 68.93617 77.68110
#
# Poissons Ratio (x) = -0.15394 0.07269
# Poissons Ratio (y) = -0.08362 -0.03324
# Poissons Ratio (z) = 0.03504 -0.02950
#
# Static dielectric constant tensor:
#      x y z
#    x 1.600700 0.000000 0.000000 
#    y 0.000000 1.632630 0.000000 
#    z 0.000000 0.000000 1.659330 
# 
# From -- ./inp_files/27494.got.cif
#   From: 2010.05.17/outbox.cif.g08.bks.cpg/sg58_14_cif.got.tgz:27494.got - 2010.06.03 14:20:14.
