data_PCOD9442129
_publ_section_title
;
Structure prediction by ZEFSAII (Michael W. Deem and Ramdas Pophale) SiO2 
 PCOD9442129
Probable space group: P N N M
;
_chemical_formula_sum "Si O2"
_cell_formula_units_Z 56
_cell_length_a 13.784217
_cell_length_b 12.922922
_cell_length_c 14.999062
_cell_angle_alpha 90.000000
_cell_angle_beta 90.000000
_cell_angle_gamma 90.000000
_cell_volume 2671.818329
_symmetry_space_group_name_H-M "P N N M"
_symmetry_group_IT_number 58
_symmetry_cell_setting 'orthorhombic'
loop_
_space_group_symop_operation_xyz
x,y,z
-x,-y,z
1/2+x,1/2-y,1/2-z
1/2-x,1/2+y,1/2-z
-x,-y,-z
x,y,-z
1/2-x,1/2+y,1/2+z
1/2+x,1/2-y,1/2+z
loop_
_atom_site_type_symbol
_atom_site_label
_atom_site_fract_x
_atom_site_fract_y
_atom_site_fract_z
Si Si1 0.059644 0.100227 0.794069
Si Si2 0.202003 0.388134 0.102300
Si Si3 0.500949 0.830777 0.665175
Si Si4 0.751651 0.840547 0.107826
Si Si5 0.080352 0.176868 0.401085
Si Si6 0.713114 0.887919 0.605320
Si Si7 0.026939 0.612897 0.634999
O O1 0.168480 0.098024 0.834588
O O2 0.049330 0.114020 0.686713
O O3 0.018293 0.208263 0.832218
O O4 0.000000 0.000000 0.821981
O O5 0.239583 0.279514 0.140004
O O6 0.234714 0.496939 0.143425
O O7 0.084827 0.381878 0.107610
O O8 0.235081 0.386391 0.000000
O O9 0.610796 0.849236 0.638430
O O10 0.491922 0.879129 0.762991
O O11 0.642269 0.874961 0.125523
O O12 0.771508 0.845735 0.000000
O O13 0.069373 0.127536 0.500000
O O14 0.195849 0.187315 0.383419
O O15 0.025304 0.285908 0.404536
O O16 0.701076 0.902882 0.500000
O O17 0.000000 0.500000 0.599881
#
# Coordination Sequence:
#
# PCOD9442129 Si02
#       7
#     8   8   8   8   8   8   8
#     4  10  23  41  61  87 117 153 196 242 295 347
#     4   9  18  34  57  85 116 152 192 238 300 355
#     4  10  20  35  57  86 119 152 194 245 289 344
#     4  10  22  40  60  84 118 157 196 238 286 349
#     4  10  23  40  58  87 121 151 192 241 289 346
#     4  10  19  33  58  89 119 152 193 245 295 338
#     4  11  23  39  60  84 115 158 199 234 282 347
#
# _framework density 20.959509000000001
#
# number of rings (size 3 to 8) (size 9 to 14) (size 15 to 20)
#    0.000    2.000    0.000    3.000    0.000    6.857 
#    0.000    4.286    0.000    0.000    0.000    0.000 
#    0.000    0.000    0.000    0.000    0.000    0.000 
#
# Total GULP energy -312339.619171 kJ/mol
# GULP energy per Si atom -5577.493199 kJ/mol
# Density = 2.091180 g / cm^3
# Si number density = 20.959509 Si / 1000 Ang^3
#
#
#
# Elastic Constant Matrix: (Units=GPa)
#
#
# Indices 1 2 3 4 5 6 
#
# 1 113.7754 77.9031 6.2064 0.0000 0.0000 0.0000
# 2 77.9031 93.9713 20.9575 0.0000 0.0000 0.0000
# 3 6.2064 20.9575 55.9475 0.0000 0.0000 0.0000
# 4 0.0000 0.0000 0.0000 -11.7933 0.0000 0.0000
# 5 0.0000 0.0000 0.0000 0.0000 25.0059 0.0000
# 6 0.0000 0.0000 0.0000 0.0000 0.0000 28.7356
#
#
#
# Elastic Compliance Matrix: (Units=1/GPa)
#
#
# Indices 1 2 3 4 5 6 
#
# 1 0.021385 -0.018768 0.004658 0.000000 0.000000 0.000000
# 2 -0.018768 0.028082 -0.008437 0.000000 0.000000 0.000000
# 3 0.004658 -0.008437 0.020518 0.000000 0.000000 0.000000
# 4 0.000000 0.000000 0.000000 -0.084794 0.000000 0.000000
# 5 0.000000 0.000000 0.000000 0.000000 0.039990 0.000000
# 6 0.000000 0.000000 0.000000 0.000000 0.000000 0.034800
#
#
# Mechanical properties :
#
#
# Convention : Reuss Voigt Hill
#
# Bulk Modulus (GPa) = 40.17524 52.64756 46.41140
# Shear Modulus (GPa) = 44.10241 18.96480 31.53361
#
# Velocity S-wave (km/s) = 4.59210 3.01130 3.88300
# Velocity P-wave (km/s) = 6.87940 6.10441 6.50346
#
# Compressibility (1/GPa) = 0.02489095
#
# Stress axis : x y z
#
# Youngs Moduli (GPa) = 46.76075 35.61046 48.73843
#
# Poissons Ratio (x) = 0.66832 -0.22701
# Poissons Ratio (y) = 0.87758 0.41122
# Poissons Ratio (z) = -0.21780 0.30045
#
# Static dielectric constant tensor:
#      x y z
#    x 1.724610 0.000000 0.000000 
#    y 0.000000 1.756310 0.000000 
#    z 0.000000 0.000000 1.817250 
# 
# From -- ./inp_files/22181.got.cif
#   From: 2010.05.17/outbox.cif.g08.bks.cpg/sg58_12_cif.got.tgz:22181.got - 2010.06.03 14:20:14.
