data_PCOD9442013
_publ_section_title
;
Structure prediction by ZEFSAII (Michael W. Deem and Ramdas Pophale) SiO2 
 PCOD9442013
Probable space group: P N N M
;
_chemical_formula_sum "Si O2"
_cell_formula_units_Z 40
_cell_length_a 9.090850
_cell_length_b 8.630050
_cell_length_c 26.989607
_cell_angle_alpha 90.000000
_cell_angle_beta 90.000000
_cell_angle_gamma 90.000000
_cell_volume 2117.455854
_symmetry_space_group_name_H-M "P N N M"
_symmetry_group_IT_number 58
_symmetry_cell_setting 'orthorhombic'
loop_
_space_group_symop_operation_xyz
x,y,z
-x,-y,z
1/2+x,1/2-y,1/2-z
1/2-x,1/2+y,1/2-z
-x,-y,-z
x,y,-z
1/2-x,1/2+y,1/2+z
1/2+x,1/2-y,1/2+z
loop_
_atom_site_type_symbol
_atom_site_label
_atom_site_fract_x
_atom_site_fract_y
_atom_site_fract_z
Si Si1 0.738586 0.172670 0.784527
Si Si2 0.538408 0.170682 0.309752
Si Si3 0.653158 0.097188 0.056255
Si Si4 0.968381 0.819273 0.365167
Si Si5 0.760968 0.891039 0.140337
O O1 0.666515 0.153798 0.731105
O O2 0.632281 0.279111 0.818012
O O3 0.897624 0.251236 0.784063
O O4 0.747826 0.009241 0.813421
O O5 0.597534 0.285238 0.351682
O O6 0.500000 0.000000 0.328375
O O7 0.616180 0.252737 0.086634
O O8 0.500000 0.000000 0.054773
O O9 0.758798 0.994814 0.091012
O O10 0.702163 0.121482 0.000000
O O11 0.117692 0.719091 0.360584
O O12 0.000000 0.000000 0.368342
#
# Coordination Sequence:
#
# PCOD9442013 Si02
#       5
#     8   8   8   8   8
#     4  11  22  36  53  75 108 146 181 214 265 324
#     4  12  23  35  54  78 107 141 182 224 264 313
#     4   8  16  33  57  81 106 140 179 220 269 323
#     4  10  19  33  54  81 111 138 176 226 268 312
#     4  10  21  37  55  78 110 145 181 219 265 324
#
# _framework density 18.890595000000001
#
# number of rings (size 3 to 8) (size 9 to 14) (size 15 to 20)
#    0.000    1.800    0.000    7.200    0.000    2.000 
#    0.000    0.000    0.000   10.200    0.000    0.000 
#    0.000    0.000    0.000    0.000    0.000    0.000 
#
# Total GULP energy -223561.662776 kJ/mol
# GULP energy per Si atom -5589.041569 kJ/mol
# Density = 1.884760 g / cm^3
# Si number density = 18.890595 Si / 1000 Ang^3
#
#
#
# Elastic Constant Matrix: (Units=GPa)
#
#
# Indices 1 2 3 4 5 6 
#
# 1 64.2457 32.0584 2.9602 0.0000 0.0000 0.0000
# 2 32.0584 150.9945 30.1561 0.0000 0.0000 0.0000
# 3 2.9602 30.1561 62.9007 0.0000 0.0000 0.0000
# 4 0.0000 0.0000 0.0000 8.5901 0.0000 0.0000
# 5 0.0000 0.0000 0.0000 0.0000 17.7739 0.0000
# 6 0.0000 0.0000 0.0000 0.0000 0.0000 26.3693
#
#
#
# Elastic Compliance Matrix: (Units=1/GPa)
#
#
# Indices 1 2 3 4 5 6 
#
# 1 0.017473 -0.003921 0.001058 0.000000 0.000000 0.000000
# 2 -0.003921 0.008204 -0.003749 0.000000 0.000000 0.000000
# 3 0.001058 -0.003749 0.017645 0.000000 0.000000 0.000000
# 4 0.000000 0.000000 0.000000 0.116412 0.000000 0.000000
# 5 0.000000 0.000000 0.000000 0.000000 0.056262 0.000000
# 6 0.000000 0.000000 0.000000 0.000000 0.000000 0.037923
#
#
# Mechanical properties :
#
#
# Convention : Reuss Voigt Hill
#
# Bulk Modulus (GPa) = 33.22450 45.38780 39.30615
# Shear Modulus (GPa) = 18.03901 24.74441 21.39171
#
# Velocity S-wave (km/s) = 3.09353 3.62315 3.36877
# Velocity P-wave (km/s) = 5.51234 6.44840 5.99866
#
# Compressibility (1/GPa) = 0.03009827
#
# Stress axis : x y z
#
# Youngs Moduli (GPa) = 57.23091 121.89315 56.67169
#
# Poissons Ratio (x) = 0.47794 -0.05993
# Poissons Ratio (y) = 0.22440 0.21244
# Poissons Ratio (z) = -0.06052 0.45693
#
# Static dielectric constant tensor:
#      x y z
#    x 1.670090 0.000000 0.000000 
#    y 0.000000 1.657480 0.000000 
#    z 0.000000 0.000000 1.644010 
# 
# From -- ./inp_files/31270.got.cif
#   From: 2010.05.17/outbox.cif.g08.bks.cpg/sg58_16_cif.got.tgz:31270.got - 2010.06.03 14:20:14.
