data_PCOD9442583
_publ_section_title
;
Structure prediction by ZEFSAII (Michael W. Deem and Ramdas Pophale) SiO2 
 PCOD9442583
Probable space group: P N N M
;
_chemical_formula_sum "Si O2"
_cell_formula_units_Z 64
_cell_length_a 24.623000
_cell_length_b 15.698018
_cell_length_c 7.732500
_cell_angle_alpha 90.000000
_cell_angle_beta 90.000000
_cell_angle_gamma 90.000000
_cell_volume 2988.860988
_symmetry_space_group_name_H-M "P N N M"
_symmetry_group_IT_number 58
_symmetry_cell_setting 'orthorhombic'
loop_
_space_group_symop_operation_xyz
x,y,z
-x,-y,z
1/2+x,1/2-y,1/2-z
1/2-x,1/2+y,1/2-z
-x,-y,-z
x,y,-z
1/2-x,1/2+y,1/2+z
1/2+x,1/2-y,1/2+z
loop_
_atom_site_type_symbol
_atom_site_label
_atom_site_fract_x
_atom_site_fract_y
_atom_site_fract_z
Si Si1 0.251465 0.352920 0.210700
Si Si2 0.364529 0.910121 0.294160
Si Si3 0.256257 0.154819 0.211161
Si Si4 0.129683 0.900253 0.298034
Si Si5 0.049042 0.754802 0.287588
Si Si6 0.074400 0.239425 0.297987
Si Si7 0.624244 0.899822 0.792215
Si Si8 0.854503 0.919167 0.200143
O O1 0.197862 0.402437 0.270894
O O2 0.246820 0.253395 0.257722
O O3 0.309633 0.386046 0.274645
O O4 0.251633 0.357912 0.000000
O O5 0.363637 0.898762 0.500000
O O6 0.398892 0.832062 0.220769
O O7 0.387529 0.002930 0.253471
O O8 0.315236 0.124350 0.271397
O O9 0.205625 0.098920 0.274457
O O10 0.255786 0.151842 0.000000
O O11 0.133819 0.877450 0.500000
O O12 0.084743 0.835606 0.228222
O O13 0.116845 0.999700 0.283806
O O14 0.047449 0.753968 0.500000
O O15 0.080474 0.669350 0.231942
O O16 0.986984 0.759283 0.228955
O O17 0.072507 0.217024 0.500000
O O18 0.111747 0.167606 0.213044
O O19 0.625946 0.893090 0.000000
O O20 0.848292 0.941261 0.000000
#
# Coordination Sequence:
#
# PCOD9442583 Si02
#       8
#     8   8   8   8   8   8   8   8
#     4   9  16  31  58  85 112 146 181 223 278 333
#     4  11  22  37  57  85 120 151 178 222 285 341
#     4   9  16  31  58  85 112 146 181 223 278 333
#     4  10  19  36  62  87 110 144 189 232 277 330
#     4   9  20  38  61  83 107 143 192 245 280 310
#     4  11  23  40  59  81 107 145 198 241 272 320
#     4  10  19  36  62  87 110 144 189 232 277 330
#     4  11  22  37  57  85 120 151 178 222 285 341
#
# _framework density 21.412838000000001
#
# number of rings (size 3 to 8) (size 9 to 14) (size 15 to 20)
#    0.000    2.000    2.500    1.875    0.000    1.000 
#    0.000    9.375    0.000    0.000    0.000    0.000 
#    0.000    0.000    0.000    0.000    0.000    0.000 
#
# Total GULP energy -357572.886731 kJ/mol
# GULP energy per Si atom -5587.076355 kJ/mol
# Density = 2.136410 g / cm^3
# Si number density = 21.412838 Si / 1000 Ang^3
#
#
#
# Elastic Constant Matrix: (Units=GPa)
#
#
# Indices 1 2 3 4 5 6 
#
# 1 118.1283 22.9490 1.6172 0.0000 0.0000 0.0000
# 2 22.9490 85.7325 -15.9921 0.0000 0.0000 0.0000
# 3 1.6172 -15.9921 33.8858 0.0000 0.0000 0.0000
# 4 0.0000 0.0000 0.0000 15.6558 0.0000 0.0000
# 5 0.0000 0.0000 0.0000 0.0000 17.7865 0.0000
# 6 0.0000 0.0000 0.0000 0.0000 0.0000 3.6820
#
#
#
# Elastic Compliance Matrix: (Units=1/GPa)
#
#
# Indices 1 2 3 4 5 6 
#
# 1 0.009020 -0.002736 -0.001722 0.000000 0.000000 0.000000
# 2 -0.002736 0.013620 0.006558 0.000000 0.000000 0.000000
# 3 -0.001722 0.006558 0.032688 0.000000 0.000000 0.000000
# 4 0.000000 0.000000 0.000000 0.063874 0.000000 0.000000
# 5 0.000000 0.000000 0.000000 0.000000 0.056222 0.000000
# 6 0.000000 0.000000 0.000000 0.000000 0.000000 0.271589
#
#
# Mechanical properties :
#
#
# Convention : Reuss Voigt Hill
#
# Bulk Modulus (GPa) = 16.79813 28.32164 22.55989
# Shear Modulus (GPa) = 10.80719 22.70304 16.75512
#
# Velocity S-wave (km/s) = 2.24900 3.25969 2.80032
# Velocity P-wave (km/s) = 3.82177 5.23666 4.58413
#
# Compressibility (1/GPa) = 0.05953043
#
# Stress axis : x y z
#
# Youngs Moduli (GPa) = 110.85959 73.42226 30.59207
#
# Poissons Ratio (x) = 0.20086 0.05267
# Poissons Ratio (y) = 0.30328 -0.20063
# Poissons Ratio (z) = 0.19086 -0.48153
#
# Static dielectric constant tensor:
#      x y z
#    x 1.768360 0.000000 0.000000 
#    y 0.000000 1.746000 0.000000 
#    z 0.000000 0.000000 1.804050 
# 
# From -- ./inp_files/9975.got.cif
#   From: 2010.05.17/outbox.cif.g08.bks.cpg/sg58_5_cif.got.tgz:9975.got - 2010.06.03 14:20:14.
