data_PCOD9442726
_publ_section_title
;
Structure prediction by ZEFSAII (Michael W. Deem and Ramdas Pophale) SiO2 
 PCOD9442726
Probable space group: P N N M
;
_chemical_formula_sum "Si O2"
_cell_formula_units_Z 52
_cell_length_a 8.379781
_cell_length_b 13.631853
_cell_length_c 26.121712
_cell_angle_alpha 90.000000
_cell_angle_beta 90.000000
_cell_angle_gamma 90.000000
_cell_volume 2983.933910
_symmetry_space_group_name_H-M "P N N M"
_symmetry_group_IT_number 58
_symmetry_cell_setting 'orthorhombic'
loop_
_space_group_symop_operation_xyz
x,y,z
-x,-y,z
1/2+x,1/2-y,1/2-z
1/2-x,1/2+y,1/2-z
-x,-y,-z
x,y,-z
1/2-x,1/2+y,1/2+z
1/2+x,1/2-y,1/2+z
loop_
_atom_site_type_symbol
_atom_site_label
_atom_site_fract_x
_atom_site_fract_y
_atom_site_fract_z
Si Si1 0.740267 0.008057 0.500000
Si Si2 0.412363 0.685958 0.703980
Si Si3 0.532485 0.382178 0.890772
Si Si4 0.008074 0.841695 0.500000
Si Si5 0.122052 0.665385 0.840182
Si Si6 0.667959 0.954592 0.761688
Si Si7 0.000000 0.500000 0.908096
Si Si8 0.164611 0.861025 0.290217
O O1 0.873021 0.925626 0.500000
O O2 0.644450 0.995940 0.552165
O O3 0.815692 0.114478 0.500000
O O4 0.543683 0.726180 0.663106
O O5 0.288934 0.595018 0.697580
O O6 0.297563 0.778014 0.713646
O O7 0.514508 0.660749 0.754007
O O8 0.500000 0.500000 0.903018
O O9 0.704436 0.355090 0.865568
O O10 0.400287 0.364642 0.847578
O O11 0.512326 0.311351 0.940521
O O12 0.129643 0.626218 0.781919
O O13 0.004781 0.594314 0.871984
O O14 0.500000 0.000000 0.780901
O O15 0.760589 0.038506 0.730337
#
# Coordination Sequence:
#
# PCOD9442726 Si02
#       8
#     4   8   8   4   8   8   4   8
#     4  10  20  30  50  74 106 136 192 222 244 322
#     4  12  23  35  51  82 103 143 200 227 267 328
#     4  12  20  33  51  73 103 150 185 221 265 322
#     4  11  20  30  46  74 102 134 184 222 258 317
#     4  12  21  33  51  73 106 143 192 220 267 319
#     4  12  22  36  54  74 105 148 193 228 270 324
#     4  11  20  34  50  76 102 154 182 215 268 318
#     4  12  21  36  55  74 111 148 188 227 271 320
#
# _framework density 17.426659999999998
#
# number of rings (size 3 to 8) (size 9 to 14) (size 15 to 20)
#    0.000    0.308   10.000    0.462    2.154    0.000 
#    0.000    0.000    0.000    0.000    0.000    0.000 
#    0.000    0.000    0.000  134.308    0.000    4.154 
#
# Total GULP energy -289565.219912 kJ/mol
# GULP energy per Si atom -5568.561921 kJ/mol
# Density = 1.738700 g / cm^3
# Si number density = 17.426660 Si / 1000 Ang^3
#
#
#
# Elastic Constant Matrix: (Units=GPa)
#
#
# Indices 1 2 3 4 5 6 
#
# 1 97.6185 34.9680 27.2822 0.0000 0.0000 0.0000
# 2 34.9680 45.6935 21.9340 0.0000 0.0000 0.0000
# 3 27.2822 21.9340 65.2649 0.0000 0.0000 0.0000
# 4 0.0000 0.0000 0.0000 12.7263 0.0000 0.0000
# 5 0.0000 0.0000 0.0000 0.0000 9.5290 0.0000
# 6 0.0000 0.0000 0.0000 0.0000 0.0000 35.3659
#
#
#
# Elastic Compliance Matrix: (Units=1/GPa)
#
#
# Indices 1 2 3 4 5 6 
#
# 1 0.014525 -0.009779 -0.002786 0.000000 0.000000 0.000000
# 2 -0.009779 0.032678 -0.006895 0.000000 0.000000 0.000000
# 3 -0.002786 -0.006895 0.018804 0.000000 0.000000 0.000000
# 4 0.000000 0.000000 0.000000 0.078577 0.000000 0.000000
# 5 0.000000 0.000000 0.000000 0.000000 0.104942 0.000000
# 6 0.000000 0.000000 0.000000 0.000000 0.000000 0.028276
#
#
# Mechanical properties :
#
#
# Convention : Reuss Voigt Hill
#
# Bulk Modulus (GPa) = 36.91490 41.88282 39.39886
# Shear Modulus (GPa) = 15.34919 19.81708 17.58314
#
# Velocity S-wave (km/s) = 2.97103 3.37585 3.17989
# Velocity P-wave (km/s) = 5.74442 6.26747 6.01163
#
# Compressibility (1/GPa) = 0.02708933
#
# Stress axis : x y z
#
# Youngs Moduli (GPa) = 68.84535 30.60168 53.18109
#
# Poissons Ratio (x) = 0.29925 0.14814
# Poissons Ratio (y) = 0.67322 0.36666
# Poissons Ratio (z) = 0.19177 0.21098
#
# Static dielectric constant tensor:
#      x y z
#    x 1.687910 0.000000 0.000000 
#    y 0.000000 1.609340 0.000000 
#    z 0.000000 0.000000 1.631620 
# 
# From -- ./inp_files/31586.got.cif
#   From: 2010.05.17/outbox.cif.g08.bks.cpg/sg58_16_cif.got.tgz:31586.got - 2010.06.03 14:20:14.
