data_PCOD9442497
_publ_section_title
;
Structure prediction by ZEFSAII (Michael W. Deem and Ramdas Pophale) SiO2 
 PCOD9442497
Probable space group: P N N M
;
_chemical_formula_sum "Si O2"
_cell_formula_units_Z 40
_cell_length_a 7.020000
_cell_length_b 15.215615
_cell_length_c 15.089012
_cell_angle_alpha 90.000000
_cell_angle_beta 90.000000
_cell_angle_gamma 90.000000
_cell_volume 1611.711953
_symmetry_space_group_name_H-M "P N N M"
_symmetry_group_IT_number 58
_symmetry_cell_setting 'orthorhombic'
loop_
_space_group_symop_operation_xyz
x,y,z
-x,-y,z
1/2+x,1/2-y,1/2-z
1/2-x,1/2+y,1/2-z
-x,-y,-z
x,y,-z
1/2-x,1/2+y,1/2+z
1/2+x,1/2-y,1/2+z
loop_
_atom_site_type_symbol
_atom_site_label
_atom_site_fract_x
_atom_site_fract_y
_atom_site_fract_z
Si Si1 0.138070 0.225386 0.653809
Si Si2 0.374977 0.415609 0.161366
Si Si3 0.985460 0.370786 0.223979
Si Si4 0.702884 0.929610 0.905549
Si Si5 0.390348 0.383061 0.627956
O O1 0.292888 0.150477 0.673442
O O2 0.255382 0.301632 0.605588
O O3 0.956761 0.173265 0.616610
O O4 0.073867 0.277529 0.743124
O O5 0.500000 0.500000 0.133778
O O6 0.145317 0.419962 0.165944
O O7 0.411315 0.399571 0.266457
O O8 0.920762 0.412847 0.317952
O O9 0.894284 0.871541 0.903026
O O10 0.790958 0.027439 0.903620
O O11 0.605115 0.914036 0.000000
#
# Coordination Sequence:
#
# PCOD9442497 Si02
#       5
#     8   8   8   8   8
#     4  11  20  34  56  83 111 156 201 260 304 345
#     4  11  21  35  56  82 113 152 194 251 311 360
#     4  11  20  37  56  84 114 161 205 244 306 355
#     4  11  22  39  59  86 131 177 205 237 287 376
#     4  10  19  36  55  82 115 164 210 243 293 352
#
# _framework density 24.81833
#
# number of rings (size 3 to 8) (size 9 to 14) (size 15 to 20)
#    0.000    1.200    8.000    1.200    0.000    7.200 
#    0.000   12.000    0.000    0.000    0.000    0.000 
#    0.000    8.800    0.000    0.000    0.000    0.000 
#
# Total GULP energy -223408.049036 kJ/mol
# GULP energy per Si atom -5585.201226 kJ/mol
# Density = 2.476184 g / cm^3
# Si number density = 24.818330 Si / 1000 Ang^3
#
#
#
# Elastic Constant Matrix: (Units=GPa)
#
#
# Indices 1 2 3 4 5 6 
#
# 1 167.4848 53.7633 10.0487 0.0000 0.0000 0.0000
# 2 53.7633 124.4805 10.4683 0.0000 0.0000 0.0000
# 3 10.0487 10.4683 34.3686 0.0000 0.0000 0.0000
# 4 0.0000 0.0000 0.0000 -13.7155 0.0000 0.0000
# 5 0.0000 0.0000 0.0000 0.0000 2.2799 0.0000
# 6 0.0000 0.0000 0.0000 0.0000 0.0000 62.8815
#
#
#
# Elastic Compliance Matrix: (Units=1/GPa)
#
#
# Indices 1 2 3 4 5 6 
#
# 1 0.006976 -0.002916 -0.001151 0.000000 0.000000 0.000000
# 2 -0.002916 0.009464 -0.002030 0.000000 0.000000 0.000000
# 3 -0.001151 -0.002030 0.030051 0.000000 0.000000 0.000000
# 4 0.000000 0.000000 0.000000 -0.072910 0.000000 0.000000
# 5 0.000000 0.000000 0.000000 0.000000 0.438616 0.000000
# 6 0.000000 0.000000 0.000000 0.000000 0.000000 0.015903
#
#
# Mechanical properties :
#
#
# Convention : Reuss Voigt Hill
#
# Bulk Modulus (GPa) = 29.15793 52.76605 40.96199
# Shear Modulus (GPa) = 11.06865 27.09275 19.08070
#
# Velocity S-wave (km/s) = 2.11413 3.30759 2.77576
# Velocity P-wave (km/s) = 4.21111 5.99115 5.17819
#
# Compressibility (1/GPa) = 0.03429598
#
# Stress axis : x y z
#
# Youngs Moduli (GPa) = 143.35199 105.66877 33.27643
#
# Poissons Ratio (x) = 0.30813 0.03831
# Poissons Ratio (y) = 0.41802 0.06755
# Poissons Ratio (z) = 0.16506 0.21450
#
# Static dielectric constant tensor:
#      x y z
#    x 2.043920 0.000000 0.000000 
#    y 0.000000 2.048040 0.000000 
#    z 0.000000 0.000000 1.975790 
# 
# From -- ./inp_files/28790.got.cif
#   From: 2010.05.17/outbox.cif.g08.bks.cpg/sg58_15_cif.got.tgz:28790.got - 2010.06.03 14:20:14.
