data_PCOD9442118
_publ_section_title
;
Structure prediction by ZEFSAII (Michael W. Deem and Ramdas Pophale) SiO2 
 PCOD9442118
Probable space group: P N N M
;
_chemical_formula_sum "Si O2"
_cell_formula_units_Z 58
_cell_length_a 23.344584
_cell_length_b 14.630488
_cell_length_c 7.299222
_cell_angle_alpha 90.000000
_cell_angle_beta 90.000000
_cell_angle_gamma 90.000000
_cell_volume 2492.995669
_symmetry_space_group_name_H-M "P N N M"
_symmetry_group_IT_number 58
_symmetry_cell_setting 'orthorhombic'
loop_
_space_group_symop_operation_xyz
x,y,z
-x,-y,z
1/2+x,1/2-y,1/2-z
1/2-x,1/2+y,1/2-z
-x,-y,-z
x,y,-z
1/2-x,1/2+y,1/2+z
1/2+x,1/2-y,1/2+z
loop_
_atom_site_type_symbol
_atom_site_label
_atom_site_fract_x
_atom_site_fract_y
_atom_site_fract_z
Si Si1 0.000000 0.000000 0.500000
Si Si2 0.415539 0.886938 0.288482
Si Si3 0.738600 0.428621 0.778335
Si Si4 0.528787 0.788212 0.722851
Si Si5 0.308768 0.758996 0.778134
Si Si6 0.071740 0.903880 0.221071
Si Si7 0.869330 0.418388 0.776806
Si Si8 0.199576 0.868876 0.206840
O O1 0.049160 0.987317 0.338464
O O2 0.429468 0.907379 0.500000
O O3 0.473063 0.842448 0.210544
O O4 0.364425 0.813789 0.282797
O O5 0.392741 0.982974 0.212955
O O6 0.696713 0.346480 0.724078
O O7 0.803640 0.405722 0.721464
O O8 0.721204 0.526991 0.705457
O O9 0.737908 0.434910 0.000000
O O10 0.528303 0.788779 0.500000
O O11 0.531040 0.681923 0.772921
O O12 0.586356 0.840533 0.780016
O O13 0.251016 0.809810 0.711657
O O14 0.309085 0.763455 0.000000
O O15 0.135461 0.873335 0.279777
O O16 0.071418 0.918398 0.000000
O O17 0.868652 0.418831 0.000000
O O18 0.192442 0.832443 0.000000
#
# Coordination Sequence:
#
# PCOD9442118 Si02
#       8
#     2   8   8   8   8   8   8   8
#     4  12  26  44  68  94 126 160 214 266 316 364
#     4  10  19  33  57  89 120 155 199 256 307 370
#     4  10  20  34  58  87 116 155 200 247 307 371
#     4   9  18  35  61  88 120 159 208 254 312 375
#     4  10  21  37  56  83 120 160 197 244 312 378
#     4  10  23  44  67  92 124 170 213 264 313 375
#     4   9  16  31  58  90 118 154 203 255 309 375
#     4  10  21  39  62  84 118 159 205 251 307 370
#
# _framework density 23.265184000000001
#
# number of rings (size 3 to 8) (size 9 to 14) (size 15 to 20)
#    0.000    2.207    1.379    1.448    0.966    6.621 
#    3.724    2.759    6.069    0.828    0.000    0.000 
#    0.000    0.000    0.000    0.000    0.000    0.276 
#
# Total GULP energy -323653.342738 kJ/mol
# GULP energy per Si atom -5580.230047 kJ/mol
# Density = 2.321223 g / cm^3
# Si number density = 23.265184 Si / 1000 Ang^3
#
#
#
# Elastic Constant Matrix: (Units=GPa)
#
#
# Indices 1 2 3 4 5 6 
#
# 1 77.7985 1.1593 0.2810 0.0000 0.0000 0.0000
# 2 1.1593 58.9889 -3.2486 0.0000 0.0000 0.0000
# 3 0.2810 -3.2486 105.6545 0.0000 0.0000 0.0000
# 4 0.0000 0.0000 0.0000 0.2013 0.0000 0.0000
# 5 0.0000 0.0000 0.0000 0.0000 13.3573 0.0000
# 6 0.0000 0.0000 0.0000 0.0000 0.0000 32.6971
#
#
#
# Elastic Compliance Matrix: (Units=1/GPa)
#
#
# Indices 1 2 3 4 5 6 
#
# 1 0.012858 -0.000255 -0.000042 0.000000 0.000000 0.000000
# 2 -0.000255 0.016986 0.000523 0.000000 0.000000 0.000000
# 3 -0.000042 0.000523 0.009481 0.000000 0.000000 0.000000
# 4 0.000000 0.000000 0.000000 4.967775 0.000000 0.000000
# 5 0.000000 0.000000 0.000000 0.000000 0.074865 0.000000
# 6 0.000000 0.000000 0.000000 0.000000 0.000000 0.030584
#
#
# Mechanical properties :
#
#
# Convention : Reuss Voigt Hill
#
# Bulk Modulus (GPa) = 25.14036 26.53613 25.83825
# Shear Modulus (GPa) = 0.97554 25.53448 13.25501
#
# Velocity S-wave (km/s) = 0.64825 3.31651 2.38950
# Velocity P-wave (km/s) = 3.37487 5.10846 4.32932
#
# Compressibility (1/GPa) = 0.03977668
#
# Stress axis : x y z
#
# Youngs Moduli (GPa) = 77.77459 58.87145 105.47405
#
# Poissons Ratio (x) = 0.01501 0.00443
# Poissons Ratio (y) = 0.01983 -0.05516
# Poissons Ratio (z) = 0.00327 -0.03079
#
# Static dielectric constant tensor:
#      x y z
#    x 1.831700 0.000000 0.000000 
#    y 0.000000 1.855590 0.000000 
#    z 0.000000 0.000000 1.965520 
# 
# From -- ./inp_files/9873.got.cif
#   From: 2010.05.17/outbox.cif.g08.bks.cpg/sg58_5_cif.got.tgz:9873.got - 2010.06.03 14:20:14.
