data_PCOD9442791
_publ_section_title
;
Structure prediction by ZEFSAII (Michael W. Deem and Ramdas Pophale) SiO2 
 PCOD9442791
Probable space group: P N N M
;
_chemical_formula_sum "Si O2"
_cell_formula_units_Z 48
_cell_length_a 12.839495
_cell_length_b 22.301480
_cell_length_c 7.295895
_cell_angle_alpha 90.000000
_cell_angle_beta 90.000000
_cell_angle_gamma 90.000000
_cell_volume 2089.104684
_symmetry_space_group_name_H-M "P N N M"
_symmetry_group_IT_number 58
_symmetry_cell_setting 'orthorhombic'
loop_
_space_group_symop_operation_xyz
x,y,z
-x,-y,z
1/2+x,1/2-y,1/2-z
1/2-x,1/2+y,1/2-z
-x,-y,-z
x,y,-z
1/2-x,1/2+y,1/2+z
1/2+x,1/2-y,1/2+z
loop_
_atom_site_type_symbol
_atom_site_label
_atom_site_fract_x
_atom_site_fract_y
_atom_site_fract_z
Si Si1 0.987155 0.069404 0.276113
Si Si2 0.380941 0.007710 0.722460
Si Si3 0.242934 0.894811 0.276761
Si Si4 0.360318 0.673522 0.780350
Si Si5 0.861731 0.357187 0.776591
Si Si6 0.581064 0.193400 0.715810
O O1 0.988499 0.068416 0.500000
O O2 0.876214 0.097386 0.218216
O O3 0.078277 0.114583 0.215989
O O4 0.000000 0.000000 0.218864
O O5 0.381549 0.005720 0.500000
O O6 0.345432 0.073687 0.775228
O O7 0.500000 0.000000 0.782034
O O8 0.307003 0.953936 0.780141
O O9 0.238964 0.893525 0.500000
O O10 0.313484 0.838633 0.214566
O O11 0.241158 0.677329 0.715012
O O12 0.416850 0.735557 0.738007
O O13 0.356472 0.668388 0.000000
O O14 0.973286 0.333792 0.710436
O O15 0.865114 0.354648 0.000000
O O16 0.580062 0.179516 0.500000
#
# Coordination Sequence:
#
# PCOD9442791 Si02
#       6
#     8   8   8   8   8   8
#     4   9  17  30  48  72 100 126 158 207 258 294
#     4   9  13  22  42  69  97 121 151 198 249 285
#     4   9  16  26  44  70  98 126 159 200 247 293
#     4  10  21  34  50  72 100 132 165 199 243 296
#     4   9  17  30  47  70  99 127 159 201 244 286
#     4  10  20  33  49  72 101 132 165 200 240 288
#
# _framework density 22.976348999999999
#
# number of rings (size 3 to 8) (size 9 to 14) (size 15 to 20)
#    0.000    2.667    1.667    1.000    2.333    4.000 
#    0.000    0.000    0.000    0.500    0.000    5.833 
#    0.000    0.000    0.000    0.000    0.000    0.000 
#
# Total GULP energy -268142.351617 kJ/mol
# GULP energy per Si atom -5586.298992 kJ/mol
# Density = 2.292405 g / cm^3
# Si number density = 22.976349 Si / 1000 Ang^3
#
#
#
# Elastic Constant Matrix: (Units=GPa)
#
#
# Indices 1 2 3 4 5 6 
#
# 1 146.7341 50.3989 7.2841 0.0000 0.0000 0.0000
# 2 50.3989 124.1015 -8.0787 0.0000 0.0000 0.0000
# 3 7.2841 -8.0787 94.1214 0.0000 0.0000 0.0000
# 4 0.0000 0.0000 0.0000 -2.2993 0.0000 0.0000
# 5 0.0000 0.0000 0.0000 0.0000 -18.4536 0.0000
# 6 0.0000 0.0000 0.0000 0.0000 0.0000 25.9209
#
#
#
# Elastic Compliance Matrix: (Units=1/GPa)
#
#
# Indices 1 2 3 4 5 6 
#
# 1 0.007995 -0.003306 -0.000902 0.000000 0.000000 0.000000
# 2 -0.003306 0.009470 0.001069 0.000000 0.000000 0.000000
# 3 -0.000902 0.001069 0.010786 0.000000 0.000000 0.000000
# 4 0.000000 0.000000 0.000000 -0.434911 0.000000 0.000000
# 5 0.000000 0.000000 0.000000 0.000000 -0.054190 0.000000
# 6 0.000000 0.000000 0.000000 0.000000 0.000000 0.038579
#
#
# Mechanical properties :
#
#
# Convention : Reuss Voigt Hill
#
# Bulk Modulus (GPa) = 45.51185 51.57396 48.54290
# Shear Modulus (GPa) = -12.23489 22.05709 4.91110
#
# Velocity S-wave (km/s) = -2.31010 3.10173 1.46359
# Velocity P-wave (km/s) = 3.56872 5.94331 4.90197
#
# Compressibility (1/GPa) = 0.02197230
#
# Stress axis : x y z
#
# Youngs Moduli (GPa) = 125.07396 105.59692 92.71147
#
# Poissons Ratio (x) = 0.34907 0.08367
# Poissons Ratio (y) = 0.41346 -0.09908
# Poissons Ratio (z) = 0.11288 -0.11285
#
# Static dielectric constant tensor:
#      x y z
#    x 1.852260 0.000000 0.000000 
#    y 0.000000 1.800340 0.000000 
#    z 0.000000 0.000000 1.932140 
# 
# From -- ./inp_files/4260.got.cif
#   From: 2010.05.17/outbox.cif.g08.bks.cpg/sg58_3_cif.got.tgz:4260.got - 2010.06.03 14:20:14.
