data_PCOD9442573
_publ_section_title
;
Structure prediction by ZEFSAII (Michael W. Deem and Ramdas Pophale) SiO2 
 PCOD9442573
Probable space group: P N N M
;
_chemical_formula_sum "Si O2"
_cell_formula_units_Z 40
_cell_length_a 11.339282
_cell_length_b 11.137864
_cell_length_c 14.290815
_cell_angle_alpha 90.000000
_cell_angle_beta 90.000000
_cell_angle_gamma 90.000000
_cell_volume 1804.863922
_symmetry_space_group_name_H-M "P N N M"
_symmetry_group_IT_number 58
_symmetry_cell_setting 'orthorhombic'
loop_
_space_group_symop_operation_xyz
x,y,z
-x,-y,z
1/2+x,1/2-y,1/2-z
1/2-x,1/2+y,1/2-z
-x,-y,-z
x,y,-z
1/2-x,1/2+y,1/2+z
1/2+x,1/2-y,1/2+z
loop_
_atom_site_type_symbol
_atom_site_label
_atom_site_fract_x
_atom_site_fract_y
_atom_site_fract_z
Si Si1 0.948892 0.330080 0.608021
Si Si2 0.627003 0.443161 0.603542
Si Si3 0.870805 0.056044 0.609000
Si Si4 0.728557 0.187802 0.105037
Si Si5 0.776218 0.390283 0.241819
O O1 0.929272 0.374021 0.500000
O O2 0.888752 0.198751 0.614971
O O3 0.888302 0.405644 0.690463
O O4 0.088481 0.316207 0.621180
O O5 0.500000 0.500000 0.617982
O O6 0.631990 0.388303 0.500000
O O7 0.714863 0.556667 0.607692
O O8 0.669438 0.359744 0.686344
O O9 0.845319 0.025941 0.500000
O O10 0.773629 0.999090 0.678053
O O11 0.000000 0.000000 0.631126
O O12 0.792349 0.277043 0.175132
O O13 0.745155 0.234659 0.000000
#
# Coordination Sequence:
#
# PCOD9442573 Si02
#       5
#     8   8   8   8   8
#     4  10  22  39  60  90 125 162 207 261 316 370
#     4  10  23  41  61  88 125 163 201 250 312 373
#     4  10  19  36  61  89 120 160 211 264 313 371
#     4  10  22  40  63  92 125 164 209 257 310 372
#     4  12  21  33  61  92 125 161 208 260 304 368
#
# _framework density 22.162336
#
# number of rings (size 3 to 8) (size 9 to 14) (size 15 to 20)
#    0.000    1.600    2.000    3.000    2.800    0.800 
#    0.000    3.000    0.000    0.000    0.000    5.600 
#    0.000    0.000    0.000    0.000    0.000    0.000 
#
# Total GULP energy -223624.066690 kJ/mol
# GULP energy per Si atom -5590.601667 kJ/mol
# Density = 2.211189 g / cm^3
# Si number density = 22.162336 Si / 1000 Ang^3
#
#
#
# Elastic Constant Matrix: (Units=GPa)
#
#
# Indices 1 2 3 4 5 6 
#
# 1 72.8057 6.2330 39.6421 0.0000 0.0000 0.0000
# 2 6.2330 56.3622 22.1726 0.0000 0.0000 0.0000
# 3 39.6421 22.1726 134.4178 0.0000 0.0000 0.0000
# 4 0.0000 0.0000 0.0000 26.1055 0.0000 0.0000
# 5 0.0000 0.0000 0.0000 0.0000 87.6706 0.0000
# 6 0.0000 0.0000 0.0000 0.0000 0.0000 25.1788
#
#
#
# Elastic Compliance Matrix: (Units=1/GPa)
#
#
# Indices 1 2 3 4 5 6 
#
# 1 0.016363 0.000095 -0.004841 0.000000 0.000000 0.000000
# 2 0.000095 0.018974 -0.003158 0.000000 0.000000 0.000000
# 3 -0.004841 -0.003158 0.009388 0.000000 0.000000 0.000000
# 4 0.000000 0.000000 0.000000 0.038306 0.000000 0.000000
# 5 0.000000 0.000000 0.000000 0.000000 0.011406 0.000000
# 6 0.000000 0.000000 0.000000 0.000000 0.000000 0.039716
#
#
# Mechanical properties :
#
#
# Convention : Reuss Voigt Hill
#
# Bulk Modulus (GPa) = 34.58177 44.40902 39.49540
# Shear Modulus (GPa) = 31.32800 40.82684 36.07742
#
# Velocity S-wave (km/s) = 3.76383 4.29671 4.03907
# Velocity P-wave (km/s) = 5.87590 6.68560 6.29378
#
# Compressibility (1/GPa) = 0.02891697
#
# Stress axis : x y z
#
# Youngs Moduli (GPa) = 61.11279 52.70322 106.51652
#
# Poissons Ratio (x) = -0.00501 0.51569
# Poissons Ratio (y) = -0.00581 0.33637
# Poissons Ratio (z) = 0.29587 0.16643
#
# Static dielectric constant tensor:
#      x y z
#    x 1.795880 0.000000 0.000000 
#    y 0.000000 1.871250 0.000000 
#    z 0.000000 0.000000 1.859400 
# 
# From -- ./inp_files/20900.got.cif
#   From: 2010.05.17/outbox.cif.g08.bks.cpg/sg58_11_cif.got.tgz:20900.got - 2010.06.03 14:20:14.
