data_PCOD9442611
_publ_section_title
;
Structure prediction by ZEFSAII (Michael W. Deem and Ramdas Pophale) SiO2 
 PCOD9442611
Probable space group: P N N M
;
_chemical_formula_sum "Si O2"
_cell_formula_units_Z 58
_cell_length_a 23.280689
_cell_length_b 15.199654
_cell_length_c 7.572613
_cell_angle_alpha 90.000000
_cell_angle_beta 90.000000
_cell_angle_gamma 90.000000
_cell_volume 2679.632854
_symmetry_space_group_name_H-M "P N N M"
_symmetry_group_IT_number 58
_symmetry_cell_setting 'orthorhombic'
loop_
_space_group_symop_operation_xyz
x,y,z
-x,-y,z
1/2+x,1/2-y,1/2-z
1/2-x,1/2+y,1/2-z
-x,-y,-z
x,y,-z
1/2-x,1/2+y,1/2+z
1/2+x,1/2-y,1/2+z
loop_
_atom_site_type_symbol
_atom_site_label
_atom_site_fract_x
_atom_site_fract_y
_atom_site_fract_z
Si Si1 0.392945 0.452298 0.215657
Si Si2 0.192969 0.533123 0.201988
Si Si3 0.979090 0.194951 0.706275
Si Si4 0.583675 0.870404 0.305409
Si Si5 0.269335 0.378485 0.783189
Si Si6 0.230691 0.189070 0.204796
Si Si7 0.500000 0.000000 0.500000
Si Si8 0.397380 0.656114 0.786412
O O1 0.442327 0.386280 0.280083
O O2 0.330861 0.416112 0.271458
O O3 0.401021 0.553444 0.266100
O O4 0.393341 0.450521 0.000000
O O5 0.137968 0.581974 0.283170
O O6 0.218938 0.443858 0.278891
O O7 0.244912 0.602987 0.200812
O O8 0.175325 0.511858 0.000000
O O9 0.986600 0.174093 0.500000
O O10 0.943658 0.284765 0.719615
O O11 0.043921 0.201905 0.776831
O O12 0.604752 0.838498 0.500000
O O13 0.535071 0.942221 0.349091
O O14 0.258771 0.278792 0.727190
O O15 0.268198 0.379595 0.000000
O O16 0.162150 0.194691 0.217633
O O17 0.246743 0.178775 0.000000
O O18 0.393230 0.660580 0.000000
#
# Coordination Sequence:
#
# PCOD9442611 Si02
#       8
#     8   8   8   8   8   8   2   8
#     4   9  16  32  57  82 109 145 188 230 273 343
#     4  10  19  37  60  81 109 151 194 231 283 344
#     4  10  20  34  58  88 112 145 195 244 289 327
#     4   9  20  37  59  83 110 150 194 236 277 349
#     4   9  18  32  55  82 107 144 188 228 281 342
#     4  11  22  35  55  88 118 146 188 243 295 338
#     4   8  20  40  58  80 110 156 202 218 284 350
#     4  10  20  36  56  80 116 156 191 229 281 352
#
# _framework density 21.644756999999998
#
# number of rings (size 3 to 8) (size 9 to 14) (size 15 to 20)
#    0.414    1.931    1.379    1.655    0.000    4.966 
#    2.483    2.414    0.000    1.655    0.000    0.000 
#    0.000    0.000    0.000    0.000    0.000    0.000 
#
# Total GULP energy -323100.093380 kJ/mol
# GULP energy per Si atom -5570.691265 kJ/mol
# Density = 2.159549 g / cm^3
# Si number density = 21.644757 Si / 1000 Ang^3
#
#
#
# Elastic Constant Matrix: (Units=GPa)
#
#
# Indices 1 2 3 4 5 6 
#
# 1 56.7054 -12.4663 -3.0839 0.0000 0.0000 0.0000
# 2 -12.4663 28.5819 1.3269 0.0000 0.0000 0.0000
# 3 -3.0839 1.3269 48.0331 0.0000 0.0000 0.0000
# 4 0.0000 0.0000 0.0000 6.3858 0.0000 0.0000
# 5 0.0000 0.0000 0.0000 0.0000 3.5604 0.0000
# 6 0.0000 0.0000 0.0000 0.0000 0.0000 41.8622
#
#
#
# Elastic Compliance Matrix: (Units=1/GPa)
#
#
# Indices 1 2 3 4 5 6 
#
# 1 0.019555 0.008482 0.001021 0.000000 0.000000 0.000000
# 2 0.008482 0.038711 -0.000525 0.000000 0.000000 0.000000
# 3 0.001021 -0.000525 0.020899 0.000000 0.000000 0.000000
# 4 0.000000 0.000000 0.000000 0.156596 0.000000 0.000000
# 5 0.000000 0.000000 0.000000 0.000000 0.280870 0.000000
# 6 0.000000 0.000000 0.000000 0.000000 0.000000 0.023888
#
#
# Mechanical properties :
#
#
# Convention : Reuss Voigt Hill
#
# Bulk Modulus (GPa) = 10.29637 11.65264 10.97450
# Shear Modulus (GPa) = 9.01004 20.19794 14.60399
#
# Velocity S-wave (km/s) = 2.04248 3.05807 2.60034
# Velocity P-wave (km/s) = 3.21397 4.22663 3.75460
#
# Compressibility (1/GPa) = 0.09712162
#
# Stress axis : x y z
#
# Youngs Moduli (GPa) = 51.13724 25.83250 47.84910
#
# Poissons Ratio (x) = -0.21911 -0.04886
# Poissons Ratio (y) = -0.43374 0.02511
# Poissons Ratio (z) = -0.05222 0.01356
#
# Static dielectric constant tensor:
#      x y z
#    x 1.796570 0.000000 0.000000 
#    y 0.000000 1.740090 0.000000 
#    z 0.000000 0.000000 1.851320 
# 
# From -- ./inp_files/9909.got.cif
#   From: 2010.05.17/outbox.cif.g08.bks.cpg/sg58_5_cif.got.tgz:9909.got - 2010.06.03 14:20:14.
