data_PCOD9442780
_publ_section_title
;
Structure prediction by ZEFSAII (Michael W. Deem and Ramdas Pophale) SiO2 
 PCOD9442780
Probable space group: P N N M
;
_chemical_formula_sum "Si O2"
_cell_formula_units_Z 40
_cell_length_a 14.789860
_cell_length_b 10.160506
_cell_length_c 10.959061
_cell_angle_alpha 90.000000
_cell_angle_beta 90.000000
_cell_angle_gamma 90.000000
_cell_volume 1646.845070
_symmetry_space_group_name_H-M "P N N M"
_symmetry_group_IT_number 58
_symmetry_cell_setting 'orthorhombic'
loop_
_space_group_symop_operation_xyz
x,y,z
-x,-y,z
1/2+x,1/2-y,1/2-z
1/2-x,1/2+y,1/2-z
-x,-y,-z
x,y,-z
1/2-x,1/2+y,1/2+z
1/2+x,1/2-y,1/2+z
loop_
_atom_site_type_symbol
_atom_site_label
_atom_site_fract_x
_atom_site_fract_y
_atom_site_fract_z
Si Si1 0.420523 0.394389 0.645372
Si Si2 0.827825 0.875560 0.756658
Si Si3 0.162619 0.518134 0.000000
Si Si4 0.307844 0.731302 0.500000
Si Si5 0.170992 0.214575 0.500000
Si Si6 0.613285 0.879143 0.257108
Si Si7 0.142314 0.524349 0.500000
O O1 0.500000 0.500000 0.662881
O O2 0.406274 0.377983 0.500000
O O3 0.337928 0.470706 0.710804
O O4 0.435032 0.256335 0.710128
O O5 0.870604 0.835348 0.627865
O O6 0.721099 0.845226 0.748627
O O7 0.861917 0.798579 0.876382
O O8 0.219078 0.383092 0.000000
O O9 0.231260 0.641752 0.000000
O O10 0.106757 0.527253 0.124821
O O11 0.228166 0.623899 0.500000
O O12 0.172009 0.372197 0.500000
O O13 0.592375 0.941080 0.126330
#
# Coordination Sequence:
#
# PCOD9442780 Si02
#       7
#     8   8   4   4   4   8   4
#     4  11  24  45  69 101 138 183 226 278 339 413
#     4  10  22  34  63  92 134 166 229 271 330 383
#     4  10  20  32  56  91 131 169 221 277 329 381
#     4  10  20  32  56  91 131 169 221 277 329 381
#     4  10  22  34  56  91 133 169 211 277 341 381
#     4  10  22  34  63  92 134 166 229 271 330 383
#     4  10  22  34  56  91 133 169 211 277 341 381
#
# _framework density 24.288864
#
# number of rings (size 3 to 8) (size 9 to 14) (size 15 to 20)
#    0.000    1.800    2.000    1.200   22.400    0.000 
#    0.000    2.000    0.000    7.200    0.000    0.000 
#    0.000    0.000    0.000    0.000    0.000    0.000 
#
# Total GULP energy -223470.002663 kJ/mol
# GULP energy per Si atom -5586.750067 kJ/mol
# Density = 2.423358 g / cm^3
# Si number density = 24.288864 Si / 1000 Ang^3
#
#
#
# Elastic Constant Matrix: (Units=GPa)
#
#
# Indices 1 2 3 4 5 6 
#
# 1 53.0093 33.4784 9.3610 0.0000 0.0000 0.0000
# 2 33.4784 132.6444 58.1092 0.0000 0.0000 0.0000
# 3 9.3610 58.1092 274.8308 0.0000 0.0000 0.0000
# 4 0.0000 0.0000 0.0000 53.8995 0.0000 0.0000
# 5 0.0000 0.0000 0.0000 0.0000 9.8422 0.0000
# 6 0.0000 0.0000 0.0000 0.0000 0.0000 18.2380
#
#
#
# Elastic Compliance Matrix: (Units=1/GPa)
#
#
# Indices 1 2 3 4 5 6 
#
# 1 0.022499 -0.005888 0.000479 0.000000 0.000000 0.000000
# 2 -0.005888 0.009850 -0.001882 0.000000 0.000000 0.000000
# 3 0.000479 -0.001882 0.004020 0.000000 0.000000 0.000000
# 4 0.000000 0.000000 0.000000 0.018553 0.000000 0.000000
# 5 0.000000 0.000000 0.000000 0.000000 0.101603 0.000000
# 6 0.000000 0.000000 0.000000 0.000000 0.000000 0.054831
#
#
# Mechanical properties :
#
#
# Convention : Reuss Voigt Hill
#
# Bulk Modulus (GPa) = 45.90210 73.59799 59.75004
# Shear Modulus (GPa) = 21.44079 40.36499 30.90289
#
# Velocity S-wave (km/s) = 2.97432 4.08103 3.57081
# Velocity P-wave (km/s) = 5.54390 7.25075 6.45400
#
# Compressibility (1/GPa) = 0.02178550
#
# Stress axis : x y z
#
# Youngs Moduli (GPa) = 44.44670 101.52728 248.74247
#
# Poissons Ratio (x) = 0.59782 -0.11906
# Poissons Ratio (y) = 0.26171 0.46813
# Poissons Ratio (z) = -0.02127 0.19107
#
# Static dielectric constant tensor:
#      x y z
#    x 2.085950 0.000000 0.000000 
#    y 0.000000 1.912970 0.000000 
#    z 0.000000 0.000000 2.036670 
# 
# From -- ./inp_files/16917.got.cif
#   From: 2010.05.17/outbox.cif.g08.bks.cpg/sg58_9_cif.got.tgz:16917.got - 2010.06.03 14:20:14.
