data_PCOD9442919
_publ_section_title
;
Structure prediction by ZEFSAII (Michael W. Deem and Ramdas Pophale) SiO2 
 PCOD9442919
Probable space group: P N N M
;
_chemical_formula_sum "Si O2"
_cell_formula_units_Z 64
_cell_length_a 29.242175
_cell_length_b 14.590561
_cell_length_c 8.457125
_cell_angle_alpha 90.000000
_cell_angle_beta 90.000000
_cell_angle_gamma 90.000000
_cell_volume 3608.314738
_symmetry_space_group_name_H-M "P N N M"
_symmetry_group_IT_number 58
_symmetry_cell_setting 'orthorhombic'
loop_
_space_group_symop_operation_xyz
x,y,z
-x,-y,z
1/2+x,1/2-y,1/2-z
1/2-x,1/2+y,1/2-z
-x,-y,-z
x,y,-z
1/2-x,1/2+y,1/2+z
1/2+x,1/2-y,1/2+z
loop_
_atom_site_type_symbol
_atom_site_label
_atom_site_fract_x
_atom_site_fract_y
_atom_site_fract_z
Si Si1 0.448047 0.496340 0.692588
Si Si2 0.802283 0.501806 0.191033
Si Si3 0.375189 0.347444 0.310633
Si Si4 0.197516 0.990923 0.689604
Si Si5 0.126687 0.641274 0.689171
Si Si6 0.871885 0.860025 0.191425
Si Si7 0.623316 0.150309 0.308988
Si Si8 0.052245 0.492660 0.308976
O O1 0.500000 0.500000 0.749909
O O2 0.449330 0.495546 0.500000
O O3 0.419479 0.406587 0.742135
O O4 0.417397 0.583822 0.738942
O O5 0.750012 0.508911 0.244703
O O6 0.828314 0.411684 0.251144
O O7 0.833443 0.588241 0.241793
O O8 0.802411 0.499907 0.000000
O O9 0.374806 0.347109 0.500000
O O10 0.331255 0.404549 0.252625
O O11 0.375903 0.244356 0.249870
O O12 0.197105 0.987914 0.500000
O O13 0.170748 0.081500 0.745911
O O14 0.127013 0.641904 0.500000
O O15 0.083533 0.578903 0.742539
O O16 0.873010 0.755057 0.245073
O O17 0.869834 0.861215 0.000000
O O18 0.622429 0.150641 0.500000
O O19 0.578319 0.097829 0.249678
O O20 0.052106 0.491516 0.500000
O O21 0.000000 0.500000 0.253977
#
# Coordination Sequence:
#
# PCOD9442919 Si02
#       8
#     8   8   8   8   8   8   8   8
#     4   8  15  29  48  70  97 129 165 204 246 294
#     4   9  19  35  52  73 101 131 166 210 254 295
#     4  10  20  34  53  76 104 135 167 210 257 300
#     4  10  20  34  52  74 101 133 169 208 251 303
#     4  10  20  34  53  75 101 135 172 209 250 300
#     4   9  18  32  50  73 100 131 167 208 254 299
#     4   9  18  33  52  73  98 128 167 211 249 293
#     4   9  19  35  52  73 104 137 167 203 249 299
#
# _framework density 17.736812
#
# number of rings (size 3 to 8) (size 9 to 14) (size 15 to 20)
#    0.000    2.750    0.000    1.875    0.000    4.250 
#    0.000    2.500    0.000    9.375    0.000    0.000 
#    0.000    0.000    0.000    0.000    0.000    0.000 
#
# Total GULP energy -356906.212244 kJ/mol
# GULP energy per Si atom -5576.659566 kJ/mol
# Density = 1.769644 g / cm^3
# Si number density = 17.736812 Si / 1000 Ang^3
#
#
#
# Elastic Constant Matrix: (Units=GPa)
#
#
# Indices 1 2 3 4 5 6 
#
# 1 172.0021 81.0854 21.9671 0.0000 0.0000 0.0000
# 2 81.0854 171.3762 21.2615 0.0000 0.0000 0.0000
# 3 21.9671 21.2615 13.4904 0.0000 0.0000 0.0000
# 4 0.0000 0.0000 0.0000 21.1314 0.0000 0.0000
# 5 0.0000 0.0000 0.0000 0.0000 22.2538 0.0000
# 6 0.0000 0.0000 0.0000 0.0000 0.0000 6.1616
#
#
#
# Elastic Compliance Matrix: (Units=1/GPa)
#
#
# Indices 1 2 3 4 5 6 
#
# 1 0.008294 -0.002795 -0.009100 0.000000 0.000000 0.000000
# 2 -0.002795 0.008195 -0.008365 0.000000 0.000000 0.000000
# 3 -0.009100 -0.008365 0.102128 0.000000 0.000000 0.000000
# 4 0.000000 0.000000 0.000000 0.047323 0.000000 0.000000
# 5 0.000000 0.000000 0.000000 0.000000 0.044936 0.000000
# 6 0.000000 0.000000 0.000000 0.000000 0.000000 0.162294
#
#
# Mechanical properties :
#
#
# Convention : Reuss Voigt Hill
#
# Bulk Modulus (GPa) = 12.80457 67.27743 40.04100
# Shear Modulus (GPa) = 11.37082 25.41301 18.39192
#
# Velocity S-wave (km/s) = 2.53471 3.78932 3.22364
# Velocity P-wave (km/s) = 3.97508 7.56033 6.03986
#
# Compressibility (1/GPa) = 0.07809714
#
# Stress axis : x y z
#
# Youngs Moduli (GPa) = 120.57261 122.01960 9.79168
#
# Poissons Ratio (x) = 0.34107 0.08910
# Poissons Ratio (y) = 0.33702 0.08191
# Poissons Ratio (z) = 1.09718 1.02067
#
# Static dielectric constant tensor:
#      x y z
#    x 1.597370 0.000000 0.000000 
#    y 0.000000 1.583100 0.000000 
#    z 0.000000 0.000000 1.605950 
# 
# From -- ./inp_files/11135.got.cif
#   From: 2010.05.17/outbox.cif.g08.bks.cpg/sg58_6_cif.got.tgz:11135.got - 2010.06.03 14:20:14.
