data_PCOD9442403
_publ_section_title
;
Structure prediction by ZEFSAII (Michael W. Deem and Ramdas Pophale) SiO2 
 PCOD9442403
Probable space group: P N N M
;
_chemical_formula_sum "Si O2"
_cell_formula_units_Z 48
_cell_length_a 14.824533
_cell_length_b 20.745523
_cell_length_c 8.541004
_cell_angle_alpha 90.000000
_cell_angle_beta 90.000000
_cell_angle_gamma 90.000000
_cell_volume 2626.723348
_symmetry_space_group_name_H-M "P N N M"
_symmetry_group_IT_number 58
_symmetry_cell_setting 'orthorhombic'
loop_
_space_group_symop_operation_xyz
x,y,z
-x,-y,z
1/2+x,1/2-y,1/2-z
1/2-x,1/2+y,1/2-z
-x,-y,-z
x,y,-z
1/2-x,1/2+y,1/2+z
1/2+x,1/2-y,1/2+z
loop_
_atom_site_type_symbol
_atom_site_label
_atom_site_fract_x
_atom_site_fract_y
_atom_site_fract_z
Si Si1 0.169919 0.575621 0.687345
Si Si2 0.517721 0.121079 0.689238
Si Si3 0.789689 0.562013 0.812609
Si Si4 0.667877 0.673409 0.312258
Si Si5 0.222674 0.203567 0.189721
Si Si6 0.479593 0.729451 0.690480
O O1 0.170576 0.573822 0.500000
O O2 0.067380 0.582372 0.746173
O O3 0.213651 0.510659 0.752115
O O4 0.224042 0.639537 0.739113
O O5 0.514315 0.119141 0.500000
O O6 0.613828 0.092207 0.738823
O O7 0.510655 0.195841 0.739434
O O8 0.710905 0.607949 0.751031
O O9 0.788612 0.562609 0.000000
O O10 0.668598 0.671920 0.500000
O O11 0.728930 0.733068 0.255141
O O12 0.565896 0.688520 0.257838
O O13 0.118092 0.203631 0.239311
O O14 0.225184 0.207188 0.000000
O O15 0.480182 0.729688 0.500000
#
# Coordination Sequence:
#
# PCOD9442403 Si02
#       6
#     8   8   8   8   8   8
#     4  11  23  36  56  86 118 147 187 239 281 324
#     4  10  19  35  58  82 112 152 187 220 277 347
#     4  11  23  39  58  79 114 157 190 224 279 346
#     4  11  21  35  59  86 111 141 186 238 276 320
#     4  10  20  38  59  81 113 152 187 223 276 339
#     4   9  18  35  58  83 111 145 187 224 270 339
#
# _framework density 18.273717999999999
#
# number of rings (size 3 to 8) (size 9 to 14) (size 15 to 20)
#    0.000    1.667    3.333    2.000    0.000    4.000 
#    0.000    2.500    0.000    5.000    0.000    0.000 
#    0.000    0.000    0.000    0.000    0.000    0.000 
#
# Total GULP energy -268136.398204 kJ/mol
# GULP energy per Si atom -5586.174963 kJ/mol
# Density = 1.823213 g / cm^3
# Si number density = 18.273718 Si / 1000 Ang^3
#
#
#
# Elastic Constant Matrix: (Units=GPa)
#
#
# Indices 1 2 3 4 5 6 
#
# 1 74.6208 -7.6406 6.4055 0.0000 0.0000 0.0000
# 2 -7.6406 50.0858 8.6791 0.0000 0.0000 0.0000
# 3 6.4055 8.6791 17.8292 0.0000 0.0000 0.0000
# 4 0.0000 0.0000 0.0000 30.8016 0.0000 0.0000
# 5 0.0000 0.0000 0.0000 0.0000 20.6463 0.0000
# 6 0.0000 0.0000 0.0000 0.0000 0.0000 27.9310
#
#
#
# Elastic Compliance Matrix: (Units=1/GPa)
#
#
# Indices 1 2 3 4 5 6 
#
# 1 0.014328 0.003361 -0.006784 0.000000 0.000000 0.000000
# 2 0.003361 0.022594 -0.012206 0.000000 0.000000 0.000000
# 3 -0.006784 -0.012206 0.064467 0.000000 0.000000 0.000000
# 4 0.000000 0.000000 0.000000 0.032466 0.000000 0.000000
# 5 0.000000 0.000000 0.000000 0.000000 0.048435 0.000000
# 6 0.000000 0.000000 0.000000 0.000000 0.000000 0.035803
#
#
# Mechanical properties :
#
#
# Convention : Reuss Voigt Hill
#
# Bulk Modulus (GPa) = 14.25904 17.49152 15.87528
# Shear Modulus (GPa) = 18.33349 24.88188 21.60769
#
# Velocity S-wave (km/s) = 3.17088 3.69402 3.44240
# Velocity P-wave (km/s) = 4.60716 5.27135 4.95041
#
# Compressibility (1/GPa) = 0.07013095
#
# Stress axis : x y z
#
# Youngs Moduli (GPa) = 69.79549 44.26030 15.51190
#
# Poissons Ratio (x) = -0.14877 0.10523
# Poissons Ratio (y) = -0.23460 0.18934
# Poissons Ratio (z) = 0.47347 0.54024
#
# Static dielectric constant tensor:
#      x y z
#    x 1.623510 0.000000 0.000000 
#    y 0.000000 1.605500 0.000000 
#    z 0.000000 0.000000 1.622970 
# 
# From -- ./inp_files/5825.got.cif
#   From: 2010.05.17/outbox.cif.g08.bks.cpg/sg58_3_cif.got.tgz:5825.got - 2010.06.03 14:20:14.
