data_PCOD9442623
_publ_section_title
;
Structure prediction by ZEFSAII (Michael W. Deem and Ramdas Pophale) SiO2 
 PCOD9442623
Probable space group: P N N M
;
_chemical_formula_sum "Si O2"
_cell_formula_units_Z 64
_cell_length_a 15.147154
_cell_length_b 26.514397
_cell_length_c 8.713428
_cell_angle_alpha 90.000000
_cell_angle_beta 90.000000
_cell_angle_gamma 90.000000
_cell_volume 3499.466517
_symmetry_space_group_name_H-M "P N N M"
_symmetry_group_IT_number 58
_symmetry_cell_setting 'orthorhombic'
loop_
_space_group_symop_operation_xyz
x,y,z
-x,-y,z
1/2+x,1/2-y,1/2-z
1/2-x,1/2+y,1/2-z
-x,-y,-z
x,y,-z
1/2-x,1/2+y,1/2+z
1/2+x,1/2-y,1/2+z
loop_
_atom_site_type_symbol
_atom_site_label
_atom_site_fract_x
_atom_site_fract_y
_atom_site_fract_z
Si Si1 0.007877 0.441584 0.683578
Si Si2 0.336521 0.389853 0.682646
Si Si3 0.104320 0.996324 0.314703
Si Si4 0.003838 0.282874 0.815453
Si Si5 0.365112 0.133246 0.685571
Si Si6 0.830629 0.893892 0.686638
Si Si7 0.000804 0.171472 0.315982
Si Si8 0.647672 0.133273 0.316439
O O1 0.014962 0.437131 0.500000
O O2 0.922802 0.411340 0.742460
O O3 0.000000 0.500000 0.724851
O O4 0.091835 0.414852 0.760076
O O5 0.336909 0.389838 0.500000
O O6 0.353154 0.446617 0.742965
O O7 0.415854 0.355615 0.745397
O O8 0.243687 0.368680 0.743150
O O9 0.109988 0.992153 0.500000
O O10 0.151444 0.048334 0.266131
O O11 0.000000 0.000000 0.276158
O O12 0.087576 0.318215 0.774440
O O13 0.916161 0.315088 0.774541
O O14 0.006134 0.229221 0.735312
O O15 0.004264 0.276259 0.000000
O O16 0.369127 0.128904 0.500000
O O17 0.263957 0.127764 0.735244
O O18 0.830881 0.894066 0.500000
O O19 0.911975 0.858975 0.735565
O O20 0.995480 0.168052 0.500000
O O21 0.654872 0.132198 0.500000
#
# Coordination Sequence:
#
# PCOD9442623 Si02
#       8
#     8   8   8   8   8   8   8   8
#     4  10  21  36  54  83 121 153 189 241 294 345
#     4  12  25  39  58  88 124 157 197 246 299 350
#     4  10  19  37  61  84 116 154 197 245 292 352
#     4   9  20  39  60  86 118 148 190 249 300 344
#     4   9  19  37  59  83 113 153 197 237 289 355
#     4   9  19  36  59  86 113 149 196 241 284 347
#     4  11  22  39  62  87 116 156 203 242 294 356
#     4  10  22  41  63  85 115 156 201 243 292 358
#
# _framework density 18.288501
#
# number of rings (size 3 to 8) (size 9 to 14) (size 15 to 20)
#    0.000    2.000    1.250    3.000    1.750    4.750 
#    0.000    2.500    0.000    0.000    0.000    0.000 
#    0.000    0.000    0.000    0.000    0.000    0.000 
#
# Total GULP energy -357420.885405 kJ/mol
# GULP energy per Si atom -5584.701334 kJ/mol
# Density = 1.824688 g / cm^3
# Si number density = 18.288501 Si / 1000 Ang^3
#
#
#
# Elastic Constant Matrix: (Units=GPa)
#
#
# Indices 1 2 3 4 5 6 
#
# 1 175.4215 81.6941 48.4795 0.0000 0.0000 0.0000
# 2 81.6941 154.5839 51.2577 0.0000 0.0000 0.0000
# 3 48.4795 51.2577 46.5531 0.0000 0.0000 0.0000
# 4 0.0000 0.0000 0.0000 28.1949 0.0000 0.0000
# 5 0.0000 0.0000 0.0000 0.0000 -4.6514 0.0000
# 6 0.0000 0.0000 0.0000 0.0000 0.0000 0.2335
#
#
#
# Elastic Compliance Matrix: (Units=1/GPa)
#
#
# Indices 1 2 3 4 5 6 
#
# 1 0.008564 -0.002471 -0.006198 0.000000 0.000000 0.000000
# 2 -0.002471 0.010902 -0.009430 0.000000 0.000000 0.000000
# 3 -0.006198 -0.009430 0.038319 0.000000 0.000000 0.000000
# 4 0.000000 0.000000 0.000000 0.035467 0.000000 0.000000
# 5 0.000000 0.000000 0.000000 0.000000 -0.214989 0.000000
# 6 0.000000 0.000000 0.000000 0.000000 0.000000 4.283136
#
#
# Mechanical properties :
#
#
# Convention : Reuss Voigt Hill
#
# Bulk Modulus (GPa) = 46.32597 82.15791 64.24194
# Shear Modulus (GPa) = 1.18912 17.76388 9.47650
#
# Velocity S-wave (km/s) = 0.80722 3.11997 2.27880
# Velocity P-wave (km/s) = 5.12391 7.61576 6.49054
#
# Compressibility (1/GPa) = 0.02158616
#
# Stress axis : x y z
#
# Youngs Moduli (GPa) = 116.76686 91.72890 26.09689
#
# Poissons Ratio (x) = 0.22664 0.16175
# Poissons Ratio (y) = 0.28850 0.24610
# Poissons Ratio (z) = 0.72372 0.86504
#
# Static dielectric constant tensor:
#      x y z
#    x 1.621070 0.000000 0.000000 
#    y 0.000000 1.601720 0.000000 
#    z 0.000000 0.000000 1.613330 
# 
# From -- ./inp_files/6887.got.cif
#   From: 2010.05.17/outbox.cif.g08.bks.cpg/sg58_4_cif.got.tgz:6887.got - 2010.06.03 14:20:14.
