data_PCOD9442360
_publ_section_title
;
Structure prediction by ZEFSAII (Michael W. Deem and Ramdas Pophale) SiO2 
 PCOD9442360
Probable space group: P N N M
;
_chemical_formula_sum "Si O2"
_cell_formula_units_Z 48
_cell_length_a 15.184451
_cell_length_b 20.129513
_cell_length_c 9.227654
_cell_angle_alpha 90.000000
_cell_angle_beta 90.000000
_cell_angle_gamma 90.000000
_cell_volume 2820.484155
_symmetry_space_group_name_H-M "P N N M"
_symmetry_group_IT_number 58
_symmetry_cell_setting 'orthorhombic'
loop_
_space_group_symop_operation_xyz
x,y,z
-x,-y,z
1/2+x,1/2-y,1/2-z
1/2-x,1/2+y,1/2-z
-x,-y,-z
x,y,-z
1/2-x,1/2+y,1/2+z
1/2+x,1/2-y,1/2+z
loop_
_atom_site_type_symbol
_atom_site_label
_atom_site_fract_x
_atom_site_fract_y
_atom_site_fract_z
Si Si1 0.487179 0.307578 0.173183
Si Si2 0.690799 0.667756 0.328576
Si Si3 0.890876 0.682138 0.673612
Si Si4 0.562740 0.437202 0.673171
Si Si5 0.763268 0.013945 0.171901
Si Si6 0.413379 0.957494 0.327088
O O1 0.389201 0.302863 0.238102
O O2 0.546417 0.243515 0.209314
O O3 0.531331 0.372905 0.241713
O O4 0.483369 0.313648 0.000000
O O5 0.674482 0.677290 0.500000
O O6 0.787821 0.695462 0.292519
O O7 0.697642 0.588105 0.303077
O O8 0.894620 0.670043 0.500000
O O9 0.917988 0.615228 0.755536
O O10 0.500000 0.500000 0.705584
O O11 0.555957 0.425103 0.500000
O O12 0.661892 0.460500 0.706973
O O13 0.674108 0.008705 0.261903
O O14 0.743854 0.010252 0.000000
O O15 0.405364 0.951526 0.500000
O O16 0.500000 0.000000 0.293152
#
# Coordination Sequence:
#
# PCOD9442360 Si02
#       6
#     8   8   8   8   8   8
#     4  11  22  35  54  83 113 140 178 230 274 315
#     4   9  17  35  58  75 100 144 183 215 265 324
#     4   9  21  40  57  76 108 148 185 219 267 329
#     4  10  19  35  56  80 111 146 182 215 262 329
#     4   9  18  34  57  80 106 143 182 218 261 322
#     4  10  21  37  58  84 110 138 179 229 277 320
#
# _framework density 17.018355
#
# number of rings (size 3 to 8) (size 9 to 14) (size 15 to 20)
#    0.000    2.333    1.667    2.000    0.000    6.333 
#    3.000    0.000    0.000    0.000    0.000    0.000 
#    0.000    0.000    0.000    0.000    0.000    0.000 
#
# Total GULP energy -267832.098765 kJ/mol
# GULP energy per Si atom -5579.835391 kJ/mol
# Density = 1.697962 g / cm^3
# Si number density = 17.018355 Si / 1000 Ang^3
#
#
#
# Elastic Constant Matrix: (Units=GPa)
#
#
# Indices 1 2 3 4 5 6 
#
# 1 172.1812 95.0386 81.6943 0.0000 0.0000 0.0000
# 2 95.0386 87.7401 57.8933 0.0000 0.0000 0.0000
# 3 81.6943 57.8933 54.6801 0.0000 0.0000 0.0000
# 4 0.0000 0.0000 0.0000 -8.3799 0.0000 0.0000
# 5 0.0000 0.0000 0.0000 0.0000 18.2629 0.0000
# 6 0.0000 0.0000 0.0000 0.0000 0.0000 28.7607
#
#
#
# Elastic Compliance Matrix: (Units=1/GPa)
#
#
# Indices 1 2 3 4 5 6 
#
# 1 0.021112 -0.006821 -0.024321 0.000000 0.000000 0.000000
# 2 -0.006821 0.040018 -0.032179 0.000000 0.000000 0.000000
# 3 -0.024321 -0.032179 0.088695 0.000000 0.000000 0.000000
# 4 0.000000 0.000000 0.000000 -0.119333 0.000000 0.000000
# 5 0.000000 0.000000 0.000000 0.000000 0.054756 0.000000
# 6 0.000000 0.000000 0.000000 0.000000 0.000000 0.034770
#
#
# Mechanical properties :
#
#
# Convention : Reuss Voigt Hill
#
# Bulk Modulus (GPa) = 43.13447 87.09485 65.11466
# Shear Modulus (GPa) = 19.65508 13.06041 16.35775
#
# Velocity S-wave (km/s) = 3.40212 2.77326 3.10366
# Velocity P-wave (km/s) = 6.39010 7.84492 7.15458
#
# Compressibility (1/GPa) = 0.02318332
#
# Stress axis : x y z
#
# Youngs Moduli (GPa) = 47.36632 24.98863 11.27463
#
# Poissons Ratio (x) = 0.17044 0.27421
# Poissons Ratio (y) = 0.32307 0.36281
# Poissons Ratio (z) = 1.15198 0.80412
#
# Static dielectric constant tensor:
#      x y z
#    x 1.580190 0.000000 0.000000 
#    y 0.000000 1.545640 0.000000 
#    z 0.000000 0.000000 1.562760 
# 
# From -- ./inp_files/5845.got.cif
#   From: 2010.05.17/outbox.cif.g08.bks.cpg/sg58_3_cif.got.tgz:5845.got - 2010.06.03 14:20:14.
