data_PCOD9442612
_publ_section_title
;
Structure prediction by ZEFSAII (Michael W. Deem and Ramdas Pophale) SiO2 
 PCOD9442612
Probable space group: P N N M
;
_chemical_formula_sum "Si O2"
_cell_formula_units_Z 64
_cell_length_a 21.482619
_cell_length_b 9.275909
_cell_length_c 16.023387
_cell_angle_alpha 90.000000
_cell_angle_beta 90.000000
_cell_angle_gamma 90.000000
_cell_volume 3192.993449
_symmetry_space_group_name_H-M "P N N M"
_symmetry_group_IT_number 58
_symmetry_cell_setting 'orthorhombic'
loop_
_space_group_symop_operation_xyz
x,y,z
-x,-y,z
1/2+x,1/2-y,1/2-z
1/2-x,1/2+y,1/2-z
-x,-y,-z
x,y,-z
1/2-x,1/2+y,1/2+z
1/2+x,1/2-y,1/2+z
loop_
_atom_site_type_symbol
_atom_site_label
_atom_site_fract_x
_atom_site_fract_y
_atom_site_fract_z
Si Si1 0.831902 0.836480 0.327426
Si Si2 0.252416 0.131541 0.171717
Si Si3 0.662438 0.610134 0.399598
Si Si4 0.428903 0.463453 0.743888
Si Si5 0.645322 0.913448 0.692658
Si Si6 0.448515 0.155438 0.185090
Si Si7 0.079380 0.384941 0.403081
Si Si8 0.238591 0.427450 0.095515
O O1 0.792997 0.805395 0.244186
O O2 0.858089 0.700515 0.377957
O O3 0.893120 0.918614 0.296870
O O4 0.788562 0.953579 0.374017
O O5 0.313667 0.094420 0.223379
O O6 0.262166 0.265862 0.111158
O O7 0.219797 0.991914 0.130305
O O8 0.657358 0.608225 0.500000
O O9 0.604538 0.549069 0.345833
O O10 0.663381 0.773284 0.363272
O O11 0.500000 0.500000 0.731903
O O12 0.424908 0.316106 0.797401
O O13 0.574746 0.916368 0.726683
O O14 0.673182 0.046208 0.642425
O O15 0.520863 0.158054 0.157103
O O16 0.417833 0.056328 0.113504
O O17 0.065131 0.355703 0.500000
O O18 0.227226 0.452451 0.000000
#
# Coordination Sequence:
#
# PCOD9442612 Si02
#       8
#     8   8   8   8   8   8   8   8
#     4  10  21  38  60  85 116 157 200 233 292 359
#     4  10  20  37  59  81 113 152 192 230 282 353
#     4  10  21  36  57  86 114 142 189 247 289 328
#     4  10  19  37  60  81 109 152 194 233 289 361
#     4  10  20  37  57  80 109 155 195 228 280 356
#     4  10  20  36  57  79 111 149 196 237 288 348
#     4  11  22  38  57  84 118 150 195 249 294 342
#     4  11  21  35  56  85 117 148 187 242 293 335
#
# _framework density 20.043887999999999
#
# number of rings (size 3 to 8) (size 9 to 14) (size 15 to 20)
#    0.000    1.750    1.250    5.625    0.000    1.250 
#    0.000   10.625    0.000    0.000    0.000    9.625 
#    0.000    0.000    0.000    0.000    0.000    0.000 
#
# Total GULP energy -356688.761272 kJ/mol
# GULP energy per Si atom -5573.261895 kJ/mol
# Density = 1.999827 g / cm^3
# Si number density = 20.043888 Si / 1000 Ang^3
#
#
#
# Elastic Constant Matrix: (Units=GPa)
#
#
# Indices 1 2 3 4 5 6 
#
# 1 82.1336 14.1997 39.9441 0.0000 0.0000 0.0000
# 2 14.1997 55.7728 37.9630 0.0000 0.0000 0.0000
# 3 39.9441 37.9630 107.0321 0.0000 0.0000 0.0000
# 4 0.0000 0.0000 0.0000 21.1039 0.0000 0.0000
# 5 0.0000 0.0000 0.0000 0.0000 16.0445 0.0000
# 6 0.0000 0.0000 0.0000 0.0000 0.0000 22.8038
#
#
#
# Elastic Compliance Matrix: (Units=1/GPa)
#
#
# Indices 1 2 3 4 5 6 
#
# 1 0.014875 -0.000011 -0.005547 0.000000 0.000000 0.000000
# 2 -0.000011 0.023636 -0.008379 0.000000 0.000000 0.000000
# 3 -0.005547 -0.008379 0.014385 0.000000 0.000000 0.000000
# 4 0.000000 0.000000 0.000000 0.047384 0.000000 0.000000
# 5 0.000000 0.000000 0.000000 0.000000 0.062327 0.000000
# 6 0.000000 0.000000 0.000000 0.000000 0.000000 0.043852
#
#
# Mechanical properties :
#
#
# Convention : Reuss Voigt Hill
#
# Bulk Modulus (GPa) = 39.96669 47.68357 43.82513
# Shear Modulus (GPa) = 20.60356 22.17922 21.39139
#
# Velocity S-wave (km/s) = 3.20960 3.33007 3.27039
# Velocity P-wave (km/s) = 5.80674 6.21506 6.01437
#
# Compressibility (1/GPa) = 0.02502084
#
# Stress axis : x y z
#
# Youngs Moduli (GPa) = 67.22654 42.30775 69.51543
#
# Poissons Ratio (x) = 0.00048 0.38563
# Poissons Ratio (y) = 0.00076 0.58249
# Poissons Ratio (z) = 0.37293 0.35451
#
# Static dielectric constant tensor:
#      x y z
#    x 1.754250 0.000000 0.000000 
#    y 0.000000 1.796040 0.000000 
#    z 0.000000 0.000000 1.680180 
# 
# From -- ./inp_files/23535.got.cif
#   From: 2010.05.17/outbox.cif.g08.bks.cpg/sg58_12_cif.got.tgz:23535.got - 2010.06.03 14:20:14.
