data_PCOD9442749
_publ_section_title
;
Structure prediction by ZEFSAII (Michael W. Deem and Ramdas Pophale) SiO2 
 PCOD9442749
Probable space group: P N N M
;
_chemical_formula_sum "Si O2"
_cell_formula_units_Z 64
_cell_length_a 14.730288
_cell_length_b 9.554159
_cell_length_c 28.573927
_cell_angle_alpha 90.000000
_cell_angle_beta 90.000000
_cell_angle_gamma 90.000000
_cell_volume 4021.366294
_symmetry_space_group_name_H-M "P N N M"
_symmetry_group_IT_number 58
_symmetry_cell_setting 'orthorhombic'
loop_
_space_group_symop_operation_xyz
x,y,z
-x,-y,z
1/2+x,1/2-y,1/2-z
1/2-x,1/2+y,1/2-z
-x,-y,-z
x,y,-z
1/2-x,1/2+y,1/2+z
1/2+x,1/2-y,1/2+z
loop_
_atom_site_type_symbol
_atom_site_label
_atom_site_fract_x
_atom_site_fract_y
_atom_site_fract_z
Si Si1 0.093206 0.681806 0.877830
Si Si2 0.885014 0.622828 0.853916
Si Si3 0.640314 0.134568 0.244672
Si Si4 0.214397 0.096136 0.130588
Si Si5 0.600094 0.566393 0.444936
Si Si6 0.838171 0.128616 0.795226
Si Si7 0.413782 0.080318 0.835973
Si Si8 0.986940 0.154758 0.715063
O O1 0.126419 0.522805 0.881044
O O2 0.101686 0.777924 0.923403
O O3 0.146203 0.757905 0.835805
O O4 0.987124 0.675439 0.863771
O O5 0.875346 0.596895 0.798486
O O6 0.815482 0.743520 0.867606
O O7 0.745799 0.157556 0.233015
O O8 0.579780 0.269442 0.231262
O O9 0.607490 0.007889 0.211430
O O10 0.322235 0.078186 0.134264
O O11 0.170712 0.023034 0.085562
O O12 0.172722 0.017275 0.176477
O O13 0.500000 0.500000 0.436993
O O14 0.618594 0.564204 0.500000
O O15 0.922059 0.134018 0.759989
O O16 0.440645 0.235931 0.820335
O O17 0.500000 0.000000 0.857793
O O18 0.000000 0.000000 0.694799
#
# Coordination Sequence:
#
# PCOD9442749 Si02
#       8
#     8   8   8   8   8   8   8   8
#     4  10  21  32  49  73 104 137 170 217 260 299
#     4  11  19  30  47  73 105 139 175 213 251 300
#     4  10  20  32  46  66 102 144 182 212 249 282
#     4  10  20  34  54  75 100 134 174 211 262 311
#     4  10  20  38  59  79 103 130 166 209 262 321
#     4  10  20  32  47  69  98 141 183 221 243 286
#     4   9  20  35  49  70 103 140 177 217 252 292
#     4  11  20  29  44  68  96 134 178 216 245 284
#
# _framework density 15.914989
#
# number of rings (size 3 to 8) (size 9 to 14) (size 15 to 20)
#    0.000    1.875    2.500    2.250    3.500    4.000 
#    0.000    1.875    0.000    0.375    0.000    0.000 
#    0.000    1.500    0.000    0.000    0.000    0.000 
#
# Total GULP energy -357239.747970 kJ/mol
# GULP energy per Si atom -5581.871062 kJ/mol
# Density = 1.587877 g / cm^3
# Si number density = 15.914989 Si / 1000 Ang^3
#
#
#
# Elastic Constant Matrix: (Units=GPa)
#
#
# Indices 1 2 3 4 5 6 
#
# 1 90.7886 56.2602 49.6696 0.0000 0.0000 0.0000
# 2 56.2602 118.9048 36.6327 0.0000 0.0000 0.0000
# 3 49.6696 36.6327 75.1272 0.0000 0.0000 0.0000
# 4 0.0000 0.0000 0.0000 5.7975 0.0000 0.0000
# 5 0.0000 0.0000 0.0000 0.0000 16.8544 0.0000
# 6 0.0000 0.0000 0.0000 0.0000 0.0000 14.9330
#
#
#
# Elastic Compliance Matrix: (Units=1/GPa)
#
#
# Indices 1 2 3 4 5 6 
#
# 1 0.020925 -0.006635 -0.010599 0.000000 0.000000 0.000000
# 2 -0.006635 0.012001 -0.001465 0.000000 0.000000 0.000000
# 3 -0.010599 -0.001465 0.021032 0.000000 0.000000 0.000000
# 4 0.000000 0.000000 0.000000 0.172489 0.000000 0.000000
# 5 0.000000 0.000000 0.000000 0.000000 0.059332 0.000000
# 6 0.000000 0.000000 0.000000 0.000000 0.000000 0.066966
#
#
# Mechanical properties :
#
#
# Convention : Reuss Voigt Hill
#
# Bulk Modulus (GPa) = 60.38615 63.32729 61.85672
# Shear Modulus (GPa) = 12.63703 17.00084 14.81893
#
# Velocity S-wave (km/s) = 2.82092 3.27192 3.05475
# Velocity P-wave (km/s) = 6.97391 7.35876 7.16892
#
# Compressibility (1/GPa) = 0.01656009
#
# Stress axis : x y z
#
# Youngs Moduli (GPa) = 47.78972 83.32671 47.54570
#
# Poissons Ratio (x) = 0.55291 0.50393
# Poissons Ratio (y) = 0.31710 0.06965
# Poissons Ratio (z) = 0.50652 0.12206
#
# Static dielectric constant tensor:
#      x y z
#    x 1.546390 0.000000 0.000000 
#    y 0.000000 1.560440 0.000000 
#    z 0.000000 0.000000 1.488800 
# 
# From -- ./inp_files/35095.got.cif
#   From: 2010.05.17/outbox.cif.g08.bks.cpg/sg58_18_cif.got.tgz:35095.got - 2010.06.03 14:20:14.
