data_PCOD9442783
_publ_section_title
;
Structure prediction by ZEFSAII (Michael W. Deem and Ramdas Pophale) SiO2 
 PCOD9442783
Probable space group: P N N M
;
_chemical_formula_sum "Si O2"
_cell_formula_units_Z 64
_cell_length_a 8.807209
_cell_length_b 16.790503
_cell_length_c 28.310196
_cell_angle_alpha 90.000000
_cell_angle_beta 90.000000
_cell_angle_gamma 90.000000
_cell_volume 4186.440135
_symmetry_space_group_name_H-M "P N N M"
_symmetry_group_IT_number 58
_symmetry_cell_setting 'orthorhombic'
loop_
_space_group_symop_operation_xyz
x,y,z
-x,-y,z
1/2+x,1/2-y,1/2-z
1/2-x,1/2+y,1/2-z
-x,-y,-z
x,y,-z
1/2-x,1/2+y,1/2+z
1/2+x,1/2-y,1/2+z
loop_
_atom_site_type_symbol
_atom_site_label
_atom_site_fract_x
_atom_site_fract_y
_atom_site_fract_z
Si Si1 0.093269 0.075281 0.798783
Si Si2 0.146395 0.358998 0.351637
Si Si3 0.203889 0.923978 0.055862
Si Si4 0.678999 0.188570 0.296725
Si Si5 0.124424 0.776947 0.210297
Si Si6 0.300217 0.188366 0.137218
Si Si7 0.144079 0.111306 0.054783
Si Si8 0.332522 0.967774 0.757478
O O1 0.201362 0.121887 0.834681
O O2 0.973554 0.141633 0.781940
O O3 0.203906 0.035037 0.760602
O O4 0.000000 0.000000 0.819887
O O5 0.186708 0.391856 0.403326
O O6 0.269696 0.293640 0.334809
O O7 0.160020 0.424544 0.309384
O O8 0.976090 0.326201 0.352538
O O9 0.035348 0.889780 0.066925
O O10 0.196570 0.019638 0.060639
O O11 0.238003 0.907092 0.000000
O O12 0.765508 0.236089 0.254574
O O13 0.501043 0.209325 0.294942
O O14 0.747819 0.225841 0.343856
O O15 0.702583 0.097876 0.282138
O O16 0.247505 0.170338 0.084503
O O17 0.154737 0.130550 0.000000
O O18 0.500000 0.000000 0.748983
#
# Coordination Sequence:
#
# PCOD9442783 Si02
#       8
#     8   8   8   8   8   8   8   8
#     4  11  19  31  47  67  86 126 154 197 229 282
#     4  11  20  31  45  66  94 126 162 200 232 275
#     4   9  18  31  47  68  92 123 162 203 236 269
#     4  10  20  33  46  66  89 123 156 201 233 288
#     4  10  21  31  47  64  93 121 164 193 243 275
#     4  11  22  31  48  65  94 123 162 193 238 280
#     4   9  19  32  47  66  92 124 161 199 238 278
#     4  11  21  33  47  70  93 120 164 198 241 275
#
# _framework density 15.287451000000001
#
# number of rings (size 3 to 8) (size 9 to 14) (size 15 to 20)
#    0.000    1.750    3.750    4.500    3.500    0.500 
#    0.000    1.250    0.000    0.000    0.000    0.000 
#    0.000    0.500    0.000    2.250    0.000    0.875 
#
# Total GULP energy -356812.807330 kJ/mol
# GULP energy per Si atom -5575.200115 kJ/mol
# Density = 1.525266 g / cm^3
# Si number density = 15.287451 Si / 1000 Ang^3
#
#
#
# Elastic Constant Matrix: (Units=GPa)
#
#
# Indices 1 2 3 4 5 6 
#
# 1 93.3443 18.4754 28.4585 0.0000 0.0000 0.0000
# 2 18.4754 30.5555 14.0181 0.0000 0.0000 0.0000
# 3 28.4585 14.0181 48.7495 0.0000 0.0000 0.0000
# 4 0.0000 0.0000 0.0000 25.3954 0.0000 0.0000
# 5 0.0000 0.0000 0.0000 0.0000 22.2319 0.0000
# 6 0.0000 0.0000 0.0000 0.0000 0.0000 22.8470
#
#
#
# Elastic Compliance Matrix: (Units=1/GPa)
#
#
# Indices 1 2 3 4 5 6 
#
# 1 0.013748 -0.005335 -0.006492 0.000000 0.000000 0.000000
# 2 -0.005335 0.039771 -0.008322 0.000000 0.000000 0.000000
# 3 -0.006492 -0.008322 0.026696 0.000000 0.000000 0.000000
# 4 0.000000 0.000000 0.000000 0.039377 0.000000 0.000000
# 5 0.000000 0.000000 0.000000 0.000000 0.044980 0.000000
# 6 0.000000 0.000000 0.000000 0.000000 0.000000 0.043769
#
#
# Mechanical properties :
#
#
# Convention : Reuss Voigt Hill
#
# Bulk Modulus (GPa) = 25.05143 32.72814 28.88979
# Shear Modulus (GPa) = 19.08802 21.54134 20.31468
#
# Velocity S-wave (km/s) = 3.53740 3.75785 3.64929
# Velocity P-wave (km/s) = 5.75385 6.34694 6.05765
#
# Compressibility (1/GPa) = 0.03991788
#
# Stress axis : x y z
#
# Youngs Moduli (GPa) = 72.73759 25.14407 37.45909
#
# Poissons Ratio (x) = 0.13413 0.24317
# Poissons Ratio (y) = 0.38802 0.31174
# Poissons Ratio (z) = 0.47219 0.20925
#
# Static dielectric constant tensor:
#      x y z
#    x 1.543110 0.000000 0.000000 
#    y 0.000000 1.521860 0.000000 
#    z 0.000000 0.000000 1.517790 
# 
# From -- ./inp_files/33409.got.cif
#   From: 2010.05.17/outbox.cif.g08.bks.cpg/sg58_17_cif.got.tgz:33409.got - 2010.06.03 14:20:14.
