data_PCOD9442595
_publ_section_title
;
Structure prediction by ZEFSAII (Michael W. Deem and Ramdas Pophale) SiO2 
 PCOD9442595
Probable space group: P N N M
;
_chemical_formula_sum "Si O2"
_cell_formula_units_Z 52
_cell_length_a 4.901839
_cell_length_b 31.238661
_cell_length_c 16.396300
_cell_angle_alpha 90.000000
_cell_angle_beta 90.000000
_cell_angle_gamma 90.000000
_cell_volume 2510.714374
_symmetry_space_group_name_H-M "P N N M"
_symmetry_group_IT_number 58
_symmetry_cell_setting 'orthorhombic'
loop_
_space_group_symop_operation_xyz
x,y,z
-x,-y,z
1/2+x,1/2-y,1/2-z
1/2-x,1/2+y,1/2-z
-x,-y,-z
x,y,-z
1/2-x,1/2+y,1/2+z
1/2+x,1/2-y,1/2+z
loop_
_atom_site_type_symbol
_atom_site_label
_atom_site_fract_x
_atom_site_fract_y
_atom_site_fract_z
Si Si1 0.557197 0.865714 0.328223
Si Si2 0.012740 0.278620 0.740795
Si Si3 0.784539 0.109311 0.091737
Si Si4 0.456556 0.415987 0.761654
Si Si5 0.717171 0.831060 0.091960
Si Si6 0.223336 0.106716 0.500000
Si Si7 0.788634 0.547219 0.000000
Si Si8 0.000000 0.000000 0.358139
O O1 0.468699 0.818382 0.302780
O O2 0.802060 0.881588 0.270095
O O3 0.684962 0.869094 0.418350
O O4 0.301229 0.897119 0.312197
O O5 0.303742 0.257106 0.727238
O O6 0.882872 0.297795 0.658571
O O7 0.859773 0.079919 0.168325
O O8 0.977335 0.151217 0.101011
O O9 0.479018 0.127216 0.097852
O O10 0.830060 0.092172 0.000000
O O11 0.568348 0.459611 0.801261
O O12 0.685620 0.814013 0.000000
O O13 0.407367 0.064124 0.500000
O O14 0.915624 0.088729 0.500000
O O15 0.719638 0.519785 0.920241
#
# Coordination Sequence:
#
# PCOD9442595 Si02
#       8
#     8   8   8   8   8   4   4   4
#     4  12  24  42  64  86 125 166 203 254 312 367
#     4  12  24  41  63  89 123 158 198 252 314 380
#     4  10  19  36  64  87 114 154 202 254 301 359
#     4  12  22  40  62  91 124 163 213 250 306 371
#     4  10  20  38  63  88 112 150 205 252 298 359
#     4  12  22  45  62  92 126 174 208 260 308 377
#     4  11  24  38  62  92 132 160 228 258 302 350
#     4  11  24  38  61  96 126 174 209 268 298 365
#
# _framework density 20.711238000000002
#
# number of rings (size 3 to 8) (size 9 to 14) (size 15 to 20)
#    0.000    0.769    6.154    1.846    0.000    3.077 
#    2.769    0.385    0.000    0.000    0.000    5.385 
#    0.000    0.000    0.000    0.000    0.000    0.000 
#
# Total GULP energy -290676.851482 kJ/mol
# GULP energy per Si atom -5589.939452 kJ/mol
# Density = 2.066410 g / cm^3
# Si number density = 20.711238 Si / 1000 Ang^3
#
#
#
# Elastic Constant Matrix: (Units=GPa)
#
#
# Indices 1 2 3 4 5 6 
#
# 1 66.4055 -1.4948 -9.8619 0.0000 0.0000 0.0000
# 2 -1.4948 80.2400 35.3576 0.0000 0.0000 0.0000
# 3 -9.8619 35.3576 137.1343 0.0000 0.0000 0.0000
# 4 0.0000 0.0000 0.0000 36.2638 0.0000 0.0000
# 5 0.0000 0.0000 0.0000 0.0000 17.9191 0.0000
# 6 0.0000 0.0000 0.0000 0.0000 0.0000 27.2569
#
#
#
# Elastic Compliance Matrix: (Units=1/GPa)
#
#
# Indices 1 2 3 4 5 6 
#
# 1 0.015225 -0.000224 0.001153 0.000000 0.000000 0.000000
# 2 -0.000224 0.014063 -0.003642 0.000000 0.000000 0.000000
# 3 0.001153 -0.003642 0.008314 0.000000 0.000000 0.000000
# 4 0.000000 0.000000 0.000000 0.027576 0.000000 0.000000
# 5 0.000000 0.000000 0.000000 0.000000 0.055806 0.000000
# 6 0.000000 0.000000 0.000000 0.000000 0.000000 0.036688
#
#
# Mechanical properties :
#
#
# Convention : Reuss Voigt Hill
#
# Bulk Modulus (GPa) = 31.07987 36.86462 33.97225
# Shear Modulus (GPa) = 28.76455 33.60655 31.18555
#
# Velocity S-wave (km/s) = 3.73075 4.03255 3.88458
# Velocity P-wave (km/s) = 5.79628 6.28649 6.04636
#
# Compressibility (1/GPa) = 0.03217516
#
# Stress axis : x y z
#
# Youngs Moduli (GPa) = 65.68082 71.10698 120.27804
#
# Poissons Ratio (x) = 0.01595 -0.13865
# Poissons Ratio (y) = 0.01473 0.43807
# Poissons Ratio (z) = -0.07571 0.25898
#
# Static dielectric constant tensor:
#      x y z
#    x 1.735190 0.000000 0.000000 
#    y 0.000000 1.726030 0.000000 
#    z 0.000000 0.000000 1.786930 
# 
# From -- ./inp_files/24414.got.cif
#   From: 2010.05.17/outbox.cif.g08.bks.cpg/sg58_13_cif.got.tgz:24414.got - 2010.06.03 14:20:14.
