data_PCOD9442333
_publ_section_title
;
Structure prediction by ZEFSAII (Michael W. Deem and Ramdas Pophale) SiO2 
 PCOD9442333
Probable space group: P N N M
;
_chemical_formula_sum "Si O2"
_cell_formula_units_Z 64
_cell_length_a 16.959110
_cell_length_b 19.694081
_cell_length_c 8.208339
_cell_angle_alpha 90.000000
_cell_angle_beta 90.000000
_cell_angle_gamma 90.000000
_cell_volume 2741.536682
_symmetry_space_group_name_H-M "P N N M"
_symmetry_group_IT_number 58
_symmetry_cell_setting 'orthorhombic'
loop_
_space_group_symop_operation_xyz
x,y,z
-x,-y,z
1/2+x,1/2-y,1/2-z
1/2-x,1/2+y,1/2-z
-x,-y,-z
x,y,-z
1/2-x,1/2+y,1/2+z
1/2+x,1/2-y,1/2+z
loop_
_atom_site_type_symbol
_atom_site_label
_atom_site_fract_x
_atom_site_fract_y
_atom_site_fract_z
Si Si1 0.341241 0.410841 0.813556
Si Si2 0.758914 0.707068 0.316226
Si Si3 0.577509 0.040498 0.198556
Si Si4 0.493301 0.575998 0.308518
Si Si5 0.506272 0.177614 0.193280
Si Si6 0.259713 0.029725 0.196919
Si Si7 0.673371 0.829385 0.193231
Si Si8 0.595699 0.296462 0.689456
O O1 0.270041 0.358212 0.782562
O O2 0.418402 0.394525 0.708384
O O3 0.310397 0.485812 0.769319
O O4 0.365281 0.406605 0.000000
O O5 0.769983 0.683478 0.500000
O O6 0.690119 0.762467 0.294288
O O7 0.834253 0.751986 0.265672
O O8 0.566173 0.118643 0.246485
O O9 0.500000 0.000000 0.253870
O O10 0.658661 0.006386 0.249395
O O11 0.576603 0.038986 0.000000
O O12 0.500000 0.500000 0.236993
O O13 0.473621 0.568630 0.500000
O O14 0.430523 0.630455 0.241017
O O15 0.417653 0.150090 0.211772
O O16 0.521317 0.246446 0.288377
O O17 0.517319 0.190850 0.000000
O O18 0.269671 0.108608 0.240083
O O19 0.254431 0.026508 0.000000
O O20 0.685247 0.814843 0.000000
O O21 0.615075 0.305491 0.500000
#
# Coordination Sequence:
#
# PCOD9442333 Si02
#       8
#     8   8   8   8   8   8   8   8
#     4  12  26  44  67  97 135 173 221 279 332 391
#     4  12  26  44  66  91 125 169 217 269 328 394
#     4   9  15  29  54  86 120 159 208 252 294 365
#     4  10  24  47  73  99 130 176 226 274 336 406
#     4  10  19  34  60  92 126 165 208 252 305 374
#     4  10  20  36  62  93 129 172 213 257 317 386
#     4  10  21  37  61  93 128 166 209 260 315 379
#     4  11  24  42  66  96 129 164 211 272 331 390
#
# _framework density 23.344571999999999
#
# number of rings (size 3 to 8) (size 9 to 14) (size 15 to 20)
#    0.000    1.500    1.250    4.125    1.750    5.250 
#    0.000    0.000    0.000    0.750    0.000    0.000 
#    0.000    0.000    0.000    0.000    0.000    0.000 
#
# Total GULP energy -357857.366549 kJ/mol
# GULP energy per Si atom -5591.521352 kJ/mol
# Density = 2.329144 g / cm^3
# Si number density = 23.344572 Si / 1000 Ang^3
#
#
#
# Elastic Constant Matrix: (Units=GPa)
#
#
# Indices 1 2 3 4 5 6 
#
# 1 65.6719 8.8820 -8.9257 0.0000 0.0000 0.0000
# 2 8.8820 107.5419 5.4313 0.0000 0.0000 0.0000
# 3 -8.9257 5.4313 19.1493 0.0000 0.0000 0.0000
# 4 0.0000 0.0000 0.0000 -3.9626 0.0000 0.0000
# 5 0.0000 0.0000 0.0000 0.0000 24.8534 0.0000
# 6 0.0000 0.0000 0.0000 0.0000 0.0000 39.2513
#
#
#
# Elastic Compliance Matrix: (Units=1/GPa)
#
#
# Indices 1 2 3 4 5 6 
#
# 1 0.016589 -0.001786 0.008239 0.000000 0.000000 0.000000
# 2 -0.001786 0.009626 -0.003563 0.000000 0.000000 0.000000
# 3 0.008239 -0.003563 0.057072 0.000000 0.000000 0.000000
# 4 0.000000 0.000000 0.000000 -0.252362 0.000000 0.000000
# 5 0.000000 0.000000 0.000000 0.000000 0.040236 0.000000
# 6 0.000000 0.000000 0.000000 0.000000 0.000000 0.025477
#
#
# Mechanical properties :
#
#
# Convention : Reuss Voigt Hill
#
# Bulk Modulus (GPa) = 11.22762 22.57091 16.89926
# Shear Modulus (GPa) = -62.92996 24.49346 -19.21825
#
# Velocity S-wave (km/s) = -5.19765 3.24267 -2.87233
# Velocity P-wave (km/s) = 5.58576 4.86924 1.93536
#
# Compressibility (1/GPa) = 0.08906611
#
# Stress axis : x y z
#
# Youngs Moduli (GPa) = 60.28251 103.88360 17.52178
#
# Poissons Ratio (x) = 0.18555 -0.14436
# Poissons Ratio (y) = 0.10767 0.06243
# Poissons Ratio (z) = -0.49665 0.37012
#
# Static dielectric constant tensor:
#      x y z
#    x 1.924150 0.000000 0.000000 
#    y 0.000000 1.887810 0.000000 
#    z 0.000000 0.000000 1.836840 
# 
# From -- ./inp_files/8306.got.cif
#   From: 2010.05.17/outbox.cif.g08.bks.cpg/sg58_5_cif.got.tgz:8306.got - 2010.06.03 14:20:14.
