data_PCOD9442420
_publ_section_title
;
Structure prediction by ZEFSAII (Michael W. Deem and Ramdas Pophale) SiO2 
 PCOD9442420
Probable space group: P N N M
;
_chemical_formula_sum "Si O2"
_cell_formula_units_Z 64
_cell_length_a 14.170463
_cell_length_b 9.110980
_cell_length_c 22.538690
_cell_angle_alpha 90.000000
_cell_angle_beta 90.000000
_cell_angle_gamma 90.000000
_cell_volume 2909.898254
_symmetry_space_group_name_H-M "P N N M"
_symmetry_group_IT_number 58
_symmetry_cell_setting 'orthorhombic'
loop_
_space_group_symop_operation_xyz
x,y,z
-x,-y,z
1/2+x,1/2-y,1/2-z
1/2-x,1/2+y,1/2-z
-x,-y,-z
x,y,-z
1/2-x,1/2+y,1/2+z
1/2+x,1/2-y,1/2+z
loop_
_atom_site_type_symbol
_atom_site_label
_atom_site_fract_x
_atom_site_fract_y
_atom_site_fract_z
Si Si1 0.496990 0.331808 0.733495
Si Si2 0.854713 0.448098 0.337495
Si Si3 0.268602 0.842733 0.931598
Si Si4 0.901655 0.932090 0.932016
Si Si5 0.538842 0.694801 0.126291
Si Si6 0.178156 0.271121 0.833317
Si Si7 0.857294 0.945061 0.431103
Si Si8 0.898832 0.446373 0.202432
O O1 0.500000 0.500000 0.715319
O O2 0.483376 0.328462 0.804374
O O3 0.599386 0.270949 0.715723
O O4 0.414394 0.230750 0.703882
O O5 0.822726 0.584436 0.376442
O O6 0.929752 0.361120 0.377182
O O7 0.771198 0.328082 0.324926
O O8 0.892280 0.484069 0.272564
O O9 0.171746 0.932953 0.930101
O O10 0.271322 0.667715 0.922177
O O11 0.305771 0.863670 0.000000
O O12 0.865258 0.795785 0.893631
O O13 0.911458 0.884420 0.000000
O O14 0.000000 0.000000 0.912005
O O15 0.450290 0.649857 0.086492
O O16 0.625850 0.590674 0.106878
O O17 0.179135 0.448882 0.828217
O O18 0.859811 0.986709 0.500000
O O19 0.000000 0.500000 0.177997
#
# Coordination Sequence:
#
# PCOD9442420 Si02
#       8
#     8   8   8   8   8   8   8   8
#     4  10  19  35  59  81 110 154 196 242 294 358
#     4  10  22  35  56  83 113 155 196 240 293 356
#     4   9  20  35  56  88 116 147 192 246 292 343
#     4   9  18  38  65  89 116 151 195 248 306 367
#     4  10  20  35  55  81 114 162 196 235 302 353
#     4  10  21  38  55  86 118 146 196 247 299 354
#     4  10  20  36  57  83 117 153 199 247 288 354
#     4   9  21  37  56  79 117 156 190 245 298 356
#
# _framework density 21.993897
#
# number of rings (size 3 to 8) (size 9 to 14) (size 15 to 20)
#    0.000    2.375    1.250    1.125    5.250    3.000 
#    0.000    8.750    0.000    3.375    0.000    0.000 
#    0.000    0.000    0.000    0.000    0.000    0.000 
#
# Total GULP energy -356759.073179 kJ/mol
# GULP energy per Si atom -5574.360518 kJ/mol
# Density = 2.194384 g / cm^3
# Si number density = 21.993897 Si / 1000 Ang^3
#
#
#
# Elastic Constant Matrix: (Units=GPa)
#
#
# Indices 1 2 3 4 5 6 
#
# 1 27.0648 18.9407 17.8906 0.0000 0.0000 0.0000
# 2 18.9407 114.4838 40.0605 0.0000 0.0000 0.0000
# 3 17.8906 40.0605 95.4826 0.0000 0.0000 0.0000
# 4 0.0000 0.0000 0.0000 44.7676 0.0000 0.0000
# 5 0.0000 0.0000 0.0000 0.0000 30.6643 0.0000
# 6 0.0000 0.0000 0.0000 0.0000 0.0000 35.2184
#
#
#
# Elastic Compliance Matrix: (Units=1/GPa)
#
#
# Indices 1 2 3 4 5 6 
#
# 1 0.044695 -0.005232 -0.006179 0.000000 0.000000 0.000000
# 2 -0.005232 0.010850 -0.003572 0.000000 0.000000 0.000000
# 3 -0.006179 -0.003572 0.013130 0.000000 0.000000 0.000000
# 4 0.000000 0.000000 0.000000 0.022338 0.000000 0.000000
# 5 0.000000 0.000000 0.000000 0.000000 0.032611 0.000000
# 6 0.000000 0.000000 0.000000 0.000000 0.000000 0.028394
#
#
# Mechanical properties :
#
#
# Convention : Reuss Voigt Hill
#
# Bulk Modulus (GPa) = 25.83460 43.42388 34.62924
# Shear Modulus (GPa) = 25.65584 32.80602 29.23093
#
# Velocity S-wave (km/s) = 3.41911 3.86631 3.64957
# Velocity P-wave (km/s) = 5.23057 6.30219 5.79122
#
# Compressibility (1/GPa) = 0.03870778
#
# Stress axis : x y z
#
# Youngs Moduli (GPa) = 22.37399 92.16213 76.16385
#
# Poissons Ratio (x) = 0.48222 0.47063
# Poissons Ratio (y) = 0.11707 0.27206
# Poissons Ratio (z) = 0.13825 0.32921
#
# Static dielectric constant tensor:
#      x y z
#    x 1.874040 0.000000 0.000000 
#    y 0.000000 1.885150 0.000000 
#    z 0.000000 0.000000 1.777830 
# 
# From -- ./inp_files/32228.got.cif
#   From: 2010.05.17/outbox.cif.g08.bks.cpg/sg58_17_cif.got.tgz:32228.got - 2010.06.03 14:20:14.
