data_PCOD9442432
_publ_section_title
;
Structure prediction by ZEFSAII (Michael W. Deem and Ramdas Pophale) SiO2 
 PCOD9442432
Probable space group: P N N M
;
_chemical_formula_sum "Si O2"
_cell_formula_units_Z 64
_cell_length_a 31.826877
_cell_length_b 12.061941
_cell_length_c 7.536819
_cell_angle_alpha 90.000000
_cell_angle_beta 90.000000
_cell_angle_gamma 90.000000
_cell_volume 2893.338934
_symmetry_space_group_name_H-M "P N N M"
_symmetry_group_IT_number 58
_symmetry_cell_setting 'orthorhombic'
loop_
_space_group_symop_operation_xyz
x,y,z
-x,-y,z
1/2+x,1/2-y,1/2-z
1/2-x,1/2+y,1/2-z
-x,-y,-z
x,y,-z
1/2-x,1/2+y,1/2+z
1/2+x,1/2-y,1/2+z
loop_
_atom_site_type_symbol
_atom_site_label
_atom_site_fract_x
_atom_site_fract_y
_atom_site_fract_z
Si Si1 0.376114 0.666051 0.792904
Si Si2 0.373333 0.409093 0.284477
Si Si3 0.198701 0.742152 0.783088
Si Si4 0.055390 0.743276 0.795155
Si Si5 0.070444 0.495688 0.784867
Si Si6 0.292346 0.777755 0.206266
Si Si7 0.462838 0.762371 0.794705
Si Si8 0.333465 0.001468 0.285839
O O1 0.374826 0.534027 0.781888
O O2 0.333264 0.716995 0.714379
O O3 0.419935 0.711680 0.715984
O O4 0.376729 0.700936 0.000000
O O5 0.373980 0.415299 0.500000
O O6 0.331471 0.342863 0.229616
O O7 0.413064 0.335415 0.222224
O O8 0.246460 0.752576 0.718519
O O9 0.178727 0.624976 0.728889
O O10 0.198960 0.743533 0.000000
O O11 0.059820 0.619192 0.719284
O O12 0.006643 0.774552 0.788687
O O13 0.068747 0.730910 0.000000
O O14 0.042075 0.395149 0.719388
O O15 0.118822 0.473461 0.733683
O O16 0.067017 0.494108 0.000000
O O17 0.302229 0.907962 0.217233
O O18 0.290188 0.743254 0.000000
O O19 0.465477 0.729908 0.000000
O O20 0.332086 0.999315 0.500000
#
# Coordination Sequence:
#
# PCOD9442432 Si02
#       8
#     8   8   8   8   8   8   8   8
#     4  10  23  40  55  78 115 153 184 224 278 331
#     4  10  21  39  61  83 109 144 189 236 277 327
#     4   9  19  37  60  85 114 148 184 230 284 328
#     4  10  21  38  59  84 112 142 183 233 285 330
#     4  10  19  35  59  85 114 144 179 229 282 329
#     4  10  21  38  58  82 117 154 185 224 278 333
#     4  11  23  38  56  81 115 150 186 225 274 335
#     4  10  19  35  61  87 112 145 186 230 277 328
#
# _framework density 22.119774
#
# number of rings (size 3 to 8) (size 9 to 14) (size 15 to 20)
#    0.000    2.000    2.500    0.750    1.750    4.500 
#    0.000    3.750    0.000    0.000    0.000    0.000 
#    0.000    0.000    0.000    0.000    0.000    0.000 
#
# Total GULP energy -357614.557264 kJ/mol
# GULP energy per Si atom -5587.727457 kJ/mol
# Density = 2.206943 g / cm^3
# Si number density = 22.119774 Si / 1000 Ang^3
#
#
#
# Elastic Constant Matrix: (Units=GPa)
#
#
# Indices 1 2 3 4 5 6 
#
# 1 126.3997 33.7362 -3.3588 0.0000 0.0000 0.0000
# 2 33.7362 102.7480 -14.1736 0.0000 0.0000 0.0000
# 3 -3.3588 -14.1736 52.3625 0.0000 0.0000 0.0000
# 4 0.0000 0.0000 0.0000 24.6610 0.0000 0.0000
# 5 0.0000 0.0000 0.0000 0.0000 9.7451 0.0000
# 6 0.0000 0.0000 0.0000 0.0000 0.0000 25.4807
#
#
#
# Elastic Compliance Matrix: (Units=1/GPa)
#
#
# Indices 1 2 3 4 5 6 
#
# 1 0.008674 -0.002879 -0.000223 0.000000 0.000000 0.000000
# 2 -0.002879 0.011065 0.002811 0.000000 0.000000 0.000000
# 3 -0.000223 0.002811 0.019844 0.000000 0.000000 0.000000
# 4 0.000000 0.000000 0.000000 0.040550 0.000000 0.000000
# 5 0.000000 0.000000 0.000000 0.000000 0.102616 0.000000
# 6 0.000000 0.000000 0.000000 0.000000 0.000000 0.039245
#
#
# Mechanical properties :
#
#
# Convention : Reuss Voigt Hill
#
# Bulk Modulus (GPa) = 25.64005 34.87974 30.25990
# Shear Modulus (GPa) = 21.22451 29.66445 25.44448
#
# Velocity S-wave (km/s) = 3.10098 3.66605 3.39529
# Velocity P-wave (km/s) = 4.94349 5.80713 5.39263
#
# Compressibility (1/GPa) = 0.03900149
#
# Stress axis : x y z
#
# Youngs Moduli (GPa) = 115.28946 90.37138 50.39275
#
# Poissons Ratio (x) = 0.26015 0.01123
# Poissons Ratio (y) = 0.33188 -0.14163
# Poissons Ratio (z) = 0.02569 -0.25400
#
# Static dielectric constant tensor:
#      x y z
#    x 1.814860 0.000000 0.000000 
#    y 0.000000 1.757350 0.000000 
#    z 0.000000 0.000000 1.806780 
# 
# From -- ./inp_files/4671.got.cif
#   From: 2010.05.17/outbox.cif.g08.bks.cpg/sg58_3_cif.got.tgz:4671.got - 2010.06.03 14:20:14.
