data_PCOD9442722
_publ_section_title
;
Structure prediction by ZEFSAII (Michael W. Deem and Ramdas Pophale) SiO2 
 PCOD9442722
Probable space group: P N N M
;
_chemical_formula_sum "Si O2"
_cell_formula_units_Z 64
_cell_length_a 9.353384
_cell_length_b 11.732154
_cell_length_c 27.579207
_cell_angle_alpha 90.000000
_cell_angle_beta 90.000000
_cell_angle_gamma 90.000000
_cell_volume 3026.413699
_symmetry_space_group_name_H-M "P N N M"
_symmetry_group_IT_number 58
_symmetry_cell_setting 'orthorhombic'
loop_
_space_group_symop_operation_xyz
x,y,z
-x,-y,z
1/2+x,1/2-y,1/2-z
1/2-x,1/2+y,1/2-z
-x,-y,-z
x,y,-z
1/2-x,1/2+y,1/2+z
1/2+x,1/2-y,1/2+z
loop_
_atom_site_type_symbol
_atom_site_label
_atom_site_fract_x
_atom_site_fract_y
_atom_site_fract_z
Si Si1 0.705876 0.210371 0.945335
Si Si2 0.484438 0.623763 0.894246
Si Si3 0.868776 0.150954 0.203896
Si Si4 0.136055 0.197501 0.858897
Si Si5 0.306976 0.368138 0.194534
Si Si6 0.788444 0.394298 0.824087
Si Si7 0.469959 0.127421 0.416948
Si Si8 0.670955 0.018253 0.863933
O O1 0.562520 0.281264 0.931998
O O2 0.841486 0.297905 0.940643
O O3 0.709801 0.109878 0.905860
O O4 0.702061 0.166994 0.000000
O O5 0.500000 0.500000 0.918167
O O6 0.616087 0.637998 0.857802
O O7 0.353859 0.620006 0.856165
O O8 0.911947 0.131294 0.259540
O O9 0.813223 0.280520 0.205102
O O10 0.739975 0.071627 0.184896
O O11 0.991393 0.142570 0.163203
O O12 0.197081 0.265882 0.812367
O O13 0.097326 0.284007 0.903325
O O14 0.248039 0.100518 0.873267
O O15 0.223439 0.485737 0.201236
O O16 0.911888 0.399608 0.863581
O O17 0.500000 0.000000 0.438604
O O18 0.500000 0.000000 0.861040
#
# Coordination Sequence:
#
# PCOD9442722 Si02
#       8
#     8   8   8   8   8   8   8   8
#     4  11  24  45  72  98 135 181 231 297 359 414
#     4   9  19  38  64  92 131 170 220 279 344 408
#     4  11  25  40  63  97 139 183 233 283 339 416
#     4  11  24  39  68  93 136 190 224 280 350 405
#     4  11  23  36  65  99 134 179 231 279 342 418
#     4   9  19  38  58  88 127 177 213 276 341 393
#     4  10  19  42  68  97 133 169 216 282 354 423
#     4  12  26  46  67  95 139 190 238 293 344 407
#
# _framework density 21.147141999999999
#
# number of rings (size 3 to 8) (size 9 to 14) (size 15 to 20)
#    0.000    1.500    5.000    1.125    3.500    2.750 
#    2.250    1.250    0.000    0.000    0.000    0.000 
#    0.000    0.000    0.000    0.000    0.000    0.000 
#
# Total GULP energy -356740.219883 kJ/mol
# GULP energy per Si atom -5574.065936 kJ/mol
# Density = 2.109901 g / cm^3
# Si number density = 21.147142 Si / 1000 Ang^3
#
#
#
# Elastic Constant Matrix: (Units=GPa)
#
#
# Indices 1 2 3 4 5 6 
#
# 1 93.7898 44.6029 7.3229 0.0000 0.0000 0.0000
# 2 44.6029 120.4569 12.0889 0.0000 0.0000 0.0000
# 3 7.3229 12.0889 57.5482 0.0000 0.0000 0.0000
# 4 0.0000 0.0000 0.0000 -166.6561 0.0000 0.0000
# 5 0.0000 0.0000 0.0000 0.0000 11.5340 0.0000
# 6 0.0000 0.0000 0.0000 0.0000 0.0000 40.1096
#
#
#
# Elastic Compliance Matrix: (Units=1/GPa)
#
#
# Indices 1 2 3 4 5 6 
#
# 1 0.012965 -0.004735 -0.000655 0.000000 0.000000 0.000000
# 2 -0.004735 0.010210 -0.001542 0.000000 0.000000 0.000000
# 3 -0.000655 -0.001542 0.017784 0.000000 0.000000 0.000000
# 4 0.000000 0.000000 0.000000 -0.006000 0.000000 0.000000
# 5 0.000000 0.000000 0.000000 0.000000 0.086700 0.000000
# 6 0.000000 0.000000 0.000000 0.000000 0.000000 0.024932
#
#
# Mechanical properties :
#
#
# Convention : Reuss Voigt Hill
#
# Bulk Modulus (GPa) = 36.90815 44.42493 40.66654
# Shear Modulus (GPa) = 29.50094 -9.15047 10.17524
#
# Velocity S-wave (km/s) = 3.73906 -2.08241 2.19592
# Velocity P-wave (km/s) = 6.01097 3.90784 5.06966
#
# Compressibility (1/GPa) = 0.02709429
#
# Stress axis : x y z
#
# Youngs Moduli (GPa) = 77.13036 97.94547 56.23014
#
# Poissons Ratio (x) = 0.46377 0.03684
# Poissons Ratio (y) = 0.36521 0.08672
# Poissons Ratio (z) = 0.05053 0.15105
#
# Static dielectric constant tensor:
#      x y z
#    x 1.837550 0.000000 0.000000 
#    y 0.000000 1.850330 0.000000 
#    z 0.000000 0.000000 1.720740 
# 
# From -- ./inp_files/34772.got.cif
#   From: 2010.05.17/outbox.cif.g08.bks.cpg/sg58_18_cif.got.tgz:34772.got - 2010.06.03 14:20:14.
