data_PCOD9442370
_publ_section_title
;
Structure prediction by ZEFSAII (Michael W. Deem and Ramdas Pophale) SiO2 
 PCOD9442370
Probable space group: P N N M
;
_chemical_formula_sum "Si O2"
_cell_formula_units_Z 64
_cell_length_a 29.358344
_cell_length_b 12.720363
_cell_length_c 8.462122
_cell_angle_alpha 90.000000
_cell_angle_beta 90.000000
_cell_angle_gamma 90.000000
_cell_volume 3160.169245
_symmetry_space_group_name_H-M "P N N M"
_symmetry_group_IT_number 58
_symmetry_cell_setting 'orthorhombic'
loop_
_space_group_symop_operation_xyz
x,y,z
-x,-y,z
1/2+x,1/2-y,1/2-z
1/2-x,1/2+y,1/2-z
-x,-y,-z
x,y,-z
1/2-x,1/2+y,1/2+z
1/2+x,1/2-y,1/2+z
loop_
_atom_site_type_symbol
_atom_site_label
_atom_site_fract_x
_atom_site_fract_y
_atom_site_fract_z
Si Si1 0.595316 0.419499 0.809056
Si Si2 0.709693 0.917250 0.813868
Si Si3 0.971190 0.734929 0.690312
Si Si4 0.560268 0.641667 0.189602
Si Si5 0.616813 0.824074 0.311519
Si Si6 0.929452 0.533689 0.184626
Si Si7 0.189750 0.142941 0.189642
Si Si8 0.338634 0.867888 0.815258
O O1 0.570844 0.310718 0.759929
O O2 0.567174 0.522080 0.755680
O O3 0.646786 0.424434 0.748212
O O4 0.596018 0.419369 0.000000
O O5 0.668197 0.857636 0.729532
O O6 0.760378 0.893547 0.755901
O O7 0.698537 0.040522 0.800883
O O8 0.707140 0.889697 0.000000
O O9 0.971809 0.733697 0.500000
O O10 0.965960 0.614592 0.744550
O O11 0.015961 0.795863 0.749344
O O12 0.602669 0.714400 0.235627
O O13 0.556101 0.636766 0.000000
O O14 0.611978 0.818514 0.500000
O O15 0.582596 0.917245 0.250856
O O16 0.881839 0.594434 0.214979
O O17 0.938987 0.523226 0.000000
O O18 0.180421 0.258570 0.256338
O O19 0.189432 0.143697 0.000000
O O20 0.352752 0.860373 0.000000
#
# Coordination Sequence:
#
# PCOD9442370 Si02
#       8
#     8   8   8   8   8   8   8   8
#     4  10  21  38  59  84 115 152 195 240 285 338
#     4   9  21  39  58  81 112 150 191 234 284 343
#     4  10  20  36  60  87 114 151 197 241 287 342
#     4  10  22  39  59  84 118 158 196 237 287 346
#     4  10  22  39  58  83 116 153 192 239 293 346
#     4  10  20  35  57  84 114 147 188 240 290 336
#     4  11  22  36  57  87 117 146 186 237 290 343
#     4  10  19  35  57  80 109 148 189 232 282 337
#
# _framework density 20.252079999999999
#
# number of rings (size 3 to 8) (size 9 to 14) (size 15 to 20)
#    0.000    2.000    1.250    1.875    0.000    7.000 
#    0.000    5.000    0.000    2.250    0.000    0.000 
#    0.000    0.000    0.000    0.000    0.000    0.000 
#
# Total GULP energy -357316.179996 kJ/mol
# GULP energy per Si atom -5583.065312 kJ/mol
# Density = 2.020599 g / cm^3
# Si number density = 20.252080 Si / 1000 Ang^3
#
#
#
# Elastic Constant Matrix: (Units=GPa)
#
#
# Indices 1 2 3 4 5 6 
#
# 1 62.5072 -10.1605 -5.2510 0.0000 0.0000 0.0000
# 2 -10.1605 52.7128 -1.3237 0.0000 0.0000 0.0000
# 3 -5.2510 -1.3237 9.5635 0.0000 0.0000 0.0000
# 4 0.0000 0.0000 0.0000 22.0476 0.0000 0.0000
# 5 0.0000 0.0000 0.0000 0.0000 15.6217 0.0000
# 6 0.0000 0.0000 0.0000 0.0000 0.0000 24.4620
#
#
#
# Elastic Compliance Matrix: (Units=1/GPa)
#
#
# Indices 1 2 3 4 5 6 
#
# 1 0.017431 0.003613 0.010071 0.000000 0.000000 0.000000
# 2 0.003613 0.019786 0.004722 0.000000 0.000000 0.000000
# 3 0.010071 0.004722 0.110747 0.000000 0.000000 0.000000
# 4 0.000000 0.000000 0.000000 0.045357 0.000000 0.000000
# 5 0.000000 0.000000 0.000000 0.000000 0.064014 0.000000
# 6 0.000000 0.000000 0.000000 0.000000 0.000000 0.040880
#
#
# Mechanical properties :
#
#
# Convention : Reuss Voigt Hill
#
# Bulk Modulus (GPa) = 5.41194 10.14591 7.77892
# Shear Modulus (GPa) = 15.48015 21.86084 18.67050
#
# Velocity S-wave (km/s) = 2.76773 3.28904 3.03958
# Velocity P-wave (km/s) = 3.59052 4.40958 4.02096
#
# Compressibility (1/GPa) = 0.18477657
#
# Stress axis : x y z
#
# Youngs Moduli (GPa) = 57.36757 50.54161 9.02957
#
# Poissons Ratio (x) = -0.18260 -0.09094
# Poissons Ratio (y) = -0.20726 -0.04264
# Poissons Ratio (z) = -0.57775 -0.23867
#
# Static dielectric constant tensor:
#      x y z
#    x 1.737230 0.000000 0.000000 
#    y 0.000000 1.715700 0.000000 
#    z 0.000000 0.000000 1.703180 
# 
# From -- ./inp_files/10937.got.cif
#   From: 2010.05.17/outbox.cif.g08.bks.cpg/sg58_6_cif.got.tgz:10937.got - 2010.06.03 14:20:14.
