data_PCOD9442979
_publ_section_title
;
Structure prediction by ZEFSAII (Michael W. Deem and Ramdas Pophale) SiO2 
 PCOD9442979
Probable space group: P N N M
;
_chemical_formula_sum "Si O2"
_cell_formula_units_Z 64
_cell_length_a 20.443581
_cell_length_b 17.872763
_cell_length_c 7.438693
_cell_angle_alpha 90.000000
_cell_angle_beta 90.000000
_cell_angle_gamma 90.000000
_cell_volume 2717.974033
_symmetry_space_group_name_H-M "P N N M"
_symmetry_group_IT_number 58
_symmetry_cell_setting 'orthorhombic'
loop_
_space_group_symop_operation_xyz
x,y,z
-x,-y,z
1/2+x,1/2-y,1/2-z
1/2-x,1/2+y,1/2-z
-x,-y,-z
x,y,-z
1/2-x,1/2+y,1/2+z
1/2+x,1/2-y,1/2+z
loop_
_atom_site_type_symbol
_atom_site_label
_atom_site_fract_x
_atom_site_fract_y
_atom_site_fract_z
Si Si1 0.278449 0.836907 0.293711
Si Si2 0.986060 0.674417 0.716943
Si Si3 0.007025 0.159168 0.788845
Si Si4 0.614146 0.050967 0.794512
Si Si5 0.133730 0.883521 0.782181
Si Si6 0.767634 0.826993 0.219908
Si Si7 0.877345 0.943754 0.780617
Si Si8 0.873621 0.381986 0.719800
O O1 0.300164 0.838422 0.500000
O O2 0.317683 0.904205 0.203841
O O3 0.200810 0.848863 0.286504
O O4 0.291606 0.754358 0.218196
O O5 0.984509 0.672683 0.500000
O O6 0.965105 0.757529 0.770525
O O7 0.939116 0.608153 0.784151
O O8 0.060393 0.659626 0.776098
O O9 0.056814 0.097283 0.716488
O O10 0.933085 0.155334 0.717668
O O11 0.000996 0.142360 0.000000
O O12 0.622314 0.968262 0.717802
O O13 0.592541 0.038066 0.000000
O O14 0.129071 0.970418 0.727671
O O15 0.137424 0.879658 0.000000
O O16 0.815934 0.893221 0.274491
O O17 0.693709 0.843943 0.278457
O O18 0.767580 0.824544 0.000000
O O19 0.878437 0.943365 0.000000
O O20 0.871960 0.381740 0.500000
#
# Coordination Sequence:
#
# PCOD9442979 Si02
#       8
#     8   8   8   8   8   8   8   8
#     4  11  22  35  53  79 110 139 168 212 272 329
#     4  10  20  34  54  80 109 141 177 219 265 312
#     4  10  20  34  54  80 109 141 177 219 265 312
#     4  10  20  35  56  79 103 137 182 225 260 303
#     4  10  20  35  56  79 103 137 182 225 260 303
#     4   9  17  29  49  75 102 135 172 212 258 307
#     4   9  17  32  54  78 103 135 178 220 255 299
#     4   9  17  32  54  78 103 135 178 220 255 299
#
# _framework density 23.546949000000001
#
# number of rings (size 3 to 8) (size 9 to 14) (size 15 to 20)
#    0.000    2.250    0.000    3.375    0.000    8.000 
#    0.000    1.250    0.000   12.000    0.000    0.000 
#    0.000    0.000    0.000    0.000    0.000    0.000 
#
# Total GULP energy -357918.985479 kJ/mol
# GULP energy per Si atom -5592.484148 kJ/mol
# Density = 2.349336 g / cm^3
# Si number density = 23.546949 Si / 1000 Ang^3
#
#
#
# Elastic Constant Matrix: (Units=GPa)
#
#
# Indices 1 2 3 4 5 6 
#
# 1 83.4542 -4.6897 -5.0979 0.0000 0.0000 0.0000
# 2 -4.6897 100.9295 -8.1650 0.0000 0.0000 0.0000
# 3 -5.0979 -8.1650 73.9289 0.0000 0.0000 0.0000
# 4 0.0000 0.0000 0.0000 8.8487 0.0000 0.0000
# 5 0.0000 0.0000 0.0000 0.0000 -26.7754 0.0000
# 6 0.0000 0.0000 0.0000 0.0000 0.0000 46.3652
#
#
#
# Elastic Compliance Matrix: (Units=1/GPa)
#
#
# Indices 1 2 3 4 5 6 
#
# 1 0.012073 0.000634 0.000903 0.000000 0.000000 0.000000
# 2 0.000634 0.010031 0.001152 0.000000 0.000000 0.000000
# 3 0.000903 0.001152 0.013716 0.000000 0.000000 0.000000
# 4 0.000000 0.000000 0.000000 0.113011 0.000000 0.000000
# 5 0.000000 0.000000 0.000000 0.000000 -0.037348 0.000000
# 6 0.000000 0.000000 0.000000 0.000000 0.000000 0.021568
#
#
# Mechanical properties :
#
#
# Convention : Reuss Voigt Hill
#
# Bulk Modulus (GPa) = 24.27416 24.71191 24.49303
# Shear Modulus (GPa) = 35.35894 24.10538 29.73216
#
# Velocity S-wave (km/s) = 3.87930 3.20303 3.55727
# Velocity P-wave (km/s) = 5.51330 4.91901 5.22461
#
# Compressibility (1/GPa) = 0.04119607
#
# Stress axis : x y z
#
# Youngs Moduli (GPa) = 82.82678 99.69568 72.90797
#
# Poissons Ratio (x) = -0.06321 -0.06580
# Poissons Ratio (y) = -0.05251 -0.08396
# Poissons Ratio (z) = -0.07476 -0.11480
#
# Static dielectric constant tensor:
#      x y z
#    x 1.853890 0.000000 0.000000 
#    y 0.000000 1.827180 0.000000 
#    z 0.000000 0.000000 1.909810 
# 
# From -- ./inp_files/9300.got.cif
#   From: 2010.05.17/outbox.cif.g08.bks.cpg/sg58_5_cif.got.tgz:9300.got - 2010.06.03 14:20:14.
