data_PCOD9442524
_publ_section_title
;
Structure prediction by ZEFSAII (Michael W. Deem and Ramdas Pophale) SiO2 
 PCOD9442524
Probable space group: P N N M
;
_chemical_formula_sum "Si O2"
_cell_formula_units_Z 64
_cell_length_a 14.003060
_cell_length_b 9.420397
_cell_length_c 25.418768
_cell_angle_alpha 90.000000
_cell_angle_beta 90.000000
_cell_angle_gamma 90.000000
_cell_volume 3353.101133
_symmetry_space_group_name_H-M "P N N M"
_symmetry_group_IT_number 58
_symmetry_cell_setting 'orthorhombic'
loop_
_space_group_symop_operation_xyz
x,y,z
-x,-y,z
1/2+x,1/2-y,1/2-z
1/2-x,1/2+y,1/2-z
-x,-y,-z
x,y,-z
1/2-x,1/2+y,1/2+z
1/2+x,1/2-y,1/2+z
loop_
_atom_site_type_symbol
_atom_site_label
_atom_site_fract_x
_atom_site_fract_y
_atom_site_fract_z
Si Si1 0.092276 0.916024 0.857531
Si Si2 0.126495 0.699278 0.303888
Si Si3 0.887005 0.986007 0.334439
Si Si4 0.739486 0.053927 0.941116
Si Si5 0.901230 0.825701 0.559103
Si Si6 0.497866 0.166809 0.300583
Si Si7 0.067652 0.627876 0.416718
Si Si8 0.163689 0.128988 0.772952
O O1 0.180540 0.933872 0.896643
O O2 0.060060 0.756838 0.844033
O O3 0.117480 0.992907 0.802049
O O4 0.000000 0.000000 0.878742
O O5 0.056377 0.693532 0.254531
O O6 0.076018 0.628445 0.353771
O O7 0.226276 0.630004 0.288412
O O8 0.151895 0.858061 0.322875
O O9 0.875214 0.929223 0.393263
O O10 0.846632 0.882205 0.289764
O O11 0.000000 0.000000 0.324812
O O12 0.667725 0.188272 0.935927
O O13 0.673311 0.913195 0.935739
O O14 0.780432 0.057681 0.000000
O O15 0.891352 0.883179 0.500000
O O16 0.010194 0.768536 0.566731
O O17 0.602433 0.237672 0.294030
O O18 0.500000 0.000000 0.311201
O O19 0.000000 0.500000 0.435314
#
# Coordination Sequence:
#
# PCOD9442524 Si02
#       8
#     8   8   8   8   8   8   8   8
#     4  10  21  41  62  85 120 157 201 252 307 362
#     4  12  23  36  60  90 118 161 201 244 304 363
#     4  12  22  40  58  84 123 161 203 248 299 370
#     4  10  21  38  61  88 116 153 203 256 306 360
#     4  10  22  37  59  87 124 165 201 249 306 366
#     4  11  24  38  57  90 123 156 200 246 305 368
#     4  10  19  36  58  87 121 152 198 248 302 359
#     4  11  23  40  61  86 124 161 202 251 305 365
#
# _framework density 19.086808999999999
#
# number of rings (size 3 to 8) (size 9 to 14) (size 15 to 20)
#    0.000    1.250    5.000    1.125    3.500    3.000 
#    0.000    0.000    0.000    0.375    0.000    0.000 
#    0.000    0.000    0.000    0.000    0.000    0.000 
#
# Total GULP energy -357375.120914 kJ/mol
# GULP energy per Si atom -5583.986264 kJ/mol
# Density = 1.904337 g / cm^3
# Si number density = 19.086809 Si / 1000 Ang^3
#
#
#
# Elastic Constant Matrix: (Units=GPa)
#
#
# Indices 1 2 3 4 5 6 
#
# 1 67.8229 7.7305 40.5650 0.0000 0.0000 0.0000
# 2 7.7305 87.3253 28.6338 0.0000 0.0000 0.0000
# 3 40.5650 28.6338 117.2164 0.0000 0.0000 0.0000
# 4 0.0000 0.0000 0.0000 16.5827 0.0000 0.0000
# 5 0.0000 0.0000 0.0000 0.0000 20.6013 0.0000
# 6 0.0000 0.0000 0.0000 0.0000 0.0000 16.6585
#
#
#
# Elastic Compliance Matrix: (Units=1/GPa)
#
#
# Indices 1 2 3 4 5 6 
#
# 1 0.018613 0.000505 -0.006565 0.000000 0.000000 0.000000
# 2 0.000505 0.012462 -0.003219 0.000000 0.000000 0.000000
# 3 -0.006565 -0.003219 0.011589 0.000000 0.000000 0.000000
# 4 0.000000 0.000000 0.000000 0.060304 0.000000 0.000000
# 5 0.000000 0.000000 0.000000 0.000000 0.048541 0.000000
# 6 0.000000 0.000000 0.000000 0.000000 0.000000 0.060029
#
#
# Mechanical properties :
#
#
# Convention : Reuss Voigt Hill
#
# Bulk Modulus (GPa) = 41.48181 47.35815 44.41998
# Shear Modulus (GPa) = 20.99674 23.79752 22.39713
#
# Velocity S-wave (km/s) = 3.32032 3.53484 3.42926
# Velocity P-wave (km/s) = 6.03985 6.44407 6.24523
#
# Compressibility (1/GPa) = 0.02410695
#
# Stress axis : x y z
#
# Youngs Moduli (GPa) = 53.72553 80.24233 86.28552
#
# Poissons Ratio (x) = -0.04051 0.56644
# Poissons Ratio (y) = -0.02712 0.27775
# Poissons Ratio (z) = 0.35269 0.25830
#
# Static dielectric constant tensor:
#      x y z
#    x 1.658930 0.000000 0.000000 
#    y 0.000000 1.710600 0.000000 
#    z 0.000000 0.000000 1.661580 
# 
# From -- ./inp_files/31611.got.cif
#   From: 2010.05.17/outbox.cif.g08.bks.cpg/sg58_16_cif.got.tgz:31611.got - 2010.06.03 14:20:14.
