data_PCOD9442994
_publ_section_title
;
Structure prediction by ZEFSAII (Michael W. Deem and Ramdas Pophale) SiO2 
 PCOD9442994
Probable space group: P N N M
;
_chemical_formula_sum "Si O2"
_cell_formula_units_Z 56
_cell_length_a 15.083717
_cell_length_b 22.019190
_cell_length_c 9.086909
_cell_angle_alpha 90.000000
_cell_angle_beta 90.000000
_cell_angle_gamma 90.000000
_cell_volume 3018.046268
_symmetry_space_group_name_H-M "P N N M"
_symmetry_group_IT_number 58
_symmetry_cell_setting 'orthorhombic'
loop_
_space_group_symop_operation_xyz
x,y,z
-x,-y,z
1/2+x,1/2-y,1/2-z
1/2-x,1/2+y,1/2-z
-x,-y,-z
x,y,-z
1/2-x,1/2+y,1/2+z
1/2+x,1/2-y,1/2+z
loop_
_atom_site_type_symbol
_atom_site_label
_atom_site_fract_x
_atom_site_fract_y
_atom_site_fract_z
Si Si1 0.671439 0.223068 0.827663
Si Si2 0.661706 0.894389 0.328599
Si Si3 0.009962 0.929869 0.821116
Si Si4 0.660509 0.351739 0.676299
Si Si5 0.205494 0.887100 0.822275
Si Si6 0.140440 0.461883 0.172191
Si Si7 0.511866 0.127786 0.827747
O O1 0.660762 0.282619 0.731344
O O2 0.754675 0.179553 0.787597
O O3 0.584239 0.181114 0.812864
O O4 0.680763 0.239681 0.000000
O O5 0.670193 0.878430 0.500000
O O6 0.752308 0.881652 0.244705
O O7 0.579407 0.859758 0.255343
O O8 0.640772 0.965893 0.316702
O O9 0.927003 0.888669 0.774365
O O10 0.104460 0.900726 0.779028
O O11 0.009075 0.931056 0.000000
O O12 0.000000 0.000000 0.771694
O O13 0.664153 0.354074 0.500000
O O14 0.270530 0.934735 0.743981
O O15 0.213736 0.894171 0.000000
O O16 0.059557 0.430525 0.256702
O O17 0.135533 0.445144 0.000000
O O18 0.495113 0.117662 0.000000
#
# Coordination Sequence:
#
# PCOD9442994 Si02
#       7
#     8   8   8   8   8   8   8
#     4   9  20  38  56  79 112 145 179 224 281 337
#     4  11  23  37  54  79 114 150 181 224 280 330
#     4   9  18  34  57  84 110 138 181 236 285 329
#     4  11  23  37  57  83 109 144 191 236 278 333
#     4   9  18  35  59  82 108 147 187 226 279 338
#     4  10  20  34  54  84 117 146 179 222 277 334
#     4  10  21  37  59  84 110 145 186 226 272 332
#
# _framework density 18.555049
#
# number of rings (size 3 to 8) (size 9 to 14) (size 15 to 20)
#    0.000    2.143    0.000    3.857    0.000    9.143 
#    0.000    2.857    0.000    3.857    0.000    0.000 
#    0.000    0.000    0.000    0.000    0.000    0.000 
#
# Total GULP energy -312671.074297 kJ/mol
# GULP energy per Si atom -5583.412041 kJ/mol
# Density = 1.851282 g / cm^3
# Si number density = 18.555049 Si / 1000 Ang^3
#
#
#
# Elastic Constant Matrix: (Units=GPa)
#
#
# Indices 1 2 3 4 5 6 
#
# 1 155.7233 47.8703 44.6707 0.0000 0.0000 0.0000
# 2 47.8703 79.2579 42.8227 0.0000 0.0000 0.0000
# 3 44.6707 42.8227 71.2900 0.0000 0.0000 0.0000
# 4 0.0000 0.0000 0.0000 29.4785 0.0000 0.0000
# 5 0.0000 0.0000 0.0000 0.0000 21.5731 0.0000
# 6 0.0000 0.0000 0.0000 0.0000 0.0000 11.0879
#
#
#
# Elastic Compliance Matrix: (Units=1/GPa)
#
#
# Indices 1 2 3 4 5 6 
#
# 1 0.008371 -0.003289 -0.003269 0.000000 0.000000 0.000000
# 2 -0.003289 0.019972 -0.009936 0.000000 0.000000 0.000000
# 3 -0.003269 -0.009936 0.022044 0.000000 0.000000 0.000000
# 4 0.000000 0.000000 0.000000 0.033923 0.000000 0.000000
# 5 0.000000 0.000000 0.000000 0.000000 0.046354 0.000000
# 6 0.000000 0.000000 0.000000 0.000000 0.000000 0.090189
#
#
# Mechanical properties :
#
#
# Convention : Reuss Voigt Hill
#
# Bulk Modulus (GPa) = 57.47793 64.11095 60.79444
# Shear Modulus (GPa) = 19.25742 23.82172 21.53957
#
# Velocity S-wave (km/s) = 3.22507 3.58696 3.41082
# Velocity P-wave (km/s) = 6.70166 7.19596 6.95320
#
# Compressibility (1/GPa) = 0.01739798
#
# Stress axis : x y z
#
# Youngs Moduli (GPa) = 119.46544 50.07024 45.36398
#
# Poissons Ratio (x) = 0.16470 0.14830
# Poissons Ratio (y) = 0.39296 0.45072
# Poissons Ratio (z) = 0.39056 0.49748
#
# Static dielectric constant tensor:
#      x y z
#    x 1.634430 0.000000 0.000000 
#    y 0.000000 1.628920 0.000000 
#    z 0.000000 0.000000 1.623390 
# 
# From -- ./inp_files/6240.got.cif
#   From: 2010.05.17/outbox.cif.g08.bks.cpg/sg58_4_cif.got.tgz:6240.got - 2010.06.03 14:20:14.
