data_PCOD9442481
_publ_section_title
;
Structure prediction by ZEFSAII (Michael W. Deem and Ramdas Pophale) SiO2 
 PCOD9442481
Probable space group: P N N M
;
_chemical_formula_sum "Si O2"
_cell_formula_units_Z 64
_cell_length_a 15.758426
_cell_length_b 24.233990
_cell_length_c 8.854075
_cell_angle_alpha 90.000000
_cell_angle_beta 90.000000
_cell_angle_gamma 90.000000
_cell_volume 3381.278612
_symmetry_space_group_name_H-M "P N N M"
_symmetry_group_IT_number 58
_symmetry_cell_setting 'orthorhombic'
loop_
_space_group_symop_operation_xyz
x,y,z
-x,-y,z
1/2+x,1/2-y,1/2-z
1/2-x,1/2+y,1/2-z
-x,-y,-z
x,y,-z
1/2-x,1/2+y,1/2+z
1/2+x,1/2-y,1/2+z
loop_
_atom_site_type_symbol
_atom_site_label
_atom_site_fract_x
_atom_site_fract_y
_atom_site_fract_z
Si Si1 0.252554 0.555277 0.181697
Si Si2 0.589659 0.641327 0.679536
Si Si3 0.411997 0.630426 0.818522
Si Si4 0.600158 0.875825 0.182068
Si Si5 0.653106 0.751616 0.819701
Si Si6 0.254972 0.426848 0.819187
Si Si7 0.591155 0.130203 0.180884
Si Si8 0.338180 0.750569 0.820195
O O1 0.335687 0.589980 0.227745
O O2 0.169123 0.583187 0.250105
O O3 0.260042 0.491243 0.222998
O O4 0.247013 0.558910 0.000000
O O5 0.592944 0.641174 0.500000
O O6 0.500597 0.618088 0.739149
O O7 0.599928 0.703577 0.741042
O O8 0.668472 0.606979 0.745033
O O9 0.383606 0.693108 0.783041
O O10 0.422850 0.626542 0.000000
O O11 0.624060 0.812994 0.224643
O O12 0.503231 0.887070 0.228372
O O13 0.603743 0.878786 0.000000
O O14 0.750708 0.744519 0.770307
O O15 0.644396 0.746065 0.000000
O O16 0.166081 0.401934 0.763215
O O17 0.261122 0.421896 0.000000
O O18 0.604797 0.195628 0.207691
O O19 0.599113 0.121714 0.000000
O O20 0.318227 0.749577 0.000000
#
# Coordination Sequence:
#
# PCOD9442481 Si02
#       8
#     8   8   8   8   8   8   8   8
#     4  10  23  42  64  88 118 158 203 250 302 356
#     4  12  25  40  61  90 122 159 201 248 300 359
#     4  10  21  40  64  89 121 159 195 244 302 361
#     4  10  22  39  62  91 123 158 197 243 296 356
#     4  11  21  36  61  92 124 157 194 241 300 361
#     4  11  24  42  62  87 118 157 205 255 303 354
#     4  10  21  38  60  89 122 159 198 241 297 356
#     4  10  19  35  62  90 122 157 195 241 296 358
#
# _framework density 18.927752000000002
#
# number of rings (size 3 to 8) (size 9 to 14) (size 15 to 20)
#    0.000    1.500    2.500    2.625    0.000    6.000 
#    0.000    6.250    0.000    0.000    0.000    0.000 
#    0.000    0.000    0.000    0.000    0.000    0.000 
#
# Total GULP energy -357775.311858 kJ/mol
# GULP energy per Si atom -5590.239248 kJ/mol
# Density = 1.888467 g / cm^3
# Si number density = 18.927752 Si / 1000 Ang^3
#
#
#
# Elastic Constant Matrix: (Units=GPa)
#
#
# Indices 1 2 3 4 5 6 
#
# 1 101.6885 22.8858 27.6398 0.0000 0.0000 0.0000
# 2 22.8858 92.9562 29.4092 0.0000 0.0000 0.0000
# 3 27.6398 29.4092 35.4617 0.0000 0.0000 0.0000
# 4 0.0000 0.0000 0.0000 27.9505 0.0000 0.0000
# 5 0.0000 0.0000 0.0000 0.0000 34.9168 0.0000
# 6 0.0000 0.0000 0.0000 0.0000 0.0000 -0.4335
#
#
#
# Elastic Compliance Matrix: (Units=1/GPa)
#
#
# Indices 1 2 3 4 5 6 
#
# 1 0.012477 0.000007 -0.009731 0.000000 0.000000 0.000000
# 2 0.000007 0.014584 -0.012100 0.000000 0.000000 0.000000
# 3 -0.009731 -0.012100 0.045819 0.000000 0.000000 0.000000
# 4 0.000000 0.000000 0.000000 0.035778 0.000000 0.000000
# 5 0.000000 0.000000 0.000000 0.000000 0.028639 0.000000
# 6 0.000000 0.000000 0.000000 0.000000 0.000000 -2.307037
#
#
# Mechanical properties :
#
#
# Convention : Reuss Voigt Hill
#
# Bulk Modulus (GPa) = 34.20926 43.33070 38.76998
# Shear Modulus (GPa) = -2.36256 22.49820 10.06782
#
# Velocity S-wave (km/s) = -1.11844 3.45140 2.30881
# Velocity P-wave (km/s) = 4.05524 6.23099 5.25691
#
# Compressibility (1/GPa) = 0.02923185
#
# Stress axis : x y z
#
# Youngs Moduli (GPa) = 80.14523 68.56639 21.82498
#
# Poissons Ratio (x) = -0.00046 0.21237
# Poissons Ratio (y) = -0.00053 0.26409
# Poissons Ratio (z) = 0.77987 0.82968
#
# Static dielectric constant tensor:
#      x y z
#    x 1.634640 0.000000 0.000000 
#    y 0.000000 1.643560 0.000000 
#    z 0.000000 0.000000 1.637190 
# 
# From -- ./inp_files/6862.got.cif
#   From: 2010.05.17/outbox.cif.g08.bks.cpg/sg58_4_cif.got.tgz:6862.got - 2010.06.03 14:20:14.
