data_PCOD9442578
_publ_section_title
;
Structure prediction by ZEFSAII (Michael W. Deem and Ramdas Pophale) SiO2 
 PCOD9442578
Probable space group: P N N M
;
_chemical_formula_sum "Si O2"
_cell_formula_units_Z 64
_cell_length_a 24.938547
_cell_length_b 15.672751
_cell_length_c 7.853233
_cell_angle_alpha 90.000000
_cell_angle_beta 90.000000
_cell_angle_gamma 90.000000
_cell_volume 3069.480390
_symmetry_space_group_name_H-M "P N N M"
_symmetry_group_IT_number 58
_symmetry_cell_setting 'orthorhombic'
loop_
_space_group_symop_operation_xyz
x,y,z
-x,-y,z
1/2+x,1/2-y,1/2-z
1/2-x,1/2+y,1/2-z
-x,-y,-z
x,y,-z
1/2-x,1/2+y,1/2+z
1/2+x,1/2-y,1/2+z
loop_
_atom_site_type_symbol
_atom_site_label
_atom_site_fract_x
_atom_site_fract_y
_atom_site_fract_z
Si Si1 0.173700 0.260723 0.294828
Si Si2 0.868870 0.171391 0.301759
Si Si3 0.756724 0.091334 0.704850
Si Si4 0.632979 0.855489 0.694123
Si Si5 0.023640 0.911070 0.200483
Si Si6 0.750837 0.894693 0.291041
Si Si7 0.449035 0.746371 0.202178
Si Si8 0.978719 0.408227 0.207024
O O1 0.172070 0.257256 0.500000
O O2 0.207623 0.346098 0.251998
O O3 0.206088 0.176249 0.234546
O O4 0.112062 0.258478 0.233164
O O5 0.862403 0.195356 0.500000
O O6 0.813017 0.132383 0.239132
O O7 0.880963 0.256081 0.197164
O O8 0.919888 0.110736 0.286409
O O9 0.757422 0.087892 0.500000
O O10 0.756254 0.993036 0.763993
O O11 0.637247 0.887382 0.500000
O O12 0.691854 0.866062 0.768382
O O13 0.581781 0.899630 0.774990
O O14 0.981298 0.834356 0.224523
O O15 0.034420 0.920227 0.000000
O O16 0.000000 0.000000 0.265744
O O17 0.752877 0.893096 0.500000
O O18 0.483733 0.831084 0.235288
O O19 0.446248 0.732447 0.000000
O O20 0.000000 0.500000 0.257387
O O21 0.976971 0.403742 0.000000
#
# Coordination Sequence:
#
# PCOD9442578 Si02
#       8
#     8   8   8   8   8   8   8   8
#     4  10  22  40  60  84 119 158 195 238 295 352
#     4  11  22  37  61  91 121 152 193 248 301 349
#     4  10  22  38  61  90 118 154 199 242 289 347
#     4  10  19  36  62  84 112 155 200 242 290 348
#     4  11  25  43  63  88 118 158 203 246 297 359
#     4   9  19  37  60  84 114 155 197 237 284 347
#     4  11  24  40  61  89 121 159 198 247 306 354
#     4  10  22  38  60  89 118 158 203 242 293 355
#
# _framework density 20.850434
#
# number of rings (size 3 to 8) (size 9 to 14) (size 15 to 20)
#    0.000    1.750    2.500    1.125    3.500    2.750 
#    0.000    1.250    0.000    0.000    0.000    0.000 
#    0.000    0.000    0.000    0.000    0.000    0.000 
#
# Total GULP energy -357351.287641 kJ/mol
# GULP energy per Si atom -5583.613869 kJ/mol
# Density = 2.080298 g / cm^3
# Si number density = 20.850434 Si / 1000 Ang^3
#
#
#
# Elastic Constant Matrix: (Units=GPa)
#
#
# Indices 1 2 3 4 5 6 
#
# 1 95.2005 -4.3801 -4.2477 0.0000 0.0000 0.0000
# 2 -4.3801 73.6789 -10.1107 0.0000 0.0000 0.0000
# 3 -4.2477 -10.1107 28.8440 0.0000 0.0000 0.0000
# 4 0.0000 0.0000 0.0000 14.2181 0.0000 0.0000
# 5 0.0000 0.0000 0.0000 0.0000 24.7143 0.0000
# 6 0.0000 0.0000 0.0000 0.0000 0.0000 37.3372
#
#
#
# Elastic Compliance Matrix: (Units=1/GPa)
#
#
# Indices 1 2 3 4 5 6 
#
# 1 0.010629 0.000889 0.001877 0.000000 0.000000 0.000000
# 2 0.000889 0.014333 0.005155 0.000000 0.000000 0.000000
# 3 0.001877 0.005155 0.036753 0.000000 0.000000 0.000000
# 4 0.000000 0.000000 0.000000 0.070333 0.000000 0.000000
# 5 0.000000 0.000000 0.000000 0.000000 0.040462 0.000000
# 6 0.000000 0.000000 0.000000 0.000000 0.000000 0.026783
#
#
# Mechanical properties :
#
#
# Convention : Reuss Voigt Hill
#
# Bulk Modulus (GPa) = 12.89370 17.80514 15.34942
# Shear Modulus (GPa) = 23.88896 29.68472 26.78684
#
# Velocity S-wave (km/s) = 3.38854 3.77729 3.58818
# Velocity P-wave (km/s) = 4.63755 5.25184 4.95423
#
# Compressibility (1/GPa) = 0.07755726
#
# Stress axis : x y z
#
# Youngs Moduli (GPa) = 94.08382 69.77053 27.20887
#
# Poissons Ratio (x) = -0.06206 -0.05107
# Poissons Ratio (y) = -0.08368 -0.14026
# Poissons Ratio (z) = -0.17660 -0.35967
#
# Static dielectric constant tensor:
#      x y z
#    x 1.764700 0.000000 0.000000 
#    y 0.000000 1.753270 0.000000 
#    z 0.000000 0.000000 1.790750 
# 
# From -- ./inp_files/10074.got.cif
#   From: 2010.05.17/outbox.cif.g08.bks.cpg/sg58_6_cif.got.tgz:10074.got - 2010.06.03 14:20:14.
