data_PCOD9442712
_publ_section_title
;
Structure prediction by ZEFSAII (Michael W. Deem and Ramdas Pophale) SiO2 
 PCOD9442712
Probable space group: P N N M
;
_chemical_formula_sum "Si O2"
_cell_formula_units_Z 36
_cell_length_a 8.771988
_cell_length_b 11.174660
_cell_length_c 20.403938
_cell_angle_alpha 90.000000
_cell_angle_beta 90.000000
_cell_angle_gamma 90.000000
_cell_volume 2000.075280
_symmetry_space_group_name_H-M "P N N M"
_symmetry_group_IT_number 58
_symmetry_cell_setting 'orthorhombic'
loop_
_space_group_symop_operation_xyz
x,y,z
-x,-y,z
1/2+x,1/2-y,1/2-z
1/2-x,1/2+y,1/2-z
-x,-y,-z
x,y,-z
1/2-x,1/2+y,1/2+z
1/2+x,1/2-y,1/2+z
loop_
_atom_site_type_symbol
_atom_site_label
_atom_site_fract_x
_atom_site_fract_y
_atom_site_fract_z
Si Si1 0.821173 0.773010 0.691580
Si Si2 0.500000 0.500000 0.851697
Si Si3 0.241929 0.832974 0.576679
Si Si4 0.522549 0.141212 0.689290
Si Si5 0.987334 0.640834 0.576308
O O1 0.642753 0.798865 0.692083
O O2 0.914345 0.898166 0.689773
O O3 0.873001 0.696350 0.753784
O O4 0.871560 0.703027 0.626084
O O5 0.626469 0.565512 0.896330
O O6 0.272446 0.850424 0.500000
O O7 0.391680 0.837167 0.620806
O O8 0.148530 0.709031 0.585393
O O9 0.500000 0.000000 0.699099
O O10 0.943582 0.658033 0.500000
O O11 0.000000 0.500000 0.589266
#
# Coordination Sequence:
#
# PCOD9442712 Si02
#       5
#     8   4   8   8   8
#     4  11  23  39  62  86 123 157 206 251 304 368
#     4  10  19  40  62  94 117 160 202 252 309 372
#     4  10  21  39  62  92 127 160 204 253 305 365
#     4  12  25  42  59  89 122 163 206 253 309 362
#     4   9  19  39  64  90 120 159 201 247 302 361
#
# _framework density 17.999321999999999
#
# number of rings (size 3 to 8) (size 9 to 14) (size 15 to 20)
#    0.000    1.556    2.222    3.667    0.000    2.222 
#    0.000    0.000    0.000    4.000    0.000    0.000 
#    0.000    0.000    0.000    0.000    0.000    0.000 
#
# Total GULP energy -201126.555624 kJ/mol
# GULP energy per Si atom -5586.848767 kJ/mol
# Density = 1.795835 g / cm^3
# Si number density = 17.999322 Si / 1000 Ang^3
#
#
#
# Elastic Constant Matrix: (Units=GPa)
#
#
# Indices 1 2 3 4 5 6 
#
# 1 138.2931 36.9295 68.1152 0.0000 0.0000 0.0000
# 2 36.9295 103.7625 46.9488 0.0000 0.0000 0.0000
# 3 68.1152 46.9488 88.9819 0.0000 0.0000 0.0000
# 4 0.0000 0.0000 0.0000 19.8945 0.0000 0.0000
# 5 0.0000 0.0000 0.0000 0.0000 30.7657 0.0000
# 6 0.0000 0.0000 0.0000 0.0000 0.0000 18.0675
#
#
#
# Elastic Compliance Matrix: (Units=1/GPa)
#
#
# Indices 1 2 3 4 5 6 
#
# 1 0.011609 -0.000146 -0.008810 0.000000 0.000000 0.000000
# 2 -0.000146 0.012661 -0.006569 0.000000 0.000000 0.000000
# 3 -0.008810 -0.006569 0.021448 0.000000 0.000000 0.000000
# 4 0.000000 0.000000 0.000000 0.050265 0.000000 0.000000
# 5 0.000000 0.000000 0.000000 0.000000 0.032504 0.000000
# 6 0.000000 0.000000 0.000000 0.000000 0.000000 0.055348
#
#
# Mechanical properties :
#
#
# Convention : Reuss Voigt Hill
#
# Bulk Modulus (GPa) = 68.16773 70.55829 69.36301
# Shear Modulus (GPa) = 22.75057 25.68181 24.21619
#
# Velocity S-wave (km/s) = 3.55909 3.78143 3.67194
# Velocity P-wave (km/s) = 7.40568 7.63880 7.52314
#
# Compressibility (1/GPa) = 0.01466970
#
# Stress axis : x y z
#
# Youngs Moduli (GPa) = 86.13885 78.97989 46.62402
#
# Poissons Ratio (x) = 0.01150 0.41076
# Poissons Ratio (y) = 0.01254 0.30627
# Poissons Ratio (z) = 0.75888 0.51882
#
# Static dielectric constant tensor:
#      x y z
#    x 1.588680 0.000000 0.000000 
#    y 0.000000 1.613590 0.000000 
#    z 0.000000 0.000000 1.598600 
# 
# From -- ./inp_files/28673.got.cif
#   From: 2010.05.17/outbox.cif.g08.bks.cpg/sg58_15_cif.got.tgz:28673.got - 2010.06.03 14:20:14.
