data_PCOD9442671
_publ_section_title
;
Structure prediction by ZEFSAII (Michael W. Deem and Ramdas Pophale) SiO2 
 PCOD9442671
Probable space group: P N N M
;
_chemical_formula_sum "Si O2"
_cell_formula_units_Z 64
_cell_length_a 12.773840
_cell_length_b 15.039938
_cell_length_c 17.865831
_cell_angle_alpha 90.000000
_cell_angle_beta 90.000000
_cell_angle_gamma 90.000000
_cell_volume 3432.343461
_symmetry_space_group_name_H-M "P N N M"
_symmetry_group_IT_number 58
_symmetry_cell_setting 'orthorhombic'
loop_
_space_group_symop_operation_xyz
x,y,z
-x,-y,z
1/2+x,1/2-y,1/2-z
1/2-x,1/2+y,1/2-z
-x,-y,-z
x,y,-z
1/2-x,1/2+y,1/2+z
1/2+x,1/2-y,1/2+z
loop_
_atom_site_type_symbol
_atom_site_label
_atom_site_fract_x
_atom_site_fract_y
_atom_site_fract_z
Si Si1 0.252566 0.078481 0.084018
Si Si2 0.852538 0.387872 0.262588
Si Si3 0.698137 0.615030 0.376844
Si Si4 0.754164 0.572150 0.786703
Si Si5 0.188879 0.207297 0.654204
Si Si6 0.471721 0.667953 0.416194
Si Si7 0.062124 0.296875 0.779829
Si Si8 0.123077 0.020747 0.585838
O O1 0.319646 0.121000 0.150727
O O2 0.131027 0.107186 0.095287
O O3 0.256536 0.971785 0.092239
O O4 0.283577 0.104753 0.000000
O O5 0.823115 0.487611 0.238743
O O6 0.779399 0.326679 0.210508
O O7 0.971038 0.362736 0.246054
O O8 0.689660 0.600678 0.286982
O O9 0.762963 0.706510 0.387635
O O10 0.582671 0.618680 0.410962
O O11 0.834043 0.650625 0.804201
O O12 0.684069 0.540813 0.855273
O O13 0.095022 0.238361 0.708282
O O14 0.151898 0.123157 0.605687
O O15 0.462730 0.706749 0.500000
O O16 0.473954 0.738847 0.349776
O O17 0.153593 0.003025 0.500000
O O18 0.000000 0.000000 0.593503
#
# Coordination Sequence:
#
# PCOD9442671 Si02
#       8
#     8   8   8   8   8   8   8   8
#     4  10  21  37  57  86 122 153 189 243 305 355
#     4  10  19  38  59  84 115 150 202 241 285 353
#     4  10  20  36  59  87 114 154 197 238 289 360
#     4   9  22  37  62  84 111 156 200 242 291 347
#     4  10  21  37  60  86 112 159 199 242 288 349
#     4  11  22  34  55  90 123 149 185 240 301 354
#     4  11  21  37  60  85 118 153 200 243 289 350
#     4  10  23  41  60  87 121 154 198 250 296 349
#
# _framework density 18.646153000000002
#
# number of rings (size 3 to 8) (size 9 to 14) (size 15 to 20)
#    0.000    1.875    2.500    1.125    1.750    2.500 
#    0.000    0.625    0.000   12.750    0.000    0.000 
#    0.000    0.000    0.000    0.000    0.000    0.000 
#
# Total GULP energy -357180.120686 kJ/mol
# GULP energy per Si atom -5580.939386 kJ/mol
# Density = 1.860371 g / cm^3
# Si number density = 18.646153 Si / 1000 Ang^3
#
#
#
# Elastic Constant Matrix: (Units=GPa)
#
#
# Indices 1 2 3 4 5 6 
#
# 1 53.2157 14.6989 42.8845 0.0000 0.0000 0.0000
# 2 14.6989 50.0095 20.4183 0.0000 0.0000 0.0000
# 3 42.8845 20.4183 95.4514 0.0000 0.0000 0.0000
# 4 0.0000 0.0000 0.0000 15.3967 0.0000 0.0000
# 5 0.0000 0.0000 0.0000 0.0000 19.5519 0.0000
# 6 0.0000 0.0000 0.0000 0.0000 0.0000 24.8452
#
#
#
# Elastic Compliance Matrix: (Units=1/GPa)
#
#
# Indices 1 2 3 4 5 6 
#
# 1 0.030048 -0.003638 -0.012722 0.000000 0.000000 0.000000
# 2 -0.003638 0.022350 -0.003147 0.000000 0.000000 0.000000
# 3 -0.012722 -0.003147 0.016865 0.000000 0.000000 0.000000
# 4 0.000000 0.000000 0.000000 0.064949 0.000000 0.000000
# 5 0.000000 0.000000 0.000000 0.000000 0.051146 0.000000
# 6 0.000000 0.000000 0.000000 0.000000 0.000000 0.040249
#
#
# Mechanical properties :
#
#
# Convention : Reuss Voigt Hill
#
# Bulk Modulus (GPa) = 33.05644 39.40889 36.23266
# Shear Modulus (GPa) = 18.20136 20.00374 19.10255
#
# Velocity S-wave (km/s) = 3.12772 3.27893 3.20422
# Velocity P-wave (km/s) = 5.55070 5.95954 5.75875
#
# Compressibility (1/GPa) = 0.03025129
#
# Stress axis : x y z
#
# Youngs Moduli (GPa) = 33.27959 44.74250 59.29282
#
# Poissons Ratio (x) = 0.16276 0.75433
# Poissons Ratio (y) = 0.12106 0.18658
# Poissons Ratio (z) = 0.42339 0.14079
#
# Static dielectric constant tensor:
#      x y z
#    x 1.619350 0.000000 0.000000 
#    y 0.000000 1.656700 0.000000 
#    z 0.000000 0.000000 1.640860 
# 
# From -- ./inp_files/26344.got.cif
#   From: 2010.05.17/outbox.cif.g08.bks.cpg/sg58_14_cif.got.tgz:26344.got - 2010.06.03 14:20:14.
