data_PCOD9442205
_publ_section_title
;
Structure prediction by ZEFSAII (Michael W. Deem and Ramdas Pophale) SiO2 
 PCOD9442205
Probable space group: P N N M
;
_chemical_formula_sum "Si O2"
_cell_formula_units_Z 48
_cell_length_a 17.720563
_cell_length_b 9.164724
_cell_length_c 17.600512
_cell_angle_alpha 90.000000
_cell_angle_beta 90.000000
_cell_angle_gamma 90.000000
_cell_volume 2858.394766
_symmetry_space_group_name_H-M "P N N M"
_symmetry_group_IT_number 58
_symmetry_cell_setting 'orthorhombic'
loop_
_space_group_symop_operation_xyz
x,y,z
-x,-y,z
1/2+x,1/2-y,1/2-z
1/2-x,1/2+y,1/2-z
-x,-y,-z
x,y,-z
1/2-x,1/2+y,1/2+z
1/2+x,1/2-y,1/2+z
loop_
_atom_site_type_symbol
_atom_site_label
_atom_site_fract_x
_atom_site_fract_y
_atom_site_fract_z
Si Si1 0.335699 0.674065 0.209261
Si Si2 0.966220 0.837171 0.589164
Si Si3 0.952635 0.349856 0.711430
Si Si4 0.918772 0.577693 0.084618
Si Si5 0.462824 0.649631 0.668266
Si Si6 0.684483 0.002389 0.271994
O O1 0.386268 0.672799 0.133078
O O2 0.392873 0.621883 0.275314
O O3 0.312355 0.839753 0.231302
O O4 0.264133 0.569019 0.208915
O O5 0.959854 0.803881 0.500000
O O6 0.022165 0.728541 0.634128
O O7 0.000000 0.000000 0.597582
O O8 0.865928 0.394160 0.720193
O O9 0.000000 0.500000 0.718565
O O10 0.979509 0.243905 0.779464
O O11 0.934832 0.747293 0.101109
O O12 0.863805 0.523720 0.150874
O O13 0.000000 0.500000 0.090693
O O14 0.888906 0.552792 0.000000
O O15 0.500000 0.500000 0.643740
#
# Coordination Sequence:
#
# PCOD9442205 Si02
#       6
#     8   8   8   8   8   8
#     4  10  22  34  55  83 110 146 183 231 277 329
#     4  10  22  39  59  85 116 150 190 233 284 341
#     4  11  17  36  58  81 106 143 192 234 272 328
#     4  10  19  35  56  78 106 144 182 220 274 332
#     4  10  19  34  56  82 109 139 187 234 264 321
#     4  11  21  35  55  83 112 141 188 232 280 333
#
# _framework density 16.792642000000001
#
# number of rings (size 3 to 8) (size 9 to 14) (size 15 to 20)
#    0.000    1.667    6.667    2.000    4.667    1.333 
#    0.000    0.000    0.000    4.000    0.000    0.000 
#    0.000    0.000    0.000    0.000    0.000    0.000 
#
# Total GULP energy -267747.004578 kJ/mol
# GULP energy per Si atom -5578.062595 kJ/mol
# Density = 1.675442 g / cm^3
# Si number density = 16.792642 Si / 1000 Ang^3
#
#
#
# Elastic Constant Matrix: (Units=GPa)
#
#
# Indices 1 2 3 4 5 6 
#
# 1 79.0608 48.9202 33.1591 0.0000 0.0000 0.0000
# 2 48.9202 81.0455 40.3399 0.0000 0.0000 0.0000
# 3 33.1591 40.3399 102.2037 0.0000 0.0000 0.0000
# 4 0.0000 0.0000 0.0000 17.6345 0.0000 0.0000
# 5 0.0000 0.0000 0.0000 0.0000 10.4830 0.0000
# 6 0.0000 0.0000 0.0000 0.0000 0.0000 36.0894
#
#
#
# Elastic Compliance Matrix: (Units=1/GPa)
#
#
# Indices 1 2 3 4 5 6 
#
# 1 0.020582 -0.011324 -0.002208 0.000000 0.000000 0.000000
# 2 -0.011324 0.021586 -0.004846 0.000000 0.000000 0.000000
# 3 -0.002208 -0.004846 0.012413 0.000000 0.000000 0.000000
# 4 0.000000 0.000000 0.000000 0.056707 0.000000 0.000000
# 5 0.000000 0.000000 0.000000 0.000000 0.095392 0.000000
# 6 0.000000 0.000000 0.000000 0.000000 0.000000 0.027709
#
#
# Mechanical properties :
#
#
# Convention : Reuss Voigt Hill
#
# Bulk Modulus (GPa) = 56.10122 56.34984 56.22553
# Shear Modulus (GPa) = 18.04479 22.16743 20.10611
#
# Velocity S-wave (km/s) = 3.28161 3.63722 3.46398
# Velocity P-wave (km/s) = 6.91660 7.16018 7.03945
#
# Compressibility (1/GPa) = 0.01782492
#
# Stress axis : x y z
#
# Youngs Moduli (GPa) = 48.58693 46.32527 80.55793
#
# Poissons Ratio (x) = 0.52461 0.17785
# Poissons Ratio (y) = 0.55022 0.39039
# Poissons Ratio (z) = 0.10727 0.22450
#
# Static dielectric constant tensor:
#      x y z
#    x 1.559900 0.000000 0.000000 
#    y 0.000000 1.575620 0.000000 
#    z 0.000000 0.000000 1.557710 
# 
# From -- ./inp_files/25417.got.cif
#   From: 2010.05.17/outbox.cif.g08.bks.cpg/sg58_13_cif.got.tgz:25417.got - 2010.06.03 14:20:14.
