data_PCOD9442247
_publ_section_title
;
Structure prediction by ZEFSAII (Michael W. Deem and Ramdas Pophale) SiO2 
 PCOD9442247
Probable space group: P N N M
;
_chemical_formula_sum "Si O2"
_cell_formula_units_Z 64
_cell_length_a 12.956006
_cell_length_b 28.350499
_cell_length_c 8.246327
_cell_angle_alpha 90.000000
_cell_angle_beta 90.000000
_cell_angle_gamma 90.000000
_cell_volume 3028.952063
_symmetry_space_group_name_H-M "P N N M"
_symmetry_group_IT_number 58
_symmetry_cell_setting 'orthorhombic'
loop_
_space_group_symop_operation_xyz
x,y,z
-x,-y,z
1/2+x,1/2-y,1/2-z
1/2-x,1/2+y,1/2-z
-x,-y,-z
x,y,-z
1/2-x,1/2+y,1/2+z
1/2+x,1/2-y,1/2+z
loop_
_atom_site_type_symbol
_atom_site_label
_atom_site_fract_x
_atom_site_fract_y
_atom_site_fract_z
Si Si1 0.862474 0.414153 0.192079
Si Si2 0.805075 0.042403 0.692389
Si Si3 0.456385 0.378032 0.308076
Si Si4 0.912835 0.310603 0.307926
Si Si5 0.363146 0.840117 0.186350
Si Si6 0.640295 0.444375 0.308944
Si Si7 0.915566 0.559831 0.812463
Si Si8 0.159100 0.791107 0.307651
O O1 0.879899 0.358301 0.218525
O O2 0.756712 0.427516 0.277887
O O3 0.967483 0.440271 0.254418
O O4 0.852741 0.424210 0.000000
O O5 0.799828 0.051312 0.500000
O O6 0.687080 0.034746 0.754563
O O7 0.860799 0.086621 0.774333
O O8 0.868451 0.995117 0.725598
O O9 0.465458 0.370380 0.500000
O O10 0.557875 0.405837 0.248923
O O11 0.432494 0.328112 0.226834
O O12 0.889242 0.316883 0.500000
O O13 0.864117 0.261804 0.250318
O O14 0.036578 0.307606 0.293648
O O15 0.380927 0.885420 0.298814
O O16 0.259627 0.812741 0.224468
O O17 0.362339 0.857347 0.000000
O O18 0.621757 0.450864 0.500000
O O19 0.924889 0.545675 0.000000
O O20 0.176279 0.789394 0.500000
#
# Coordination Sequence:
#
# PCOD9442247 Si02
#       8
#     8   8   8   8   8   8   8   8
#     4  10  21  39  62  87 118 156 199 245 298 356
#     4  11  22  38  63  91 119 154 199 248 303 358
#     4  11  24  41  60  85 118 156 201 250 298 353
#     4   9  21  39  58  84 118 155 194 240 297 355
#     4  10  19  34  57  83 113 150 193 241 292 349
#     4  11  25  42  59  84 124 164 200 245 300 356
#     4   9  19  36  59  87 117 150 191 244 296 345
#     4  11  22  37  59  87 118 152 194 244 296 353
#
# _framework density 21.129418999999999
#
# number of rings (size 3 to 8) (size 9 to 14) (size 15 to 20)
#    0.000    1.750    1.250    2.625    0.000    7.500 
#    0.000    5.000    0.000    0.000    0.000    0.000 
#    0.000    0.000    0.000    0.000    0.000    0.000 
#
# Total GULP energy -357546.577612 kJ/mol
# GULP energy per Si atom -5586.665275 kJ/mol
# Density = 2.108133 g / cm^3
# Si number density = 21.129419 Si / 1000 Ang^3
#
#
#
# Elastic Constant Matrix: (Units=GPa)
#
#
# Indices 1 2 3 4 5 6 
#
# 1 85.6193 10.9607 -1.3571 0.0000 0.0000 0.0000
# 2 10.9607 63.7486 -0.1418 0.0000 0.0000 0.0000
# 3 -1.3571 -0.1418 22.7357 0.0000 0.0000 0.0000
# 4 0.0000 0.0000 0.0000 -0.8019 0.0000 0.0000
# 5 0.0000 0.0000 0.0000 0.0000 28.5532 0.0000
# 6 0.0000 0.0000 0.0000 0.0000 0.0000 29.3864
#
#
#
# Elastic Compliance Matrix: (Units=1/GPa)
#
#
# Indices 1 2 3 4 5 6 
#
# 1 0.011954 -0.002054 0.000701 0.000000 0.000000 0.000000
# 2 -0.002054 0.016040 -0.000023 0.000000 0.000000 0.000000
# 3 0.000701 -0.000023 0.044025 0.000000 0.000000 0.000000
# 4 0.000000 0.000000 0.000000 -1.247005 0.000000 0.000000
# 5 0.000000 0.000000 0.000000 0.000000 0.035022 0.000000
# 6 0.000000 0.000000 0.000000 0.000000 0.000000 0.034029
#
#
# Mechanical properties :
#
#
# Convention : Reuss Voigt Hill
#
# Bulk Modulus (GPa) = 14.43678 21.22523 17.83101
# Shear Modulus (GPa) = -4.62923 22.27032 8.82055
#
# Velocity S-wave (km/s) = -1.48177 3.25005 2.04538
# Velocity P-wave (km/s) = 1.97986 4.91436 3.74638
#
# Compressibility (1/GPa) = 0.06926754
#
# Stress axis : x y z
#
# Youngs Moduli (GPa) = 83.65660 62.34538 22.71422
#
# Poissons Ratio (x) = 0.12804 -0.01592
# Poissons Ratio (y) = 0.17181 0.00051
# Poissons Ratio (z) = -0.05862 0.00140
#
# Static dielectric constant tensor:
#      x y z
#    x 1.790970 0.000000 0.000000 
#    y 0.000000 1.749830 0.000000 
#    z 0.000000 0.000000 1.738000 
# 
# From -- ./inp_files/4787.got.cif
#   From: 2010.05.17/outbox.cif.g08.bks.cpg/sg58_3_cif.got.tgz:4787.got - 2010.06.03 14:20:14.
