data_PCOD9442007
_publ_section_title
;
Structure prediction by ZEFSAII (Michael W. Deem and Ramdas Pophale) SiO2 
 PCOD9442007
Probable space group: P N N M
;
_chemical_formula_sum "Si O2"
_cell_formula_units_Z 64
_cell_length_a 7.810944
_cell_length_b 27.790529
_cell_length_c 13.658944
_cell_angle_alpha 90.000000
_cell_angle_beta 90.000000
_cell_angle_gamma 90.000000
_cell_volume 2964.950604
_symmetry_space_group_name_H-M "P N N M"
_symmetry_group_IT_number 58
_symmetry_cell_setting 'orthorhombic'
loop_
_space_group_symop_operation_xyz
x,y,z
-x,-y,z
1/2+x,1/2-y,1/2-z
1/2-x,1/2+y,1/2-z
-x,-y,-z
x,y,-z
1/2-x,1/2+y,1/2+z
1/2+x,1/2-y,1/2+z
loop_
_atom_site_type_symbol
_atom_site_label
_atom_site_fract_x
_atom_site_fract_y
_atom_site_fract_z
Si Si1 0.735200 0.880574 0.387996
Si Si2 0.906727 0.551985 0.104775
Si Si3 0.143145 0.064352 0.212751
Si Si4 0.782457 0.747804 0.885153
Si Si5 0.753942 0.037395 0.807783
Si Si6 0.528203 0.349204 0.389635
Si Si7 0.562396 0.805523 0.261285
Si Si8 0.145844 0.368790 0.386698
O O1 0.791460 0.873715 0.500000
O O2 0.549983 0.906800 0.389687
O O3 0.846518 0.918710 0.325420
O O4 0.707624 0.830795 0.329032
O O5 0.789255 0.553795 0.198248
O O6 0.000000 0.500000 0.107109
O O7 0.816307 0.555845 0.000000
O O8 0.954709 0.047869 0.180398
O O9 0.162538 0.113992 0.156193
O O10 0.268298 0.020195 0.188793
O O11 0.632778 0.761990 0.807547
O O12 0.895120 0.796541 0.888403
O O13 0.909717 0.709779 0.834669
O O14 0.735084 0.736939 0.000000
O O15 0.650630 0.073301 0.876927
O O16 0.504271 0.366068 0.500000
O O17 0.334971 0.351662 0.349629
O O18 0.487507 0.844116 0.184925
O O19 0.119128 0.354616 0.500000
#
# Coordination Sequence:
#
# PCOD9442007 Si02
#       8
#     8   8   8   8   8   8   8   8
#     4  11  22  37  58  84 117 158 202 245 299 364
#     4  10  19  33  54  79 113 160 201 239 293 350
#     4  10  20  35  57  87 122 162 200 246 301 352
#     4  11  24  42  67  96 122 158 207 258 316 378
#     4  10  20  34  57  88 123 158 203 252 291 353
#     4   9  19  38  61  85 119 160 199 243 304 365
#     4  12  23  42  67  88 125 158 200 259 315 372
#     4  10  21  38  61  88 122 164 203 247 306 367
#
# _framework density 21.585519999999999
#
# number of rings (size 3 to 8) (size 9 to 14) (size 15 to 20)
#    0.000    1.625    3.750    1.500    0.000    1.000 
#    0.000    5.625    0.000    1.125    0.000    0.000 
#    0.000    0.000    0.000    0.000    0.000    0.000 
#
# Total GULP energy -356869.532986 kJ/mol
# GULP energy per Si atom -5576.086453 kJ/mol
# Density = 2.153639 g / cm^3
# Si number density = 21.585520 Si / 1000 Ang^3
#
#
#
# Elastic Constant Matrix: (Units=GPa)
#
#
# Indices 1 2 3 4 5 6 
#
# 1 27.2795 6.5249 4.0611 0.0000 0.0000 0.0000
# 2 6.5249 55.1634 35.1666 0.0000 0.0000 0.0000
# 3 4.0611 35.1666 69.1469 0.0000 0.0000 0.0000
# 4 0.0000 0.0000 0.0000 28.6949 0.0000 0.0000
# 5 0.0000 0.0000 0.0000 0.0000 36.0043 0.0000
# 6 0.0000 0.0000 0.0000 0.0000 0.0000 30.9935
#
#
#
# Elastic Compliance Matrix: (Units=1/GPa)
#
#
# Indices 1 2 3 4 5 6 
#
# 1 0.037725 -0.004513 0.000079 0.000000 0.000000 0.000000
# 2 -0.004513 0.027365 -0.013652 0.000000 0.000000 0.000000
# 3 0.000079 -0.013652 0.021401 0.000000 0.000000 0.000000
# 4 0.000000 0.000000 0.000000 0.034849 0.000000 0.000000
# 5 0.000000 0.000000 0.000000 0.000000 0.027774 0.000000
# 6 0.000000 0.000000 0.000000 0.000000 0.000000 0.032265
#
#
# Mechanical properties :
#
#
# Convention : Reuss Voigt Hill
#
# Bulk Modulus (GPa) = 19.87304 27.01057 23.44180
# Shear Modulus (GPa) = 21.33801 26.19436 23.76619
#
# Velocity S-wave (km/s) = 3.14751 3.48733 3.32177
# Velocity P-wave (km/s) = 4.73663 5.36244 5.05922
#
# Compressibility (1/GPa) = 0.05031942
#
# Stress axis : x y z
#
# Youngs Moduli (GPa) = 26.50755 36.54303 46.72788
#
# Poissons Ratio (x) = 0.16491 -0.00371
# Poissons Ratio (y) = 0.11963 0.63794
# Poissons Ratio (z) = -0.00211 0.49889
#
# Static dielectric constant tensor:
#      x y z
#    x 1.836500 0.000000 0.000000 
#    y 0.000000 1.842620 0.000000 
#    z 0.000000 0.000000 1.809080 
# 
# From -- ./inp_files/13406.got.cif
#   From: 2010.05.17/outbox.cif.g08.bks.cpg/sg58_7_cif.got.tgz:13406.got - 2010.06.03 14:20:14.
