data_PCOD9442636
_publ_section_title
;
Structure prediction by ZEFSAII (Michael W. Deem and Ramdas Pophale) SiO2 
 PCOD9442636
Probable space group: P N N M
;
_chemical_formula_sum "Si O2"
_cell_formula_units_Z 40
_cell_length_a 19.299529
_cell_length_b 12.499649
_cell_length_c 7.695397
_cell_angle_alpha 90.000000
_cell_angle_beta 90.000000
_cell_angle_gamma 90.000000
_cell_volume 1856.417090
_symmetry_space_group_name_H-M "P N N M"
_symmetry_group_IT_number 58
_symmetry_cell_setting 'orthorhombic'
loop_
_space_group_symop_operation_xyz
x,y,z
-x,-y,z
1/2+x,1/2-y,1/2-z
1/2-x,1/2+y,1/2-z
-x,-y,-z
x,y,-z
1/2-x,1/2+y,1/2+z
1/2+x,1/2-y,1/2+z
loop_
_atom_site_type_symbol
_atom_site_label
_atom_site_fract_x
_atom_site_fract_y
_atom_site_fract_z
Si Si1 0.622100 0.819850 0.700530
Si Si2 0.431562 0.567521 0.710551
Si Si3 0.186048 0.903898 0.213248
Si Si4 0.339664 0.947078 0.201188
Si Si5 0.964358 0.692923 0.701999
O O1 0.643308 0.829546 0.500000
O O2 0.653779 0.709160 0.769294
O O3 0.539054 0.813418 0.709968
O O4 0.648162 0.926558 0.791876
O O5 0.500000 0.500000 0.758711
O O6 0.431321 0.576037 0.500000
O O7 0.364361 0.500558 0.766209
O O8 0.436565 0.686371 0.783771
O O9 0.264546 0.918393 0.275133
O O10 0.185316 0.904978 0.000000
O O11 0.406238 0.886412 0.277618
O O12 0.337479 0.911902 0.000000
O O13 0.976684 0.664755 0.500000
#
# Coordination Sequence:
#
# PCOD9442636 Si02
#       5
#     8   8   8   8   8
#     4  11  22  40  64  87 116 155 202 245 288 349
#     4  10  19  37  62  86 115 153 197 243 292 348
#     4   9  20  39  60  83 117 156 190 239 299 351
#     4  10  23  41  59  84 121 159 192 239 303 353
#     4  11  23  38  60  88 121 156 195 244 297 351
#
# _framework density 21.546880999999999
#
# number of rings (size 3 to 8) (size 9 to 14) (size 15 to 20)
#    0.000    1.800    2.000    1.800    2.800    4.400 
#    0.000    2.000    0.000    0.000    0.000    0.000 
#    0.000    0.000    0.000    0.000    0.000    0.000 
#
# Total GULP energy -223591.016736 kJ/mol
# GULP energy per Si atom -5589.775418 kJ/mol
# Density = 2.149784 g / cm^3
# Si number density = 21.546881 Si / 1000 Ang^3
#
#
#
# Elastic Constant Matrix: (Units=GPa)
#
#
# Indices 1 2 3 4 5 6 
#
# 1 157.4671 63.7773 -6.3241 0.0000 0.0000 0.0000
# 2 63.7773 59.0243 -10.7149 0.0000 0.0000 0.0000
# 3 -6.3241 -10.7149 36.7687 0.0000 0.0000 0.0000
# 4 0.0000 0.0000 0.0000 30.4534 0.0000 0.0000
# 5 0.0000 0.0000 0.0000 0.0000 10.1242 0.0000
# 6 0.0000 0.0000 0.0000 0.0000 0.0000 28.4099
#
#
#
# Elastic Compliance Matrix: (Units=1/GPa)
#
#
# Indices 1 2 3 4 5 6 
#
# 1 0.011395 -0.012624 -0.001719 0.000000 0.000000 0.000000
# 2 -0.012624 0.031875 0.007117 0.000000 0.000000 0.000000
# 3 -0.001719 0.007117 0.028976 0.000000 0.000000 0.000000
# 4 0.000000 0.000000 0.000000 0.032837 0.000000 0.000000
# 5 0.000000 0.000000 0.000000 0.000000 0.098773 0.000000
# 6 0.000000 0.000000 0.000000 0.000000 0.000000 0.035199
#
#
# Mechanical properties :
#
#
# Convention : Reuss Voigt Hill
#
# Bulk Modulus (GPa) = 17.30296 38.52630 27.91463
# Shear Modulus (GPa) = 18.33045 27.56562 22.94803
#
# Velocity S-wave (km/s) = 2.91988 3.58066 3.26702
# Velocity P-wave (km/s) = 4.40629 5.91725 5.21676
#
# Compressibility (1/GPa) = 0.05779357
#
# Stress axis : x y z
#
# Youngs Moduli (GPa) = 87.76159 31.37267 34.51190
#
# Poissons Ratio (x) = 0.39605 0.05933
# Poissons Ratio (y) = 1.10791 -0.24564
# Poissons Ratio (z) = 0.15086 -0.22329
#
# Static dielectric constant tensor:
#      x y z
#    x 1.764290 0.000000 0.000000 
#    y 0.000000 1.728310 0.000000 
#    z 0.000000 0.000000 1.826670 
# 
# From -- ./inp_files/3790.got.cif
#   From: 2010.05.17/outbox.cif.g08.bks.cpg/sg58_2_cif.got.tgz:3790.got - 2010.06.03 14:20:14.
