data_PCOD9442214
_publ_section_title
;
Structure prediction by ZEFSAII (Michael W. Deem and Ramdas Pophale) SiO2 
 PCOD9442214
Probable space group: P N N M
;
_chemical_formula_sum "Si O2"
_cell_formula_units_Z 40
_cell_length_a 12.045884
_cell_length_b 15.053088
_cell_length_c 10.971148
_cell_angle_alpha 90.000000
_cell_angle_beta 90.000000
_cell_angle_gamma 90.000000
_cell_volume 1989.373602
_symmetry_space_group_name_H-M "P N N M"
_symmetry_group_IT_number 58
_symmetry_cell_setting 'orthorhombic'
loop_
_space_group_symop_operation_xyz
x,y,z
-x,-y,z
1/2+x,1/2-y,1/2-z
1/2-x,1/2+y,1/2-z
-x,-y,-z
x,y,-z
1/2-x,1/2+y,1/2+z
1/2+x,1/2-y,1/2+z
loop_
_atom_site_type_symbol
_atom_site_label
_atom_site_fract_x
_atom_site_fract_y
_atom_site_fract_z
Si Si1 0.944888 0.098867 0.868347
Si Si2 0.351154 0.737177 0.643254
Si Si3 0.481510 0.905364 0.360202
Si Si4 0.371851 0.464946 0.868180
Si Si5 0.765597 0.352885 0.135561
O O1 0.868068 0.097113 0.749654
O O2 0.042794 0.170182 0.854231
O O3 0.890048 0.114223 0.000000
O O4 0.000000 0.000000 0.873231
O O5 0.315277 0.737976 0.500000
O O6 0.394153 0.833800 0.683905
O O7 0.269731 0.700930 0.745859
O O8 0.444797 0.923660 0.500000
O O9 0.602322 0.861545 0.364832
O O10 0.500000 0.000000 0.297238
O O11 0.500000 0.500000 0.873063
O O12 0.291589 0.549584 0.854194
O O13 0.348688 0.422732 0.000000
O O14 0.731142 0.319219 0.000000
#
# Coordination Sequence:
#
# PCOD9442214 Si02
#       5
#     8   8   8   8   8
#     4   9  15  25  44  73 110 138 164 217 278 326
#     4  10  19  34  56  83 112 146 191 235 277 334
#     4   9  20  40  60  79 113 158 198 233 276 343
#     4   9  15  25  44  74 109 138 171 221 274 321
#     4  10  19  34  57  82 110 146 188 233 284 337
#
# _framework density 20.106831
#
# number of rings (size 3 to 8) (size 9 to 14) (size 15 to 20)
#    0.000    2.600    4.000    0.000    0.000    0.000 
#    3.600    1.000    0.000    2.400    0.000    0.000 
#    0.000    0.000    0.000    0.000    0.000    0.000 
#
# Total GULP energy -222902.482577 kJ/mol
# GULP energy per Si atom -5572.562064 kJ/mol
# Density = 2.006107 g / cm^3
# Si number density = 20.106831 Si / 1000 Ang^3
#
#
#
# Elastic Constant Matrix: (Units=GPa)
#
#
# Indices 1 2 3 4 5 6 
#
# 1 41.0595 4.1371 28.5614 0.0000 0.0000 0.0000
# 2 4.1371 74.0708 33.3179 0.0000 0.0000 0.0000
# 3 28.5614 33.3179 174.2385 0.0000 0.0000 0.0000
# 4 0.0000 0.0000 0.0000 0.5542 0.0000 0.0000
# 5 0.0000 0.0000 0.0000 0.0000 -6.1095 0.0000
# 6 0.0000 0.0000 0.0000 0.0000 0.0000 24.9770
#
#
#
# Elastic Compliance Matrix: (Units=1/GPa)
#
#
# Indices 1 2 3 4 5 6 
#
# 1 0.027509 0.000538 -0.004612 0.000000 0.000000 0.000000
# 2 0.000538 0.014782 -0.002915 0.000000 0.000000 0.000000
# 3 -0.004612 -0.002915 0.007053 0.000000 0.000000 0.000000
# 4 0.000000 0.000000 0.000000 1.804245 0.000000 0.000000
# 5 0.000000 0.000000 0.000000 0.000000 -0.163679 0.000000
# 6 0.000000 0.000000 0.000000 0.000000 0.000000 0.040037
#
#
# Mechanical properties :
#
#
# Convention : Reuss Voigt Hill
#
# Bulk Modulus (GPa) = 28.27600 46.82238 37.54919
# Shear Modulus (GPa) = 2.84785 18.77451 10.81118
#
# Velocity S-wave (km/s) = 1.19140 3.05903 2.32132
# Velocity P-wave (km/s) = 3.99825 5.98450 5.08921
#
# Compressibility (1/GPa) = 0.03536568
#
# Stress axis : x y z
#
# Youngs Moduli (GPa) = 36.35173 67.65158 141.79054
#
# Poissons Ratio (x) = -0.03641 0.65397
# Poissons Ratio (y) = -0.01956 0.41328
# Poissons Ratio (z) = 0.16766 0.19719
#
# Static dielectric constant tensor:
#      x y z
#    x 1.691060 0.000000 0.000000 
#    y 0.000000 1.764570 0.000000 
#    z 0.000000 0.000000 1.750260 
# 
# From -- ./inp_files/14105.got.cif
#   From: 2010.05.17/outbox.cif.g08.bks.cpg/sg58_8_cif.got.tgz:14105.got - 2010.06.03 14:20:14.
