data_PCOD9442821
_publ_section_title
;
Structure prediction by ZEFSAII (Michael W. Deem and Ramdas Pophale) SiO2 
 PCOD9442821
Probable space group: P N N M
;
_chemical_formula_sum "Si O2"
_cell_formula_units_Z 52
_cell_length_a 23.760985
_cell_length_b 6.582275
_cell_length_c 18.732474
_cell_angle_alpha 90.000000
_cell_angle_beta 90.000000
_cell_angle_gamma 90.000000
_cell_volume 2929.783989
_symmetry_space_group_name_H-M "P N N M"
_symmetry_group_IT_number 58
_symmetry_cell_setting 'orthorhombic'
loop_
_space_group_symop_operation_xyz
x,y,z
-x,-y,z
1/2+x,1/2-y,1/2-z
1/2-x,1/2+y,1/2-z
-x,-y,-z
x,y,-z
1/2-x,1/2+y,1/2+z
1/2+x,1/2-y,1/2+z
loop_
_atom_site_type_symbol
_atom_site_label
_atom_site_fract_x
_atom_site_fract_y
_atom_site_fract_z
Si Si1 0.685629 0.558904 0.080155
Si Si2 0.670110 0.092721 0.703217
Si Si3 0.248488 0.261646 0.330482
Si Si4 0.792187 0.854925 0.081150
Si Si5 0.443735 0.877805 0.208574
Si Si6 0.919373 0.326563 0.416261
Si Si7 0.500000 0.500000 0.849731
O O1 0.700989 0.371164 0.129466
O O2 0.741679 0.692805 0.076053
O O3 0.637545 0.710742 0.106155
O O4 0.669882 0.490785 0.000000
O O5 0.719184 0.174376 0.756589
O O6 0.665655 0.243356 0.635541
O O7 0.610554 0.085369 0.742749
O O8 0.696022 0.875497 0.681213
O O9 0.266812 0.448347 0.379962
O O10 0.811656 0.897130 0.000000
O O11 0.459157 0.641578 0.197806
O O12 0.500000 0.000000 0.233100
O O13 0.429187 0.976613 0.131628
O O14 0.917419 0.373329 0.500000
O O15 0.967018 0.161867 0.397803
#
# Coordination Sequence:
#
# PCOD9442821 Si02
#       7
#     8   8   8   8   8   8   4
#     4   9  19  33  51  77 112 149 184 220 273 334
#     4  11  22  36  58  85 113 146 189 230 288 339
#     4  11  20  33  56  85 112 148 181 233 281 339
#     4  10  21  36  54  81 115 146 181 227 284 346
#     4  10  23  38  55  78 111 150 194 245 282 337
#     4  10  20  33  51  76 111 151 193 238 277 327
#     4  10  21  36  52  74 103 148 202 238 283 322
#
# _framework density 17.748749
#
# number of rings (size 3 to 8) (size 9 to 14) (size 15 to 20)
#    0.000    1.846    1.538    2.538    2.154    6.462 
#    0.000    3.846    0.000    0.462    0.000    1.615 
#    0.000    0.000    0.000    0.000    0.000    0.000 
#
# Total GULP energy -290142.668734 kJ/mol
# GULP energy per Si atom -5579.666706 kJ/mol
# Density = 1.770835 g / cm^3
# Si number density = 17.748749 Si / 1000 Ang^3
#
#
#
# Elastic Constant Matrix: (Units=GPa)
#
#
# Indices 1 2 3 4 5 6 
#
# 1 68.0932 3.5733 28.7825 0.0000 0.0000 0.0000
# 2 3.5733 63.1655 44.4268 0.0000 0.0000 0.0000
# 3 28.7825 44.4268 96.7910 0.0000 0.0000 0.0000
# 4 0.0000 0.0000 0.0000 -3.9332 0.0000 0.0000
# 5 0.0000 0.0000 0.0000 0.0000 24.7110 0.0000
# 6 0.0000 0.0000 0.0000 0.0000 0.0000 16.4598
#
#
#
# Elastic Compliance Matrix: (Units=1/GPa)
#
#
# Indices 1 2 3 4 5 6 
#
# 1 0.017433 0.003928 -0.006987 0.000000 0.000000 0.000000
# 2 0.003928 0.024264 -0.012305 0.000000 0.000000 0.000000
# 3 -0.006987 -0.012305 0.018057 0.000000 0.000000 0.000000
# 4 0.000000 0.000000 0.000000 -0.254247 0.000000 0.000000
# 5 0.000000 0.000000 0.000000 0.000000 0.040468 0.000000
# 6 0.000000 0.000000 0.000000 0.000000 0.000000 0.060754
#
#
# Mechanical properties :
#
#
# Convention : Reuss Voigt Hill
#
# Bulk Modulus (GPa) = 34.45190 42.40167 38.42678
# Shear Modulus (GPa) = -94.57634 17.53200 -38.52217
#
# Velocity S-wave (km/s) = -7.30766 3.14632 -4.66383
# Velocity P-wave (km/s) = 7.19371 6.09433 2.70264
#
# Compressibility (1/GPa) = 0.02902597
#
# Stress axis : x y z
#
# Youngs Moduli (GPa) = 57.36262 41.21356 55.37950
#
# Poissons Ratio (x) = -0.16189 0.38693
# Poissons Ratio (y) = -0.22532 0.68145
# Poissons Ratio (z) = 0.40079 0.50714
#
# Static dielectric constant tensor:
#      x y z
#    x 1.611220 0.000000 0.000000 
#    y 0.000000 1.612370 0.000000 
#    z 0.000000 0.000000 1.636180 
# 
# From -- ./inp_files/27716.got.cif
#   From: 2010.05.17/outbox.cif.g08.bks.cpg/sg58_14_cif.got.tgz:27716.got - 2010.06.03 14:20:14.
