data_PCOD9442223
_publ_section_title
;
Structure prediction by ZEFSAII (Michael W. Deem and Ramdas Pophale) SiO2 
 PCOD9442223
Probable space group: P N N M
;
_chemical_formula_sum "Si O2"
_cell_formula_units_Z 64
_cell_length_a 19.837914
_cell_length_b 20.672573
_cell_length_c 7.758990
_cell_angle_alpha 90.000000
_cell_angle_beta 90.000000
_cell_angle_gamma 90.000000
_cell_volume 3181.967427
_symmetry_space_group_name_H-M "P N N M"
_symmetry_group_IT_number 58
_symmetry_cell_setting 'orthorhombic'
loop_
_space_group_symop_operation_xyz
x,y,z
-x,-y,z
1/2+x,1/2-y,1/2-z
1/2-x,1/2+y,1/2-z
-x,-y,-z
x,y,-z
1/2-x,1/2+y,1/2+z
1/2+x,1/2-y,1/2+z
loop_
_atom_site_type_symbol
_atom_site_label
_atom_site_fract_x
_atom_site_fract_y
_atom_site_fract_z
Si Si1 0.322856 0.097447 0.708572
Si Si2 0.065116 0.039796 0.288716
Si Si3 0.782873 0.637503 0.203780
Si Si4 0.025757 0.568314 0.298318
Si Si5 0.099990 0.181151 0.702786
Si Si6 0.251575 0.722281 0.791133
Si Si7 0.071892 0.319058 0.201149
Si Si8 0.288109 0.492188 0.789346
O O1 0.325567 0.096226 0.500000
O O2 0.394616 0.074547 0.775025
O O3 0.303672 0.170068 0.762832
O O4 0.262746 0.049481 0.761332
O O5 0.063250 0.039190 0.500000
O O6 0.067953 0.114849 0.230227
O O7 0.135726 0.007154 0.235147
O O8 0.000000 0.000000 0.229720
O O9 0.743605 0.704633 0.229076
O O10 0.858300 0.650707 0.275434
O O11 0.743329 0.575494 0.272796
O O12 0.791130 0.625308 0.000000
O O13 0.008819 0.569085 0.500000
O O14 0.000000 0.500000 0.224350
O O15 0.987265 0.629592 0.220817
O O16 0.109732 0.169802 0.500000
O O17 0.175150 0.196636 0.771268
O O18 0.059479 0.247919 0.723197
O O19 0.252944 0.723844 0.000000
O O20 0.083804 0.307563 0.000000
O O21 0.289471 0.491533 0.000000
#
# Coordination Sequence:
#
# PCOD9442223 Si02
#       8
#     8   8   8   8   8   8   8   8
#     4  10  19  34  57  78 102 142 185 223 263 318
#     4   9  16  28  50  79 108 138 177 223 268 316
#     4   9  18  31  51  78 107 138 177 224 263 304
#     4  11  24  39  54  78 110 139 173 224 280 329
#     4   9  16  31  54  79 107 141 180 222 265 311
#     4   9  17  31  52  75 102 137 175 215 260 314
#     4  10  20  35  55  79 106 145 186 220 264 322
#     4   9  16  30  51  76 104 137 180 222 262 311
#
# _framework density 20.113341999999999
#
# number of rings (size 3 to 8) (size 9 to 14) (size 15 to 20)
#    0.000    2.500    1.250    1.500    0.000    3.000 
#    2.250    0.625    0.000    1.125    0.000    0.000 
#    0.000    0.000    0.000    0.000    0.000    0.000 
#
# Total GULP energy -357074.629292 kJ/mol
# GULP energy per Si atom -5579.291083 kJ/mol
# Density = 2.006756 g / cm^3
# Si number density = 20.113342 Si / 1000 Ang^3
#
#
#
# Elastic Constant Matrix: (Units=GPa)
#
#
# Indices 1 2 3 4 5 6 
#
# 1 106.0231 61.2650 -7.6188 0.0000 0.0000 0.0000
# 2 61.2650 130.6683 -7.6093 0.0000 0.0000 0.0000
# 3 -7.6188 -7.6093 22.6171 0.0000 0.0000 0.0000
# 4 0.0000 0.0000 0.0000 14.5883 0.0000 0.0000
# 5 0.0000 0.0000 0.0000 0.0000 7.9791 0.0000
# 6 0.0000 0.0000 0.0000 0.0000 0.0000 29.7548
#
#
#
# Elastic Compliance Matrix: (Units=1/GPa)
#
#
# Indices 1 2 3 4 5 6 
#
# 1 0.013062 -0.005985 0.002386 0.000000 0.000000 0.000000
# 2 -0.005985 0.010548 0.001533 0.000000 0.000000 0.000000
# 3 0.002386 0.001533 0.045534 0.000000 0.000000 0.000000
# 4 0.000000 0.000000 0.000000 0.068548 0.000000 0.000000
# 5 0.000000 0.000000 0.000000 0.000000 0.125328 0.000000
# 6 0.000000 0.000000 0.000000 0.000000 0.000000 0.033608
#
#
# Mechanical properties :
#
#
# Convention : Reuss Voigt Hill
#
# Bulk Modulus (GPa) = 15.38178 39.04248 27.21213
# Shear Modulus (GPa) = 15.50720 24.68255 20.09488
#
# Velocity S-wave (km/s) = 2.77968 3.50690 3.16426
# Velocity P-wave (km/s) = 4.23867 5.98759 5.18737
#
# Compressibility (1/GPa) = 0.06501197
#
# Stress axis : x y z
#
# Youngs Moduli (GPa) = 76.55838 94.80064 21.96168
#
# Poissons Ratio (x) = 0.56740 -0.05241
# Poissons Ratio (y) = 0.45822 -0.03366
# Poissons Ratio (z) = -0.18269 -0.14531
#
# Static dielectric constant tensor:
#      x y z
#    x 1.681200 0.000000 0.000000 
#    y 0.000000 1.713830 0.000000 
#    z 0.000000 0.000000 1.745270 
# 
# From -- ./inp_files/8419.got.cif
#   From: 2010.05.17/outbox.cif.g08.bks.cpg/sg58_5_cif.got.tgz:8419.got - 2010.06.03 14:20:14.
