data_PCOD9442517
_publ_section_title
;
Structure prediction by ZEFSAII (Michael W. Deem and Ramdas Pophale) SiO2 
 PCOD9442517
Probable space group: P N N M
;
_chemical_formula_sum "Si O2"
_cell_formula_units_Z 56
_cell_length_a 17.918346
_cell_length_b 19.502992
_cell_length_c 7.625458
_cell_angle_alpha 90.000000
_cell_angle_beta 90.000000
_cell_angle_gamma 90.000000
_cell_volume 2664.802913
_symmetry_space_group_name_H-M "P N N M"
_symmetry_group_IT_number 58
_symmetry_cell_setting 'orthorhombic'
loop_
_space_group_symop_operation_xyz
x,y,z
-x,-y,z
1/2+x,1/2-y,1/2-z
1/2-x,1/2+y,1/2-z
-x,-y,-z
x,y,-z
1/2-x,1/2+y,1/2+z
1/2+x,1/2-y,1/2+z
loop_
_atom_site_type_symbol
_atom_site_label
_atom_site_fract_x
_atom_site_fract_y
_atom_site_fract_z
Si Si1 0.688193 0.113216 0.800392
Si Si2 0.123153 0.648303 0.214500
Si Si3 0.179057 0.795900 0.784316
Si Si4 0.479455 0.924240 0.707339
Si Si5 0.446628 0.402258 0.286785
Si Si6 0.396976 0.555757 0.288246
Si Si7 0.764758 0.467908 0.796982
O O1 0.743019 0.170795 0.722192
O O2 0.606467 0.096676 0.727361
O O3 0.733580 0.041407 0.795342
O O4 0.674760 0.133331 0.000000
O O5 0.159856 0.719209 0.272937
O O6 0.038679 0.632336 0.272063
O O7 0.172163 0.583168 0.270425
O O8 0.125538 0.650712 0.000000
O O9 0.110858 0.844893 0.728082
O O10 0.180712 0.797401 0.000000
O O11 0.493417 0.928848 0.500000
O O12 0.500000 0.000000 0.780123
O O13 0.447122 0.401047 0.500000
O O14 0.417609 0.477687 0.236593
O O15 0.533122 0.397891 0.231029
O O16 0.393223 0.557977 0.500000
O O17 0.314901 0.568810 0.217934
O O18 0.781103 0.482846 0.000000
#
# Coordination Sequence:
#
# PCOD9442517 Si02
#       7
#     8   8   8   8   8   8   8
#     4  11  21  34  58  85 107 137 182 229 271 318
#     4   9  19  35  54  74 104 146 182 215 261 327
#     4   9  17  33  55  77 102 142 186 218 263 325
#     4  10  19  36  58  81 108 140 182 223 267 326
#     4   8  14  27  50  74  99 130 171 216 258 311
#     4   9  16  29  50  78 102 128 170 220 264 306
#     4  11  20  33  53  78 107 140 178 220 265 317
#
# _framework density 21.014688
#
# number of rings (size 3 to 8) (size 9 to 14) (size 15 to 20)
#    0.000    2.429    2.857    1.714    0.000    0.286 
#    2.571    1.429    0.000    4.286    0.000    0.000 
#    0.000    0.000    0.000    0.000    0.000    0.000 
#
# Total GULP energy -312373.210335 kJ/mol
# GULP energy per Si atom -5578.093042 kJ/mol
# Density = 2.096686 g / cm^3
# Si number density = 21.014688 Si / 1000 Ang^3
#
#
#
# Elastic Constant Matrix: (Units=GPa)
#
#
# Indices 1 2 3 4 5 6 
#
# 1 154.7598 49.7044 -2.2310 0.0000 0.0000 0.0000
# 2 49.7044 94.5353 5.9296 0.0000 0.0000 0.0000
# 3 -2.2310 5.9296 36.9303 0.0000 0.0000 0.0000
# 4 0.0000 0.0000 0.0000 5.8305 0.0000 0.0000
# 5 0.0000 0.0000 0.0000 0.0000 24.8425 0.0000
# 6 0.0000 0.0000 0.0000 0.0000 0.0000 31.4987
#
#
#
# Elastic Compliance Matrix: (Units=1/GPa)
#
#
# Indices 1 2 3 4 5 6 
#
# 1 0.007822 -0.004184 0.001144 0.000000 0.000000 0.000000
# 2 -0.004184 0.012924 -0.002328 0.000000 0.000000 0.000000
# 3 0.001144 -0.002328 0.027521 0.000000 0.000000 0.000000
# 4 0.000000 0.000000 0.000000 0.171511 0.000000 0.000000
# 5 0.000000 0.000000 0.000000 0.000000 0.040254 0.000000
# 6 0.000000 0.000000 0.000000 0.000000 0.000000 0.031747
#
#
# Mechanical properties :
#
#
# Convention : Reuss Voigt Hill
#
# Bulk Modulus (GPa) = 26.64447 43.67016 35.15732
# Shear Modulus (GPa) = 15.87176 27.95586 21.91381
#
# Velocity S-wave (km/s) = 2.75120 3.65129 3.23272
# Velocity P-wave (km/s) = 4.77479 6.21303 5.54077
#
# Compressibility (1/GPa) = 0.03753124
#
# Stress axis : x y z
#
# Youngs Moduli (GPa) = 127.84386 77.37459 36.33598
#
# Poissons Ratio (x) = 0.32377 -0.04158
# Poissons Ratio (y) = 0.53495 0.08459
# Poissons Ratio (z) = -0.14630 0.18012
#
# Static dielectric constant tensor:
#      x y z
#    x 1.774850 0.000000 0.000000 
#    y 0.000000 1.722600 0.000000 
#    z 0.000000 0.000000 1.791680 
# 
# From -- ./inp_files/8192.got.cif
#   From: 2010.05.17/outbox.cif.g08.bks.cpg/sg58_5_cif.got.tgz:8192.got - 2010.06.03 14:20:14.
