data_PCOD9442067
_publ_section_title
;
Structure prediction by ZEFSAII (Michael W. Deem and Ramdas Pophale) SiO2 
 PCOD9442067
Probable space group: P N N M
;
_chemical_formula_sum "Si O2"
_cell_formula_units_Z 40
_cell_length_a 11.162426
_cell_length_b 16.171261
_cell_length_c 12.791503
_cell_angle_alpha 90.000000
_cell_angle_beta 90.000000
_cell_angle_gamma 90.000000
_cell_volume 2309.000657
_symmetry_space_group_name_H-M "P N N M"
_symmetry_group_IT_number 58
_symmetry_cell_setting 'orthorhombic'
loop_
_space_group_symop_operation_xyz
x,y,z
-x,-y,z
1/2+x,1/2-y,1/2-z
1/2-x,1/2+y,1/2-z
-x,-y,-z
x,y,-z
1/2-x,1/2+y,1/2+z
1/2+x,1/2-y,1/2+z
loop_
_atom_site_type_symbol
_atom_site_label
_atom_site_fract_x
_atom_site_fract_y
_atom_site_fract_z
Si Si1 0.503581 0.194441 0.123982
Si Si2 0.122493 0.455467 0.741705
Si Si3 0.756193 0.392495 0.624250
Si Si4 0.162052 0.961479 0.380554
Si Si5 0.063772 0.123896 0.297995
O O1 0.584586 0.126778 0.181725
O O2 0.363795 0.172736 0.147883
O O3 0.544022 0.285158 0.157698
O O4 0.516494 0.184592 0.000000
O O5 0.192290 0.519534 0.665507
O O6 0.207263 0.439732 0.840022
O O7 0.000000 0.500000 0.774202
O O8 0.736975 0.394248 0.500000
O O9 0.635963 0.373852 0.689276
O O10 0.138681 0.936257 0.500000
O O11 0.067073 0.918404 0.302861
O O12 0.140809 0.060045 0.369052
#
# Coordination Sequence:
#
# PCOD9442067 Si02
#       5
#     8   8   8   8   8
#     4  10  19  33  56  79 104 140 179 221 267 314
#     4   9  19  35  55  82 108 138 180 221 260 318
#     4   9  19  36  56  76 107 142 174 221 274 318
#     4  10  20  36  56  77 108 147 179 215 268 318
#     4  10  20  34  54  80 107 137 184 221 259 322
#
# _framework density 17.323512000000001
#
# number of rings (size 3 to 8) (size 9 to 14) (size 15 to 20)
#    0.000    2.400    0.000    3.000    2.800    2.800 
#    0.000    9.000    0.000    1.200    0.000    0.000 
#    0.000    0.000    0.000    0.000    0.000    0.000 
#
# Total GULP energy -222909.811799 kJ/mol
# GULP energy per Si atom -5572.745295 kJ/mol
# Density = 1.728408 g / cm^3
# Si number density = 17.323512 Si / 1000 Ang^3
#
#
#
# Elastic Constant Matrix: (Units=GPa)
#
#
# Indices 1 2 3 4 5 6 
#
# 1 104.0809 47.9495 64.1682 0.0000 0.0000 0.0000
# 2 47.9495 96.7868 18.1197 0.0000 0.0000 0.0000
# 3 64.1682 18.1197 76.0627 0.0000 0.0000 0.0000
# 4 0.0000 0.0000 0.0000 15.9810 0.0000 0.0000
# 5 0.0000 0.0000 0.0000 0.0000 26.4215 0.0000
# 6 0.0000 0.0000 0.0000 0.0000 0.0000 5.9945
#
#
#
# Elastic Compliance Matrix: (Units=1/GPa)
#
#
# Indices 1 2 3 4 5 6 
#
# 1 0.026035 -0.009196 -0.019773 0.000000 0.000000 0.000000
# 2 -0.009196 0.014063 0.004408 0.000000 0.000000 0.000000
# 3 -0.019773 0.004408 0.028778 0.000000 0.000000 0.000000
# 4 0.000000 0.000000 0.000000 0.062574 0.000000 0.000000
# 5 0.000000 0.000000 0.000000 0.000000 0.037848 0.000000
# 6 0.000000 0.000000 0.000000 0.000000 0.000000 0.166818
#
#
# Mechanical properties :
#
#
# Convention : Reuss Voigt Hill
#
# Bulk Modulus (GPa) = 50.62425 59.71167 55.16796
# Shear Modulus (GPa) = 12.76086 19.45896 16.10991
#
# Velocity S-wave (km/s) = 2.71702 3.35516 3.05281
# Velocity P-wave (km/s) = 6.25534 7.03938 6.65891
#
# Compressibility (1/GPa) = 0.01975338
#
# Stress axis : x y z
#
# Youngs Moduli (GPa) = 38.40958 71.10993 34.74889
#
# Poissons Ratio (x) = 0.65396 0.68709
# Poissons Ratio (y) = 0.35323 -0.15318
# Poissons Ratio (z) = 0.75948 -0.31347
#
# Static dielectric constant tensor:
#      x y z
#    x 1.599310 0.000000 0.000000 
#    y 0.000000 1.593500 0.000000 
#    z 0.000000 0.000000 1.565490 
# 
# From -- ./inp_files/14091.got.cif
#   From: 2010.05.17/outbox.cif.g08.bks.cpg/sg58_8_cif.got.tgz:14091.got - 2010.06.03 14:20:14.
