data_PCOD9442886
_publ_section_title
;
Structure prediction by ZEFSAII (Michael W. Deem and Ramdas Pophale) SiO2 
 PCOD9442886
Probable space group: P N N M
;
_chemical_formula_sum "Si O2"
_cell_formula_units_Z 64
_cell_length_a 25.151221
_cell_length_b 15.103695
_cell_length_c 7.561788
_cell_angle_alpha 90.000000
_cell_angle_beta 90.000000
_cell_angle_gamma 90.000000
_cell_volume 2872.544583
_symmetry_space_group_name_H-M "P N N M"
_symmetry_group_IT_number 58
_symmetry_cell_setting 'orthorhombic'
loop_
_space_group_symop_operation_xyz
x,y,z
-x,-y,z
1/2+x,1/2-y,1/2-z
1/2-x,1/2+y,1/2-z
-x,-y,-z
x,y,-z
1/2-x,1/2+y,1/2+z
1/2+x,1/2-y,1/2+z
loop_
_atom_site_type_symbol
_atom_site_label
_atom_site_fract_x
_atom_site_fract_y
_atom_site_fract_z
Si Si1 0.671435 0.493211 0.212630
Si Si2 0.240938 0.640471 0.288258
Si Si3 0.957844 0.572296 0.793220
Si Si4 0.944895 0.963995 0.703554
Si Si5 0.585006 0.755760 0.211938
Si Si6 0.799980 0.176898 0.286468
Si Si7 0.868686 0.442992 0.286461
Si Si8 0.468304 0.729471 0.701586
O O1 0.703548 0.404683 0.250086
O O2 0.611329 0.493539 0.282741
O O3 0.705479 0.577185 0.279350
O O4 0.667725 0.500759 0.000000
O O5 0.234358 0.644813 0.500000
O O6 0.234399 0.740644 0.219658
O O7 0.190993 0.580375 0.224640
O O8 0.899680 0.528752 0.779219
O O9 0.959018 0.672166 0.719547
O O10 0.000000 0.500000 0.717548
O O11 0.027790 0.417249 0.000000
O O12 0.944938 0.996494 0.500000
O O13 0.945671 0.857318 0.705720
O O14 0.000000 0.000000 0.784057
O O15 0.638913 0.703615 0.249995
O O16 0.596079 0.857246 0.264935
O O17 0.532073 0.719278 0.296634
O O18 0.577725 0.753361 0.000000
O O19 0.793218 0.175091 0.500000
O O20 0.868127 0.446965 0.500000
O O21 0.448193 0.728335 0.500000
#
# Coordination Sequence:
#
# PCOD9442886 Si02
#       8
#     8   8   8   8   8   8   8   8
#     4  10  20  37  61  86 109 141 187 231 276 334
#     4   9  19  37  58  82 112 142 178 229 282 328
#     4  10  20  34  50  75 116 156 187 225 278 336
#     4  10  22  41  63  84 109 145 187 235 285 337
#     4   9  16  30  54  79 104 139 187 232 267 316
#     4   8  16  34  59  81 103 139 183 222 268 329
#     4   9  18  32  53  79 105 143 192 235 273 319
#     4  11  22  34  51  80 115 150 183 222 280 336
#
# _framework density 22.279897999999999
#
# number of rings (size 3 to 8) (size 9 to 14) (size 15 to 20)
#    0.000    2.500    1.250    2.625    0.000    4.500 
#    2.250    4.375    0.000    0.000    0.000    0.000 
#    0.000    0.000    0.000    0.000    0.000    0.000 
#
# Total GULP energy -357164.886146 kJ/mol
# GULP energy per Si atom -5580.701346 kJ/mol
# Density = 2.222919 g / cm^3
# Si number density = 22.279898 Si / 1000 Ang^3
#
#
#
# Elastic Constant Matrix: (Units=GPa)
#
#
# Indices 1 2 3 4 5 6 
#
# 1 89.1574 45.3046 1.2596 0.0000 0.0000 0.0000
# 2 45.3046 130.6354 0.9653 0.0000 0.0000 0.0000
# 3 1.2596 0.9653 50.0259 0.0000 0.0000 0.0000
# 4 0.0000 0.0000 0.0000 6.0485 0.0000 0.0000
# 5 0.0000 0.0000 0.0000 0.0000 21.4056 0.0000
# 6 0.0000 0.0000 0.0000 0.0000 0.0000 25.3474
#
#
#
# Elastic Compliance Matrix: (Units=1/GPa)
#
#
# Indices 1 2 3 4 5 6 
#
# 1 0.013619 -0.004721 -0.000252 0.000000 0.000000 0.000000
# 2 -0.004721 0.009293 -0.000060 0.000000 0.000000 0.000000
# 3 -0.000252 -0.000060 0.019997 0.000000 0.000000 0.000000
# 4 0.000000 0.000000 0.000000 0.165330 0.000000 0.000000
# 5 0.000000 0.000000 0.000000 0.000000 0.046717 0.000000
# 6 0.000000 0.000000 0.000000 0.000000 0.000000 0.039452
#
#
# Mechanical properties :
#
#
# Convention : Reuss Voigt Hill
#
# Bulk Modulus (GPa) = 30.44907 40.54198 35.49553
# Shear Modulus (GPa) = 15.85181 25.37957 20.61569
#
# Velocity S-wave (km/s) = 2.67026 3.37875 3.04518
# Velocity P-wave (km/s) = 4.81698 5.78424 5.32263
#
# Compressibility (1/GPa) = 0.03284172
#
# Stress axis : x y z
#
# Youngs Moduli (GPa) = 73.42860 107.61212 50.00713
#
# Poissons Ratio (x) = 0.50805 0.01259
# Poissons Ratio (y) = 0.34667 0.00302
# Poissons Ratio (z) = 0.01849 0.00650
#
# Static dielectric constant tensor:
#      x y z
#    x 1.802700 0.000000 0.000000 
#    y 0.000000 1.845450 0.000000 
#    z 0.000000 0.000000 1.869630 
# 
# From -- ./inp_files/9946.got.cif
#   From: 2010.05.17/outbox.cif.g08.bks.cpg/sg58_5_cif.got.tgz:9946.got - 2010.06.03 14:20:14.
