data_PCOD9442186
_publ_section_title
;
Structure prediction by ZEFSAII (Michael W. Deem and Ramdas Pophale) SiO2 
 PCOD9442186
Probable space group: P N N M
;
_chemical_formula_sum "Si O2"
_cell_formula_units_Z 58
_cell_length_a 14.866670
_cell_length_b 25.470103
_cell_length_c 7.814329
_cell_angle_alpha 90.000000
_cell_angle_beta 90.000000
_cell_angle_gamma 90.000000
_cell_volume 2958.939562
_symmetry_space_group_name_H-M "P N N M"
_symmetry_group_IT_number 58
_symmetry_cell_setting 'orthorhombic'
loop_
_space_group_symop_operation_xyz
x,y,z
-x,-y,z
1/2+x,1/2-y,1/2-z
1/2-x,1/2+y,1/2-z
-x,-y,-z
x,y,-z
1/2-x,1/2+y,1/2+z
1/2+x,1/2-y,1/2+z
loop_
_atom_site_type_symbol
_atom_site_label
_atom_site_fract_x
_atom_site_fract_y
_atom_site_fract_z
Si Si1 0.578149 0.724220 0.792135
Si Si2 0.000000 0.500000 0.000000
Si Si3 0.070299 0.655984 0.295214
Si Si4 0.783016 0.707845 0.701599
Si Si5 0.611202 0.311930 0.797104
Si Si6 0.615662 0.105139 0.694847
Si Si7 0.752753 0.897558 0.796052
Si Si8 0.141838 0.507105 0.303943
O O1 0.558854 0.784205 0.738191
O O2 0.676049 0.709502 0.724408
O O3 0.491204 0.691525 0.733002
O O4 0.583837 0.722174 0.000000
O O5 0.929492 0.481280 0.155033
O O6 0.076745 0.657154 0.500000
O O7 0.163592 0.632430 0.228978
O O8 0.982916 0.622768 0.251539
O O9 0.804972 0.702381 0.500000
O O10 0.828298 0.762397 0.766592
O O11 0.823889 0.656834 0.792275
O O12 0.660853 0.366865 0.769467
O O13 0.605767 0.303688 0.000000
O O14 0.605517 0.085404 0.500000
O O15 0.653394 0.055675 0.797380
O O16 0.730926 0.958633 0.765549
O O17 0.756130 0.890748 0.000000
O O18 0.113056 0.521754 0.500000
#
# Coordination Sequence:
#
# PCOD9442186 Si02
#       8
#     8   2   8   8   8   8   8   8
#     4  10  20  37  56  84 120 157 196 245 304 359
#     4  12  22  40  64  94 124 162 214 244 316 372
#     4  10  19  34  55  82 122 159 193 243 298 356
#     4  11  22  38  58  86 118 157 198 250 307 359
#     4  10  21  36  58  84 119 157 199 250 304 363
#     4  12  24  38  59  86 117 165 211 249 301 369
#     4  10  22  37  59  84 117 163 201 246 302 351
#     4  11  24  41  59  88 127 166 207 258 303 367
#
# _framework density 19.601617000000001
#
# number of rings (size 3 to 8) (size 9 to 14) (size 15 to 20)
#    0.000    1.379    3.448    2.690    0.966    3.310 
#    0.000    0.000    0.000    0.828    0.000    5.793 
#    0.000    0.000    0.000    0.000    0.000    0.000 
#
# Total GULP energy -323359.261285 kJ/mol
# GULP energy per Si atom -5575.159677 kJ/mol
# Density = 1.955700 g / cm^3
# Si number density = 19.601617 Si / 1000 Ang^3
#
#
#
# Elastic Constant Matrix: (Units=GPa)
#
#
# Indices 1 2 3 4 5 6 
#
# 1 65.4730 0.9339 -6.3889 0.0000 0.0000 0.0000
# 2 0.9339 42.7112 -11.9363 0.0000 0.0000 0.0000
# 3 -6.3889 -11.9363 53.0207 0.0000 0.0000 0.0000
# 4 0.0000 0.0000 0.0000 1.5985 0.0000 0.0000
# 5 0.0000 0.0000 0.0000 0.0000 25.8296 0.0000
# 6 0.0000 0.0000 0.0000 0.0000 0.0000 19.2281
#
#
#
# Elastic Compliance Matrix: (Units=1/GPa)
#
#
# Indices 1 2 3 4 5 6 
#
# 1 0.015457 0.000195 0.001906 0.000000 0.000000 0.000000
# 2 0.000195 0.024987 0.005649 0.000000 0.000000 0.000000
# 3 0.001906 0.005649 0.020362 0.000000 0.000000 0.000000
# 4 0.000000 0.000000 0.000000 0.625581 0.000000 0.000000
# 5 0.000000 0.000000 0.000000 0.000000 0.038715 0.000000
# 6 0.000000 0.000000 0.000000 0.000000 0.000000 0.052007
#
#
# Mechanical properties :
#
#
# Convention : Reuss Voigt Hill
#
# Bulk Modulus (GPa) = 13.10513 14.04691 13.57602
# Shear Modulus (GPa) = 6.35288 21.23766 13.79527
#
# Velocity S-wave (km/s) = 1.80223 3.29517 2.65577
# Velocity P-wave (km/s) = 3.32129 4.65396 4.04291
#
# Compressibility (1/GPa) = 0.07630599
#
# Stress axis : x y z
#
# Youngs Moduli (GPa) = 64.69677 40.02015 49.11123
#
# Poissons Ratio (x) = -0.00780 -0.09362
# Poissons Ratio (y) = -0.01260 -0.27742
# Poissons Ratio (z) = -0.12334 -0.22606
#
# Static dielectric constant tensor:
#      x y z
#    x 1.733860 0.000000 0.000000 
#    y 0.000000 1.782290 0.000000 
#    z 0.000000 0.000000 1.745090 
# 
# From -- ./inp_files/6695.got.cif
#   From: 2010.05.17/outbox.cif.g08.bks.cpg/sg58_4_cif.got.tgz:6695.got - 2010.06.03 14:20:14.
