data_PCOD9442075
_publ_section_title
;
Structure prediction by ZEFSAII (Michael W. Deem and Ramdas Pophale) SiO2 
 PCOD9442075
Probable space group: P N N M
;
_chemical_formula_sum "Si O2"
_cell_formula_units_Z 48
_cell_length_a 15.219323
_cell_length_b 20.541587
_cell_length_c 8.727551
_cell_angle_alpha 90.000000
_cell_angle_beta 90.000000
_cell_angle_gamma 90.000000
_cell_volume 2728.485956
_symmetry_space_group_name_H-M "P N N M"
_symmetry_group_IT_number 58
_symmetry_cell_setting 'orthorhombic'
loop_
_space_group_symop_operation_xyz
x,y,z
-x,-y,z
1/2+x,1/2-y,1/2-z
1/2-x,1/2+y,1/2-z
-x,-y,-z
x,y,-z
1/2-x,1/2+y,1/2+z
1/2+x,1/2-y,1/2+z
loop_
_atom_site_type_symbol
_atom_site_label
_atom_site_fract_x
_atom_site_fract_y
_atom_site_fract_z
Si Si1 0.506884 0.193357 0.315974
Si Si2 0.810997 0.661722 0.683926
Si Si3 0.080378 0.955418 0.684490
Si Si4 0.887129 0.185604 0.815559
Si Si5 0.933431 0.441167 0.683495
Si Si6 0.221009 0.480990 0.816240
O O1 0.509245 0.191616 0.500000
O O2 0.605543 0.198533 0.252014
O O3 0.445828 0.253533 0.266021
O O4 0.467006 0.125846 0.254698
O O5 0.817786 0.659240 0.500000
O O6 0.715969 0.691095 0.727196
O O7 0.811229 0.588050 0.748303
O O8 0.076195 0.951041 0.500000
O O9 0.078667 0.882713 0.750344
O O10 0.175793 0.985393 0.723383
O O11 0.000000 0.000000 0.738155
O O12 0.890166 0.182301 0.000000
O O13 0.932128 0.435814 0.500000
O O14 0.838837 0.462699 0.746432
O O15 0.000000 0.500000 0.724735
O O16 0.211988 0.479869 0.000000
#
# Coordination Sequence:
#
# PCOD9442075 Si02
#       6
#     8   8   8   8   8   8
#     4  11  22  37  57  81 111 145 184 228 274 327
#     4  10  19  35  57  79 106 143 181 221 273 325
#     4   9  19  37  60  85 111 143 184 225 270 326
#     4   9  21  39  57  80 111 145 183 225 273 328
#     4  11  22  35  54  82 113 144 183 225 274 328
#     4  10  19  33  56  82 109 142 180 224 271 322
#
# _framework density 17.592174
#
# number of rings (size 3 to 8) (size 9 to 14) (size 15 to 20)
#    0.000    2.000    1.667    2.000    0.000    3.667 
#    3.000    0.000    0.000    0.000    0.000    0.000 
#    0.000    0.000    0.000    0.000    0.000    0.000 
#
# Total GULP energy -267960.499233 kJ/mol
# GULP energy per Si atom -5582.510401 kJ/mol
# Density = 1.755213 g / cm^3
# Si number density = 17.592174 Si / 1000 Ang^3
#
#
#
# Elastic Constant Matrix: (Units=GPa)
#
#
# Indices 1 2 3 4 5 6 
#
# 1 161.7310 104.0359 43.4140 0.0000 0.0000 0.0000
# 2 104.0359 115.4719 35.4479 0.0000 0.0000 0.0000
# 3 43.4140 35.4479 36.4526 0.0000 0.0000 0.0000
# 4 0.0000 0.0000 0.0000 22.8588 0.0000 0.0000
# 5 0.0000 0.0000 0.0000 0.0000 33.9846 0.0000
# 6 0.0000 0.0000 0.0000 0.0000 0.0000 35.8338
#
#
#
# Elastic Compliance Matrix: (Units=1/GPa)
#
#
# Indices 1 2 3 4 5 6 
#
# 1 0.015912 -0.012143 -0.007141 0.000000 0.000000 0.000000
# 2 -0.012143 0.021613 -0.006555 0.000000 0.000000 0.000000
# 3 -0.007141 -0.006555 0.042312 0.000000 0.000000 0.000000
# 4 0.000000 0.000000 0.000000 0.043747 0.000000 0.000000
# 5 0.000000 0.000000 0.000000 0.000000 0.029425 0.000000
# 6 0.000000 0.000000 0.000000 0.000000 0.000000 0.027907
#
#
# Mechanical properties :
#
#
# Convention : Reuss Voigt Hill
#
# Bulk Modulus (GPa) = 35.51462 75.49457 55.50460
# Shear Modulus (GPa) = 20.66276 27.25262 23.95769
#
# Velocity S-wave (km/s) = 3.43088 3.94017 3.69431
# Velocity P-wave (km/s) = 5.99384 7.98166 7.05808
#
# Compressibility (1/GPa) = 0.02815741
#
# Stress axis : x y z
#
# Youngs Moduli (GPa) = 62.84741 46.26810 23.63370
#
# Poissons Ratio (x) = 0.56185 0.16878
# Poissons Ratio (y) = 0.76318 0.15492
# Poissons Ratio (z) = 0.44882 0.30329
#
# Static dielectric constant tensor:
#      x y z
#    x 1.619210 0.000000 0.000000 
#    y 0.000000 1.558620 0.000000 
#    z 0.000000 0.000000 1.590280 
# 
# From -- ./inp_files/5806.got.cif
#   From: 2010.05.17/outbox.cif.g08.bks.cpg/sg58_3_cif.got.tgz:5806.got - 2010.06.03 14:20:14.
