data_PCOD9442064
_publ_section_title
;
Structure prediction by ZEFSAII (Michael W. Deem and Ramdas Pophale) SiO2 
 PCOD9442064
Probable space group: P N N M
;
_chemical_formula_sum "Si O2"
_cell_formula_units_Z 56
_cell_length_a 12.100067
_cell_length_b 11.158691
_cell_length_c 20.721057
_cell_angle_alpha 90.000000
_cell_angle_beta 90.000000
_cell_angle_gamma 90.000000
_cell_volume 2797.775946
_symmetry_space_group_name_H-M "P N N M"
_symmetry_group_IT_number 58
_symmetry_cell_setting 'orthorhombic'
loop_
_space_group_symop_operation_xyz
x,y,z
-x,-y,z
1/2+x,1/2-y,1/2-z
1/2-x,1/2+y,1/2-z
-x,-y,-z
x,y,-z
1/2-x,1/2+y,1/2+z
1/2+x,1/2-y,1/2+z
loop_
_atom_site_type_symbol
_atom_site_label
_atom_site_fract_x
_atom_site_fract_y
_atom_site_fract_z
Si Si1 0.271428 0.622242 0.639167
Si Si2 0.059702 0.131162 0.742205
Si Si3 0.062059 0.662994 0.923266
Si Si4 0.110854 0.921985 0.925595
Si Si5 0.251969 0.060470 0.654966
Si Si6 0.185697 0.360786 0.924086
Si Si7 0.074569 0.619256 0.730272
O O1 0.357139 0.643860 0.697511
O O2 0.296012 0.490050 0.613314
O O3 0.297296 0.718878 0.584144
O O4 0.149729 0.632820 0.667089
O O5 0.138375 0.117826 0.678782
O O6 0.987408 0.253104 0.740282
O O7 0.000000 0.000000 0.748873
O O8 0.076008 0.796153 0.896270
O O9 0.179549 0.606242 0.906789
O O10 0.942245 0.613262 0.903107
O O11 0.049445 0.667521 0.000000
O O12 0.144617 0.905815 0.000000
O O13 0.000000 0.000000 0.924969
O O14 0.340536 0.087130 0.711477
O O15 0.239284 0.923410 0.631095
O O16 0.201945 0.391347 0.000000
O O17 0.000000 0.500000 0.725075
#
# Coordination Sequence:
#
# PCOD9442064 Si02
#       7
#     8   8   8   8   8   8   8
#     4  11  22  36  64  86 118 161 198 243 316 365
#     4  11  25  41  61  89 124 163 209 251 298 367
#     4  10  20  33  57  90 121 149 187 247 309 360
#     4  10  19  33  55  89 119 145 189 242 298 363
#     4  11  23  38  62  86 122 158 203 244 310 364
#     4  11  21  38  63  94 126 158 199 256 317 376
#     4  11  25  41  60  89 125 161 208 257 301 365
#
# _framework density 20.015899000000001
#
# number of rings (size 3 to 8) (size 9 to 14) (size 15 to 20)
#    0.000    1.286    1.429    5.143    4.000    3.429 
#    0.000    0.000    0.000   11.143    0.000    0.000 
#    0.000    0.000    0.000    0.000    0.000    0.000 
#
# Total GULP energy -312259.180654 kJ/mol
# GULP energy per Si atom -5576.056797 kJ/mol
# Density = 1.997034 g / cm^3
# Si number density = 20.015899 Si / 1000 Ang^3
#
#
#
# Elastic Constant Matrix: (Units=GPa)
#
#
# Indices 1 2 3 4 5 6 
#
# 1 68.4311 35.0738 27.7075 0.0000 0.0000 0.0000
# 2 35.0738 90.4714 24.3079 0.0000 0.0000 0.0000
# 3 27.7075 24.3079 63.8190 0.0000 0.0000 0.0000
# 4 0.0000 0.0000 0.0000 35.5290 0.0000 0.0000
# 5 0.0000 0.0000 0.0000 0.0000 22.4324 0.0000
# 6 0.0000 0.0000 0.0000 0.0000 0.0000 23.0654
#
#
#
# Elastic Compliance Matrix: (Units=1/GPa)
#
#
# Indices 1 2 3 4 5 6 
#
# 1 0.020409 -0.006162 -0.006514 0.000000 0.000000 0.000000
# 2 -0.006162 0.014174 -0.002723 0.000000 0.000000 0.000000
# 3 -0.006514 -0.002723 0.019535 0.000000 0.000000 0.000000
# 4 0.000000 0.000000 0.000000 0.028146 0.000000 0.000000
# 5 0.000000 0.000000 0.000000 0.000000 0.044578 0.000000
# 6 0.000000 0.000000 0.000000 0.000000 0.000000 0.043355
#
#
# Mechanical properties :
#
#
# Convention : Reuss Voigt Hill
#
# Bulk Modulus (GPa) = 42.88301 44.10000 43.49150
# Shear Modulus (GPa) = 23.95009 25.24752 24.59881
#
# Velocity S-wave (km/s) = 3.46288 3.55543 3.50946
# Velocity P-wave (km/s) = 6.12043 6.23980 6.18040
#
# Compressibility (1/GPa) = 0.02331926
#
# Stress axis : x y z
#
# Youngs Moduli (GPa) = 48.99839 70.55274 51.19135
#
# Poissons Ratio (x) = 0.43474 0.33344
# Poissons Ratio (y) = 0.30193 0.13941
# Poissons Ratio (z) = 0.31916 0.19214
#
# Static dielectric constant tensor:
#      x y z
#    x 1.693430 0.000000 0.000000 
#    y 0.000000 1.878450 0.000000 
#    z 0.000000 0.000000 1.735090 
# 
# From -- ./inp_files/29620.got.cif
#   From: 2010.05.17/outbox.cif.g08.bks.cpg/sg58_15_cif.got.tgz:29620.got - 2010.06.03 14:20:14.
