data_PCOD9442802
_publ_section_title
;
Structure prediction by ZEFSAII (Michael W. Deem and Ramdas Pophale) SiO2 
 PCOD9442802
Probable space group: P N N M
;
_chemical_formula_sum "Si O2"
_cell_formula_units_Z 64
_cell_length_a 22.704666
_cell_length_b 15.963007
_cell_length_c 7.551127
_cell_angle_alpha 90.000000
_cell_angle_beta 90.000000
_cell_angle_gamma 90.000000
_cell_volume 2736.790768
_symmetry_space_group_name_H-M "P N N M"
_symmetry_group_IT_number 58
_symmetry_cell_setting 'orthorhombic'
loop_
_space_group_symop_operation_xyz
x,y,z
-x,-y,z
1/2+x,1/2-y,1/2-z
1/2-x,1/2+y,1/2-z
-x,-y,-z
x,y,-z
1/2-x,1/2+y,1/2+z
1/2+x,1/2-y,1/2+z
loop_
_atom_site_type_symbol
_atom_site_label
_atom_site_fract_x
_atom_site_fract_y
_atom_site_fract_z
Si Si1 0.954349 0.427329 0.211742
Si Si2 0.623778 0.573533 0.213709
Si Si3 0.158600 0.279774 0.799000
Si Si4 0.215580 0.788209 0.283610
Si Si5 0.680884 0.896664 0.210698
Si Si6 0.686030 0.407252 0.791488
Si Si7 0.969083 0.727533 0.218216
Si Si8 0.502148 0.407962 0.699555
O O1 0.883702 0.433790 0.243762
O O2 0.000000 0.500000 0.276507
O O3 0.980246 0.337079 0.274224
O O4 0.039539 0.572549 0.000000
O O5 0.676123 0.634316 0.260589
O O6 0.641871 0.480128 0.265505
O O7 0.566896 0.609896 0.305426
O O8 0.615830 0.575262 0.000000
O O9 0.219338 0.306106 0.712064
O O10 0.168754 0.179060 0.802284
O O11 0.095428 0.303365 0.724162
O O12 0.157554 0.312233 0.000000
O O13 0.219503 0.782452 0.500000
O O14 0.187568 0.700053 0.224478
O O15 0.745051 0.932996 0.267595
O O16 0.682593 0.896312 0.000000
O O17 0.677598 0.393103 0.000000
O O18 0.972230 0.823824 0.281645
O O19 0.970215 0.732064 0.000000
O O20 0.500000 0.500000 0.787798
O O21 0.526080 0.418363 0.500000
#
# Coordination Sequence:
#
# PCOD9442802 Si02
#       8
#     8   8   8   8   8   8   8   8
#     4  10  21  36  55  79 106 138 176 218 263 308
#     4  10  20  33  50  75 104 132 166 207 255 308
#     4   9  17  33  55  74  99 136 174 208 248 304
#     4   8  16  31  52  76  98 127 168 210 252 301
#     4  10  20  36  57  76  99 135 175 214 260 311
#     4  10  20  33  52  78 106 133 165 212 262 309
#     4   9  18  33  54  79 106 139 177 214 254 304
#     4  10  20  33  51  76 105 137 173 211 251 301
#
# _framework density 23.385055000000001
#
# number of rings (size 3 to 8) (size 9 to 14) (size 15 to 20)
#    0.000    2.500    0.000    3.000    0.000    3.500 
#    0.000    7.500    0.000    3.000    0.000    0.000 
#    0.000    0.000    0.000    0.000    0.000    0.000 
#
# Total GULP energy -356909.545810 kJ/mol
# GULP energy per Si atom -5576.711653 kJ/mol
# Density = 2.333183 g / cm^3
# Si number density = 23.385055 Si / 1000 Ang^3
#
#
#
# Elastic Constant Matrix: (Units=GPa)
#
#
# Indices 1 2 3 4 5 6 
#
# 1 107.6295 -15.6521 0.9087 0.0000 0.0000 0.0000
# 2 -15.6521 18.0969 2.6991 0.0000 0.0000 0.0000
# 3 0.9087 2.6991 65.4910 0.0000 0.0000 0.0000
# 4 0.0000 0.0000 0.0000 1.1188 0.0000 0.0000
# 5 0.0000 0.0000 0.0000 0.0000 59.9705 0.0000
# 6 0.0000 0.0000 0.0000 0.0000 0.0000 33.4042
#
#
#
# Elastic Compliance Matrix: (Units=1/GPa)
#
#
# Indices 1 2 3 4 5 6 
#
# 1 0.010646 0.009287 -0.000530 0.000000 0.000000 0.000000
# 2 0.009287 0.063701 -0.002754 0.000000 0.000000 0.000000
# 3 -0.000530 -0.002754 0.015390 0.000000 0.000000 0.000000
# 4 0.000000 0.000000 0.000000 0.893794 0.000000 0.000000
# 5 0.000000 0.000000 0.000000 0.000000 0.016675 0.000000
# 6 0.000000 0.000000 0.000000 0.000000 0.000000 0.029936
#
#
# Mechanical properties :
#
#
# Convention : Reuss Voigt Hill
#
# Bulk Modulus (GPa) = 9.82871 18.56985 14.19928
# Shear Modulus (GPa) = 4.75262 32.44949 18.60105
#
# Velocity S-wave (km/s) = 1.42714 3.72911 2.82339
# Velocity P-wave (km/s) = 2.63207 5.14780 4.08825
#
# Compressibility (1/GPa) = 0.10174271
#
# Stress axis : x y z
#
# Youngs Moduli (GPa) = 93.93019 15.69823 64.97663
#
# Poissons Ratio (x) = -0.14579 0.03447
# Poissons Ratio (y) = -0.87234 0.17896
# Poissons Ratio (z) = 0.04983 0.04324
#
# Static dielectric constant tensor:
#      x y z
#    x 1.917230 0.000000 0.000000 
#    y 0.000000 1.889440 0.000000 
#    z 0.000000 0.000000 1.912160 
# 
# From -- ./inp_files/10000.got.cif
#   From: 2010.05.17/outbox.cif.g08.bks.cpg/sg58_5_cif.got.tgz:10000.got - 2010.06.03 14:20:14.
