data_PCOD9442445
_publ_section_title
;
Structure prediction by ZEFSAII (Michael W. Deem and Ramdas Pophale) SiO2 
 PCOD9442445
Probable space group: P N N M
;
_chemical_formula_sum "Si O2"
_cell_formula_units_Z 64
_cell_length_a 25.248407
_cell_length_b 15.295780
_cell_length_c 7.610793
_cell_angle_alpha 90.000000
_cell_angle_beta 90.000000
_cell_angle_gamma 90.000000
_cell_volume 2939.243192
_symmetry_space_group_name_H-M "P N N M"
_symmetry_group_IT_number 58
_symmetry_cell_setting 'orthorhombic'
loop_
_space_group_symop_operation_xyz
x,y,z
-x,-y,z
1/2+x,1/2-y,1/2-z
1/2-x,1/2+y,1/2-z
-x,-y,-z
x,y,-z
1/2-x,1/2+y,1/2+z
1/2+x,1/2-y,1/2+z
loop_
_atom_site_type_symbol
_atom_site_label
_atom_site_fract_x
_atom_site_fract_y
_atom_site_fract_z
Si Si1 0.233160 0.160658 0.787906
Si Si2 0.123668 0.437363 0.290242
Si Si3 0.935108 0.247623 0.703396
Si Si4 0.050785 0.945244 0.284356
Si Si5 0.831086 0.008506 0.291466
Si Si6 0.649619 0.874116 0.215030
Si Si7 0.989377 0.597447 0.796960
Si Si8 0.238649 0.360730 0.209816
O O1 0.189111 0.090593 0.734737
O O2 0.289840 0.122745 0.730313
O O3 0.233281 0.260915 0.723718
O O4 0.231979 0.163412 0.000000
O O5 0.118981 0.435140 0.500000
O O6 0.120439 0.537897 0.228963
O O7 0.073472 0.386800 0.215401
O O8 0.181742 0.404215 0.242327
O O9 0.922715 0.229678 0.500000
O O10 0.953719 0.155482 0.775363
O O11 0.881557 0.289352 0.779641
O O12 0.978177 0.324428 0.710984
O O13 0.049845 0.949567 0.500000
O O14 0.109034 0.977621 0.226174
O O15 0.000000 0.000000 0.224135
O O16 0.833218 0.023979 0.500000
O O17 0.786706 0.077732 0.221589
O O18 0.649039 0.873155 0.000000
O O19 0.000000 0.500000 0.721164
O O20 0.005586 0.595812 0.000000
O O21 0.246757 0.354245 0.000000
#
# Coordination Sequence:
#
# PCOD9442445 Si02
#       8
#     8   8   8   8   8   8   8   8
#     4  10  20  36  57  82 113 152 192 233 284 343
#     4  11  21  35  57  81 110 147 191 237 275 332
#     4  10  19  35  60  84 109 149 197 237 277 334
#     4   9  19  36  59  86 113 143 186 240 286 329
#     4  10  20  36  58  84 115 149 187 235 290 344
#     4   9  17  31  54  81 107 142 191 236 273 324
#     4  11  23  37  54  81 119 152 182 229 288 343
#     4  10  21  36  55  82 118 153 186 231 292 345
#
# _framework density 21.774312999999999
#
# number of rings (size 3 to 8) (size 9 to 14) (size 15 to 20)
#    0.000    2.000    2.500    1.500    0.000    5.000 
#    0.000    2.500    0.000    2.250    0.000    0.000 
#    0.000    0.000    0.000    0.000    0.000    0.000 
#
# Total GULP energy -357301.343854 kJ/mol
# GULP energy per Si atom -5582.833498 kJ/mol
# Density = 2.172475 g / cm^3
# Si number density = 21.774313 Si / 1000 Ang^3
#
#
#
# Elastic Constant Matrix: (Units=GPa)
#
#
# Indices 1 2 3 4 5 6 
#
# 1 156.6228 72.7443 -4.4255 0.0000 0.0000 0.0000
# 2 72.7443 135.1978 2.2340 0.0000 0.0000 0.0000
# 3 -4.4255 2.2340 46.0680 0.0000 0.0000 0.0000
# 4 0.0000 0.0000 0.0000 13.4658 0.0000 0.0000
# 5 0.0000 0.0000 0.0000 0.0000 17.4110 0.0000
# 6 0.0000 0.0000 0.0000 0.0000 0.0000 31.2862
#
#
#
# Elastic Compliance Matrix: (Units=1/GPa)
#
#
# Indices 1 2 3 4 5 6 
#
# 1 0.008562 -0.004624 0.001047 0.000000 0.000000 0.000000
# 2 -0.004624 0.009900 -0.000924 0.000000 0.000000 0.000000
# 3 0.001047 -0.000924 0.021852 0.000000 0.000000 0.000000
# 4 0.000000 0.000000 0.000000 0.074262 0.000000 0.000000
# 5 0.000000 0.000000 0.000000 0.000000 0.057435 0.000000
# 6 0.000000 0.000000 0.000000 0.000000 0.000000 0.031963
#
#
# Mechanical properties :
#
#
# Convention : Reuss Voigt Hill
#
# Bulk Modulus (GPa) = 31.93770 53.22158 42.57964
# Shear Modulus (GPa) = 22.37988 30.25499 26.31743
#
# Velocity S-wave (km/s) = 3.20943 3.73162 3.48033
# Velocity P-wave (km/s) = 5.33229 6.56217 5.97894
#
# Compressibility (1/GPa) = 0.03131096
#
# Stress axis : x y z
#
# Youngs Moduli (GPa) = 116.79407 101.01083 45.76149
#
# Poissons Ratio (x) = 0.46709 -0.04790
# Poissons Ratio (y) = 0.54008 0.04230
# Poissons Ratio (z) = -0.12226 0.09336
#
# Static dielectric constant tensor:
#      x y z
#    x 1.781810 0.000000 0.000000 
#    y 0.000000 1.811100 0.000000 
#    z 0.000000 0.000000 1.831280 
# 
# From -- ./inp_files/6800.got.cif
#   From: 2010.05.17/outbox.cif.g08.bks.cpg/sg58_4_cif.got.tgz:6800.got - 2010.06.03 14:20:14.
