data_PCOD9442918
_publ_section_title
;
Structure prediction by ZEFSAII (Michael W. Deem and Ramdas Pophale) SiO2 
 PCOD9442918
Probable space group: P N N M
;
_chemical_formula_sum "Si O2"
_cell_formula_units_Z 40
_cell_length_a 8.172339
_cell_length_b 24.391245
_cell_length_c 7.550306
_cell_angle_alpha 90.000000
_cell_angle_beta 90.000000
_cell_angle_gamma 90.000000
_cell_volume 1505.029093
_symmetry_space_group_name_H-M "P N N M"
_symmetry_group_IT_number 58
_symmetry_cell_setting 'orthorhombic'
loop_
_space_group_symop_operation_xyz
x,y,z
-x,-y,z
1/2+x,1/2-y,1/2-z
1/2-x,1/2+y,1/2-z
-x,-y,-z
x,y,-z
1/2-x,1/2+y,1/2+z
1/2+x,1/2-y,1/2+z
loop_
_atom_site_type_symbol
_atom_site_label
_atom_site_fract_x
_atom_site_fract_y
_atom_site_fract_z
Si Si1 0.659880 0.969594 0.710968
Si Si2 0.852550 0.069948 0.283432
Si Si3 0.176400 0.136826 0.799574
Si Si4 0.042831 0.768172 0.782262
Si Si5 0.130521 0.334496 0.796067
O O1 0.655696 0.975776 0.500000
O O2 0.683695 0.905126 0.739332
O O3 0.500000 0.000000 0.782820
O O4 0.810434 0.008196 0.769502
O O5 0.865538 0.072552 0.500000
O O6 0.699957 0.108468 0.224565
O O7 0.014509 0.098171 0.212031
O O8 0.107123 0.192821 0.716346
O O9 0.212517 0.149976 0.000000
O O10 0.009022 0.705855 0.723839
O O11 0.207345 0.795760 0.712641
O O12 0.047033 0.769615 0.000000
O O13 0.088242 0.345005 0.000000
#
# Coordination Sequence:
#
# PCOD9442918 Si02
#       5
#     8   8   8   8   8
#     4  10  21  35  51  74 101 128 164 209 251 291
#     4   9  18  34  54  73  96 129 167 204 242 289
#     4  10  20  34  52  74 101 133 166 200 243 296
#     4   9  19  34  51  75 104 130 162 204 245 290
#     4   9  18  33  52  73  98 130 165 200 243 292
#
# _framework density 26.577556999999999
#
# number of rings (size 3 to 8) (size 9 to 14) (size 15 to 20)
#    0.000    2.600    0.000    1.200    0.000    6.800 
#    0.000    2.000    0.000    0.000    0.000    0.000 
#    0.000    0.000    0.000    0.000    0.000    0.000 
#
# Total GULP energy -223549.674685 kJ/mol
# GULP energy per Si atom -5588.741867 kJ/mol
# Density = 2.651707 g / cm^3
# Si number density = 26.577557 Si / 1000 Ang^3
#
#
#
# Elastic Constant Matrix: (Units=GPa)
#
#
# Indices 1 2 3 4 5 6 
#
# 1 71.7554 5.3606 8.3999 0.0000 0.0000 0.0000
# 2 5.3606 162.5916 6.2521 0.0000 0.0000 0.0000
# 3 8.3999 6.2521 77.4741 0.0000 0.0000 0.0000
# 4 0.0000 0.0000 0.0000 20.1685 0.0000 0.0000
# 5 0.0000 0.0000 0.0000 0.0000 24.0605 0.0000
# 6 0.0000 0.0000 0.0000 0.0000 0.0000 52.4244
#
#
#
# Elastic Compliance Matrix: (Units=1/GPa)
#
#
# Indices 1 2 3 4 5 6 
#
# 1 0.014142 -0.000409 -0.001500 0.000000 0.000000 0.000000
# 2 -0.000409 0.006181 -0.000455 0.000000 0.000000 0.000000
# 3 -0.001500 -0.000455 0.013107 0.000000 0.000000 0.000000
# 4 0.000000 0.000000 0.000000 0.049582 0.000000 0.000000
# 5 0.000000 0.000000 0.000000 0.000000 0.041562 0.000000
# 6 0.000000 0.000000 0.000000 0.000000 0.000000 0.019075
#
#
# Mechanical properties :
#
#
# Convention : Reuss Voigt Hill
#
# Bulk Modulus (GPa) = 34.83877 39.09403 36.96640
# Shear Modulus (GPa) = 31.65661 38.78456 35.22058
#
# Velocity S-wave (km/s) = 3.45498 3.82422 3.64428
# Velocity P-wave (km/s) = 5.39005 5.85157 5.62555
#
# Compressibility (1/GPa) = 0.02870365
#
# Stress axis : x y z
#
# Youngs Moduli (GPa) = 70.70936 161.77756 76.29572
#
# Poissons Ratio (x) = 0.06610 0.11447
# Poissons Ratio (y) = 0.02889 0.03468
# Poissons Ratio (z) = 0.10609 0.07353
#
# Static dielectric constant tensor:
#      x y z
#    x 2.184280 0.000000 0.000000 
#    y 0.000000 2.063270 0.000000 
#    z 0.000000 0.000000 1.977780 
# 
# From -- ./inp_files/2429.got.cif
#   From: 2010.05.17/outbox.cif.g08.bks.cpg/sg58_2_cif.got.tgz:2429.got - 2010.06.03 14:20:14.
