data_PCOD9442264
_publ_section_title
;
Structure prediction by ZEFSAII (Michael W. Deem and Ramdas Pophale) SiO2 
 PCOD9442264
Probable space group: P N N M
;
_chemical_formula_sum "Si O2"
_cell_formula_units_Z 64
_cell_length_a 14.110321
_cell_length_b 24.912108
_cell_length_c 9.084654
_cell_angle_alpha 90.000000
_cell_angle_beta 90.000000
_cell_angle_gamma 90.000000
_cell_volume 3193.417957
_symmetry_space_group_name_H-M "P N N M"
_symmetry_group_IT_number 58
_symmetry_cell_setting 'orthorhombic'
loop_
_space_group_symop_operation_xyz
x,y,z
-x,-y,z
1/2+x,1/2-y,1/2-z
1/2-x,1/2+y,1/2-z
-x,-y,-z
x,y,-z
1/2-x,1/2+y,1/2+z
1/2+x,1/2-y,1/2+z
loop_
_atom_site_type_symbol
_atom_site_label
_atom_site_fract_x
_atom_site_fract_y
_atom_site_fract_z
Si Si1 0.227191 0.661993 0.168485
Si Si2 0.061089 0.282384 0.825923
Si Si3 0.234193 0.458324 0.175784
Si Si4 0.545165 0.327745 0.170119
Si Si5 0.111509 0.887145 0.827807
Si Si6 0.147936 0.560785 0.326449
Si Si7 0.534579 0.095918 0.324807
Si Si8 0.260126 0.281627 0.671196
O O1 0.341552 0.664439 0.177585
O O2 0.189117 0.618591 0.280747
O O3 0.193929 0.723111 0.194288
O O4 0.200874 0.646850 0.000000
O O5 0.024178 0.230538 0.739924
O O6 0.019565 0.341028 0.791306
O O7 0.171671 0.286765 0.779977
O O8 0.051112 0.273213 0.000000
O O9 0.327074 0.431859 0.245446
O O10 0.209064 0.515535 0.245093
O O11 0.142177 0.421111 0.209567
O O12 0.243157 0.462044 0.000000
O O13 0.489262 0.373731 0.256383
O O14 0.516282 0.328310 0.000000
O O15 0.170249 0.831388 0.812899
O O16 0.103195 0.899713 0.000000
O O17 0.148940 0.552378 0.500000
O O18 0.041279 0.561416 0.263506
O O19 0.521161 0.087996 0.500000
O O20 0.225196 0.281043 0.500000
#
# Coordination Sequence:
#
# PCOD9442264 Si02
#       8
#     8   8   8   8   8   8   8   8
#     4   9  20  41  62  83 118 162 203 246 297 360
#     4  10  19  34  57  87 121 157 198 242 292 350
#     4  11  23  43  65  87 119 162 205 249 299 363
#     4  10  22  39  60  88 123 162 202 246 302 361
#     4  11  22  37  61  93 125 159 199 250 302 356
#     4  12  26  40  60  90 119 156 203 257 307 355
#     4  10  22  39  60  87 120 161 202 241 294 362
#     4   9  19  35  57  85 120 158 193 237 298 356
#
# _framework density 20.041222000000001
#
# number of rings (size 3 to 8) (size 9 to 14) (size 15 to 20)
#    0.000    1.750    1.250    3.750    1.750    6.500 
#    0.000    0.625    0.000    3.750    0.000    0.000 
#    0.000    0.000    0.000    0.000    0.000    0.000 
#
# Total GULP energy -357788.812337 kJ/mol
# GULP energy per Si atom -5590.450193 kJ/mol
# Density = 1.999561 g / cm^3
# Si number density = 20.041222 Si / 1000 Ang^3
#
#
#
# Elastic Constant Matrix: (Units=GPa)
#
#
# Indices 1 2 3 4 5 6 
#
# 1 28.2327 -6.3400 10.3498 0.0000 0.0000 0.0000
# 2 -6.3400 50.5907 21.9194 0.0000 0.0000 0.0000
# 3 10.3498 21.9194 65.3603 0.0000 0.0000 0.0000
# 4 0.0000 0.0000 0.0000 20.3933 0.0000 0.0000
# 5 0.0000 0.0000 0.0000 0.0000 23.0660 0.0000
# 6 0.0000 0.0000 0.0000 0.0000 0.0000 31.7739
#
#
#
# Elastic Compliance Matrix: (Units=1/GPa)
#
#
# Indices 1 2 3 4 5 6 
#
# 1 0.041038 0.009311 -0.009621 0.000000 0.000000 0.000000
# 2 0.009311 0.025240 -0.009939 0.000000 0.000000 0.000000
# 3 -0.009621 -0.009939 0.020156 0.000000 0.000000 0.000000
# 4 0.000000 0.000000 0.000000 0.049036 0.000000 0.000000
# 5 0.000000 0.000000 0.000000 0.000000 0.043354 0.000000
# 6 0.000000 0.000000 0.000000 0.000000 0.000000 0.031472
#
#
# Mechanical properties :
#
#
# Convention : Reuss Voigt Hill
#
# Bulk Modulus (GPa) = 15.16602 21.78245 18.47424
# Shear Modulus (GPa) = 19.78067 22.93025 21.35546
#
# Velocity S-wave (km/s) = 3.14506 3.38620 3.26786
# Velocity P-wave (km/s) = 4.55767 5.11673 4.84527
#
# Compressibility (1/GPa) = 0.06593688
#
# Stress axis : x y z
#
# Youngs Moduli (GPa) = 24.36770 39.62026 49.61200
#
# Poissons Ratio (x) = -0.36892 0.47732
# Poissons Ratio (y) = -0.22690 0.49309
# Poissons Ratio (z) = 0.23444 0.39378
#
# Static dielectric constant tensor:
#      x y z
#    x 1.722650 0.000000 0.000000 
#    y 0.000000 1.707140 0.000000 
#    z 0.000000 0.000000 1.668610 
# 
# From -- ./inp_files/6777.got.cif
#   From: 2010.05.17/outbox.cif.g08.bks.cpg/sg58_4_cif.got.tgz:6777.got - 2010.06.03 14:20:14.
