data_PCOD9442807
_publ_section_title
;
Structure prediction by ZEFSAII (Michael W. Deem and Ramdas Pophale) SiO2 
 PCOD9442807
Probable space group: P N N M
;
_chemical_formula_sum "Si O2"
_cell_formula_units_Z 64
_cell_length_a 24.219524
_cell_length_b 15.665477
_cell_length_c 7.626252
_cell_angle_alpha 90.000000
_cell_angle_beta 90.000000
_cell_angle_gamma 90.000000
_cell_volume 2893.479293
_symmetry_space_group_name_H-M "P N N M"
_symmetry_group_IT_number 58
_symmetry_cell_setting 'orthorhombic'
loop_
_space_group_symop_operation_xyz
x,y,z
-x,-y,z
1/2+x,1/2-y,1/2-z
1/2-x,1/2+y,1/2-z
-x,-y,-z
x,y,-z
1/2-x,1/2+y,1/2+z
1/2+x,1/2-y,1/2+z
loop_
_atom_site_type_symbol
_atom_site_label
_atom_site_fract_x
_atom_site_fract_y
_atom_site_fract_z
Si Si1 0.250232 0.422893 0.714262
Si Si2 0.368389 0.992679 0.210453
Si Si3 0.539163 0.421934 0.714775
Si Si4 0.023837 0.413350 0.795270
Si Si5 0.028617 0.758620 0.211704
Si Si6 0.639462 0.818374 0.207744
Si Si7 0.165198 0.065347 0.207830
Si Si8 0.261369 0.729356 0.199550
O O1 0.254564 0.418517 0.500000
O O2 0.194157 0.472553 0.758361
O O3 0.300484 0.483158 0.776860
O O4 0.242522 0.325325 0.778243
O O5 0.410681 0.923640 0.283030
O O6 0.382551 0.088931 0.268944
O O7 0.372567 0.989300 0.000000
O O8 0.500000 0.500000 0.765719
O O9 0.540974 0.420489 0.500000
O O10 0.506975 0.337785 0.774488
O O11 0.602581 0.427369 0.776286
O O12 0.000000 0.500000 0.713455
O O13 0.999658 0.327527 0.718226
O O14 0.008251 0.412785 0.000000
O O15 0.093081 0.752296 0.257935
O O16 0.025880 0.760099 0.000000
O O17 0.698096 0.801482 0.294009
O O18 0.649478 0.824269 0.000000
O O19 0.200014 0.153490 0.227679
O O20 0.160402 0.051069 0.000000
O O21 0.280373 0.740263 0.000000
#
# Coordination Sequence:
#
# PCOD9442807 Si02
#       8
#     8   8   8   8   8   8   8   8
#     4   9  20  38  59  83 112 153 194 236 291 353
#     4  10  20  36  56  79 110 149 191 228 274 346
#     4   9  20  37  62  88 111 154 209 249 284 338
#     4  10  20  33  50  80 118 149 178 223 281 336
#     4  10  21  37  57  85 118 152 194 240 290 343
#     4  11  22  38  60  85 115 152 196 241 293 352
#     4  10  20  40  64  88 121 155 198 251 296 348
#     4  11  23  38  61  90 117 152 195 242 301 357
#
# _framework density 22.118701000000001
#
# number of rings (size 3 to 8) (size 9 to 14) (size 15 to 20)
#    0.000    2.000    2.500    0.750    3.500    1.250 
#    0.000    2.500    0.000    0.750    0.000    0.000 
#    0.000    0.000    0.000    0.000    0.000    0.000 
#
# Total GULP energy -357307.783639 kJ/mol
# GULP energy per Si atom -5582.934119 kJ/mol
# Density = 2.206836 g / cm^3
# Si number density = 22.118701 Si / 1000 Ang^3
#
#
#
# Elastic Constant Matrix: (Units=GPa)
#
#
# Indices 1 2 3 4 5 6 
#
# 1 161.1878 70.1376 -5.4278 0.0000 0.0000 0.0000
# 2 70.1376 143.8497 2.2941 0.0000 0.0000 0.0000
# 3 -5.4278 2.2941 45.2636 0.0000 0.0000 0.0000
# 4 0.0000 0.0000 0.0000 12.0764 0.0000 0.0000
# 5 0.0000 0.0000 0.0000 0.0000 10.2391 0.0000
# 6 0.0000 0.0000 0.0000 0.0000 0.0000 29.1904
#
#
#
# Elastic Compliance Matrix: (Units=1/GPa)
#
#
# Indices 1 2 3 4 5 6 
#
# 1 0.007934 -0.003887 0.001148 0.000000 0.000000 0.000000
# 2 -0.003887 0.008861 -0.000915 0.000000 0.000000 0.000000
# 3 0.001148 -0.000915 0.022277 0.000000 0.000000 0.000000
# 4 0.000000 0.000000 0.000000 0.082806 0.000000 0.000000
# 5 0.000000 0.000000 0.000000 0.000000 0.097665 0.000000
# 6 0.000000 0.000000 0.000000 0.000000 0.000000 0.034258
#
#
# Mechanical properties :
#
#
# Convention : Reuss Voigt Hill
#
# Bulk Modulus (GPa) = 31.48110 53.81211 42.64660
# Shear Modulus (GPa) = 18.40295 29.18768 23.79532
#
# Velocity S-wave (km/s) = 2.88759 3.63656 3.28350
# Velocity P-wave (km/s) = 5.03798 6.48185 5.80498
#
# Compressibility (1/GPa) = 0.03176509
#
# Stress axis : x y z
#
# Youngs Moduli (GPa) = 126.04290 112.84988 44.88959
#
# Poissons Ratio (x) = 0.43861 -0.05155
# Poissons Ratio (y) = 0.48988 0.04108
# Poissons Ratio (z) = -0.14474 0.10328
#
# Static dielectric constant tensor:
#      x y z
#    x 1.794600 0.000000 0.000000 
#    y 0.000000 1.836680 0.000000 
#    z 0.000000 0.000000 1.827220 
# 
# From -- ./inp_files/10110.got.cif
#   From: 2010.05.17/outbox.cif.g08.bks.cpg/sg58_6_cif.got.tgz:10110.got - 2010.06.03 14:20:14.
