data_PCOD9442249
_publ_section_title
;
Structure prediction by ZEFSAII (Michael W. Deem and Ramdas Pophale) SiO2 
 PCOD9442249
Probable space group: P N N M
;
_chemical_formula_sum "Si O2"
_cell_formula_units_Z 64
_cell_length_a 24.794803
_cell_length_b 14.943672
_cell_length_c 8.707772
_cell_angle_alpha 90.000000
_cell_angle_beta 90.000000
_cell_angle_gamma 90.000000
_cell_volume 3226.450732
_symmetry_space_group_name_H-M "P N N M"
_symmetry_group_IT_number 58
_symmetry_cell_setting 'orthorhombic'
loop_
_space_group_symop_operation_xyz
x,y,z
-x,-y,z
1/2+x,1/2-y,1/2-z
1/2-x,1/2+y,1/2-z
-x,-y,-z
x,y,-z
1/2-x,1/2+y,1/2+z
1/2+x,1/2-y,1/2+z
loop_
_atom_site_type_symbol
_atom_site_label
_atom_site_fract_x
_atom_site_fract_y
_atom_site_fract_z
Si Si1 0.250455 0.142912 0.184189
Si Si2 0.169583 0.011292 0.315869
Si Si3 0.902034 0.246850 0.823429
Si Si4 0.143482 0.555799 0.176927
Si Si5 0.948742 0.561840 0.316116
Si Si6 0.473725 0.743928 0.315427
Si Si7 0.296513 0.325924 0.818726
Si Si8 0.443735 0.546884 0.685336
O O1 0.196712 0.099904 0.249989
O O2 0.301474 0.083490 0.238664
O O3 0.260770 0.244295 0.243416
O O4 0.249051 0.143886 0.000000
O O5 0.170266 0.012548 0.500000
O O6 0.108721 0.002135 0.257425
O O7 0.205415 0.926765 0.258995
O O8 0.892132 0.353344 0.820846
O O9 0.857794 0.204675 0.713239
O O10 0.963157 0.228096 0.780338
O O11 0.892732 0.216304 0.000000
O O12 0.106413 0.480312 0.251702
O O13 0.155918 0.533560 0.000000
O O14 0.947719 0.559107 0.500000
O O15 0.955799 0.663644 0.260679
O O16 0.000000 0.500000 0.264961
O O17 0.469492 0.754415 0.500000
O O18 0.444246 0.652046 0.271440
O O19 0.286254 0.329803 0.000000
O O20 0.500000 0.500000 0.730564
O O21 0.440394 0.541081 0.500000
#
# Coordination Sequence:
#
# PCOD9442249 Si02
#       8
#     8   8   8   8   8   8   8   8
#     4  10  21  40  63  87 116 150 196 249 298 352
#     4  11  23  41  63  90 122 157 199 247 303 364
#     4   9  17  30  54  84 112 146 194 241 282 339
#     4  10  19  34  57  83 114 153 198 247 296 349
#     4  11  22  34  52  82 121 163 203 246 296 355
#     4  10  20  35  55  83 117 157 198 240 295 354
#     4   9  20  37  59  85 113 148 190 238 294 349
#     4  10  22  41  65  91 121 157 199 249 305 365
#
# _framework density 19.836039
#
# number of rings (size 3 to 8) (size 9 to 14) (size 15 to 20)
#    0.000    2.000    1.250    2.250    0.000    4.750 
#    2.250    0.000    0.000    0.000    0.000    0.000 
#    0.000    0.000    0.000    0.000    0.000    0.000 
#
# Total GULP energy -357257.499257 kJ/mol
# GULP energy per Si atom -5582.148426 kJ/mol
# Density = 1.979089 g / cm^3
# Si number density = 19.836039 Si / 1000 Ang^3
#
#
#
# Elastic Constant Matrix: (Units=GPa)
#
#
# Indices 1 2 3 4 5 6 
#
# 1 67.6489 32.3238 17.5739 0.0000 0.0000 0.0000
# 2 32.3238 116.7045 27.2990 0.0000 0.0000 0.0000
# 3 17.5739 27.2990 30.7503 0.0000 0.0000 0.0000
# 4 0.0000 0.0000 0.0000 12.9507 0.0000 0.0000
# 5 0.0000 0.0000 0.0000 0.0000 25.6369 0.0000
# 6 0.0000 0.0000 0.0000 0.0000 0.0000 28.3474
#
#
#
# Elastic Compliance Matrix: (Units=1/GPa)
#
#
# Indices 1 2 3 4 5 6 
#
# 1 0.018321 -0.003313 -0.007529 0.000000 0.000000 0.000000
# 2 -0.003313 0.011414 -0.008239 0.000000 0.000000 0.000000
# 3 -0.007529 -0.008239 0.044137 0.000000 0.000000 0.000000
# 4 0.000000 0.000000 0.000000 0.077216 0.000000 0.000000
# 5 0.000000 0.000000 0.000000 0.000000 0.039006 0.000000
# 6 0.000000 0.000000 0.000000 0.000000 0.000000 0.035277
#
#
# Mechanical properties :
#
#
# Convention : Reuss Voigt Hill
#
# Bulk Modulus (GPa) = 28.00410 41.05525 34.52967
# Shear Modulus (GPa) = 18.15294 22.58078 20.36686
#
# Velocity S-wave (km/s) = 3.02843 3.37764 3.20779
# Velocity P-wave (km/s) = 5.13585 5.99612 5.58258
#
# Compressibility (1/GPa) = 0.03570906
#
# Stress axis : x y z
#
# Youngs Moduli (GPa) = 54.58126 87.61512 22.65655
#
# Poissons Ratio (x) = 0.29029 0.17059
# Poissons Ratio (y) = 0.18084 0.18667
# Poissons Ratio (z) = 0.41096 0.72186
#
# Static dielectric constant tensor:
#      x y z
#    x 1.674250 0.000000 0.000000 
#    y 0.000000 1.722920 0.000000 
#    z 0.000000 0.000000 1.677340 
# 
# From -- ./inp_files/10030.got.cif
#   From: 2010.05.17/outbox.cif.g08.bks.cpg/sg58_6_cif.got.tgz:10030.got - 2010.06.03 14:20:14.
