data_PCOD9442037
_publ_section_title
;
Structure prediction by ZEFSAII (Michael W. Deem and Ramdas Pophale) SiO2 
 PCOD9442037
Probable space group: P N N M
;
_chemical_formula_sum "Si O2"
_cell_formula_units_Z 48
_cell_length_a 8.947486
_cell_length_b 14.845812
_cell_length_c 16.471782
_cell_angle_alpha 90.000000
_cell_angle_beta 90.000000
_cell_angle_gamma 90.000000
_cell_volume 2187.991195
_symmetry_space_group_name_H-M "P N N M"
_symmetry_group_IT_number 58
_symmetry_cell_setting 'orthorhombic'
loop_
_space_group_symop_operation_xyz
x,y,z
-x,-y,z
1/2+x,1/2-y,1/2-z
1/2-x,1/2+y,1/2-z
-x,-y,-z
x,y,-z
1/2-x,1/2+y,1/2+z
1/2+x,1/2-y,1/2+z
loop_
_atom_site_type_symbol
_atom_site_label
_atom_site_fract_x
_atom_site_fract_y
_atom_site_fract_z
Si Si1 0.177243 0.484916 0.825550
Si Si2 0.855729 0.744614 0.500000
Si Si3 0.320052 0.984720 0.500000
Si Si4 0.289839 0.276289 0.000000
Si Si5 0.158880 0.272136 0.168114
Si Si6 0.172443 0.976787 0.162807
Si Si7 0.169222 0.472278 0.500000
Si Si8 0.306817 0.259581 0.334615
O O1 0.231727 0.521658 0.912794
O O2 0.201867 0.377570 0.829501
O O3 0.256787 0.517022 0.744442
O O4 0.000000 0.500000 0.818381
O O5 0.835105 0.636296 0.500000
O O6 0.774925 0.773273 0.416398
O O7 0.030392 0.771142 0.500000
O O8 0.274318 0.879138 0.500000
O O9 0.500000 0.000000 0.500000
O O10 0.226585 0.234738 0.083930
O O11 0.224198 0.231542 0.251357
O O12 0.979871 0.267994 0.166260
O O13 0.193168 0.868643 0.164266
O O14 0.251572 0.007349 0.080721
O O15 0.000000 0.000000 0.159883
O O16 0.000000 0.500000 0.500000
#
# Coordination Sequence:
#
# PCOD9442037 Si02
#       8
#     8   4   4   4   8   8   4   8
#     4   9  18  34  54  75 101 135 175 212 256 317
#     4  10  21  36  53  79 110 138 181 230 266 320
#     4   8  16  33  55  76 104 138 171 212 261 317
#     4  10  19  33  55  80 106 140 179 221 270 323
#     4  10  20  34  54  78 105 140 175 218 272 323
#     4  10  21  35  52  76 106 137 174 221 265 313
#     4  10  21  36  54  75 103 142 180 217 267 320
#     4  10  21  36  53  78 109 140 179 224 272 324
#
# _framework density 21.937930000000001
#
# number of rings (size 3 to 8) (size 9 to 14) (size 15 to 20)
#    0.000    2.333    0.000    2.250    0.000    2.667 
#    0.000    0.417    0.000    0.000    0.000    0.000 
#    0.000    0.000    0.000    0.000    0.000    0.000 
#
# Total GULP energy -268037.436952 kJ/mol
# GULP energy per Si atom -5584.113270 kJ/mol
# Density = 2.188800 g / cm^3
# Si number density = 21.937930 Si / 1000 Ang^3
#
#
#
# Elastic Constant Matrix: (Units=GPa)
#
#
# Indices 1 2 3 4 5 6 
#
# 1 151.9370 -10.3299 131.8216 0.0000 0.0000 0.0000
# 2 -10.3299 67.7995 20.6698 0.0000 0.0000 0.0000
# 3 131.8216 20.6698 297.9478 0.0000 0.0000 0.0000
# 4 0.0000 0.0000 0.0000 55.5848 0.0000 0.0000
# 5 0.0000 0.0000 0.0000 0.0000 58.7213 0.0000
# 6 0.0000 0.0000 0.0000 0.0000 0.0000 31.5345
#
#
#
# Elastic Compliance Matrix: (Units=1/GPa)
#
#
# Indices 1 2 3 4 5 6 
#
# 1 0.011377 0.003338 -0.005265 0.000000 0.000000 0.000000
# 2 0.003338 0.016048 -0.002590 0.000000 0.000000 0.000000
# 3 -0.005265 -0.002590 0.005865 0.000000 0.000000 0.000000
# 4 0.000000 0.000000 0.000000 0.017991 0.000000 0.000000
# 5 0.000000 0.000000 0.000000 0.000000 0.017030 0.000000
# 6 0.000000 0.000000 0.000000 0.000000 0.000000 0.031711
#
#
# Mechanical properties :
#
#
# Convention : Reuss Voigt Hill
#
# Bulk Modulus (GPa) = 41.22694 89.11191 65.16942
# Shear Modulus (GPa) = 42.68393 54.20297 48.44345
#
# Velocity S-wave (km/s) = 4.41576 4.97605 4.70425
# Velocity P-wave (km/s) = 6.69566 8.58621 7.69918
#
# Compressibility (1/GPa) = 0.02425598
#
# Stress axis : x y z
#
# Youngs Moduli (GPa) = 87.90000 62.31415 170.49197
#
# Poissons Ratio (x) = -0.20803 0.89763
# Poissons Ratio (y) = -0.29345 0.44163
# Poissons Ratio (z) = 0.46279 0.16141
#
# Static dielectric constant tensor:
#      x y z
#    x 1.723080 0.000000 0.000000 
#    y 0.000000 1.674210 0.000000 
#    z 0.000000 0.000000 1.817200 
# 
# From -- ./inp_files/19929.got.cif
#   From: 2010.05.17/outbox.cif.g08.bks.cpg/sg58_10_cif.got.tgz:19929.got - 2010.06.03 14:20:14.
