data_PCOD9442373
_publ_section_title
;
Structure prediction by ZEFSAII (Michael W. Deem and Ramdas Pophale) SiO2 
 PCOD9442373
Probable space group: P N N M
;
_chemical_formula_sum "Si O2"
_cell_formula_units_Z 58
_cell_length_a 14.866725
_cell_length_b 23.099514
_cell_length_c 7.611178
_cell_angle_alpha 90.000000
_cell_angle_beta 90.000000
_cell_angle_gamma 90.000000
_cell_volume 2613.786012
_symmetry_space_group_name_H-M "P N N M"
_symmetry_group_IT_number 58
_symmetry_cell_setting 'orthorhombic'
loop_
_space_group_symop_operation_xyz
x,y,z
-x,-y,z
1/2+x,1/2-y,1/2-z
1/2-x,1/2+y,1/2-z
-x,-y,-z
x,y,-z
1/2-x,1/2+y,1/2+z
1/2+x,1/2-y,1/2+z
loop_
_atom_site_type_symbol
_atom_site_label
_atom_site_fract_x
_atom_site_fract_y
_atom_site_fract_z
Si Si1 0.704399 0.724459 0.786901
Si Si2 0.874325 0.788492 0.201624
Si Si3 0.203314 0.027022 0.708068
Si Si4 0.526917 0.793245 0.212023
Si Si5 0.880917 0.407483 0.691945
Si Si6 0.033349 0.094878 0.297436
Si Si7 0.171647 0.901989 0.284549
Si Si8 0.000000 0.500000 0.500000
O O1 0.778639 0.769601 0.721676
O O2 0.605168 0.747191 0.747553
O O3 0.714262 0.658500 0.724670
O O4 0.713374 0.724343 0.000000
O O5 0.925635 0.840663 0.294614
O O6 0.935711 0.731223 0.208973
O O7 0.863622 0.807189 0.000000
O O8 0.189503 0.022298 0.500000
O O9 0.288995 0.067988 0.731696
O O10 0.110905 0.054121 0.781856
O O11 0.218354 0.961550 0.773358
O O12 0.563784 0.855089 0.276299
O O13 0.513523 0.795653 0.000000
O O14 0.852692 0.382806 0.500000
O O15 0.947669 0.460370 0.649688
O O16 0.021474 0.076778 0.500000
O O17 0.932603 0.094958 0.224443
O O18 0.172340 0.899290 0.500000
#
# Coordination Sequence:
#
# PCOD9442373 Si02
#       8
#     8   8   8   8   8   8   8   2
#     4   9  18  33  54  78 108 144 185 223 281 345
#     4  11  22  34  55  87 115 143 189 239 289 333
#     4  10  20  33  58  90 110 140 193 244 283 319
#     4  10  19  37  60  79 104 154 192 224 276 339
#     4   9  20  38  59  78 113 152 191 228 277 354
#     4  10  19  35  57  81 114 153 190 225 276 355
#     4   9  17  33  55  79 112 148 185 229 276 343
#     4   8  20  40  58  80 110 156 198 218 276 358
#
# _framework density 22.190031999999999
#
# number of rings (size 3 to 8) (size 9 to 14) (size 15 to 20)
#    0.414    1.931    1.379    1.655    0.000    4.966 
#    0.000    2.414    0.000    1.655    0.000    0.000 
#    0.000    0.000    0.000    0.000    0.000    0.000 
#
# Total GULP energy -323038.945379 kJ/mol
# GULP energy per Si atom -5569.636989 kJ/mol
# Density = 2.213953 g / cm^3
# Si number density = 22.190032 Si / 1000 Ang^3
#
#
#
# Elastic Constant Matrix: (Units=GPa)
#
#
# Indices 1 2 3 4 5 6 
#
# 1 23.9010 -10.2770 -5.1930 0.0000 0.0000 0.0000
# 2 -10.2770 68.6658 -3.5383 0.0000 0.0000 0.0000
# 3 -5.1930 -3.5383 43.3454 0.0000 0.0000 0.0000
# 4 0.0000 0.0000 0.0000 7.8539 0.0000 0.0000
# 5 0.0000 0.0000 0.0000 0.0000 -429.3769 0.0000
# 6 0.0000 0.0000 0.0000 0.0000 0.0000 39.8203
#
#
#
# Elastic Compliance Matrix: (Units=1/GPa)
#
#
# Indices 1 2 3 4 5 6 
#
# 1 0.046287 0.007244 0.006137 0.000000 0.000000 0.000000
# 2 0.007244 0.015758 0.002154 0.000000 0.000000 0.000000
# 3 0.006137 0.002154 0.023982 0.000000 0.000000 0.000000
# 4 0.000000 0.000000 0.000000 0.127326 0.000000 0.000000
# 5 0.000000 0.000000 0.000000 0.000000 -0.002329 0.000000
# 6 0.000000 0.000000 0.000000 0.000000 0.000000 0.025113
#
#
# Mechanical properties :
#
#
# Convention : Reuss Voigt Hill
#
# Bulk Modulus (GPa) = 8.53992 10.87729 9.70861
# Shear Modulus (GPa) = 20.48346 -66.01252 -22.76453
#
# Velocity S-wave (km/s) = 3.04154 -5.46016 -3.20643
# Velocity P-wave (km/s) = 4.02387 5.90242 3.05344
#
# Compressibility (1/GPa) = 0.11709708
#
# Stress axis : x y z
#
# Youngs Moduli (GPa) = 21.60419 63.45795 41.69870
#
# Poissons Ratio (x) = -0.45968 -0.25589
# Poissons Ratio (y) = -0.15650 -0.08983
# Poissons Ratio (z) = -0.13258 -0.13670
#
# Static dielectric constant tensor:
#      x y z
#    x 1.783370 0.000000 0.000000 
#    y 0.000000 1.845620 0.000000 
#    z 0.000000 0.000000 1.854410 
# 
# From -- ./inp_files/6670.got.cif
#   From: 2010.05.17/outbox.cif.g08.bks.cpg/sg58_4_cif.got.tgz:6670.got - 2010.06.03 14:20:14.
