data_PCOD9442884
_publ_section_title
;
Structure prediction by ZEFSAII (Michael W. Deem and Ramdas Pophale) SiO2 
 PCOD9442884
Probable space group: P N N M
;
_chemical_formula_sum "Si O2"
_cell_formula_units_Z 32
_cell_length_a 13.990031
_cell_length_b 10.497955
_cell_length_c 8.558723
_cell_angle_alpha 90.000000
_cell_angle_beta 90.000000
_cell_angle_gamma 90.000000
_cell_volume 1256.991539
_symmetry_space_group_name_H-M "P N N M"
_symmetry_group_IT_number 58
_symmetry_cell_setting 'orthorhombic'
loop_
_space_group_symop_operation_xyz
x,y,z
-x,-y,z
1/2+x,1/2-y,1/2-z
1/2-x,1/2+y,1/2-z
-x,-y,-z
x,y,-z
1/2-x,1/2+y,1/2+z
1/2+x,1/2-y,1/2+z
loop_
_atom_site_type_symbol
_atom_site_label
_atom_site_fract_x
_atom_site_fract_y
_atom_site_fract_z
Si Si1 0.157838 0.809614 0.322458
Si Si2 0.982454 0.683971 0.180499
Si Si3 0.314474 0.965987 0.181888
Si Si4 0.860602 0.903816 0.679247
O O1 0.194150 0.793553 0.500000
O O2 0.245087 0.842070 0.207198
O O3 0.078081 0.707500 0.279521
O O4 0.104917 0.948618 0.319899
O O5 0.912130 0.571875 0.234797
O O6 0.919197 0.811433 0.209776
O O7 0.007274 0.671416 0.000000
O O8 0.248599 0.073436 0.262120
O O9 0.327955 0.988794 0.000000
O O10 0.866370 0.858248 0.500000
#
# Coordination Sequence:
#
# PCOD9442884 Si02
#       4
#     8   8   8   8
#     4   9  19  34  51  75 105 131 167 213 254 296
#     4  12  21  31  53  78 103 138 170 203 255 303
#     4  10  20  34  50  74 104 134 168 210 254 300
#     4   9  19  34  51  75 105 131 167 213 254 296
#
# _framework density 25.457608
#
# number of rings (size 3 to 8) (size 9 to 14) (size 15 to 20)
#    1.500    0.500    0.000    6.000    0.000    3.000 
#    0.000    0.000    0.000    1.500    0.000   10.500 
#    0.000    0.000    0.000    0.000    0.000    0.000 
#
# Total GULP energy -179073.764703 kJ/mol
# GULP energy per Si atom -5596.055147 kJ/mol
# Density = 2.539967 g / cm^3
# Si number density = 25.457608 Si / 1000 Ang^3
#
#
#
# Elastic Constant Matrix: (Units=GPa)
#
#
# Indices 1 2 3 4 5 6 
#
# 1 107.3214 6.6601 0.6578 0.0000 0.0000 0.0000
# 2 6.6601 100.1451 -1.1240 0.0000 0.0000 0.0000
# 3 0.6578 -1.1240 129.0970 0.0000 0.0000 0.0000
# 4 0.0000 0.0000 0.0000 28.1218 0.0000 0.0000
# 5 0.0000 0.0000 0.0000 0.0000 39.7621 0.0000
# 6 0.0000 0.0000 0.0000 0.0000 0.0000 53.6967
#
#
#
# Elastic Compliance Matrix: (Units=1/GPa)
#
#
# Indices 1 2 3 4 5 6 
#
# 1 0.009357 -0.000623 -0.000053 0.000000 0.000000 0.000000
# 2 -0.000623 0.010028 0.000090 0.000000 0.000000 0.000000
# 3 -0.000053 0.000090 0.007747 0.000000 0.000000 0.000000
# 4 0.000000 0.000000 0.000000 0.035560 0.000000 0.000000
# 5 0.000000 0.000000 0.000000 0.000000 0.025150 0.000000
# 6 0.000000 0.000000 0.000000 0.000000 0.000000 0.018623
#
#
# Mechanical properties :
#
#
# Convention : Reuss Voigt Hill
#
# Bulk Modulus (GPa) = 38.51940 38.77237 38.64589
# Shear Modulus (GPa) = 42.99641 46.34075 44.66858
#
# Velocity S-wave (km/s) = 4.11413 4.27114 4.19337
# Velocity P-wave (km/s) = 6.14262 6.29180 6.21766
#
# Compressibility (1/GPa) = 0.02596094
#
# Stress axis : x y z
#
# Youngs Moduli (GPa) = 106.87429 99.72133 129.07934
#
# Poissons Ratio (x) = 0.06211 0.00685
# Poissons Ratio (y) = 0.06657 -0.01168
# Poissons Ratio (z) = 0.00568 -0.00902
#
# Static dielectric constant tensor:
#      x y z
#    x 2.004720 0.000000 0.000000 
#    y 0.000000 2.237300 0.000000 
#    z 0.000000 0.000000 1.832410 
# 
# From -- ./inp_files/3708.got.cif
#   From: 2010.05.17/outbox.cif.g08.bks.cpg/sg58_2_cif.got.tgz:3708.got - 2010.06.03 14:20:14.
