data_PCOD9442328
_publ_section_title
;
Structure prediction by ZEFSAII (Michael W. Deem and Ramdas Pophale) SiO2 
 PCOD9442328
Probable space group: P N N M
;
_chemical_formula_sum "Si O2"
_cell_formula_units_Z 48
_cell_length_a 15.947905
_cell_length_b 9.214346
_cell_length_c 13.786752
_cell_angle_alpha 90.000000
_cell_angle_beta 90.000000
_cell_angle_gamma 90.000000
_cell_volume 2025.956515
_symmetry_space_group_name_H-M "P N N M"
_symmetry_group_IT_number 58
_symmetry_cell_setting 'orthorhombic'
loop_
_space_group_symop_operation_xyz
x,y,z
-x,-y,z
1/2+x,1/2-y,1/2-z
1/2-x,1/2+y,1/2-z
-x,-y,-z
x,y,-z
1/2-x,1/2+y,1/2+z
1/2+x,1/2-y,1/2+z
loop_
_atom_site_type_symbol
_atom_site_label
_atom_site_fract_x
_atom_site_fract_y
_atom_site_fract_z
Si Si1 0.091532 0.072990 0.823267
Si Si2 0.820243 0.408334 0.252067
Si Si3 0.297641 0.806516 0.617625
Si Si4 0.419097 0.599019 0.105780
Si Si5 0.104977 0.415251 0.393206
Si Si6 0.699210 0.675076 0.603602
O O1 0.149176 0.972484 0.889331
O O2 0.110375 0.235359 0.860535
O O3 0.121358 0.067253 0.710079
O O4 0.000000 0.000000 0.826726
O O5 0.763376 0.316955 0.332007
O O6 0.790630 0.544232 0.181523
O O7 0.899605 0.468654 0.310249
O O8 0.840064 0.280078 0.180389
O O9 0.284448 0.820917 0.500000
O O10 0.500000 0.500000 0.101588
O O11 0.445400 0.767265 0.112391
O O12 0.374653 0.582487 0.000000
O O13 0.096226 0.479096 0.500000
O O14 0.202258 0.358928 0.381970
O O15 0.691337 0.745489 0.500000
#
# Coordination Sequence:
#
# PCOD9442328 Si02
#       6
#     8   8   8   8   8   8
#     4  11  22  40  64  90 124 174 217 263 315 386
#     4  12  21  40  62  89 128 163 205 266 326 380
#     4  12  24  39  62  95 128 166 215 268 326 395
#     4   9  18  35  62  93 121 160 212 259 311 383
#     4  10  19  34  60  89 123 160 199 262 327 373
#     4  11  23  39  60  89 126 165 210 266 323 375
#
# _framework density 23.692513999999999
#
# number of rings (size 3 to 8) (size 9 to 14) (size 15 to 20)
#    0.000    1.167    5.000    1.500    0.000    1.333 
#    0.000    5.000    0.000    2.000    0.000    5.833 
#    0.000    0.000    0.000    0.000    0.000    0.000 
#
# Total GULP energy -267464.837855 kJ/mol
# GULP energy per Si atom -5572.184122 kJ/mol
# Density = 2.363859 g / cm^3
# Si number density = 23.692514 Si / 1000 Ang^3
#
#
#
# Elastic Constant Matrix: (Units=GPa)
#
#
# Indices 1 2 3 4 5 6 
#
# 1 28.4344 7.1405 1.9547 0.0000 0.0000 0.0000
# 2 7.1405 68.0284 16.4766 0.0000 0.0000 0.0000
# 3 1.9547 16.4766 173.0147 0.0000 0.0000 0.0000
# 4 0.0000 0.0000 0.0000 28.9384 0.0000 0.0000
# 5 0.0000 0.0000 0.0000 0.0000 20.8390 0.0000
# 6 0.0000 0.0000 0.0000 0.0000 0.0000 35.1667
#
#
#
# Elastic Compliance Matrix: (Units=1/GPa)
#
#
# Indices 1 2 3 4 5 6 
#
# 1 0.036121 -0.003780 -0.000048 0.000000 0.000000 0.000000
# 2 -0.003780 0.015442 -0.001428 0.000000 0.000000 0.000000
# 3 -0.000048 -0.001428 0.005916 0.000000 0.000000 0.000000
# 4 0.000000 0.000000 0.000000 0.034556 0.000000 0.000000
# 5 0.000000 0.000000 0.000000 0.000000 0.047987 0.000000
# 6 0.000000 0.000000 0.000000 0.000000 0.000000 0.028436
#
#
# Mechanical properties :
#
#
# Convention : Reuss Voigt Hill
#
# Bulk Modulus (GPa) = 21.29098 35.62457 28.45777
# Shear Modulus (GPa) = 25.69024 33.24922 29.46973
#
# Velocity S-wave (km/s) = 3.29647 3.75021 3.53064
# Velocity P-wave (km/s) = 4.84715 5.81558 5.35331
#
# Compressibility (1/GPa) = 0.04696825
#
# Stress axis : x y z
#
# Youngs Moduli (GPa) = 27.68463 64.75714 169.02220
#
# Poissons Ratio (x) = 0.24477 0.00814
# Poissons Ratio (y) = 0.10464 0.24135
# Poissons Ratio (z) = 0.00133 0.09247
#
# Static dielectric constant tensor:
#      x y z
#    x 1.956750 0.000000 0.000000 
#    y 0.000000 1.898170 0.000000 
#    z 0.000000 0.000000 1.960750 
# 
# From -- ./inp_files/22772.got.cif
#   From: 2010.05.17/outbox.cif.g08.bks.cpg/sg58_12_cif.got.tgz:22772.got - 2010.06.03 14:20:14.
