data_PCOD9442686
_publ_section_title
;
Structure prediction by ZEFSAII (Michael W. Deem and Ramdas Pophale) SiO2 
 PCOD9442686
Probable space group: P N N M
;
_chemical_formula_sum "Si O2"
_cell_formula_units_Z 48
_cell_length_a 15.547597
_cell_length_b 19.508404
_cell_length_c 8.551317
_cell_angle_alpha 90.000000
_cell_angle_beta 90.000000
_cell_angle_gamma 90.000000
_cell_volume 2593.689728
_symmetry_space_group_name_H-M "P N N M"
_symmetry_group_IT_number 58
_symmetry_cell_setting 'orthorhombic'
loop_
_space_group_symop_operation_xyz
x,y,z
-x,-y,z
1/2+x,1/2-y,1/2-z
1/2-x,1/2+y,1/2-z
-x,-y,-z
x,y,-z
1/2-x,1/2+y,1/2+z
1/2+x,1/2-y,1/2+z
loop_
_atom_site_type_symbol
_atom_site_label
_atom_site_fract_x
_atom_site_fract_y
_atom_site_fract_z
Si Si1 0.375893 0.826907 0.310968
Si Si2 0.723519 0.923777 0.814096
Si Si3 0.222506 0.927012 0.310596
Si Si4 0.627893 0.326884 0.187591
Si Si5 0.472461 0.423501 0.809556
Si Si6 0.966959 0.424104 0.188881
O O1 0.374730 0.823741 0.500000
O O2 0.293008 0.871350 0.260929
O O3 0.374107 0.750815 0.244965
O O4 0.461379 0.868712 0.264552
O O5 0.789013 0.867318 0.748759
O O6 0.626179 0.910556 0.759671
O O7 0.751752 0.998054 0.749551
O O8 0.727918 0.924320 0.000000
O O9 0.223880 0.929927 0.500000
O O10 0.125387 0.909719 0.260194
O O11 0.543076 0.368549 0.242229
O O12 0.629015 0.328472 0.000000
O O13 0.500000 0.500000 0.760025
O O14 0.473100 0.423379 0.000000
O O15 0.000000 0.500000 0.233976
O O16 0.959744 0.423603 0.000000
#
# Coordination Sequence:
#
# PCOD9442686 Si02
#       6
#     8   8   8   8   8   8
#     4  10  22  39  61  90 125 157 193 245 305 367
#     4  12  24  37  59  91 123 157 205 256 299 349
#     4  10  19  38  64  88 117 156 200 244 302 370
#     4  11  23  40  61  87 123 162 201 247 306 366
#     4   9  17  33  62  89 109 145 201 247 286 352
#     4  10  20  39  65  90 118 160 203 241 301 370
#
# _framework density 18.506454000000002
#
# number of rings (size 3 to 8) (size 9 to 14) (size 15 to 20)
#    0.000    1.667    3.333    2.000    0.000    3.000 
#    0.000    4.167    0.000    0.000    0.000    0.000 
#    0.000    0.000    0.000    0.000    0.000    0.000 
#
# Total GULP energy -268169.631096 kJ/mol
# GULP energy per Si atom -5586.867314 kJ/mol
# Density = 1.846433 g / cm^3
# Si number density = 18.506454 Si / 1000 Ang^3
#
#
#
# Elastic Constant Matrix: (Units=GPa)
#
#
# Indices 1 2 3 4 5 6 
#
# 1 218.4003 121.0339 42.1084 0.0000 0.0000 0.0000
# 2 121.0339 191.0442 37.7109 0.0000 0.0000 0.0000
# 3 42.1084 37.7109 25.2336 0.0000 0.0000 0.0000
# 4 0.0000 0.0000 0.0000 31.8011 0.0000 0.0000
# 5 0.0000 0.0000 0.0000 0.0000 -121.2959 0.0000
# 6 0.0000 0.0000 0.0000 0.0000 0.0000 34.6020
#
#
#
# Elastic Compliance Matrix: (Units=1/GPa)
#
#
# Indices 1 2 3 4 5 6 
#
# 1 0.008126 -0.003505 -0.008321 0.000000 0.000000 0.000000
# 2 -0.003505 0.008937 -0.007506 0.000000 0.000000 0.000000
# 3 -0.008321 -0.007506 0.064733 0.000000 0.000000 0.000000
# 4 0.000000 0.000000 0.000000 0.031445 0.000000 0.000000
# 5 0.000000 0.000000 0.000000 0.000000 -0.008244 0.000000
# 6 0.000000 0.000000 0.000000 0.000000 0.000000 0.028900
#
#
# Mechanical properties :
#
#
# Convention : Reuss Voigt Hill
#
# Bulk Modulus (GPa) = 23.18548 92.93161 58.05854
# Shear Modulus (GPa) = 26.74668 4.60978 15.67823
#
# Velocity S-wave (km/s) = 3.80578 1.57997 2.91379
# Velocity P-wave (km/s) = 5.64513 7.32484 6.53914
#
# Compressibility (1/GPa) = 0.04313045
#
# Stress axis : x y z
#
# Youngs Moduli (GPa) = 123.06578 111.89533 15.44804
#
# Poissons Ratio (x) = 0.39225 0.12854
# Poissons Ratio (y) = 0.43140 0.11596
# Poissons Ratio (z) = 1.02403 0.83991
#
# Static dielectric constant tensor:
#      x y z
#    x 1.633070 0.000000 0.000000 
#    y 0.000000 1.597050 0.000000 
#    z 0.000000 0.000000 1.630290 
# 
# From -- ./inp_files/5911.got.cif
#   From: 2010.05.17/outbox.cif.g08.bks.cpg/sg58_3_cif.got.tgz:5911.got - 2010.06.03 14:20:14.
