data_PCOD9442858
_publ_section_title
;
Structure prediction by ZEFSAII (Michael W. Deem and Ramdas Pophale) SiO2 
 PCOD9442858
Probable space group: P N N M
;
_chemical_formula_sum "Si O2"
_cell_formula_units_Z 58
_cell_length_a 21.151841
_cell_length_b 14.288157
_cell_length_c 7.352473
_cell_angle_alpha 90.000000
_cell_angle_beta 90.000000
_cell_angle_gamma 90.000000
_cell_volume 2222.070456
_symmetry_space_group_name_H-M "P N N M"
_symmetry_group_IT_number 58
_symmetry_cell_setting 'orthorhombic'
loop_
_space_group_symop_operation_xyz
x,y,z
-x,-y,z
1/2+x,1/2-y,1/2-z
1/2-x,1/2+y,1/2-z
-x,-y,-z
x,y,-z
1/2-x,1/2+y,1/2+z
1/2+x,1/2-y,1/2+z
loop_
_atom_site_type_symbol
_atom_site_label
_atom_site_fract_x
_atom_site_fract_y
_atom_site_fract_z
Si Si1 0.232070 0.645377 0.278782
Si Si2 0.348401 0.773843 0.718784
Si Si3 0.312773 0.477894 0.286143
Si Si4 0.626668 0.709614 0.292676
Si Si5 0.093031 0.450822 0.220374
Si Si6 0.500000 0.500000 0.500000
Si Si7 0.435403 0.608270 0.792974
Si Si8 0.040969 0.641656 0.222246
O O1 0.228828 0.643983 0.500000
O O2 0.288552 0.715184 0.221020
O O3 0.254912 0.542268 0.215390
O O4 0.171791 0.699362 0.205318
O O5 0.346913 0.775235 0.500000
O O6 0.352682 0.880404 0.783185
O O7 0.409171 0.712692 0.771404
O O8 0.299613 0.465016 0.500000
O O9 0.334432 0.377276 0.209267
O O10 0.375585 0.542708 0.268369
O O11 0.613262 0.679877 0.500000
O O12 0.564032 0.757309 0.210286
O O13 0.086479 0.556303 0.285523
O O14 0.028166 0.396719 0.267974
O O15 0.095457 0.456317 0.000000
O O16 0.489983 0.579358 0.658195
O O17 0.450218 0.588850 0.000000
O O18 0.042404 0.646135 0.000000
#
# Coordination Sequence:
#
# PCOD9442858 Si02
#       8
#     8   8   8   8   8   2   8   8
#     4   9  19  34  52  73 112 151 192 239 297 358
#     4   9  17  34  55  80 109 153 196 243 302 356
#     4   9  19  39  56  76 114 157 192 248 313 355
#     4  10  20  33  55  84 111 148 199 247 301 363
#     4   8  14  27  51  78 110 146 182 235 301 352
#     4  12  22  40  56  82 128 154 202 248 296 348
#     4  11  22  37  59  85 115 159 200 243 298 363
#     4   8  15  28  46  79 112 137 185 243 291 359
#
# _framework density 26.101780000000002
#
# number of rings (size 3 to 8) (size 9 to 14) (size 15 to 20)
#    0.000    2.759    1.379    1.862    0.000    4.966 
#    2.483    1.379    0.000    1.655    0.000    1.931 
#    0.000    0.000    0.000    0.000    0.000    0.000 
#
# Total GULP energy -323629.303093 kJ/mol
# GULP energy per Si atom -5579.815571 kJ/mol
# Density = 2.604237 g / cm^3
# Si number density = 26.101780 Si / 1000 Ang^3
#
#
#
# Elastic Constant Matrix: (Units=GPa)
#
#
# Indices 1 2 3 4 5 6 
#
# 1 37.1005 44.3185 0.6425 0.0000 0.0000 0.0000
# 2 44.3185 144.5276 -18.5031 0.0000 0.0000 0.0000
# 3 0.6425 -18.5031 106.8715 0.0000 0.0000 0.0000
# 4 0.0000 0.0000 0.0000 -11.2149 0.0000 0.0000
# 5 0.0000 0.0000 0.0000 0.0000 8.0038 0.0000
# 6 0.0000 0.0000 0.0000 0.0000 0.0000 45.8373
#
#
#
# Elastic Compliance Matrix: (Units=1/GPa)
#
#
# Indices 1 2 3 4 5 6 
#
# 1 0.043236 -0.013593 -0.002613 0.000000 0.000000 0.000000
# 2 -0.013593 0.011349 0.002047 0.000000 0.000000 0.000000
# 3 -0.002613 0.002047 0.009727 0.000000 0.000000 0.000000
# 4 0.000000 0.000000 0.000000 -0.089167 0.000000 0.000000
# 5 0.000000 0.000000 0.000000 0.000000 0.124941 0.000000
# 6 0.000000 0.000000 0.000000 0.000000 0.000000 0.021816
#
#
# Mechanical properties :
#
#
# Convention : Reuss Voigt Hill
#
# Bulk Modulus (GPa) = 27.78244 37.93504 32.85874
# Shear Modulus (GPa) = 30.82250 25.99469 28.40859
#
# Velocity S-wave (km/s) = 3.44009 3.15921 3.30264
# Velocity P-wave (km/s) = 5.14256 5.27944 5.21145
#
# Compressibility (1/GPa) = 0.03599396
#
# Stress axis : x y z
#
# Youngs Moduli (GPa) = 23.12867 88.11151 102.80564
#
# Poissons Ratio (x) = 1.19768 0.26866
# Poissons Ratio (y) = 0.31438 -0.21041
# Poissons Ratio (z) = 0.06044 -0.18033
#
# Static dielectric constant tensor:
#      x y z
#    x 2.137860 0.000000 0.000000 
#    y 0.000000 2.042240 0.000000 
#    z 0.000000 0.000000 1.940030 
# 
# From -- ./inp_files/9917.got.cif
#   From: 2010.05.17/outbox.cif.g08.bks.cpg/sg58_5_cif.got.tgz:9917.got - 2010.06.03 14:20:14.
