data_PCOD9442898
_publ_section_title
;
Structure prediction by ZEFSAII (Michael W. Deem and Ramdas Pophale) SiO2 
 PCOD9442898
Probable space group: P N N M
;
_chemical_formula_sum "Si O2"
_cell_formula_units_Z 56
_cell_length_a 18.129484
_cell_length_b 19.423465
_cell_length_c 9.106574
_cell_angle_alpha 90.000000
_cell_angle_beta 90.000000
_cell_angle_gamma 90.000000
_cell_volume 3206.765273
_symmetry_space_group_name_H-M "P N N M"
_symmetry_group_IT_number 58
_symmetry_cell_setting 'orthorhombic'
loop_
_space_group_symop_operation_xyz
x,y,z
-x,-y,z
1/2+x,1/2-y,1/2-z
1/2-x,1/2+y,1/2-z
-x,-y,-z
x,y,-z
1/2-x,1/2+y,1/2+z
1/2+x,1/2-y,1/2+z
loop_
_atom_site_type_symbol
_atom_site_label
_atom_site_fract_x
_atom_site_fract_y
_atom_site_fract_z
Si Si1 0.483431 0.717897 0.331716
Si Si2 0.965884 0.074580 0.823416
Si Si3 0.123550 0.612876 0.676030
Si Si4 0.544860 0.145683 0.175703
Si Si5 0.812008 0.112579 0.675349
Si Si6 0.174733 0.458502 0.322988
Si Si7 0.659489 0.751090 0.330478
O O1 0.458623 0.722683 0.500000
O O2 0.480307 0.638391 0.282641
O O3 0.445526 0.777875 0.239695
O O4 0.571447 0.734287 0.327341
O O5 0.889762 0.084985 0.737939
O O6 0.952330 0.081323 0.000000
O O7 0.000000 0.000000 0.796030
O O8 0.128184 0.623658 0.500000
O O9 0.153411 0.537200 0.709366
O O10 0.166074 0.674133 0.757856
O O11 0.036860 0.618765 0.717426
O O12 0.607629 0.092040 0.220279
O O13 0.546023 0.149857 0.000000
O O14 0.812541 0.113771 0.500000
O O15 0.747192 0.065911 0.739736
O O16 0.803250 0.189911 0.739476
O O17 0.185049 0.452768 0.500000
O O18 0.683159 0.750060 0.500000
#
# Coordination Sequence:
#
# PCOD9442898 Si02
#       7
#     8   8   8   8   8   8   8
#     4   8  15  28  48  74  99 124 158 201 248 300
#     4   9  18  35  58  79 100 131 170 213 265 318
#     4   9  17  31  53  79 103 131 172 216 255 300
#     4   9  17  30  50  75 102 135 173 209 248 299
#     4  11  22  35  52  75 103 136 176 216 255 304
#     4  10  20  34  51  73 106 143 173 208 259 312
#     4   9  17  32  53  73  96 128 165 204 251 305
#
# _framework density 17.463079
#
# number of rings (size 3 to 8) (size 9 to 14) (size 15 to 20)
#    0.000    2.714    0.000    3.000    0.000    6.571 
#    0.000    1.429    0.000    9.429    0.000    0.000 
#    0.000    0.000    0.000    0.000    0.000    0.000 
#
# Total GULP energy -312183.279941 kJ/mol
# GULP energy per Si atom -5574.701428 kJ/mol
# Density = 1.742333 g / cm^3
# Si number density = 17.463079 Si / 1000 Ang^3
#
#
#
# Elastic Constant Matrix: (Units=GPa)
#
#
# Indices 1 2 3 4 5 6 
#
# 1 47.4041 55.8890 40.9284 0.0000 0.0000 0.0000
# 2 55.8890 181.8650 70.2115 0.0000 0.0000 0.0000
# 3 40.9284 70.2115 62.6927 0.0000 0.0000 0.0000
# 4 0.0000 0.0000 0.0000 31.5841 0.0000 0.0000
# 5 0.0000 0.0000 0.0000 0.0000 11.5979 0.0000
# 6 0.0000 0.0000 0.0000 0.0000 0.0000 15.4961
#
#
#
# Elastic Compliance Matrix: (Units=1/GPa)
#
#
# Indices 1 2 3 4 5 6 
#
# 1 0.050747 -0.004941 -0.027596 0.000000 0.000000 0.000000
# 2 -0.004941 0.010168 -0.008161 0.000000 0.000000 0.000000
# 3 -0.027596 -0.008161 0.043107 0.000000 0.000000 0.000000
# 4 0.000000 0.000000 0.000000 0.031661 0.000000 0.000000
# 5 0.000000 0.000000 0.000000 0.000000 0.086223 0.000000
# 6 0.000000 0.000000 0.000000 0.000000 0.000000 0.064532
#
#
# Mechanical properties :
#
#
# Convention : Reuss Voigt Hill
#
# Bulk Modulus (GPa) = 44.19982 69.55774 56.87878
# Shear Modulus (GPa) = 13.31991 20.06447 16.69219
#
# Velocity S-wave (km/s) = 2.76478 3.39332 3.09505
# Velocity P-wave (km/s) = 5.96300 7.43442 6.73899
#
# Compressibility (1/GPa) = 0.02262453
#
# Stress axis : x y z
#
# Youngs Moduli (GPa) = 19.70548 98.34802 23.19813
#
# Poissons Ratio (x) = 0.48598 0.64017
# Poissons Ratio (y) = 0.09737 0.18933
# Poissons Ratio (z) = 0.54379 0.80267
#
# Static dielectric constant tensor:
#      x y z
#    x 1.579660 0.000000 0.000000 
#    y 0.000000 1.600730 0.000000 
#    z 0.000000 0.000000 1.586390 
# 
# From -- ./inp_files/9190.got.cif
#   From: 2010.05.17/outbox.cif.g08.bks.cpg/sg58_5_cif.got.tgz:9190.got - 2010.06.03 14:20:14.
