data_PCOD9442377
_publ_section_title
;
Structure prediction by ZEFSAII (Michael W. Deem and Ramdas Pophale) SiO2 
 PCOD9442377
Probable space group: P N N M
;
_chemical_formula_sum "Si O2"
_cell_formula_units_Z 64
_cell_length_a 15.254759
_cell_length_b 25.177480
_cell_length_c 7.912924
_cell_angle_alpha 90.000000
_cell_angle_beta 90.000000
_cell_angle_gamma 90.000000
_cell_volume 3039.167281
_symmetry_space_group_name_H-M "P N N M"
_symmetry_group_IT_number 58
_symmetry_cell_setting 'orthorhombic'
loop_
_space_group_symop_operation_xyz
x,y,z
-x,-y,z
1/2+x,1/2-y,1/2-z
1/2-x,1/2+y,1/2-z
-x,-y,-z
x,y,-z
1/2-x,1/2+y,1/2+z
1/2+x,1/2-y,1/2+z
loop_
_atom_site_type_symbol
_atom_site_label
_atom_site_fract_x
_atom_site_fract_y
_atom_site_fract_z
Si Si1 0.400691 0.483936 0.794834
Si Si2 0.557386 0.950865 0.797551
Si Si3 0.252186 0.566844 0.699296
Si Si4 0.940218 0.129286 0.295678
Si Si5 0.666547 0.229393 0.306266
Si Si6 0.128822 0.157665 0.304080
Si Si7 0.363743 0.258427 0.794879
Si Si8 0.499565 0.166771 0.298070
O O1 0.500000 0.500000 0.746635
O O2 0.325419 0.522127 0.728091
O O3 0.389173 0.422827 0.737808
O O4 0.397260 0.486880 0.000000
O O5 0.657480 0.950381 0.733368
O O6 0.517615 0.892731 0.763924
O O7 0.500000 0.000000 0.730085
O O8 0.562343 0.957669 0.000000
O O9 0.244685 0.577481 0.500000
O O10 0.286993 0.621083 0.781112
O O11 0.932387 0.129465 0.500000
O O12 0.909906 0.187005 0.237880
O O13 0.043105 0.123849 0.256990
O O14 0.505872 0.165330 0.500000
O O15 0.629851 0.289021 0.302027
O O16 0.763739 0.236428 0.230950
O O17 0.591252 0.191763 0.230388
O O18 0.119778 0.173294 0.500000
O O19 0.419935 0.207094 0.743799
O O20 0.361782 0.257039 0.000000
O O21 0.179592 0.288421 0.000000
#
# Coordination Sequence:
#
# PCOD9442377 Si02
#       8
#     8   8   8   8   8   8   8   8
#     4  10  19  35  57  84 117 153 193 234 282 349
#     4  10  24  46  66  83 112 157 204 244 288 351
#     4  11  23  38  59  88 118 152 196 248 299 344
#     4   9  18  33  55  81 110 150 195 234 274 337
#     4  10  22  37  56  86 122 154 191 243 296 343
#     4  11  20  35  59  85 114 153 199 238 282 348
#     4  10  20  38  60  83 117 163 200 229 284 357
#     4  11  23  39  61  93 124 149 190 250 302 341
#
# _framework density 21.058399000000001
#
# number of rings (size 3 to 8) (size 9 to 14) (size 15 to 20)
#    0.000    1.750    2.500    1.875    0.000    6.500 
#    0.000    1.875    0.000    0.000    0.000    0.000 
#    0.000    0.000    0.000    0.000    0.000    0.000 
#
# Total GULP energy -357304.319729 kJ/mol
# GULP energy per Si atom -5582.879996 kJ/mol
# Density = 2.101047 g / cm^3
# Si number density = 21.058399 Si / 1000 Ang^3
#
#
#
# Elastic Constant Matrix: (Units=GPa)
#
#
# Indices 1 2 3 4 5 6 
#
# 1 128.6291 56.8839 -3.2102 0.0000 0.0000 0.0000
# 2 56.8839 130.5685 -14.0269 0.0000 0.0000 0.0000
# 3 -3.2102 -14.0269 18.9743 0.0000 0.0000 0.0000
# 4 0.0000 0.0000 0.0000 30.1165 0.0000 0.0000
# 5 0.0000 0.0000 0.0000 0.0000 24.1333 0.0000
# 6 0.0000 0.0000 0.0000 0.0000 0.0000 30.3837
#
#
#
# Elastic Compliance Matrix: (Units=1/GPa)
#
#
# Indices 1 2 3 4 5 6 
#
# 1 0.009674 -0.004387 -0.001607 0.000000 0.000000 0.000000
# 2 -0.004387 0.010309 0.006879 0.000000 0.000000 0.000000
# 3 -0.001607 0.006879 0.057516 0.000000 0.000000 0.000000
# 4 0.000000 0.000000 0.000000 0.033204 0.000000 0.000000
# 5 0.000000 0.000000 0.000000 0.000000 0.041437 0.000000
# 6 0.000000 0.000000 0.000000 0.000000 0.000000 0.032912
#
#
# Mechanical properties :
#
#
# Convention : Reuss Voigt Hill
#
# Bulk Modulus (GPa) = 12.61514 39.71839 26.16676
# Shear Modulus (GPa) = 23.84279 32.82836 28.33558
#
# Velocity S-wave (km/s) = 3.36850 3.95260 3.67218
# Velocity P-wave (km/s) = 4.59702 6.30339 5.51658
#
# Compressibility (1/GPa) = 0.07926985
#
# Stress axis : x y z
#
# Youngs Moduli (GPa) = 103.36508 97.00031 17.38634
#
# Poissons Ratio (x) = 0.42558 0.02793
# Poissons Ratio (y) = 0.45350 -0.11960
# Poissons Ratio (z) = 0.16607 -0.66726
#
# Static dielectric constant tensor:
#      x y z
#    x 1.796850 0.000000 0.000000 
#    y 0.000000 1.740880 0.000000 
#    z 0.000000 0.000000 1.772130 
# 
# From -- ./inp_files/6798.got.cif
#   From: 2010.05.17/outbox.cif.g08.bks.cpg/sg58_4_cif.got.tgz:6798.got - 2010.06.03 14:20:14.
