data_PCOD9442304
_publ_section_title
;
Structure prediction by ZEFSAII (Michael W. Deem and Ramdas Pophale) SiO2 
 PCOD9442304
Probable space group: P N N M
;
_chemical_formula_sum "Si O2"
_cell_formula_units_Z 52
_cell_length_a 19.019311
_cell_length_b 13.353376
_cell_length_c 7.820619
_cell_angle_alpha 90.000000
_cell_angle_beta 90.000000
_cell_angle_gamma 90.000000
_cell_volume 1986.218335
_symmetry_space_group_name_H-M "P N N M"
_symmetry_group_IT_number 58
_symmetry_cell_setting 'orthorhombic'
loop_
_space_group_symop_operation_xyz
x,y,z
-x,-y,z
1/2+x,1/2-y,1/2-z
1/2-x,1/2+y,1/2-z
-x,-y,-z
x,y,-z
1/2-x,1/2+y,1/2+z
1/2+x,1/2-y,1/2+z
loop_
_atom_site_type_symbol
_atom_site_label
_atom_site_fract_x
_atom_site_fract_y
_atom_site_fract_z
Si Si1 0.218654 0.335505 0.810660
Si Si2 0.912733 0.568589 0.298136
Si Si3 0.231496 0.125691 0.685908
Si Si4 0.515814 0.276427 0.208397
Si Si5 0.901376 0.972554 0.184566
Si Si6 0.108663 0.646024 0.292585
Si Si7 0.853257 0.085196 0.500000
O O1 0.170878 0.423369 0.738211
O O2 0.208918 0.241161 0.689299
O O3 0.298001 0.367683 0.851908
O O4 0.191444 0.307034 0.000000
O O5 0.927096 0.568075 0.500000
O O6 0.942714 0.674500 0.236750
O O7 0.930943 0.456462 0.238017
O O8 0.217660 0.074951 0.500000
O O9 0.179334 0.068866 0.809672
O O10 0.313267 0.136771 0.722283
O O11 0.550271 0.374370 0.287222
O O12 0.436446 0.242832 0.253972
O O13 0.520303 0.284041 0.000000
O O14 0.905238 0.042457 0.348651
O O15 0.915502 0.018064 0.000000
O O16 0.113803 0.647355 0.500000
#
# Coordination Sequence:
#
# PCOD9442304 Si02
#       7
#     8   8   8   8   8   8   4
#     4  10  22  37  59  88 126 160 213 266 320 370
#     4  10  19  34  58  91 129 175 214 249 316 392
#     4  12  23  39  62  91 130 174 217 270 328 380
#     4  10  20  38  62  92 133 174 214 262 322 385
#     4  12  23  40  67  93 128 173 221 266 321 384
#     4  10  22  37  60  93 133 173 212 266 322 386
#     4  10  24  42  62  95 124 162 221 271 315 376
#
# _framework density 26.180403999999999
#
# number of rings (size 3 to 8) (size 9 to 14) (size 15 to 20)
#    0.462    0.923    3.077    3.231    0.000    4.923 
#    0.000    0.000    0.000    4.615    0.000    2.154 
#    0.000    0.000    0.000    0.000    0.000    0.000 
#
# Total GULP energy -289970.743399 kJ/mol
# GULP energy per Si atom -5576.360450 kJ/mol
# Density = 2.612082 g / cm^3
# Si number density = 26.180404 Si / 1000 Ang^3
#
#
#
# Elastic Constant Matrix: (Units=GPa)
#
#
# Indices 1 2 3 4 5 6 
#
# 1 120.7404 10.3199 16.1981 0.0000 0.0000 0.0000
# 2 10.3199 85.9328 19.0235 0.0000 0.0000 0.0000
# 3 16.1981 19.0235 121.4494 0.0000 0.0000 0.0000
# 4 0.0000 0.0000 0.0000 345.9248 0.0000 0.0000
# 5 0.0000 0.0000 0.0000 0.0000 21.7570 0.0000
# 6 0.0000 0.0000 0.0000 0.0000 0.0000 35.6237
#
#
#
# Elastic Compliance Matrix: (Units=1/GPa)
#
#
# Indices 1 2 3 4 5 6 
#
# 1 0.008485 -0.000796 -0.001007 0.000000 0.000000 0.000000
# 2 -0.000796 0.012130 -0.001794 0.000000 0.000000 0.000000
# 3 -0.001007 -0.001794 0.008649 0.000000 0.000000 0.000000
# 4 0.000000 0.000000 0.000000 0.002891 0.000000 0.000000
# 5 0.000000 0.000000 0.000000 0.000000 0.045962 0.000000
# 6 0.000000 0.000000 0.000000 0.000000 0.000000 0.028071
#
#
# Mechanical properties :
#
#
# Convention : Reuss Voigt Hill
#
# Bulk Modulus (GPa) = 45.30950 46.57840 45.94395
# Shear Modulus (GPa) = 41.41159 99.49983 70.45571
#
# Velocity S-wave (km/s) = 3.98147 6.17154 5.19327
# Velocity P-wave (km/s) = 6.20326 8.28335 7.31759
#
# Compressibility (1/GPa) = 0.02207043
#
# Stress axis : x y z
#
# Youngs Moduli (GPa) = 117.84985 82.44216 115.61809
#
# Poissons Ratio (x) = 0.06563 0.11643
# Poissons Ratio (y) = 0.09382 0.20739
# Poissons Ratio (z) = 0.11868 0.14788
#
# Static dielectric constant tensor:
#      x y z
#    x 2.192710 0.000000 0.000000 
#    y 0.000000 2.180000 0.000000 
#    z 0.000000 0.000000 1.972630 
# 
# From -- ./inp_files/7959.got.cif
#   From: 2010.05.17/outbox.cif.g08.bks.cpg/sg58_4_cif.got.tgz:7959.got - 2010.06.03 14:20:14.
