data_PCOD9442602
_publ_section_title
;
Structure prediction by ZEFSAII (Michael W. Deem and Ramdas Pophale) SiO2 
 PCOD9442602
Probable space group: P N N M
;
_chemical_formula_sum "Si O2"
_cell_formula_units_Z 58
_cell_length_a 14.965432
_cell_length_b 26.024863
_cell_length_c 7.697029
_cell_angle_alpha 90.000000
_cell_angle_beta 90.000000
_cell_angle_gamma 90.000000
_cell_volume 2997.787420
_symmetry_space_group_name_H-M "P N N M"
_symmetry_group_IT_number 58
_symmetry_cell_setting 'orthorhombic'
loop_
_space_group_symop_operation_xyz
x,y,z
-x,-y,z
1/2+x,1/2-y,1/2-z
1/2-x,1/2+y,1/2-z
-x,-y,-z
x,y,-z
1/2-x,1/2+y,1/2+z
1/2+x,1/2-y,1/2+z
loop_
_atom_site_type_symbol
_atom_site_label
_atom_site_fract_x
_atom_site_fract_y
_atom_site_fract_z
Si Si1 0.500000 0.000000 0.000000
Si Si2 0.216560 0.798749 0.702216
Si Si3 0.228615 0.602430 0.697864
Si Si4 0.473217 0.263435 0.211671
Si Si5 0.667068 0.297738 0.203719
Si Si6 0.148083 0.502271 0.198229
Si Si7 0.345626 0.887033 0.708789
Si Si8 0.961950 0.355893 0.796395
O O1 0.425372 0.012112 0.845648
O O2 0.203954 0.812377 0.500000
O O3 0.117529 0.790408 0.775532
O O4 0.268929 0.744745 0.710675
O O5 0.279842 0.843211 0.778735
O O6 0.253400 0.593193 0.500000
O O7 0.294428 0.645548 0.771405
O O8 0.219565 0.547957 0.791728
O O9 0.129178 0.626996 0.707778
O O10 0.565386 0.290418 0.264697
O O11 0.474122 0.205010 0.277207
O O12 0.470035 0.261489 0.000000
O O13 0.669003 0.285330 0.000000
O O14 0.185134 0.445157 0.235919
O O15 0.111867 0.501039 0.000000
O O16 0.353307 0.878449 0.500000
O O17 0.447367 0.881418 0.776014
O O18 0.952148 0.369314 0.000000
#
# Coordination Sequence:
#
# PCOD9442602 Si02
#       8
#     2   8   8   8   8   8   8   8
#     4  12  22  40  60  94 124 162 202 244 308 356
#     4  10  19  37  58  82 112 154 195 240 293 355
#     4  12  24  39  57  82 113 161 207 245 295 355
#     4  10  21  35  54  84 119 151 193 239 290 352
#     4  11  22  36  54  85 116 153 193 242 296 349
#     4  11  23  41  59  86 123 163 205 249 295 363
#     4   9  20  36  58  82 115 159 198 239 291 346
#     4  11  20  32  54  84 118 154 189 234 292 351
#
# _framework density 19.347602999999999
#
# number of rings (size 3 to 8) (size 9 to 14) (size 15 to 20)
#    0.000    1.379    3.448    3.103    0.000    1.655 
#    2.483    0.000    0.000    0.828    0.000    5.793 
#    0.000    0.000    0.000    0.000    0.000    0.000 
#
# Total GULP energy -323452.998729 kJ/mol
# GULP energy per Si atom -5576.775840 kJ/mol
# Density = 1.930357 g / cm^3
# Si number density = 19.347603 Si / 1000 Ang^3
#
#
#
# Elastic Constant Matrix: (Units=GPa)
#
#
# Indices 1 2 3 4 5 6 
#
# 1 96.9222 26.5706 0.4415 0.0000 0.0000 0.0000
# 2 26.5706 81.2915 -0.8421 0.0000 0.0000 0.0000
# 3 0.4415 -0.8421 66.5048 0.0000 0.0000 0.0000
# 4 0.0000 0.0000 0.0000 17.1479 0.0000 0.0000
# 5 0.0000 0.0000 0.0000 0.0000 11.5013 0.0000
# 6 0.0000 0.0000 0.0000 0.0000 0.0000 21.5152
#
#
#
# Elastic Compliance Matrix: (Units=1/GPa)
#
#
# Indices 1 2 3 4 5 6 
#
# 1 0.011334 -0.003706 -0.000122 0.000000 0.000000 0.000000
# 2 -0.003706 0.013515 0.000196 0.000000 0.000000 0.000000
# 3 -0.000122 0.000196 0.015040 0.000000 0.000000 0.000000
# 4 0.000000 0.000000 0.000000 0.058316 0.000000 0.000000
# 5 0.000000 0.000000 0.000000 0.000000 0.086947 0.000000
# 6 0.000000 0.000000 0.000000 0.000000 0.000000 0.046479
#
#
# Mechanical properties :
#
#
# Convention : Reuss Voigt Hill
#
# Bulk Modulus (GPa) = 30.65231 33.00650 31.82941
# Shear Modulus (GPa) = 20.01842 24.60276 22.31059
#
# Velocity S-wave (km/s) = 3.22012 3.56984 3.39948
# Velocity P-wave (km/s) = 5.45004 5.83853 5.64763
#
# Compressibility (1/GPa) = 0.03262396
#
# Stress axis : x y z
#
# Youngs Moduli (GPa) = 88.22970 73.99339 66.49024
#
# Poissons Ratio (x) = 0.27421 0.00812
# Poissons Ratio (y) = 0.32697 -0.01301
# Poissons Ratio (z) = 0.01078 -0.01448
#
# Static dielectric constant tensor:
#      x y z
#    x 1.674280 0.000000 0.000000 
#    y 0.000000 1.690240 0.000000 
#    z 0.000000 0.000000 1.699070 
# 
# From -- ./inp_files/6669.got.cif
#   From: 2010.05.17/outbox.cif.g08.bks.cpg/sg58_4_cif.got.tgz:6669.got - 2010.06.03 14:20:14.
