data_PCOD9442406
_publ_section_title
;
Structure prediction by ZEFSAII (Michael W. Deem and Ramdas Pophale) SiO2 
 PCOD9442406
Probable space group: P N N M
;
_chemical_formula_sum "Si O2"
_cell_formula_units_Z 64
_cell_length_a 24.492784
_cell_length_b 15.314096
_cell_length_c 7.682229
_cell_angle_alpha 90.000000
_cell_angle_beta 90.000000
_cell_angle_gamma 90.000000
_cell_volume 2881.487677
_symmetry_space_group_name_H-M "P N N M"
_symmetry_group_IT_number 58
_symmetry_cell_setting 'orthorhombic'
loop_
_space_group_symop_operation_xyz
x,y,z
-x,-y,z
1/2+x,1/2-y,1/2-z
1/2-x,1/2+y,1/2-z
-x,-y,-z
x,y,-z
1/2-x,1/2+y,1/2+z
1/2+x,1/2-y,1/2+z
loop_
_atom_site_type_symbol
_atom_site_label
_atom_site_fract_x
_atom_site_fract_y
_atom_site_fract_z
Si Si1 0.469530 0.588764 0.790668
Si Si2 0.258395 0.584480 0.206260
Si Si3 0.756178 0.717127 0.286007
Si Si4 0.044929 0.428695 0.789701
Si Si5 0.632677 0.698819 0.297190
Si Si6 0.828146 0.552258 0.295247
Si Si7 0.364616 0.493992 0.209995
Si Si8 0.977074 0.268025 0.202098
O O1 0.500000 0.500000 0.739118
O O2 0.406417 0.571437 0.748972
O O3 0.494806 0.674099 0.709218
O O4 0.475357 0.597393 0.000000
O O5 0.267022 0.683041 0.271332
O O6 0.200546 0.536696 0.229963
O O7 0.304845 0.519336 0.275726
O O8 0.267684 0.590138 0.000000
O O9 0.757462 0.715931 0.500000
O O10 0.693852 0.701457 0.225284
O O11 0.796650 0.639534 0.226108
O O12 0.107153 0.444205 0.734860
O O13 0.000000 0.500000 0.736143
O O14 0.019146 0.337945 0.723564
O O15 0.047000 0.428618 0.000000
O O16 0.637613 0.723292 0.500000
O O17 0.615781 0.597760 0.284438
O O18 0.583728 0.756741 0.219815
O O19 0.818658 0.552256 0.500000
O O20 0.364902 0.483237 0.000000
O O21 0.968898 0.292895 0.000000
#
# Coordination Sequence:
#
# PCOD9442406 Si02
#       8
#     8   8   8   8   8   8   8   8
#     4  10  20  34  53  80 118 158 189 228 290 358
#     4  10  21  38  62  85 114 159 202 237 289 359
#     4   9  20  37  60  87 116 155 194 236 296 360
#     4  10  24  45  66  86 115 160 210 253 297 353
#     4  10  19  35  58  82 114 150 193 244 296 348
#     4  11  23  41  64  93 125 154 196 252 306 355
#     4  10  20  34  54  83 116 152 194 231 284 354
#     4  10  22  37  58  87 112 150 203 248 290 343
#
# _framework density 22.210749
#
# number of rings (size 3 to 8) (size 9 to 14) (size 15 to 20)
#    0.000    2.000    2.500    0.375    3.500    1.500 
#    0.000    1.875    0.000    0.000    0.000    0.000 
#    0.000    0.000    0.000    0.000    0.000    0.000 
#
# Total GULP energy -357216.683956 kJ/mol
# GULP energy per Si atom -5581.510687 kJ/mol
# Density = 2.216020 g / cm^3
# Si number density = 22.210749 Si / 1000 Ang^3
#
#
#
# Elastic Constant Matrix: (Units=GPa)
#
#
# Indices 1 2 3 4 5 6 
#
# 1 104.3934 5.6578 -6.7954 0.0000 0.0000 0.0000
# 2 5.6578 68.9123 -5.0798 0.0000 0.0000 0.0000
# 3 -6.7954 -5.0798 34.5502 0.0000 0.0000 0.0000
# 4 0.0000 0.0000 0.0000 24.9507 0.0000 0.0000
# 5 0.0000 0.0000 0.0000 0.0000 -14.8026 0.0000
# 6 0.0000 0.0000 0.0000 0.0000 0.0000 28.5655
#
#
#
# Elastic Compliance Matrix: (Units=1/GPa)
#
#
# Indices 1 2 3 4 5 6 
#
# 1 0.009733 -0.000665 0.001817 0.000000 0.000000 0.000000
# 2 -0.000665 0.014716 0.002033 0.000000 0.000000 0.000000
# 3 0.001817 0.002033 0.029600 0.000000 0.000000 0.000000
# 4 0.000000 0.000000 0.000000 0.040079 0.000000 0.000000
# 5 0.000000 0.000000 0.000000 0.000000 -0.067556 0.000000
# 6 0.000000 0.000000 0.000000 0.000000 0.000000 0.035007
#
#
# Mechanical properties :
#
#
# Convention : Reuss Voigt Hill
#
# Bulk Modulus (GPa) = 16.55166 21.71346 19.13256
# Shear Modulus (GPa) = 66.35695 22.01427 44.18561
#
# Velocity S-wave (km/s) = 5.47183 3.15168 4.46508
# Velocity P-wave (km/s) = 6.88400 4.80015 5.93426
#
# Compressibility (1/GPa) = 0.06041691
#
# Stress axis : x y z
#
# Youngs Moduli (GPa) = 102.73851 67.95482 33.78431
#
# Poissons Ratio (x) = 0.04521 -0.06137
# Poissons Ratio (y) = 0.06834 -0.06868
# Poissons Ratio (z) = -0.18663 -0.13814
#
# Static dielectric constant tensor:
#      x y z
#    x 1.842100 0.000000 0.000000 
#    y 0.000000 1.816500 0.000000 
#    z 0.000000 0.000000 1.842540 
# 
# From -- ./inp_files/10076.got.cif
#   From: 2010.05.17/outbox.cif.g08.bks.cpg/sg58_6_cif.got.tgz:10076.got - 2010.06.03 14:20:14.
