data_PCOD9442168
_publ_section_title
;
Structure prediction by ZEFSAII (Michael W. Deem and Ramdas Pophale) SiO2 
 PCOD9442168
Probable space group: P N N M
;
_chemical_formula_sum "Si O2"
_cell_formula_units_Z 56
_cell_length_a 11.379585
_cell_length_b 11.499664
_cell_length_c 17.721093
_cell_angle_alpha 90.000000
_cell_angle_beta 90.000000
_cell_angle_gamma 90.000000
_cell_volume 2319.007110
_symmetry_space_group_name_H-M "P N N M"
_symmetry_group_IT_number 58
_symmetry_cell_setting 'orthorhombic'
loop_
_space_group_symop_operation_xyz
x,y,z
-x,-y,z
1/2+x,1/2-y,1/2-z
1/2-x,1/2+y,1/2-z
-x,-y,-z
x,y,-z
1/2-x,1/2+y,1/2+z
1/2+x,1/2-y,1/2+z
loop_
_atom_site_type_symbol
_atom_site_label
_atom_site_fract_x
_atom_site_fract_y
_atom_site_fract_z
Si Si1 0.480030 0.132970 0.758782
Si Si2 0.723237 0.397098 0.794028
Si Si3 0.765116 0.095395 0.417679
Si Si4 0.176405 0.037552 0.870745
Si Si5 0.912417 0.325058 0.415417
Si Si6 0.459194 0.753590 0.613479
Si Si7 0.722027 0.728130 0.414411
O O1 0.342612 0.153056 0.743445
O O2 0.498670 0.143091 0.847600
O O3 0.546900 0.219599 0.703600
O O4 0.500000 0.000000 0.734994
O O5 0.737880 0.507217 0.848940
O O6 0.660008 0.445906 0.719552
O O7 0.696776 0.296099 0.854768
O O8 0.780756 0.038095 0.500000
O O9 0.866995 0.192165 0.408316
O O10 0.642718 0.165587 0.418673
O O11 0.295802 0.097730 0.901142
O O12 0.074054 0.120222 0.903823
O O13 0.193101 0.903480 0.889893
O O14 0.956005 0.345172 0.500000
O O15 0.590322 0.785129 0.588156
O O16 0.765707 0.731635 0.500000
#
# Coordination Sequence:
#
# PCOD9442168 Si02
#       7
#     8   8   8   8   8   8   8
#     4  10  19  34  54  81 114 145 190 234 279 340
#     4  10  22  35  56  82 113 149 189 230 277 337
#     4  10  19  35  57  80 110 145 186 228 279 338
#     4  10  22  36  58  80 115 150 190 229 279 344
#     4   9  20  35  55  81 107 145 190 232 275 328
#     4  10  21  35  55  85 113 149 183 230 290 338
#     4  11  23  37  56  86 120 147 186 237 290 343
#
# _framework density 24.148266
#
# number of rings (size 3 to 8) (size 9 to 14) (size 15 to 20)
#    0.000    2.000    1.429    1.714    8.000    2.571 
#    0.000    2.143    0.000    1.714    0.000    2.000 
#    0.000    0.000    0.000    0.000    0.000    0.000 
#
# Total GULP energy -312783.689257 kJ/mol
# GULP energy per Si atom -5585.423022 kJ/mol
# Density = 2.409330 g / cm^3
# Si number density = 24.148266 Si / 1000 Ang^3
#
#
#
# Elastic Constant Matrix: (Units=GPa)
#
#
# Indices 1 2 3 4 5 6 
#
# 1 17.4685 -2.1221 -15.5696 0.0000 0.0000 0.0000
# 2 -2.1221 95.1854 28.7847 0.0000 0.0000 0.0000
# 3 -15.5696 28.7847 169.7758 0.0000 0.0000 0.0000
# 4 0.0000 0.0000 0.0000 8.5351 0.0000 0.0000
# 5 0.0000 0.0000 0.0000 0.0000 -2.9564 0.0000
# 6 0.0000 0.0000 0.0000 0.0000 0.0000 9.9583
#
#
#
# Elastic Compliance Matrix: (Units=1/GPa)
#
#
# Indices 1 2 3 4 5 6 
#
# 1 0.062353 -0.000357 0.005779 0.000000 0.000000 0.000000
# 2 -0.000357 0.011076 -0.001911 0.000000 0.000000 0.000000
# 3 0.005779 -0.001911 0.006744 0.000000 0.000000 0.000000
# 4 0.000000 0.000000 0.000000 0.117163 0.000000 0.000000
# 5 0.000000 0.000000 0.000000 0.000000 -0.338249 0.000000
# 6 0.000000 0.000000 0.000000 0.000000 0.000000 0.100418
#
#
# Mechanical properties :
#
#
# Convention : Reuss Voigt Hill
#
# Bulk Modulus (GPa) = 11.46863 33.84618 22.65741
# Shear Modulus (GPa) = -270.97900 21.19652 -124.89124
#
# Velocity S-wave (km/s) = -10.60464 2.96593 -7.19936
# Velocity P-wave (km/s) = 12.04927 5.07694 7.72688
#
# Compressibility (1/GPa) = 0.08719438
#
# Stress axis : x y z
#
# Youngs Moduli (GPa) = 16.03767 90.28836 148.27964
#
# Poissons Ratio (x) = 0.03227 -0.85688
# Poissons Ratio (y) = 0.00573 0.28330
# Poissons Ratio (z) = -0.09268 0.17251
#
# Static dielectric constant tensor:
#      x y z
#    x 1.950380 0.000000 0.000000 
#    y 0.000000 1.914160 0.000000 
#    z 0.000000 0.000000 1.980820 
# 
# From -- ./inp_files/22175.got.cif
#   From: 2010.05.17/outbox.cif.g08.bks.cpg/sg58_12_cif.got.tgz:22175.got - 2010.06.03 14:20:14.
