data_PCOD9442528
_publ_section_title
;
Structure prediction by ZEFSAII (Michael W. Deem and Ramdas Pophale) SiO2 
 PCOD9442528
Probable space group: P N N M
;
_chemical_formula_sum "Si O2"
_cell_formula_units_Z 64
_cell_length_a 20.353493
_cell_length_b 16.721905
_cell_length_c 7.928251
_cell_angle_alpha 90.000000
_cell_angle_beta 90.000000
_cell_angle_gamma 90.000000
_cell_volume 2698.373698
_symmetry_space_group_name_H-M "P N N M"
_symmetry_group_IT_number 58
_symmetry_cell_setting 'orthorhombic'
loop_
_space_group_symop_operation_xyz
x,y,z
-x,-y,z
1/2+x,1/2-y,1/2-z
1/2-x,1/2+y,1/2-z
-x,-y,-z
x,y,-z
1/2-x,1/2+y,1/2+z
1/2+x,1/2-y,1/2+z
loop_
_atom_site_type_symbol
_atom_site_label
_atom_site_fract_x
_atom_site_fract_y
_atom_site_fract_z
Si Si1 0.781683 0.116017 0.191419
Si Si2 0.365769 0.518893 0.811641
Si Si3 0.735602 0.333491 0.804327
Si Si4 0.884927 0.732154 0.703802
Si Si5 0.376924 0.116789 0.193107
Si Si6 0.358213 0.942001 0.206314
Si Si7 0.521535 0.374495 0.303990
Si Si8 0.896509 0.212424 0.201229
O O1 0.716334 0.076595 0.267020
O O2 0.824144 0.188543 0.267665
O O3 0.836640 0.046609 0.188578
O O4 0.762983 0.138052 0.000000
O O5 0.317095 0.594671 0.800073
O O6 0.437436 0.554261 0.778136
O O7 0.361209 0.485924 0.000000
O O8 0.690237 0.258071 0.752540
O O9 0.799172 0.362171 0.704341
O O10 0.756766 0.323025 0.000000
O O11 0.890302 0.741983 0.500000
O O12 0.896472 0.639610 0.746888
O O13 0.933519 0.794795 0.788235
O O14 0.411092 0.194595 0.270082
O O15 0.383628 0.027715 0.268615
O O16 0.398482 0.113433 0.000000
O O17 0.356523 0.948542 0.000000
O O18 0.513427 0.394617 0.500000
O O19 0.452344 0.346258 0.228425
O O20 0.894751 0.200675 0.000000
#
# Coordination Sequence:
#
# PCOD9442528 Si02
#       8
#     8   8   8   8   8   8   8   8
#     4  10  19  36  59  81 111 145 182 224 270 330
#     4  10  20  34  55  84 114 146 178 219 275 325
#     4   9  17  31  52  77 108 142 174 211 268 335
#     4   9  18  35  58  80 106 144 186 227 275 326
#     4  11  21  33  54  82 110 140 178 229 278 325
#     4   9  18  33  55  84 112 138 175 224 277 332
#     4  10  21  38  57  79 108 145 195 234 267 322
#     4  10  23  40  57  77 107 152 190 226 277 330
#
# _framework density 23.71799
#
# number of rings (size 3 to 8) (size 9 to 14) (size 15 to 20)
#    0.000    2.250    1.250    2.625    0.000    6.000 
#    0.000    5.000    0.000    3.750    0.000    0.000 
#    0.000    0.000    0.000    0.000    0.000    0.000 
#
# Total GULP energy -357417.445124 kJ/mol
# GULP energy per Si atom -5584.647580 kJ/mol
# Density = 2.366401 g / cm^3
# Si number density = 23.717990 Si / 1000 Ang^3
#
#
#
# Elastic Constant Matrix: (Units=GPa)
#
#
# Indices 1 2 3 4 5 6 
#
# 1 35.5845 -24.6408 -4.5835 0.0000 0.0000 0.0000
# 2 -24.6408 105.0801 4.2602 0.0000 0.0000 0.0000
# 3 -4.5835 4.2602 33.1179 0.0000 0.0000 0.0000
# 4 0.0000 0.0000 0.0000 348.7242 0.0000 0.0000
# 5 0.0000 0.0000 0.0000 0.0000 -16.7048 0.0000
# 6 0.0000 0.0000 0.0000 0.0000 0.0000 32.1408
#
#
#
# Elastic Compliance Matrix: (Units=1/GPa)
#
#
# Indices 1 2 3 4 5 6 
#
# 1 0.033995 0.007822 0.003699 0.000000 0.000000 0.000000
# 2 0.007822 0.011366 -0.000380 0.000000 0.000000 0.000000
# 3 0.003699 -0.000380 0.030756 0.000000 0.000000 0.000000
# 4 0.000000 0.000000 0.000000 0.002868 0.000000 0.000000
# 5 0.000000 0.000000 0.000000 0.000000 -0.059863 0.000000
# 6 0.000000 0.000000 0.000000 0.000000 0.000000 0.031113
#
#
# Mechanical properties :
#
#
# Convention : Reuss Voigt Hill
#
# Bulk Modulus (GPa) = 10.16279 13.76158 11.96219
# Shear Modulus (GPa) = 82.30142 86.08182 84.19162
#
# Velocity S-wave (km/s) = 5.89706 6.03098 5.96439
# Velocity P-wave (km/s) = 7.11767 7.36965 7.24475
#
# Compressibility (1/GPa) = 0.09839816
#
# Stress axis : x y z
#
# Youngs Moduli (GPa) = 29.41633 87.98105 32.51410
#
# Poissons Ratio (x) = -0.68816 -0.12026
# Poissons Ratio (y) = -0.23008 0.01234
# Poissons Ratio (z) = -0.10880 0.03340
#
# Static dielectric constant tensor:
#      x y z
#    x 1.935700 0.000000 0.000000 
#    y 0.000000 1.951670 0.000000 
#    z 0.000000 0.000000 1.877290 
# 
# From -- ./inp_files/8336.got.cif
#   From: 2010.05.17/outbox.cif.g08.bks.cpg/sg58_5_cif.got.tgz:8336.got - 2010.06.03 14:20:14.
