data_PCOD9442902
_publ_section_title
;
Structure prediction by ZEFSAII (Michael W. Deem and Ramdas Pophale) SiO2 
 PCOD9442902
Probable space group: P N N M
;
_chemical_formula_sum "Si O2"
_cell_formula_units_Z 40
_cell_length_a 37.726931
_cell_length_b 5.177414
_cell_length_c 11.150364
_cell_angle_alpha 90.000000
_cell_angle_beta 90.000000
_cell_angle_gamma 90.000000
_cell_volume 2177.977639
_symmetry_space_group_name_H-M "P N N M"
_symmetry_group_IT_number 58
_symmetry_cell_setting 'orthorhombic'
loop_
_space_group_symop_operation_xyz
x,y,z
-x,-y,z
1/2+x,1/2-y,1/2-z
1/2-x,1/2+y,1/2-z
-x,-y,-z
x,y,-z
1/2-x,1/2+y,1/2+z
1/2+x,1/2-y,1/2+z
loop_
_atom_site_type_symbol
_atom_site_label
_atom_site_fract_x
_atom_site_fract_y
_atom_site_fract_z
Si Si1 0.797614 0.838118 0.741918
Si Si2 0.525032 0.750195 0.363963
Si Si3 0.275825 0.163302 0.630876
Si Si4 0.873305 0.708033 0.639688
Si Si5 0.920561 0.209042 0.642830
O O1 0.766558 0.801131 0.643762
O O2 0.785275 0.632320 0.841949
O O3 0.837209 0.764916 0.708268
O O4 0.794193 0.136090 0.779419
O O5 0.500000 0.500000 0.358246
O O6 0.541694 0.752000 0.500000
O O7 0.550538 0.745359 0.247834
O O8 0.500000 0.000000 0.356568
O O9 0.287890 0.236502 0.500000
O O10 0.863797 0.719684 0.500000
O O11 0.891275 0.432091 0.661756
O O12 0.902292 0.931283 0.660405
O O13 0.932074 0.227227 0.500000
#
# Coordination Sequence:
#
# PCOD9442902 Si02
#       5
#     8   8   8   8   8
#     4  10  20  34  54  74 100 140 176 216 271 321
#     4  10  21  38  59  82 111 145 178 213 259 317
#     4  10  20  34  51  75 103 132 178 228 267 314
#     4  10  20  36  55  77 107 140 177 218 266 319
#     4  10  21  36  57  84 111 139 178 225 263 311
#
# _framework density 18.365659999999998
#
# number of rings (size 3 to 8) (size 9 to 14) (size 15 to 20)
#    0.000    2.000    0.000    3.600    0.000    0.800 
#    0.000   12.000    0.000    0.000    0.000    0.000 
#    0.000    0.000    0.000    0.000    0.000    0.000 
#
# Total GULP energy -222873.695904 kJ/mol
# GULP energy per Si atom -5571.842398 kJ/mol
# Density = 1.832386 g / cm^3
# Si number density = 18.365660 Si / 1000 Ang^3
#
#
#
# Elastic Constant Matrix: (Units=GPa)
#
#
# Indices 1 2 3 4 5 6 
#
# 1 56.6756 -12.7270 43.4823 0.0000 0.0000 0.0000
# 2 -12.7270 62.6502 -10.5318 0.0000 0.0000 0.0000
# 3 43.4823 -10.5318 81.5944 0.0000 0.0000 0.0000
# 4 0.0000 0.0000 0.0000 13.1596 0.0000 0.0000
# 5 0.0000 0.0000 0.0000 0.0000 -1.0104 0.0000
# 6 0.0000 0.0000 0.0000 0.0000 0.0000 14.4766
#
#
#
# Elastic Compliance Matrix: (Units=1/GPa)
#
#
# Indices 1 2 3 4 5 6 
#
# 1 0.030602 0.003552 -0.015849 0.000000 0.000000 0.000000
# 2 0.003552 0.016728 0.000266 0.000000 0.000000 0.000000
# 3 -0.015849 0.000266 0.020736 0.000000 0.000000 0.000000
# 4 0.000000 0.000000 0.000000 0.075990 0.000000 0.000000
# 5 0.000000 0.000000 0.000000 0.000000 -0.989722 0.000000
# 6 0.000000 0.000000 0.000000 0.000000 0.000000 0.069077
#
#
# Mechanical properties :
#
#
# Convention : Reuss Voigt Hill
#
# Bulk Modulus (GPa) = 22.72517 26.81857 24.77187
# Shear Modulus (GPa) = -6.77637 17.37162 5.29762
#
# Velocity S-wave (km/s) = -1.92294 3.07884 1.70023
# Velocity P-wave (km/s) = 2.73319 5.22239 4.16795
#
# Compressibility (1/GPa) = 0.04400408
#
# Stress axis : x y z
#
# Youngs Moduli (GPa) = 32.67776 59.78007 48.22440
#
# Poissons Ratio (x) = -0.21235 0.76433
# Poissons Ratio (y) = -0.11608 -0.01284
# Poissons Ratio (z) = 0.51792 -0.01591
#
# Static dielectric constant tensor:
#      x y z
#    x 1.606040 0.000000 0.000000 
#    y 0.000000 1.603270 0.000000 
#    z 0.000000 0.000000 1.689350 
# 
# From -- ./inp_files/11847.got.cif
#   From: 2010.05.17/outbox.cif.g08.bks.cpg/sg58_6_cif.got.tgz:11847.got - 2010.06.03 14:20:14.
