data_PCOD9442325
_publ_section_title
;
Structure prediction by ZEFSAII (Michael W. Deem and Ramdas Pophale) SiO2 
 PCOD9442325
Probable space group: P N N M
;
_chemical_formula_sum "Si O2"
_cell_formula_units_Z 30
_cell_length_a 8.299520
_cell_length_b 30.283355
_cell_length_c 5.235046
_cell_angle_alpha 90.000000
_cell_angle_beta 90.000000
_cell_angle_gamma 90.000000
_cell_volume 1315.762382
_symmetry_space_group_name_H-M "P N N M"
_symmetry_group_IT_number 58
_symmetry_cell_setting 'orthorhombic'
loop_
_space_group_symop_operation_xyz
x,y,z
-x,-y,z
1/2+x,1/2-y,1/2-z
1/2-x,1/2+y,1/2-z
-x,-y,-z
x,y,-z
1/2-x,1/2+y,1/2+z
1/2+x,1/2-y,1/2+z
loop_
_atom_site_type_symbol
_atom_site_label
_atom_site_fract_x
_atom_site_fract_y
_atom_site_fract_z
Si Si1 0.977195 0.336839 0.500000
Si Si2 0.500000 0.500000 0.500000
Si Si3 0.674912 0.614236 0.500000
Si Si4 0.197782 0.028967 0.500000
Si Si5 0.004570 0.205640 0.000000
Si Si6 0.891532 0.381829 0.000000
Si Si7 0.232008 0.431805 0.000000
Si Si8 0.655539 0.254818 0.000000
O O1 0.883549 0.351806 0.750509
O O2 0.032078 0.286641 0.500000
O O3 0.148564 0.362998 0.500000
O O4 0.606331 0.476445 0.268798
O O5 0.550222 0.654470 0.500000
O O6 0.671521 0.583219 0.748130
O O7 0.303728 0.983648 0.500000
O O8 0.275552 0.076809 0.500000
O O9 0.836517 0.234481 0.000000
O O10 0.107745 0.218330 0.247790
O O11 0.068600 0.404160 0.000000
#
# Coordination Sequence:
#
# PCOD9442325 Si02
#       8
#     4   2   4   4   4   4   4   4
#     4   9  19  34  56  87 117 149 181 230 299 352
#     4  10  24  38  54  70 108 162 204 204 276 358
#     4   9  19  34  56  87 117 149 181 230 299 352
#     4  11  21  38  60  78 111 151 196 232 274 333
#     4  11  22  39  65  88 122 162 201 247 305 366
#     4  10  19  34  60  89 112 136 188 245 291 331
#     4  10  19  34  60  89 112 136 188 245 291 331
#     4  11  22  39  65  88 122 162 201 247 305 366
#
# _framework density 22.800470000000001
#
# number of rings (size 3 to 8) (size 9 to 14) (size 15 to 20)
#    0.000    1.867    0.000    4.400    0.000    4.267 
#    0.000    5.333   58.667    0.000    0.000    0.000 
#    0.000    0.000    0.000    0.000    0.000    0.000 
#
# Total GULP energy -167327.596021 kJ/mol
# GULP energy per Si atom -5577.586534 kJ/mol
# Density = 2.274858 g / cm^3
# Si number density = 22.800470 Si / 1000 Ang^3
#
#
#
# Elastic Constant Matrix: (Units=GPa)
#
#
# Indices 1 2 3 4 5 6 
#
# 1 77.3273 46.8079 49.0341 0.0000 0.0000 0.0000
# 2 46.8079 106.5663 34.0090 0.0000 0.0000 0.0000
# 3 49.0341 34.0090 232.0428 0.0000 0.0000 0.0000
# 4 0.0000 0.0000 0.0000 -5.2679 0.0000 0.0000
# 5 0.0000 0.0000 0.0000 0.0000 -323.1481 0.0000
# 6 0.0000 0.0000 0.0000 0.0000 0.0000 53.9783
#
#
#
# Elastic Compliance Matrix: (Units=1/GPa)
#
#
# Indices 1 2 3 4 5 6 
#
# 1 0.019413 -0.007572 -0.002993 0.000000 0.000000 0.000000
# 2 -0.007572 0.012798 -0.000276 0.000000 0.000000 0.000000
# 3 -0.002993 -0.000276 0.004982 0.000000 0.000000 0.000000
# 4 0.000000 0.000000 0.000000 -0.189828 0.000000 0.000000
# 5 0.000000 0.000000 0.000000 0.000000 -0.003095 0.000000
# 6 0.000000 0.000000 0.000000 0.000000 0.000000 0.018526
#
#
# Mechanical properties :
#
#
# Convention : Reuss Voigt Hill
#
# Bulk Modulus (GPa) = 64.46227 75.07094 69.76660
# Shear Modulus (GPa) = -45.30930 -35.81519 -40.56224
#
# Velocity S-wave (km/s) = -4.46265 -3.96764 -4.22241
# Velocity P-wave (km/s) = 1.33420 3.46512 2.62556
#
# Compressibility (1/GPa) = 0.01551295
#
# Stress axis : x y z
#
# Youngs Moduli (GPa) = 51.51159 78.13920 200.71028
#
# Poissons Ratio (x) = 0.59167 0.60063
# Poissons Ratio (y) = 0.39004 0.05532
# Poissons Ratio (z) = 0.15415 0.02154
#
# Static dielectric constant tensor:
#      x y z
#    x 1.870840 0.000000 0.000000 
#    y 0.000000 1.832200 0.000000 
#    z 0.000000 0.000000 1.799570 
# 
# From -- ./inp_files/288.got.cif
#   From: 2010.05.17/outbox.cif.g08.bks.cpg/sg58_1_cif.got.tgz:288.got - 2010.06.03 14:20:14.
