data_PCOD9442818
_publ_section_title
;
Structure prediction by ZEFSAII (Michael W. Deem and Ramdas Pophale) SiO2 
 PCOD9442818
Probable space group: P N N M
;
_chemical_formula_sum "Si O2"
_cell_formula_units_Z 40
_cell_length_a 13.654342
_cell_length_b 18.913856
_cell_length_c 7.729336
_cell_angle_alpha 90.000000
_cell_angle_beta 90.000000
_cell_angle_gamma 90.000000
_cell_volume 1996.149395
_symmetry_space_group_name_H-M "P N N M"
_symmetry_group_IT_number 58
_symmetry_cell_setting 'orthorhombic'
loop_
_space_group_symop_operation_xyz
x,y,z
-x,-y,z
1/2+x,1/2-y,1/2-z
1/2-x,1/2+y,1/2-z
-x,-y,-z
x,y,-z
1/2-x,1/2+y,1/2+z
1/2+x,1/2-y,1/2+z
loop_
_atom_site_type_symbol
_atom_site_label
_atom_site_fract_x
_atom_site_fract_y
_atom_site_fract_z
Si Si1 0.686845 0.517562 0.295261
Si Si2 0.610753 0.366638 0.200996
Si Si3 0.178265 0.685505 0.211993
Si Si4 0.105077 0.835776 0.799456
Si Si5 0.600216 0.964165 0.709706
O O1 0.665489 0.515315 0.500000
O O2 0.630882 0.450442 0.216042
O O3 0.651649 0.592825 0.223105
O O4 0.802166 0.505165 0.267130
O O5 0.710006 0.329634 0.266650
O O6 0.511543 0.344171 0.292114
O O7 0.599244 0.348435 0.000000
O O8 0.139032 0.760697 0.274614
O O9 0.114558 0.617363 0.265607
O O10 0.177487 0.684837 0.000000
O O11 0.136741 0.834517 0.000000
O O12 0.599892 0.964955 0.500000
O O13 0.500000 0.000000 0.770336
#
# Coordination Sequence:
#
# PCOD9442818 Si02
#       5
#     8   8   8   8   8
#     4  10  20  33  51  75 101 132 170 208 249 300
#     4  10  20  35  54  74 100 133 168 208 252 298
#     4   8  17  34  51  70 100 133 162 199 249 300
#     4  10  20  34  52  74 102 134 166 205 254 301
#     4   9  18  34  55  76 101 135 171 208 252 299
#
# _framework density 20.038581000000001
#
# number of rings (size 3 to 8) (size 9 to 14) (size 15 to 20)
#    0.000    2.600    0.000    3.000    0.000    6.000 
#    0.000    5.000    0.000    0.000    0.000    0.000 
#    0.000    0.000    0.000    0.000    0.000    0.000 
#
# Total GULP energy -223214.146827 kJ/mol
# GULP energy per Si atom -5580.353671 kJ/mol
# Density = 1.999297 g / cm^3
# Si number density = 20.038581 Si / 1000 Ang^3
#
#
#
# Elastic Constant Matrix: (Units=GPa)
#
#
# Indices 1 2 3 4 5 6 
#
# 1 99.4509 104.0790 -12.4327 0.0000 0.0000 0.0000
# 2 104.0790 178.0929 -6.6695 0.0000 0.0000 0.0000
# 3 -12.4327 -6.6695 30.0630 0.0000 0.0000 0.0000
# 4 0.0000 0.0000 0.0000 15.8109 0.0000 0.0000
# 5 0.0000 0.0000 0.0000 0.0000 23.5456 0.0000
# 6 0.0000 0.0000 0.0000 0.0000 0.0000 21.3132
#
#
#
# Elastic Compliance Matrix: (Units=1/GPa)
#
#
# Indices 1 2 3 4 5 6 
#
# 1 0.027637 -0.015855 0.007912 0.000000 0.000000 0.000000
# 2 -0.015855 0.014758 -0.003283 0.000000 0.000000 0.000000
# 3 0.007912 -0.003283 0.035807 0.000000 0.000000 0.000000
# 4 0.000000 0.000000 0.000000 0.063248 0.000000 0.000000
# 5 0.000000 0.000000 0.000000 0.000000 0.042471 0.000000
# 6 0.000000 0.000000 0.000000 0.000000 0.000000 0.046919
#
#
# Mechanical properties :
#
#
# Convention : Reuss Voigt Hill
#
# Bulk Modulus (GPa) = 17.93700 53.06225 35.49963
# Shear Modulus (GPa) = 18.39073 26.97593 22.68333
#
# Velocity S-wave (km/s) = 3.03275 3.67304 3.36815
# Velocity P-wave (km/s) = 4.60805 6.67277 5.73411
#
# Compressibility (1/GPa) = 0.05575068
#
# Stress axis : x y z
#
# Youngs Moduli (GPa) = 36.18286 67.75977 27.92725
#
# Poissons Ratio (x) = 1.07435 -0.22096
# Poissons Ratio (y) = 0.57369 0.09168
# Poissons Ratio (z) = -0.28628 0.22245
#
# Static dielectric constant tensor:
#      x y z
#    x 1.666690 0.000000 0.000000 
#    y 0.000000 1.713430 0.000000 
#    z 0.000000 0.000000 1.725810 
# 
# From -- ./inp_files/3788.got.cif
#   From: 2010.05.17/outbox.cif.g08.bks.cpg/sg58_2_cif.got.tgz:3788.got - 2010.06.03 14:20:14.
