data_PCOD9442211
_publ_section_title
;
Structure prediction by ZEFSAII (Michael W. Deem and Ramdas Pophale) SiO2 
 PCOD9442211
Probable space group: P N N M
;
_chemical_formula_sum "Si O2"
_cell_formula_units_Z 64
_cell_length_a 18.249242
_cell_length_b 9.189704
_cell_length_c 19.858461
_cell_angle_alpha 90.000000
_cell_angle_beta 90.000000
_cell_angle_gamma 90.000000
_cell_volume 3330.365827
_symmetry_space_group_name_H-M "P N N M"
_symmetry_group_IT_number 58
_symmetry_cell_setting 'orthorhombic'
loop_
_space_group_symop_operation_xyz
x,y,z
-x,-y,z
1/2+x,1/2-y,1/2-z
1/2-x,1/2+y,1/2-z
-x,-y,-z
x,y,-z
1/2-x,1/2+y,1/2+z
1/2+x,1/2-y,1/2+z
loop_
_atom_site_type_symbol
_atom_site_label
_atom_site_fract_x
_atom_site_fract_y
_atom_site_fract_z
Si Si1 0.666388 0.001200 0.424835
Si Si2 0.947031 0.235588 0.925268
Si Si3 0.191371 0.942091 0.885124
Si Si4 0.194809 0.211967 0.574225
Si Si5 0.011268 0.672282 0.786273
Si Si6 0.352757 0.339845 0.760733
Si Si7 0.388233 0.659142 0.208743
Si Si8 0.789682 0.749060 0.831950
O O1 0.664173 0.067167 0.500000
O O2 0.666717 0.116670 0.365527
O O3 0.601132 0.884163 0.421635
O O4 0.742030 0.911017 0.418671
O O5 0.886559 0.108223 0.916050
O O6 0.997148 0.248301 0.859352
O O7 0.980485 0.226029 0.000000
O O8 0.258065 0.859745 0.920193
O O9 0.188567 0.883239 0.808271
O O10 0.203067 0.113013 0.880688
O O11 0.161939 0.199582 0.500000
O O12 0.137742 0.196374 0.634090
O O13 0.092529 0.711532 0.760070
O O14 0.000000 0.500000 0.791466
O O15 0.956720 0.748857 0.734300
O O16 0.396344 0.485183 0.782570
O O17 0.293570 0.296132 0.816364
O O18 0.324257 0.704720 0.260873
#
# Coordination Sequence:
#
# PCOD9442211 Si02
#       8
#     8   8   8   8   8   8   8   8
#     4   9  18  33  56  86 120 150 186 235 290 352
#     4   9  19  38  58  82 123 165 194 231 288 356
#     4   9  19  31  55  89 118 147 187 234 295 342
#     4  10  19  34  56  82 114 150 184 232 297 351
#     4  11  24  37  59  86 116 155 208 246 290 343
#     4  10  21  37  56  84 119 153 193 244 295 349
#     4  11  22  37  59  85 117 153 197 248 296 350
#     4  11  20  33  61  88 118 150 192 249 295 346
#
# _framework density 19.217109000000001
#
# number of rings (size 3 to 8) (size 9 to 14) (size 15 to 20)
#    0.000    2.000    2.500    2.250    1.750    1.250 
#    0.000    0.625    0.000   13.125    0.000    0.000 
#    0.000    0.000    0.000    0.000    0.000    0.000 
#
# Total GULP energy -357416.446594 kJ/mol
# GULP energy per Si atom -5584.631978 kJ/mol
# Density = 1.917337 g / cm^3
# Si number density = 19.217109 Si / 1000 Ang^3
#
#
#
# Elastic Constant Matrix: (Units=GPa)
#
#
# Indices 1 2 3 4 5 6 
#
# 1 28.8544 2.8545 14.1684 0.0000 0.0000 0.0000
# 2 2.8545 72.4152 20.2188 0.0000 0.0000 0.0000
# 3 14.1684 20.2188 115.4804 0.0000 0.0000 0.0000
# 4 0.0000 0.0000 0.0000 3.5391 0.0000 0.0000
# 5 0.0000 0.0000 0.0000 0.0000 19.6130 0.0000
# 6 0.0000 0.0000 0.0000 0.0000 0.0000 15.6413
#
#
#
# Elastic Compliance Matrix: (Units=1/GPa)
#
#
# Indices 1 2 3 4 5 6 
#
# 1 0.036881 -0.000200 -0.004490 0.000000 0.000000 0.000000
# 2 -0.000200 0.014520 -0.002518 0.000000 0.000000 0.000000
# 3 -0.004490 -0.002518 0.009651 0.000000 0.000000 0.000000
# 4 0.000000 0.000000 0.000000 0.282557 0.000000 0.000000
# 5 0.000000 0.000000 0.000000 0.000000 0.050987 0.000000
# 6 0.000000 0.000000 0.000000 0.000000 0.000000 0.063933
#
#
# Mechanical properties :
#
#
# Convention : Reuss Voigt Hill
#
# Bulk Modulus (GPa) = 21.44224 32.35928 26.90076
# Shear Modulus (GPa) = 10.23560 19.72590 14.98075
#
# Velocity S-wave (km/s) = 2.31038 3.20734 2.79508
# Velocity P-wave (km/s) = 4.27776 5.53095 4.94422
#
# Compressibility (1/GPa) = 0.04663692
#
# Stress axis : x y z
#
# Youngs Moduli (GPa) = 27.11404 68.87005 103.61450
#
# Poissons Ratio (x) = 0.01379 0.46522
# Poissons Ratio (y) = 0.00543 0.26087
# Poissons Ratio (z) = 0.12174 0.17339
#
# Static dielectric constant tensor:
#      x y z
#    x 1.678150 0.000000 0.000000 
#    y 0.000000 1.681740 0.000000 
#    z 0.000000 0.000000 1.672870 
# 
# From -- ./inp_files/30298.got.cif
#   From: 2010.05.17/outbox.cif.g08.bks.cpg/sg58_16_cif.got.tgz:30298.got - 2010.06.03 14:20:14.
