data_PCOD9442570
_publ_section_title
;
Structure prediction by ZEFSAII (Michael W. Deem and Ramdas Pophale) SiO2 
 PCOD9442570
Probable space group: P N N M
;
_chemical_formula_sum "Si O2"
_cell_formula_units_Z 48
_cell_length_a 15.527191
_cell_length_b 19.517583
_cell_length_c 8.552069
_cell_angle_alpha 90.000000
_cell_angle_beta 90.000000
_cell_angle_gamma 90.000000
_cell_volume 2591.732211
_symmetry_space_group_name_H-M "P N N M"
_symmetry_group_IT_number 58
_symmetry_cell_setting 'orthorhombic'
loop_
_space_group_symop_operation_xyz
x,y,z
-x,-y,z
1/2+x,1/2-y,1/2-z
1/2-x,1/2+y,1/2-z
-x,-y,-z
x,y,-z
1/2-x,1/2+y,1/2+z
1/2+x,1/2-y,1/2+z
loop_
_atom_site_type_symbol
_atom_site_label
_atom_site_fract_x
_atom_site_fract_y
_atom_site_fract_z
Si Si1 0.622192 0.828926 0.189265
Si Si2 0.721132 0.424735 0.309648
Si Si3 0.025320 0.078146 0.188925
Si Si4 0.627835 0.671013 0.812788
Si Si5 0.279677 0.923030 0.812477
Si Si6 0.470627 0.923722 0.687372
O O1 0.707542 0.870103 0.241170
O O2 0.624227 0.749999 0.239542
O O3 0.539229 0.869150 0.250694
O O4 0.620256 0.830575 0.000000
O O5 0.720440 0.425008 0.500000
O O6 0.623635 0.409293 0.259999
O O7 0.749043 0.501057 0.260055
O O8 0.956968 0.130216 0.259845
O O9 0.020928 0.083364 0.000000
O O10 0.000000 0.000000 0.229452
O O11 0.710414 0.631867 0.744848
O O12 0.633437 0.669982 0.000000
O O13 0.374966 0.909942 0.748941
O O14 0.281549 0.923058 0.000000
O O15 0.470193 0.922599 0.500000
O O16 0.500000 0.000000 0.739402
#
# Coordination Sequence:
#
# PCOD9442570 Si02
#       6
#     8   8   8   8   8   8
#     4  10  22  41  61  85 121 164 202 239 294 363
#     4   9  18  35  61  86 109 150 205 245 278 346
#     4  10  19  36  61  88 114 152 206 247 290 359
#     4  11  24  39  57  89 128 157 193 252 309 350
#     4  11  21  38  65  89 115 158 204 243 290 357
#     4  11  23  38  60  93 125 154 195 252 305 347
#
# _framework density 18.520430999999999
#
# number of rings (size 3 to 8) (size 9 to 14) (size 15 to 20)
#    0.000    1.667    3.333    1.500    0.000    3.667 
#    0.000    2.500    0.000    0.000    0.000    0.000 
#    0.000    0.000    0.000    0.000    0.000    0.000 
#
# Total GULP energy -268187.078134 kJ/mol
# GULP energy per Si atom -5587.230794 kJ/mol
# Density = 1.847828 g / cm^3
# Si number density = 18.520431 Si / 1000 Ang^3
#
#
#
# Elastic Constant Matrix: (Units=GPa)
#
#
# Indices 1 2 3 4 5 6 
#
# 1 218.4649 114.6842 34.4921 0.0000 0.0000 0.0000
# 2 114.6842 187.5395 38.8612 0.0000 0.0000 0.0000
# 3 34.4921 38.8612 24.7876 0.0000 0.0000 0.0000
# 4 0.0000 0.0000 0.0000 22.0551 0.0000 0.0000
# 5 0.0000 0.0000 0.0000 0.0000 24.0699 0.0000
# 6 0.0000 0.0000 0.0000 0.0000 0.0000 33.8765
#
#
#
# Elastic Compliance Matrix: (Units=1/GPa)
#
#
# Indices 1 2 3 4 5 6 
#
# 1 0.007069 -0.003384 -0.004532 0.000000 0.000000 0.000000
# 2 -0.003384 0.009518 -0.010213 0.000000 0.000000 0.000000
# 3 -0.004532 -0.010213 0.062660 0.000000 0.000000 0.000000
# 4 0.000000 0.000000 0.000000 0.045341 0.000000 0.000000
# 5 0.000000 0.000000 0.000000 0.000000 0.041546 0.000000
# 6 0.000000 0.000000 0.000000 0.000000 0.000000 0.029519
#
#
# Mechanical properties :
#
#
# Convention : Reuss Voigt Hill
#
# Bulk Modulus (GPa) = 23.26113 89.65188 56.45651
# Shear Modulus (GPa) = 20.30535 32.18394 26.24465
#
# Velocity S-wave (km/s) = 3.31475 4.17316 3.76848
# Velocity P-wave (km/s) = 5.21891 8.46950 7.03454
#
# Compressibility (1/GPa) = 0.04299017
#
# Stress axis : x y z
#
# Youngs Moduli (GPa) = 141.45639 105.06538 15.95906
#
# Poissons Ratio (x) = 0.35554 0.07232
# Poissons Ratio (y) = 0.47869 0.16299
# Poissons Ratio (z) = 0.64104 1.07303
#
# Static dielectric constant tensor:
#      x y z
#    x 1.608360 0.000000 0.000000 
#    y 0.000000 1.621920 0.000000 
#    z 0.000000 0.000000 1.635070 
# 
# From -- ./inp_files/5865.got.cif
#   From: 2010.05.17/outbox.cif.g08.bks.cpg/sg58_3_cif.got.tgz:5865.got - 2010.06.03 14:20:14.
