data_PCOD9442087
_publ_section_title
;
Structure prediction by ZEFSAII (Michael W. Deem and Ramdas Pophale) SiO2 
 PCOD9442087
Probable space group: P N N M
;
_chemical_formula_sum "Si O2"
_cell_formula_units_Z 64
_cell_length_a 20.550516
_cell_length_b 19.955149
_cell_length_c 8.472444
_cell_angle_alpha 90.000000
_cell_angle_beta 90.000000
_cell_angle_gamma 90.000000
_cell_volume 3474.452773
_symmetry_space_group_name_H-M "P N N M"
_symmetry_group_IT_number 58
_symmetry_cell_setting 'orthorhombic'
loop_
_space_group_symop_operation_xyz
x,y,z
-x,-y,z
1/2+x,1/2-y,1/2-z
1/2-x,1/2+y,1/2-z
-x,-y,-z
x,y,-z
1/2-x,1/2+y,1/2+z
1/2+x,1/2-y,1/2+z
loop_
_atom_site_type_symbol
_atom_site_label
_atom_site_fract_x
_atom_site_fract_y
_atom_site_fract_z
Si Si1 0.010062 0.710046 0.690137
Si Si2 0.959094 0.564834 0.693005
Si Si3 0.186149 0.405137 0.309421
Si Si4 0.640140 0.720980 0.310910
Si Si5 0.406583 0.676321 0.191329
Si Si6 0.930744 0.970645 0.811738
Si Si7 0.283366 0.752929 0.191519
Si Si8 0.327255 0.425747 0.186687
O O1 0.010015 0.708187 0.500000
O O2 0.078837 0.739037 0.745621
O O3 0.991710 0.635106 0.744374
O O4 0.954889 0.763537 0.737604
O O5 0.959069 0.564982 0.500000
O O6 0.883074 0.564722 0.741693
O O7 0.000000 0.500000 0.744424
O O8 0.188851 0.408458 0.500000
O O9 0.189532 0.326386 0.264786
O O10 0.253009 0.435493 0.244186
O O11 0.638015 0.723049 0.500000
O O12 0.709029 0.752068 0.254996
O O13 0.644123 0.642967 0.261045
O O14 0.427195 0.606525 0.264214
O O15 0.334033 0.697022 0.242883
O O16 0.408075 0.671235 0.000000
O O17 0.872671 0.012911 0.735631
O O18 0.926367 0.977865 0.000000
O O19 0.000000 0.000000 0.758524
O O20 0.282578 0.751819 0.000000
O O21 0.327311 0.417422 0.000000
#
# Coordination Sequence:
#
# PCOD9442087 Si02
#       8
#     8   8   8   8   8   8   8   8
#     4  10  19  33  56  85 115 146 187 231 276 330
#     4   9  17  32  57  86 115 149 188 231 278 331
#     4   9  16  33  59  82 111 149 188 227 274 328
#     4  10  20  35  57  82 113 150 184 225 279 332
#     4  10  19  34  57  80 106 145 188 231 275 326
#     4  11  24  40  56  79 112 146 184 231 284 341
#     4   8  15  31  54  76 101 141 184 220 265 324
#     4  11  22  37  58  84 113 148 190 233 277 334
#
# _framework density 18.420166999999999
#
# number of rings (size 3 to 8) (size 9 to 14) (size 15 to 20)
#    0.000    2.250    1.250    3.375    0.000    3.500 
#    2.250    3.750    0.000    0.750    0.000    0.000 
#    0.000    0.000    0.000    0.000    0.000    0.000 
#
# Total GULP energy -357118.011478 kJ/mol
# GULP energy per Si atom -5579.968929 kJ/mol
# Density = 1.837824 g / cm^3
# Si number density = 18.420167 Si / 1000 Ang^3
#
#
#
# Elastic Constant Matrix: (Units=GPa)
#
#
# Indices 1 2 3 4 5 6 
#
# 1 148.0191 83.3916 23.4708 0.0000 0.0000 0.0000
# 2 83.3916 120.3258 17.0412 0.0000 0.0000 0.0000
# 3 23.4708 17.0412 11.3069 0.0000 0.0000 0.0000
# 4 0.0000 0.0000 0.0000 11.3196 0.0000 0.0000
# 5 0.0000 0.0000 0.0000 0.0000 19.1421 0.0000
# 6 0.0000 0.0000 0.0000 0.0000 0.0000 31.1105
#
#
#
# Elastic Compliance Matrix: (Units=1/GPa)
#
#
# Indices 1 2 3 4 5 6 
#
# 1 0.013345 -0.006771 -0.017497 0.000000 0.000000 0.000000
# 2 -0.006771 0.014001 -0.007048 0.000000 0.000000 0.000000
# 3 -0.017497 -0.007048 0.135383 0.000000 0.000000 0.000000
# 4 0.000000 0.000000 0.000000 0.088343 0.000000 0.000000
# 5 0.000000 0.000000 0.000000 0.000000 0.052241 0.000000
# 6 0.000000 0.000000 0.000000 0.000000 0.000000 0.032144
#
#
# Mechanical properties :
#
#
# Convention : Reuss Voigt Hill
#
# Bulk Modulus (GPa) = 9.99008 58.60655 34.29831
# Shear Modulus (GPa) = 11.58877 22.69764 17.14320
#
# Velocity S-wave (km/s) = 2.51098 3.51410 3.05401
# Velocity P-wave (km/s) = 3.72047 6.95347 5.57641
#
# Compressibility (1/GPa) = 0.10009928
#
# Stress axis : x y z
#
# Youngs Moduli (GPa) = 74.93646 71.42238 7.38645
#
# Poissons Ratio (x) = 0.48357 0.12924
# Poissons Ratio (y) = 0.50736 0.05206
# Poissons Ratio (z) = 1.31113 0.50337
#
# Static dielectric constant tensor:
#      x y z
#    x 1.639610 0.000000 0.000000 
#    y 0.000000 1.605180 0.000000 
#    z 0.000000 0.000000 1.628250 
# 
# From -- ./inp_files/9273.got.cif
#   From: 2010.05.17/outbox.cif.g08.bks.cpg/sg58_5_cif.got.tgz:9273.got - 2010.06.03 14:20:14.
