data_PCOD9442829
_publ_section_title
;
Structure prediction by ZEFSAII (Michael W. Deem and Ramdas Pophale) SiO2 
 PCOD9442829
Probable space group: P N N M
;
_chemical_formula_sum "Si O2"
_cell_formula_units_Z 64
_cell_length_a 7.846844
_cell_length_b 23.051650
_cell_length_c 14.009526
_cell_angle_alpha 90.000000
_cell_angle_beta 90.000000
_cell_angle_gamma 90.000000
_cell_volume 2534.080910
_symmetry_space_group_name_H-M "P N N M"
_symmetry_group_IT_number 58
_symmetry_cell_setting 'orthorhombic'
loop_
_space_group_symop_operation_xyz
x,y,z
-x,-y,z
1/2+x,1/2-y,1/2-z
1/2-x,1/2+y,1/2-z
-x,-y,-z
x,y,-z
1/2-x,1/2+y,1/2+z
1/2+x,1/2-y,1/2+z
loop_
_atom_site_type_symbol
_atom_site_label
_atom_site_fract_x
_atom_site_fract_y
_atom_site_fract_z
Si Si1 0.341041 0.042532 0.715707
Si Si2 0.449374 0.296233 0.392174
Si Si3 0.096559 0.122282 0.613555
Si Si4 0.799650 0.897573 0.889633
Si Si5 0.480227 0.256060 0.891138
Si Si6 0.620660 0.176692 0.397646
Si Si7 0.384022 0.439187 0.282157
Si Si8 0.869269 0.647832 0.303129
O O1 0.267404 0.085944 0.635452
O O2 0.342875 0.081370 0.814062
O O3 0.500000 0.000000 0.697732
O O4 0.186420 0.997514 0.736251
O O5 0.395632 0.312767 0.500000
O O6 0.621323 0.333248 0.374583
O O7 0.487338 0.228781 0.391452
O O8 0.302423 0.312642 0.319671
O O9 0.052399 0.117521 0.500000
O O10 0.105229 0.190951 0.637026
O O11 0.960621 0.096755 0.690665
O O12 0.968761 0.934649 0.862243
O O13 0.748297 0.903376 0.000000
O O14 0.298952 0.288325 0.891420
O O15 0.495014 0.194836 0.838671
O O16 0.521090 0.240757 0.000000
O O17 0.611863 0.147269 0.500000
O O18 0.599945 0.136383 0.307950
O O19 0.217287 0.411917 0.335638
#
# Coordination Sequence:
#
# PCOD9442829 Si02
#       8
#     8   8   8   8   8   8   8   8
#     4  11  25  41  58  89 124 150 198 256 309 367
#     4   9  19  35  55  83 115 150 193 235 285 348
#     4  10  21  43  67  86 114 157 207 253 297 352
#     4   9  19  38  64  86 114 158 204 246 290 349
#     4  10  21  37  58  88 119 153 197 239 286 354
#     4  10  20  33  51  81 118 151 190 231 276 344
#     4  10  22  39  60  90 115 157 207 244 293 359
#     4  11  20  34  58  84 118 156 189 237 295 343
#
# _framework density 25.255706
#
# number of rings (size 3 to 8) (size 9 to 14) (size 15 to 20)
#    0.000    2.000    1.250    2.625    3.500    4.000 
#    2.250    0.000    0.000    0.000    0.000    0.000 
#    0.000    0.000    0.000    0.000    0.000    0.000 
#
# Total GULP energy -357165.651509 kJ/mol
# GULP energy per Si atom -5580.713305 kJ/mol
# Density = 2.519822 g / cm^3
# Si number density = 25.255706 Si / 1000 Ang^3
#
#
#
# Elastic Constant Matrix: (Units=GPa)
#
#
# Indices 1 2 3 4 5 6 
#
# 1 80.4774 -4.3605 -8.3267 0.0000 0.0000 0.0000
# 2 -4.3605 68.4615 -0.4536 0.0000 0.0000 0.0000
# 3 -8.3267 -0.4536 109.5151 0.0000 0.0000 0.0000
# 4 0.0000 0.0000 0.0000 16.7666 0.0000 0.0000
# 5 0.0000 0.0000 0.0000 0.0000 14.6142 0.0000
# 6 0.0000 0.0000 0.0000 0.0000 0.0000 40.7028
#
#
#
# Elastic Compliance Matrix: (Units=1/GPa)
#
#
# Indices 1 2 3 4 5 6 
#
# 1 0.012569 0.000807 0.000959 0.000000 0.000000 0.000000
# 2 0.000807 0.014659 0.000122 0.000000 0.000000 0.000000
# 3 0.000959 0.000122 0.009205 0.000000 0.000000 0.000000
# 4 0.000000 0.000000 0.000000 0.059642 0.000000 0.000000
# 5 0.000000 0.000000 0.000000 0.000000 0.068427 0.000000
# 6 0.000000 0.000000 0.000000 0.000000 0.000000 0.024568
#
#
# Mechanical properties :
#
#
# Convention : Reuss Voigt Hill
#
# Bulk Modulus (GPa) = 24.87057 25.79695 25.33376
# Shear Modulus (GPa) = 25.16402 32.52304 28.84353
#
# Velocity S-wave (km/s) = 3.15996 3.59242 3.38310
# Velocity P-wave (km/s) = 4.81484 5.23868 5.03122
#
# Compressibility (1/GPa) = 0.04020817
#
# Stress axis : x y z
#
# Youngs Moduli (GPa) = 79.56219 68.21771 108.64161
#
# Poissons Ratio (x) = -0.05504 -0.10418
# Poissons Ratio (y) = -0.06420 -0.01326
# Poissons Ratio (z) = -0.07630 -0.00833
#
# Static dielectric constant tensor:
#      x y z
#    x 2.187080 0.000000 0.000000 
#    y 0.000000 2.055170 0.000000 
#    z 0.000000 0.000000 1.981030 
# 
# From -- ./inp_files/20275.got.cif
#   From: 2010.05.17/outbox.cif.g08.bks.cpg/sg58_11_cif.got.tgz:20275.got - 2010.06.03 14:20:14.
