data_PCOD9442688
_publ_section_title
;
Structure prediction by ZEFSAII (Michael W. Deem and Ramdas Pophale) SiO2 
 PCOD9442688
Probable space group: P N N M
;
_chemical_formula_sum "Si O2"
_cell_formula_units_Z 64
_cell_length_a 11.593784
_cell_length_b 22.878961
_cell_length_c 13.681729
_cell_angle_alpha 90.000000
_cell_angle_beta 90.000000
_cell_angle_gamma 90.000000
_cell_volume 3629.129677
_symmetry_space_group_name_H-M "P N N M"
_symmetry_group_IT_number 58
_symmetry_cell_setting 'orthorhombic'
loop_
_space_group_symop_operation_xyz
x,y,z
-x,-y,z
1/2+x,1/2-y,1/2-z
1/2-x,1/2+y,1/2-z
-x,-y,-z
x,y,-z
1/2-x,1/2+y,1/2+z
1/2+x,1/2-y,1/2+z
loop_
_atom_site_type_symbol
_atom_site_label
_atom_site_fract_x
_atom_site_fract_y
_atom_site_fract_z
Si Si1 0.042530 0.205994 0.114153
Si Si2 0.465556 0.171216 0.295727
Si Si3 0.064935 0.080398 0.385999
Si Si4 0.196973 0.187197 0.296541
Si Si5 0.345202 0.392005 0.612054
Si Si6 0.163189 0.963128 0.302345
Si Si7 0.080825 0.444638 0.882859
Si Si8 0.374844 0.809603 0.113937
O O1 0.146928 0.192648 0.187330
O O2 0.996570 0.269863 0.144821
O O3 0.943193 0.157225 0.129955
O O4 0.073292 0.205448 0.000000
O O5 0.328152 0.166451 0.294961
O O6 0.522840 0.114775 0.344938
O O7 0.520188 0.178386 0.187688
O O8 0.085919 0.068809 0.500000
O O9 0.117429 0.141649 0.354478
O O10 0.929169 0.075141 0.363676
O O11 0.126612 0.029550 0.323648
O O12 0.184011 0.249594 0.349547
O O13 0.356914 0.411888 0.500000
O O14 0.352837 0.443046 0.690972
O O15 0.221989 0.359803 0.623056
O O16 0.292940 0.952284 0.336704
O O17 0.000000 0.500000 0.857576
O O18 0.091730 0.442677 0.000000
O O19 0.407752 0.804936 0.000000
#
# Coordination Sequence:
#
# PCOD9442688 Si02
#       8
#     8   8   8   8   8   8   8   8
#     4  10  21  38  58  85 118 152 191 239 291 339
#     4  11  22  36  59  86 116 152 192 237 290 344
#     4  11  23  38  60  87 119 155 188 239 294 341
#     4  11  22  37  59  88 119 153 192 239 288 354
#     4  10  19  38  65  85 112 153 195 237 282 340
#     4  11  21  40  59  85 116 153 192 238 284 342
#     4  11  23  38  58  85 117 153 192 236 287 345
#     4  10  21  38  60  84 115 155 193 234 287 348
#
# _framework density 17.635081
#
# number of rings (size 3 to 8) (size 9 to 14) (size 15 to 20)
#    0.000    1.375    3.750    3.000    0.000    3.000 
#    0.000    1.875    0.000    3.000    0.000    0.000 
#    0.000    0.000    0.000    0.000    0.000    0.000 
#
# Total GULP energy -357458.937195 kJ/mol
# GULP energy per Si atom -5585.295894 kJ/mol
# Density = 1.759494 g / cm^3
# Si number density = 17.635081 Si / 1000 Ang^3
#
#
#
# Elastic Constant Matrix: (Units=GPa)
#
#
# Indices 1 2 3 4 5 6 
#
# 1 97.9270 36.6100 21.5517 0.0000 0.0000 0.0000
# 2 36.6100 58.4297 56.5254 0.0000 0.0000 0.0000
# 3 21.5517 56.5254 121.8546 0.0000 0.0000 0.0000
# 4 0.0000 0.0000 0.0000 28.4889 0.0000 0.0000
# 5 0.0000 0.0000 0.0000 0.0000 20.9377 0.0000
# 6 0.0000 0.0000 0.0000 0.0000 0.0000 22.3465
#
#
#
# Elastic Compliance Matrix: (Units=1/GPa)
#
#
# Indices 1 2 3 4 5 6 
#
# 1 0.013865 -0.011456 0.002862 0.000000 0.000000 0.000000
# 2 -0.011456 0.040512 -0.016767 0.000000 0.000000 0.000000
# 3 0.002862 -0.016767 0.015478 0.000000 0.000000 0.000000
# 4 0.000000 0.000000 0.000000 0.035101 0.000000 0.000000
# 5 0.000000 0.000000 0.000000 0.000000 0.047761 0.000000
# 6 0.000000 0.000000 0.000000 0.000000 0.000000 0.044750
#
#
# Mechanical properties :
#
#
# Convention : Reuss Voigt Hill
#
# Bulk Modulus (GPa) = 52.26259 56.39839 54.33049
# Shear Modulus (GPa) = 19.64129 25.25623 22.44876
#
# Velocity S-wave (km/s) = 3.34093 3.78849 3.57173
# Velocity P-wave (km/s) = 6.67700 7.15452 6.91988
#
# Compressibility (1/GPa) = 0.01913414
#
# Stress axis : x y z
#
# Youngs Moduli (GPa) = 72.12646 24.68374 64.60783
#
# Poissons Ratio (x) = 0.28277 -0.18490
# Poissons Ratio (y) = 0.82625 1.08326
# Poissons Ratio (z) = -0.20641 0.41386
#
# Static dielectric constant tensor:
#      x y z
#    x 1.582510 0.000000 0.000000 
#    y 0.000000 1.579650 0.000000 
#    z 0.000000 0.000000 1.586320 
# 
# From -- ./inp_files/14819.got.cif
#   From: 2010.05.17/outbox.cif.g08.bks.cpg/sg58_8_cif.got.tgz:14819.got - 2010.06.03 14:20:14.
