data_PCOD9442586
_publ_section_title
;
Structure prediction by ZEFSAII (Michael W. Deem and Ramdas Pophale) SiO2 
 PCOD9442586
Probable space group: P N N M
;
_chemical_formula_sum "Si O2"
_cell_formula_units_Z 64
_cell_length_a 11.912122
_cell_length_b 30.954173
_cell_length_c 7.933911
_cell_angle_alpha 90.000000
_cell_angle_beta 90.000000
_cell_angle_gamma 90.000000
_cell_volume 2925.470092
_symmetry_space_group_name_H-M "P N N M"
_symmetry_group_IT_number 58
_symmetry_cell_setting 'orthorhombic'
loop_
_space_group_symop_operation_xyz
x,y,z
-x,-y,z
1/2+x,1/2-y,1/2-z
1/2-x,1/2+y,1/2-z
-x,-y,-z
x,y,-z
1/2-x,1/2+y,1/2+z
1/2+x,1/2-y,1/2+z
loop_
_atom_site_type_symbol
_atom_site_label
_atom_site_fract_x
_atom_site_fract_y
_atom_site_fract_z
Si Si1 0.378232 0.981250 0.802114
Si Si2 0.715171 0.307857 0.691759
Si Si3 0.993837 0.402573 0.798251
Si Si4 0.249941 0.096799 0.202622
Si Si5 0.372351 0.513639 0.705330
Si Si6 0.014354 0.306026 0.809275
Si Si7 0.254476 0.786775 0.190618
Si Si8 0.982436 0.211591 0.691442
O O1 0.406598 0.930450 0.780397
O O2 0.500000 0.000000 0.730103
O O3 0.248925 0.991102 0.741588
O O4 0.377481 0.993468 0.000000
O O5 0.757849 0.304158 0.500000
O O6 0.742536 0.354343 0.768571
O O7 0.749448 0.265398 0.793632
O O8 0.580955 0.304772 0.691047
O O9 0.871443 0.421483 0.752928
O O10 0.988250 0.352944 0.736995
O O11 0.007344 0.401601 0.000000
O O12 0.153307 0.063519 0.253948
O O13 0.245260 0.099917 0.000000
O O14 0.500000 0.500000 0.760631
O O15 0.373850 0.510076 0.500000
O O16 0.980941 0.263839 0.705235
O O17 0.148529 0.302742 0.811492
O O18 0.970439 0.302108 0.000000
O O19 0.136060 0.804695 0.246154
O O20 0.282589 0.798210 0.000000
O O21 0.006020 0.199524 0.500000
#
# Coordination Sequence:
#
# PCOD9442586 Si02
#       8
#     8   8   8   8   8   8   8   8
#     4  10  19  36  62  88 115 150 193 238 287 345
#     4  10  20  34  54  81 111 145 188 239 288 342
#     4  11  23  36  57  87 119 149 186 239 294 347
#     4  10  20  36  59  85 115 148 193 240 282 342
#     4   9  18  36  61  87 116 149 189 238 289 341
#     4  10  21  37  54  78 111 146 187 237 288 340
#     4  11  21  35  55  78 108 146 190 236 285 346
#     4  11  21  35  55  77 109 151 191 234 285 345
#
# _framework density 21.876826000000001
#
# number of rings (size 3 to 8) (size 9 to 14) (size 15 to 20)
#    0.000    1.750    1.250    5.625    0.000    5.250 
#    2.250    0.000    0.000    1.500    0.000    0.000 
#    0.000    0.000    0.000    0.000    0.000    0.000 
#
# Total GULP energy -356777.990622 kJ/mol
# GULP energy per Si atom -5574.656103 kJ/mol
# Density = 2.182703 g / cm^3
# Si number density = 21.876826 Si / 1000 Ang^3
#
#
#
# Elastic Constant Matrix: (Units=GPa)
#
#
# Indices 1 2 3 4 5 6 
#
# 1 162.0146 33.6125 -1.2018 0.0000 0.0000 0.0000
# 2 33.6125 70.4495 -1.6894 0.0000 0.0000 0.0000
# 3 -1.2018 -1.6894 53.7284 0.0000 0.0000 0.0000
# 4 0.0000 0.0000 0.0000 15.4179 0.0000 0.0000
# 5 0.0000 0.0000 0.0000 0.0000 -86.1705 0.0000
# 6 0.0000 0.0000 0.0000 0.0000 0.0000 -14.4178
#
#
#
# Elastic Compliance Matrix: (Units=1/GPa)
#
#
# Indices 1 2 3 4 5 6 
#
# 1 0.006851 -0.003267 0.000051 0.000000 0.000000 0.000000
# 2 -0.003267 0.015764 0.000423 0.000000 0.000000 0.000000
# 3 0.000051 0.000423 0.018627 0.000000 0.000000 0.000000
# 4 0.000000 0.000000 0.000000 0.064860 0.000000 0.000000
# 5 0.000000 0.000000 0.000000 0.000000 -0.011605 0.000000
# 6 0.000000 0.000000 0.000000 0.000000 0.000000 -0.069359
#
#
# Mechanical properties :
#
#
# Convention : Reuss Voigt Hill
#
# Bulk Modulus (GPa) = 28.04873 38.62611 33.33742
# Shear Modulus (GPa) = 117.34644 -0.00265 58.67189
#
# Velocity S-wave (km/s) = 7.33185 -0.03486 5.18434
# Velocity P-wave (km/s) = 9.19368 4.20629 7.14901
#
# Compressibility (1/GPa) = 0.03565223
#
# Stress axis : x y z
#
# Youngs Moduli (GPa) = 145.97463 63.43741 53.68681
#
# Poissons Ratio (x) = 0.20727 -0.00271
# Poissons Ratio (y) = 0.47694 -0.02269
# Poissons Ratio (z) = -0.00737 -0.02681
#
# Static dielectric constant tensor:
#      x y z
#    x 1.850830 0.000000 0.000000 
#    y 0.000000 1.850500 0.000000 
#    z 0.000000 0.000000 1.749220 
# 
# From -- ./inp_files/4805.got.cif
#   From: 2010.05.17/outbox.cif.g08.bks.cpg/sg58_3_cif.got.tgz:4805.got - 2010.06.03 14:20:14.
