data_PCOD9442637
_publ_section_title
;
Structure prediction by ZEFSAII (Michael W. Deem and Ramdas Pophale) SiO2 
 PCOD9442637
Probable space group: P N N M
;
_chemical_formula_sum "Si O2"
_cell_formula_units_Z 56
_cell_length_a 15.310281
_cell_length_b 21.990760
_cell_length_c 8.361356
_cell_angle_alpha 90.000000
_cell_angle_beta 90.000000
_cell_angle_gamma 90.000000
_cell_volume 2815.140762
_symmetry_space_group_name_H-M "P N N M"
_symmetry_group_IT_number 58
_symmetry_cell_setting 'orthorhombic'
loop_
_space_group_symop_operation_xyz
x,y,z
-x,-y,z
1/2+x,1/2-y,1/2-z
1/2-x,1/2+y,1/2-z
-x,-y,-z
x,y,-z
1/2-x,1/2+y,1/2+z
1/2+x,1/2-y,1/2+z
loop_
_atom_site_type_symbol
_atom_site_label
_atom_site_fract_x
_atom_site_fract_y
_atom_site_fract_z
Si Si1 0.485163 0.069124 0.691003
Si Si2 0.529890 0.593579 0.306987
Si Si3 0.737045 0.263377 0.306484
Si Si4 0.572899 0.725323 0.191733
Si Si5 0.707862 0.898166 0.193572
Si Si6 0.074496 0.316282 0.308633
Si Si7 0.640936 0.483510 0.694444
O O1 0.483836 0.067964 0.500000
O O2 0.391181 0.093859 0.749805
O O3 0.560869 0.115604 0.745403
O O4 0.500000 0.000000 0.750030
O O5 0.531312 0.596486 0.500000
O O6 0.536575 0.660257 0.239001
O O7 0.439542 0.560718 0.261881
O O8 0.610150 0.550352 0.253552
O O9 0.731317 0.262528 0.500000
O O10 0.828395 0.233968 0.252423
O O11 0.745998 0.334445 0.258283
O O12 0.658063 0.223101 0.241813
O O13 0.509138 0.777926 0.251991
O O14 0.574624 0.730431 0.000000
O O15 0.768823 0.954043 0.249354
O O16 0.705788 0.897589 0.000000
O O17 0.072431 0.319103 0.500000
O O18 0.643648 0.484802 0.500000
#
# Coordination Sequence:
#
# PCOD9442637 Si02
#       7
#     8   8   8   8   8   8   8
#     4  11  25  43  62  86 119 158 201 254 313 367
#     4   9  17  32  54  82 113 149 192 235 282 341
#     4  10  21  38  60  87 120 156 192 241 306 358
#     4  10  21  37  55  81 118 150 182 234 293 346
#     4  10  19  37  62  86 117 159 202 245 299 362
#     4  11  23  41  63  89 118 154 204 253 298 363
#     4   8  16  31  54  82 112 146 191 240 282 336
#
# _framework density 19.892434000000002
#
# number of rings (size 3 to 8) (size 9 to 14) (size 15 to 20)
#    0.000    2.143    1.429    2.571    0.000    5.714 
#    0.000    5.714    0.000    0.000    0.000    0.000 
#    0.000    0.000    0.000    0.000    0.000    0.000 
#
# Total GULP energy -312523.912933 kJ/mol
# GULP energy per Si atom -5580.784160 kJ/mol
# Density = 1.984716 g / cm^3
# Si number density = 19.892434 Si / 1000 Ang^3
#
#
#
# Elastic Constant Matrix: (Units=GPa)
#
#
# Indices 1 2 3 4 5 6 
#
# 1 86.1543 33.4706 13.1134 0.0000 0.0000 0.0000
# 2 33.4706 127.2674 13.5358 0.0000 0.0000 0.0000
# 3 13.1134 13.5358 11.6171 0.0000 0.0000 0.0000
# 4 0.0000 0.0000 0.0000 22.5146 0.0000 0.0000
# 5 0.0000 0.0000 0.0000 0.0000 27.9802 0.0000
# 6 0.0000 0.0000 0.0000 0.0000 0.0000 24.8181
#
#
#
# Elastic Compliance Matrix: (Units=1/GPa)
#
#
# Indices 1 2 3 4 5 6 
#
# 1 0.014623 -0.002386 -0.013727 0.000000 0.000000 0.000000
# 2 -0.002386 0.009358 -0.008211 0.000000 0.000000 0.000000
# 3 -0.013727 -0.008211 0.111142 0.000000 0.000000 0.000000
# 4 0.000000 0.000000 0.000000 0.044416 0.000000 0.000000
# 5 0.000000 0.000000 0.000000 0.000000 0.035740 0.000000
# 6 0.000000 0.000000 0.000000 0.000000 0.000000 0.040293
#
#
# Mechanical properties :
#
#
# Convention : Reuss Voigt Hill
#
# Bulk Modulus (GPa) = 11.56380 38.36428 24.96404
# Shear Modulus (GPa) = 15.01298 26.05717 20.53507
#
# Velocity S-wave (km/s) = 2.75018 3.62319 3.21644
# Velocity P-wave (km/s) = 3.98878 6.06886 5.13524
#
# Compressibility (1/GPa) = 0.08647676
#
# Stress axis : x y z
#
# Youngs Moduli (GPa) = 68.38371 106.85806 8.99747
#
# Poissons Ratio (x) = 0.25495 0.12351
# Poissons Ratio (y) = 0.16316 0.07388
# Poissons Ratio (z) = 0.93871 0.87737
#
# Static dielectric constant tensor:
#      x y z
#    x 1.701930 0.000000 0.000000 
#    y 0.000000 1.706400 0.000000 
#    z 0.000000 0.000000 1.691090 
# 
# From -- ./inp_files/6251.got.cif
#   From: 2010.05.17/outbox.cif.g08.bks.cpg/sg58_4_cif.got.tgz:6251.got - 2010.06.03 14:20:14.
