data_PCOD9442735
_publ_section_title
;
Structure prediction by ZEFSAII (Michael W. Deem and Ramdas Pophale) SiO2 
 PCOD9442735
Probable space group: P N N M
;
_chemical_formula_sum "Si O2"
_cell_formula_units_Z 64
_cell_length_a 31.429270
_cell_length_b 14.725464
_cell_length_c 8.858039
_cell_angle_alpha 90.000000
_cell_angle_beta 90.000000
_cell_angle_gamma 90.000000
_cell_volume 4099.594202
_symmetry_space_group_name_H-M "P N N M"
_symmetry_group_IT_number 58
_symmetry_cell_setting 'orthorhombic'
loop_
_space_group_symop_operation_xyz
x,y,z
-x,-y,z
1/2+x,1/2-y,1/2-z
1/2-x,1/2+y,1/2-z
-x,-y,-z
x,y,-z
1/2-x,1/2+y,1/2+z
1/2+x,1/2-y,1/2+z
loop_
_atom_site_type_symbol
_atom_site_label
_atom_site_fract_x
_atom_site_fract_y
_atom_site_fract_z
Si Si1 0.785908 0.219847 0.681337
Si Si2 0.202381 0.183419 0.320477
Si Si3 0.266429 0.486697 0.179483
Si Si4 0.631891 0.194822 0.320921
Si Si5 0.549578 0.896708 0.318271
Si Si6 0.046517 0.392865 0.183703
Si Si7 0.824185 0.525910 0.673657
Si Si8 0.132325 0.669930 0.324045
O O1 0.783250 0.234408 0.500000
O O2 0.743822 0.265430 0.752253
O O3 0.786292 0.112010 0.709440
O O4 0.829641 0.266393 0.735654
O O5 0.203508 0.195967 0.500000
O O6 0.159454 0.226969 0.255909
O O7 0.206135 0.076105 0.287534
O O8 0.223796 0.492623 0.276723
O O9 0.255765 0.489448 0.000000
O O10 0.631413 0.209459 0.500000
O O11 0.583762 0.174822 0.266298
O O12 0.656640 0.101828 0.282183
O O13 0.550815 0.896284 0.500000
O O14 0.501694 0.870281 0.270200
O O15 0.587087 0.833903 0.257426
O O16 0.555683 0.002533 0.269951
O O17 0.047251 0.393266 0.000000
O O18 0.826088 0.557912 0.500000
O O19 0.849426 0.432166 0.685460
O O20 0.125760 0.692506 0.500000
#
# Coordination Sequence:
#
# PCOD9442735 Si02
#       8
#     8   8   8   8   8   8   8   8
#     4  10  20  35  50  66  92 131 165 193 234 286
#     4  11  22  33  47  72  97 122 162 205 237 275
#     4  10  21  35  50  66  92 130 167 198 235 281
#     4  11  20  32  49  69  95 132 165 191 236 289
#     4   9  16  30  49  68  93 124 159 194 230 280
#     4   8  16  29  47  69  92 123 161 194 226 283
#     4  11  20  29  45  71 100 127 159 201 235 272
#     4  10  20  31  45  70 100 127 158 194 241 283
#
# _framework density 15.611302
#
# number of rings (size 3 to 8) (size 9 to 14) (size 15 to 20)
#    0.000    2.000    3.750    1.875    0.000    1.500 
#    0.000    2.500    0.000    0.000    0.000    0.875 
#    0.000    7.000    0.000    0.000    0.000    0.000 
#
# Total GULP energy -356795.667427 kJ/mol
# GULP energy per Si atom -5574.932304 kJ/mol
# Density = 1.557577 g / cm^3
# Si number density = 15.611302 Si / 1000 Ang^3
#
#
#
# Elastic Constant Matrix: (Units=GPa)
#
#
# Indices 1 2 3 4 5 6 
#
# 1 117.7866 30.0602 31.2657 0.0000 0.0000 0.0000
# 2 30.0602 57.7994 23.5323 0.0000 0.0000 0.0000
# 3 31.2657 23.5323 22.4553 0.0000 0.0000 0.0000
# 4 0.0000 0.0000 0.0000 -5.1734 0.0000 0.0000
# 5 0.0000 0.0000 0.0000 0.0000 21.8265 0.0000
# 6 0.0000 0.0000 0.0000 0.0000 0.0000 22.4361
#
#
#
# Elastic Compliance Matrix: (Units=1/GPa)
#
#
# Indices 1 2 3 4 5 6 
#
# 1 0.013508 0.001103 -0.019963 0.000000 0.000000 0.000000
# 2 0.001103 0.030266 -0.033253 0.000000 0.000000 0.000000
# 3 -0.019963 -0.033253 0.107176 0.000000 0.000000 0.000000
# 4 0.000000 0.000000 0.000000 -0.193296 0.000000 0.000000
# 5 0.000000 0.000000 0.000000 0.000000 0.045816 0.000000
# 6 0.000000 0.000000 0.000000 0.000000 0.000000 0.044571
#
#
# Mechanical properties :
#
#
# Convention : Reuss Voigt Hill
#
# Bulk Modulus (GPa) = 21.40255 40.86199 31.13227
# Shear Modulus (GPa) = 29.78993 15.36338 22.57666
#
# Velocity S-wave (km/s) = 4.37307 3.14047 3.80699
# Velocity P-wave (km/s) = 6.26400 6.27547 6.26974
#
# Compressibility (1/GPa) = 0.04672341
#
# Stress axis : x y z
#
# Youngs Moduli (GPa) = 74.03279 33.03995 9.33043
#
# Poissons Ratio (x) = -0.03643 0.18626
# Poissons Ratio (y) = -0.08163 0.31027
# Poissons Ratio (z) = 1.47790 1.09868
#
# Static dielectric constant tensor:
#      x y z
#    x 1.531390 0.000000 0.000000 
#    y 0.000000 1.515680 0.000000 
#    z 0.000000 0.000000 1.531140 
# 
# From -- ./inp_files/7154.got.cif
#   From: 2010.05.17/outbox.cif.g08.bks.cpg/sg58_4_cif.got.tgz:7154.got - 2010.06.03 14:20:14.
