data_PCOD9442768
_publ_section_title
;
Structure prediction by ZEFSAII (Michael W. Deem and Ramdas Pophale) SiO2 
 PCOD9442768
Probable space group: P N N M
;
_chemical_formula_sum "Si O2"
_cell_formula_units_Z 48
_cell_length_a 14.337437
_cell_length_b 18.512672
_cell_length_c 7.266121
_cell_angle_alpha 90.000000
_cell_angle_beta 90.000000
_cell_angle_gamma 90.000000
_cell_volume 1928.604851
_symmetry_space_group_name_H-M "P N N M"
_symmetry_group_IT_number 58
_symmetry_cell_setting 'orthorhombic'
loop_
_space_group_symop_operation_xyz
x,y,z
-x,-y,z
1/2+x,1/2-y,1/2-z
1/2-x,1/2+y,1/2-z
-x,-y,-z
x,y,-z
1/2-x,1/2+y,1/2+z
1/2+x,1/2-y,1/2+z
loop_
_atom_site_type_symbol
_atom_site_label
_atom_site_fract_x
_atom_site_fract_y
_atom_site_fract_z
Si Si1 0.761574 0.384851 0.723132
Si Si2 0.683052 0.641017 0.279598
Si Si3 0.599770 0.006850 0.211220
Si Si4 0.393156 0.513102 0.724843
Si Si5 0.376288 0.822618 0.790318
Si Si6 0.077327 0.722861 0.716723
O O1 0.754781 0.376958 0.500000
O O2 0.821091 0.455206 0.781159
O O3 0.657855 0.411689 0.781059
O O4 0.831374 0.320977 0.787653
O O5 0.696252 0.636542 0.500000
O O6 0.662993 0.559553 0.217273
O O7 0.773690 0.684575 0.204611
O O8 0.596335 0.692914 0.242311
O O9 0.621097 0.090506 0.204698
O O10 0.500000 0.000000 0.302085
O O11 0.589474 0.980463 0.000000
O O12 0.500000 0.500000 0.780736
O O13 0.391567 0.513041 0.500000
O O14 0.474868 0.797760 0.708606
O O15 0.373079 0.793222 0.000000
O O16 0.072290 0.704661 0.500000
#
# Coordination Sequence:
#
# PCOD9442768 Si02
#       6
#     8   8   8   8   8   8
#     4   9  15  25  44  71  95 118 158 211 250 281
#     4  10  20  34  51  72 103 139 169 202 252 310
#     4   9  12  19  41  70  91 107 146 204 248 278
#     4   9  17  29  47  71  98 130 170 212 250 291
#     4   9  16  28  47  71  96 126 163 205 250 295
#     4  10  20  32  50  77 105 130 165 214 260 300
#
# _framework density 24.888459000000001
#
# number of rings (size 3 to 8) (size 9 to 14) (size 15 to 20)
#    0.000    2.667    3.333    0.000    0.000    1.333 
#    0.000    2.500    0.000    1.500    0.000    1.167 
#    0.000    0.000    0.000    0.000    0.000    0.000 
#
# Total GULP energy -267451.965454 kJ/mol
# GULP energy per Si atom -5571.915947 kJ/mol
# Density = 2.483181 g / cm^3
# Si number density = 24.888459 Si / 1000 Ang^3
#
#
#
# Elastic Constant Matrix: (Units=GPa)
#
#
# Indices 1 2 3 4 5 6 
#
# 1 139.4023 17.0397 7.2037 0.0000 0.0000 0.0000
# 2 17.0397 58.5798 -5.7097 0.0000 0.0000 0.0000
# 3 7.2037 -5.7097 108.6261 0.0000 0.0000 0.0000
# 4 0.0000 0.0000 0.0000 25.0346 0.0000 0.0000
# 5 0.0000 0.0000 0.0000 0.0000 -191.7034 0.0000
# 6 0.0000 0.0000 0.0000 0.0000 0.0000 44.2043
#
#
#
# Elastic Compliance Matrix: (Units=1/GPa)
#
#
# Indices 1 2 3 4 5 6 
#
# 1 0.007478 -0.002235 -0.000613 0.000000 0.000000 0.000000
# 2 -0.002235 0.017827 0.001085 0.000000 0.000000 0.000000
# 3 -0.000613 0.001085 0.009304 0.000000 0.000000 0.000000
# 4 0.000000 0.000000 0.000000 0.039945 0.000000 0.000000
# 5 0.000000 0.000000 0.000000 0.000000 -0.005216 0.000000
# 6 0.000000 0.000000 0.000000 0.000000 0.000000 0.022622
#
#
# Mechanical properties :
#
#
# Convention : Reuss Voigt Hill
#
# Bulk Modulus (GPa) = 32.17288 38.18619 35.17954
# Shear Modulus (GPa) = 47.23826 -5.28794 20.97516
#
# Velocity S-wave (km/s) = 4.36133 -1.45920 2.90619
# Velocity P-wave (km/s) = 6.19003 3.54079 5.04250
#
# Compressibility (1/GPa) = 0.03108207
#
# Stress axis : x y z
#
# Youngs Moduli (GPa) = 133.71863 56.09581 107.48514
#
# Poissons Ratio (x) = 0.12538 0.06593
# Poissons Ratio (y) = 0.29887 -0.11665
# Poissons Ratio (z) = 0.08203 -0.06088
#
# Static dielectric constant tensor:
#      x y z
#    x 2.080210 0.000000 0.000000 
#    y 0.000000 1.921340 0.000000 
#    z 0.000000 0.000000 2.006510 
# 
# From -- ./inp_files/15722.got.cif
#   From: 2010.05.17/outbox.cif.g08.bks.cpg/sg58_8_cif.got.tgz:15722.got - 2010.06.03 14:20:14.
