data_PCOD9442164
_publ_section_title
;
Structure prediction by ZEFSAII (Michael W. Deem and Ramdas Pophale) SiO2 
 PCOD9442164
Probable space group: P N N M
;
_chemical_formula_sum "Si O2"
_cell_formula_units_Z 58
_cell_length_a 23.858821
_cell_length_b 15.756097
_cell_length_c 8.755243
_cell_angle_alpha 90.000000
_cell_angle_beta 90.000000
_cell_angle_gamma 90.000000
_cell_volume 3291.287566
_symmetry_space_group_name_H-M "P N N M"
_symmetry_group_IT_number 58
_symmetry_cell_setting 'orthorhombic'
loop_
_space_group_symop_operation_xyz
x,y,z
-x,-y,z
1/2+x,1/2-y,1/2-z
1/2-x,1/2+y,1/2-z
-x,-y,-z
x,y,-z
1/2-x,1/2+y,1/2+z
1/2+x,1/2-y,1/2+z
loop_
_atom_site_type_symbol
_atom_site_label
_atom_site_fract_x
_atom_site_fract_y
_atom_site_fract_z
Si Si1 0.241799 0.281029 0.315421
Si Si2 0.078863 0.554048 0.815851
Si Si3 0.883335 0.768077 0.683802
Si Si4 0.611621 0.452555 0.667845
Si Si5 0.795776 0.396716 0.814321
Si Si6 0.210706 0.954245 0.682641
Si Si7 0.000000 0.000000 0.000000
Si Si8 0.467752 0.879211 0.816145
O O1 0.244287 0.285076 0.500000
O O2 0.176520 0.272055 0.271178
O O3 0.273123 0.194915 0.265077
O O4 0.269774 0.364763 0.248907
O O5 0.140540 0.584127 0.768483
O O6 0.064852 0.461643 0.747303
O O7 0.029726 0.614903 0.754180
O O8 0.075962 0.549842 0.000000
O O9 0.882919 0.775732 0.500000
O O10 0.889306 0.860911 0.753858
O O11 0.933457 0.704751 0.727205
O O12 0.639103 0.443176 0.500000
O O13 0.649458 0.517326 0.762365
O O14 0.549167 0.484255 0.630738
O O15 0.753919 0.471726 0.766268
O O16 0.794963 0.396113 0.000000
O O17 0.212176 0.950836 0.500000
O O18 0.470725 0.884809 0.000000
#
# Coordination Sequence:
#
# PCOD9442164 Si02
#       8
#     8   8   8   8   8   8   2   8
#     4  10  20  37  58  87 120 155 194 237 302 369
#     4  10  19  34  54  79 111 154 194 234 288 351
#     4  10  20  37  62  88 117 155 202 250 302 363
#     4  10  21  41  63  83 115 153 200 252 300 359
#     4   9  19  36  57  81 115 152 186 234 295 351
#     4  11  21  38  62  89 121 155 196 251 308 364
#     4   8  24  44  62  88 112 154 214 246 308 356
#     4  10  20  34  53  80 114 151 188 238 293 349
#
# _framework density 17.622284000000001
#
# number of rings (size 3 to 8) (size 9 to 14) (size 15 to 20)
#    0.414    1.655    1.379    3.310    0.000    1.655 
#    2.483    4.828    0.000    0.000    0.000    0.000 
#    0.000    0.000    0.000    0.000    0.000    0.000 
#
# Total GULP energy -322980.673154 kJ/mol
# GULP energy per Si atom -5568.632296 kJ/mol
# Density = 1.758218 g / cm^3
# Si number density = 17.622284 Si / 1000 Ang^3
#
#
#
# Elastic Constant Matrix: (Units=GPa)
#
#
# Indices 1 2 3 4 5 6 
#
# 1 142.1978 69.7361 30.4574 0.0000 0.0000 0.0000
# 2 69.7361 108.6188 21.7258 0.0000 0.0000 0.0000
# 3 30.4574 21.7258 32.7036 0.0000 0.0000 0.0000
# 4 0.0000 0.0000 0.0000 28.5320 0.0000 0.0000
# 5 0.0000 0.0000 0.0000 0.0000 28.2207 0.0000
# 6 0.0000 0.0000 0.0000 0.0000 0.0000 27.7544
#
#
#
# Elastic Compliance Matrix: (Units=1/GPa)
#
#
# Indices 1 2 3 4 5 6 
#
# 1 0.011388 -0.005985 -0.006629 0.000000 0.000000 0.000000
# 2 -0.005985 0.013763 -0.003569 0.000000 0.000000 0.000000
# 3 -0.006629 -0.003569 0.039123 0.000000 0.000000 0.000000
# 4 0.000000 0.000000 0.000000 0.035048 0.000000 0.000000
# 5 0.000000 0.000000 0.000000 0.000000 0.035435 0.000000
# 6 0.000000 0.000000 0.000000 0.000000 0.000000 0.036030
#
#
# Mechanical properties :
#
#
# Convention : Reuss Voigt Hill
#
# Bulk Modulus (GPa) = 31.34184 58.59539 44.96861
# Shear Modulus (GPa) = 23.38748 27.67482 25.53115
#
# Velocity S-wave (km/s) = 3.64696 3.96718 3.81044
# Velocity P-wave (km/s) = 5.96303 7.36937 6.70319
#
# Compressibility (1/GPa) = 0.03190624
#
# Stress axis : x y z
#
# Youngs Moduli (GPa) = 87.81472 72.65856 25.56057
#
# Poissons Ratio (x) = 0.43487 0.16945
# Poissons Ratio (y) = 0.52558 0.09123
# Poissons Ratio (z) = 0.58216 0.25932
#
# Static dielectric constant tensor:
#      x y z
#    x 1.593960 0.000000 0.000000 
#    y 0.000000 1.576910 0.000000 
#    z 0.000000 0.000000 1.606240 
# 
# From -- ./inp_files/9849.got.cif
#   From: 2010.05.17/outbox.cif.g08.bks.cpg/sg58_5_cif.got.tgz:9849.got - 2010.06.03 14:20:14.
