data_PCOD9442396
_publ_section_title
;
Structure prediction by ZEFSAII (Michael W. Deem and Ramdas Pophale) SiO2 
 PCOD9442396
Probable space group: P N N M
;
_chemical_formula_sum "Si O2"
_cell_formula_units_Z 56
_cell_length_a 19.908138
_cell_length_b 17.790398
_cell_length_c 9.051891
_cell_angle_alpha 90.000000
_cell_angle_beta 90.000000
_cell_angle_gamma 90.000000
_cell_volume 3205.941714
_symmetry_space_group_name_H-M "P N N M"
_symmetry_group_IT_number 58
_symmetry_cell_setting 'orthorhombic'
loop_
_space_group_symop_operation_xyz
x,y,z
-x,-y,z
1/2+x,1/2-y,1/2-z
1/2-x,1/2+y,1/2-z
-x,-y,-z
x,y,-z
1/2-x,1/2+y,1/2+z
1/2+x,1/2-y,1/2+z
loop_
_atom_site_type_symbol
_atom_site_label
_atom_site_fract_x
_atom_site_fract_y
_atom_site_fract_z
Si Si1 0.664413 0.967404 0.676799
Si Si2 0.588567 0.119432 0.323662
Si Si3 0.890513 0.789742 0.176502
Si Si4 0.533758 0.688205 0.824139
Si Si5 0.070382 0.960879 0.177144
Si Si6 0.945327 0.360691 0.676510
Si Si7 0.194834 0.070292 0.822901
O O1 0.664466 0.960146 0.500000
O O2 0.612443 0.908506 0.746905
O O3 0.737990 0.952996 0.740623
O O4 0.636946 0.050676 0.714249
O O5 0.574734 0.116144 0.500000
O O6 0.619812 0.201586 0.292339
O O7 0.518005 0.114654 0.238574
O O8 0.830571 0.845848 0.216348
O O9 0.958640 0.813888 0.257716
O O10 0.901726 0.798321 0.000000
O O11 0.574421 0.619977 0.753194
O O12 0.561218 0.771635 0.790332
O O13 0.531067 0.679952 0.000000
O O14 0.132965 0.014539 0.211898
O O15 0.067901 0.951291 0.000000
O O16 0.000000 0.000000 0.222059
O O17 0.943470 0.370500 0.500000
O O18 0.205866 0.067753 0.000000
#
# Coordination Sequence:
#
# PCOD9442396 Si02
#       7
#     8   8   8   8   8   8   8
#     4  11  23  38  55  81 115 148 186 230 281 334
#     4   9  19  36  60  85 108 141 184 230 280 331
#     4   9  17  35  59  79 105 143 182 222 272 332
#     4  10  20  33  54  86 114 138 178 230 277 320
#     4  10  19  35  58  82 109 145 187 225 271 333
#     4  10  21  37  58  84 112 145 185 231 278 328
#     4  10  21  37  57  79 109 150 188 224 272 333
#
# _framework density 17.467566000000001
#
# number of rings (size 3 to 8) (size 9 to 14) (size 15 to 20)
#    0.000    2.143    1.429    1.714    0.000    6.000 
#    2.571    0.000    0.000    0.000    0.000    0.000 
#    0.000    0.000    0.000    0.000    0.000    0.000 
#
# Total GULP energy -312576.696434 kJ/mol
# GULP energy per Si atom -5581.726722 kJ/mol
# Density = 1.742781 g / cm^3
# Si number density = 17.467566 Si / 1000 Ang^3
#
#
#
# Elastic Constant Matrix: (Units=GPa)
#
#
# Indices 1 2 3 4 5 6 
#
# 1 132.7034 100.4416 59.5268 0.0000 0.0000 0.0000
# 2 100.4416 143.3005 65.8605 0.0000 0.0000 0.0000
# 3 59.5268 65.8605 41.8399 0.0000 0.0000 0.0000
# 4 0.0000 0.0000 0.0000 23.4144 0.0000 0.0000
# 5 0.0000 0.0000 0.0000 0.0000 32.4265 0.0000
# 6 0.0000 0.0000 0.0000 0.0000 0.0000 15.3615
#
#
#
# Elastic Compliance Matrix: (Units=1/GPa)
#
#
# Indices 1 2 3 4 5 6 
#
# 1 0.021337 -0.003629 -0.024645 0.000000 0.000000 0.000000
# 2 -0.003629 0.025851 -0.035530 0.000000 0.000000 0.000000
# 3 -0.024645 -0.035530 0.114891 0.000000 0.000000 0.000000
# 4 0.000000 0.000000 0.000000 0.042709 0.000000 0.000000
# 5 0.000000 0.000000 0.000000 0.000000 0.030839 0.000000
# 6 0.000000 0.000000 0.000000 0.000000 0.000000 0.065098
#
#
# Mechanical properties :
#
#
# Convention : Reuss Voigt Hill
#
# Bulk Modulus (GPa) = 29.00841 85.50016 57.25428
# Shear Modulus (GPa) = 11.36823 20.37481 15.87152
#
# Velocity S-wave (km/s) = 2.55388 3.41902 3.01762
# Velocity P-wave (km/s) = 5.03384 8.03993 6.70746
#
# Compressibility (1/GPa) = 0.03447276
#
# Stress axis : x y z
#
# Youngs Moduli (GPa) = 46.86668 38.68276 8.70391
#
# Poissons Ratio (x) = 0.14038 0.21450
# Poissons Ratio (y) = 0.17008 0.30925
# Poissons Ratio (z) = 1.15501 1.37439
#
# Static dielectric constant tensor:
#      x y z
#    x 1.550510 0.000000 0.000000 
#    y 0.000000 1.610630 0.000000 
#    z 0.000000 0.000000 1.581710 
# 
# From -- ./inp_files/9175.got.cif
#   From: 2010.05.17/outbox.cif.g08.bks.cpg/sg58_5_cif.got.tgz:9175.got - 2010.06.03 14:20:14.
