data_PCOD9442628
_publ_section_title
;
Structure prediction by ZEFSAII (Michael W. Deem and Ramdas Pophale) SiO2 
 PCOD9442628
Probable space group: P N N M
;
_chemical_formula_sum "Si O2"
_cell_formula_units_Z 56
_cell_length_a 14.045461
_cell_length_b 9.183872
_cell_length_c 20.809487
_cell_angle_alpha 90.000000
_cell_angle_beta 90.000000
_cell_angle_gamma 90.000000
_cell_volume 2684.251437
_symmetry_space_group_name_H-M "P N N M"
_symmetry_group_IT_number 58
_symmetry_cell_setting 'orthorhombic'
loop_
_space_group_symop_operation_xyz
x,y,z
-x,-y,z
1/2+x,1/2-y,1/2-z
1/2-x,1/2+y,1/2-z
-x,-y,-z
x,y,-z
1/2-x,1/2+y,1/2+z
1/2+x,1/2-y,1/2+z
loop_
_atom_site_type_symbol
_atom_site_label
_atom_site_fract_x
_atom_site_fract_y
_atom_site_fract_z
Si Si1 0.152345 0.969526 0.500000
Si Si2 0.745000 0.378765 0.421457
Si Si3 0.750850 0.584627 0.862802
Si Si4 0.464074 0.138815 0.875934
Si Si5 0.030337 0.247466 0.500000
Si Si6 0.914197 0.107288 0.076562
Si Si7 0.420783 0.125753 0.667001
Si Si8 0.932796 0.132997 0.278026
O O1 0.113060 0.132037 0.500000
O O2 0.206905 0.950403 0.566954
O O3 0.066110 0.851546 0.500000
O O4 0.741446 0.356109 0.500000
O O5 0.703672 0.243306 0.379654
O O6 0.854576 0.379893 0.397581
O O7 0.684479 0.523646 0.406841
O O8 0.823984 0.463814 0.840600
O O9 0.669306 0.591244 0.808212
O O10 0.480804 0.287721 0.838796
O O11 0.500000 0.000000 0.836923
O O12 0.528872 0.152293 0.938375
O O13 0.928421 0.264603 0.106983
O O14 0.916847 0.120207 0.000000
O O15 0.000000 0.000000 0.096170
O O16 0.421687 0.239601 0.725966
O O17 0.500000 0.000000 0.670466
O O18 0.000000 0.000000 0.257207
#
# Coordination Sequence:
#
# PCOD9442628 Si02
#       8
#     4   8   8   8   4   8   8   8
#     4  11  20  38  67 102 141 174 227 271 337 405
#     4  10  19  37  61  92 132 166 205 261 326 388
#     4  11  23  42  70 100 133 179 220 280 336 398
#     4  11  21  36  60  99 136 174 209 261 323 403
#     4  11  19  34  64 102 140 176 208 267 335 409
#     4  10  23  42  65  92 122 170 223 277 333 382
#     4  12  28  46  66  96 130 175 230 283 332 395
#     4  11  25  45  69  93 132 177 224 272 339 401
#
# _framework density 20.862428999999999
#
# number of rings (size 3 to 8) (size 9 to 14) (size 15 to 20)
#    0.000    1.143    4.286    2.786    1.000    6.000 
#    0.000    0.000    0.000    0.000    0.000    0.000 
#    0.000    0.000    0.000    0.000    0.000    0.000 
#
# Total GULP energy -312610.390233 kJ/mol
# GULP energy per Si atom -5582.328397 kJ/mol
# Density = 2.081494 g / cm^3
# Si number density = 20.862429 Si / 1000 Ang^3
#
#
#
# Elastic Constant Matrix: (Units=GPa)
#
#
# Indices 1 2 3 4 5 6 
#
# 1 58.7152 68.1886 36.3538 0.0000 0.0000 0.0000
# 2 68.1886 160.6741 55.2115 0.0000 0.0000 0.0000
# 3 36.3538 55.2115 73.0032 0.0000 0.0000 0.0000
# 4 0.0000 0.0000 0.0000 60.4374 0.0000 0.0000
# 5 0.0000 0.0000 0.0000 0.0000 7.8497 0.0000
# 6 0.0000 0.0000 0.0000 0.0000 0.0000 47.3789
#
#
#
# Elastic Compliance Matrix: (Units=1/GPa)
#
#
# Indices 1 2 3 4 5 6 
#
# 1 0.037473 -0.012823 -0.008962 0.000000 0.000000 0.000000
# 2 -0.012823 0.012797 -0.003293 0.000000 0.000000 0.000000
# 3 -0.008962 -0.003293 0.020651 0.000000 0.000000 0.000000
# 4 0.000000 0.000000 0.000000 0.016546 0.000000 0.000000
# 5 0.000000 0.000000 0.000000 0.000000 0.127394 0.000000
# 6 0.000000 0.000000 0.000000 0.000000 0.000000 0.021106
#
#
# Mechanical properties :
#
#
# Convention : Reuss Voigt Hill
#
# Bulk Modulus (GPa) = 48.15917 67.98894 58.07405
# Shear Modulus (GPa) = 17.06213 31.97579 24.51896
#
# Velocity S-wave (km/s) = 2.86289 3.91921 3.43194
# Velocity P-wave (km/s) = 5.83631 7.28974 6.60313
#
# Compressibility (1/GPa) = 0.02076448
#
# Stress axis : x y z
#
# Youngs Moduli (GPa) = 26.68593 78.14082 48.42306
#
# Poissons Ratio (x) = 1.00204 0.43399
# Poissons Ratio (y) = 0.34221 0.15944
# Poissons Ratio (z) = 0.23917 0.25730
#
# Static dielectric constant tensor:
#      x y z
#    x 1.753640 0.000000 0.000000 
#    y 0.000000 1.809770 0.000000 
#    z 0.000000 0.000000 1.776500 
# 
# From -- ./inp_files/30049.got.cif
#   From: 2010.05.17/outbox.cif.g08.bks.cpg/sg58_16_cif.got.tgz:30049.got - 2010.06.03 14:20:14.
