data_PCOD9442592
_publ_section_title
;
Structure prediction by ZEFSAII (Michael W. Deem and Ramdas Pophale) SiO2 
 PCOD9442592
Probable space group: P N N M
;
_chemical_formula_sum "Si O2"
_cell_formula_units_Z 64
_cell_length_a 12.321325
_cell_length_b 31.496443
_cell_length_c 8.415933
_cell_angle_alpha 90.000000
_cell_angle_beta 90.000000
_cell_angle_gamma 90.000000
_cell_volume 3266.037694
_symmetry_space_group_name_H-M "P N N M"
_symmetry_group_IT_number 58
_symmetry_cell_setting 'orthorhombic'
loop_
_space_group_symop_operation_xyz
x,y,z
-x,-y,z
1/2+x,1/2-y,1/2-z
1/2-x,1/2+y,1/2-z
-x,-y,-z
x,y,-z
1/2-x,1/2+y,1/2+z
1/2+x,1/2-y,1/2+z
loop_
_atom_site_type_symbol
_atom_site_label
_atom_site_fract_x
_atom_site_fract_y
_atom_site_fract_z
Si Si1 0.404082 0.128646 0.190127
Si Si2 0.268171 0.325717 0.185816
Si Si3 0.158635 0.121931 0.310383
Si Si4 0.004426 0.951069 0.306152
Si Si5 0.465448 0.954288 0.811071
Si Si6 0.040675 0.291032 0.192231
Si Si7 0.256076 0.425064 0.814702
Si Si8 0.998795 0.805035 0.187554
O O1 0.278194 0.126052 0.238305
O O2 0.468205 0.086656 0.251633
O O3 0.461691 0.171561 0.250607
O O4 0.411746 0.129027 0.000000
O O5 0.236099 0.374951 0.193174
O O6 0.378290 0.319012 0.280035
O O7 0.164187 0.299996 0.244406
O O8 0.289233 0.315362 0.000000
O O9 0.169745 0.118862 0.500000
O O10 0.092030 0.080146 0.252814
O O11 0.083998 0.162596 0.270402
O O12 0.001168 0.950279 0.500000
O O13 0.121875 0.933384 0.257761
O O14 0.000000 0.000000 0.255537
O O15 0.338535 0.947917 0.779312
O O16 0.500000 0.000000 0.744216
O O17 0.485127 0.955018 0.000000
O O18 0.010056 0.243665 0.243738
O O19 0.039746 0.292438 0.000000
O O20 0.250328 0.438217 0.000000
O O21 0.975172 0.806129 0.000000
#
# Coordination Sequence:
#
# PCOD9442592 Si02
#       8
#     8   8   8   8   8   8   8   8
#     4  11  24  41  61  87 121 160 202 247 297 355
#     4  10  20  39  63  86 117 155 200 251 299 348
#     4  11  23  41  63  87 122 162 198 245 303 355
#     4   9  19  36  58  87 119 152 195 247 296 346
#     4  10  23  41  59  85 124 161 193 238 299 359
#     4  10  23  42  62  88 120 157 200 248 298 351
#     4  10  19  36  63  88 112 149 202 251 291 343
#     4  11  24  40  61  91 122 156 200 245 298 361
#
# _framework density 19.595610000000001
#
# number of rings (size 3 to 8) (size 9 to 14) (size 15 to 20)
#    0.000    1.750    2.500    1.125    3.500    2.750 
#    0.000    0.000    0.000    1.875    0.000    0.000 
#    0.000    0.000    0.000    0.000    0.000    0.000 
#
# Total GULP energy -357361.950661 kJ/mol
# GULP energy per Si atom -5583.780479 kJ/mol
# Density = 1.955101 g / cm^3
# Si number density = 19.595610 Si / 1000 Ang^3
#
#
#
# Elastic Constant Matrix: (Units=GPa)
#
#
# Indices 1 2 3 4 5 6 
#
# 1 74.7967 13.7469 -2.8383 0.0000 0.0000 0.0000
# 2 13.7469 91.0517 11.1995 0.0000 0.0000 0.0000
# 3 -2.8383 11.1995 9.2451 0.0000 0.0000 0.0000
# 4 0.0000 0.0000 0.0000 6.3228 0.0000 0.0000
# 5 0.0000 0.0000 0.0000 0.0000 34.0151 0.0000
# 6 0.0000 0.0000 0.0000 0.0000 0.0000 29.1584
#
#
#
# Elastic Compliance Matrix: (Units=1/GPa)
#
#
# Indices 1 2 3 4 5 6 
#
# 1 0.014263 -0.003163 0.008211 0.000000 0.000000 0.000000
# 2 -0.003163 0.013607 -0.017455 0.000000 0.000000 0.000000
# 3 0.008211 -0.017455 0.131831 0.000000 0.000000 0.000000
# 4 0.000000 0.000000 0.000000 0.158158 0.000000 0.000000
# 5 0.000000 0.000000 0.000000 0.000000 0.029399 0.000000
# 6 0.000000 0.000000 0.000000 0.000000 0.000000 0.034295
#
#
# Mechanical properties :
#
#
# Convention : Reuss Voigt Hill
#
# Bulk Modulus (GPa) = 7.41367 24.36774 15.89071
# Shear Modulus (GPa) = 11.07837 24.09830 17.58833
#
# Velocity S-wave (km/s) = 2.38029 3.51063 2.99919
# Velocity P-wave (km/s) = 3.36837 5.37540 4.48558
#
# Compressibility (1/GPa) = 0.13488591
#
# Stress axis : x y z
#
# Youngs Moduli (GPa) = 70.11380 73.48971 7.58546
#
# Poissons Ratio (x) = 0.23247 -0.06228
# Poissons Ratio (y) = 0.22179 0.13240
# Poissons Ratio (z) = -0.57568 1.28277
#
# Static dielectric constant tensor:
#      x y z
#    x 1.657770 0.000000 0.000000 
#    y 0.000000 1.700310 0.000000 
#    z 0.000000 0.000000 1.693580 
# 
# From -- ./inp_files/4755.got.cif
#   From: 2010.05.17/outbox.cif.g08.bks.cpg/sg58_3_cif.got.tgz:4755.got - 2010.06.03 14:20:14.
