data_PCOD9442596
_publ_section_title
;
Structure prediction by ZEFSAII (Michael W. Deem and Ramdas Pophale) SiO2 
 PCOD9442596
Probable space group: P N N M
;
_chemical_formula_sum "Si O2"
_cell_formula_units_Z 28
_cell_length_a 11.704498
_cell_length_b 17.089259
_cell_length_c 7.641983
_cell_angle_alpha 90.000000
_cell_angle_beta 90.000000
_cell_angle_gamma 90.000000
_cell_volume 1528.558593
_symmetry_space_group_name_H-M "P N N M"
_symmetry_group_IT_number 58
_symmetry_cell_setting 'orthorhombic'
loop_
_space_group_symop_operation_xyz
x,y,z
-x,-y,z
1/2+x,1/2-y,1/2-z
1/2-x,1/2+y,1/2-z
-x,-y,-z
x,y,-z
1/2-x,1/2+y,1/2+z
1/2+x,1/2-y,1/2+z
loop_
_atom_site_type_symbol
_atom_site_label
_atom_site_fract_x
_atom_site_fract_y
_atom_site_fract_z
Si Si1 0.554553 0.342811 0.000000
Si Si2 0.572691 0.919830 0.203399
Si Si3 0.248579 0.542093 0.000000
Si Si4 0.874328 0.698315 0.697405
Si Si5 0.783521 0.142897 0.500000
O O1 0.593529 0.288412 0.836262
O O2 0.419385 0.350675 0.000000
O O3 0.625205 0.422135 0.000000
O O4 0.678906 0.927361 0.331827
O O5 0.486552 0.849935 0.253638
O O6 0.500000 0.000000 0.218031
O O7 0.605472 0.909294 0.000000
O O8 0.249939 0.448463 0.000000
O O9 0.845350 0.668288 0.500000
O O10 0.773556 0.683024 0.831203
#
# Coordination Sequence:
#
# PCOD9442596 Si02
#       5
#     4   8   4   8   4
#     4  10  27  41  57  96 126 160 198 251 306 377
#     4  10  19  36  64  94 117 153 210 256 287 347
#     4  12  23  38  65  93 122 162 201 245 314 357
#     4   9  22  40  61  91 118 158 209 248 295 353
#     4  12  22  44  64  84 129 162 194 254 304 361
#
# _framework density 18.317912
#
# number of rings (size 3 to 8) (size 9 to 14) (size 15 to 20)
#    0.857    0.857    2.857    1.714    4.000    0.000 
#    2.571    0.000    0.000    3.429    0.000    0.000 
#    0.000    0.000    0.000    0.000    0.000    0.000 
#
# Total GULP energy -156200.494768 kJ/mol
# GULP energy per Si atom -5578.589099 kJ/mol
# Density = 1.827622 g / cm^3
# Si number density = 18.317912 Si / 1000 Ang^3
#
#
#
# Elastic Constant Matrix: (Units=GPa)
#
#
# Indices 1 2 3 4 5 6 
#
# 1 127.6919 2.6755 72.4482 0.0000 0.0000 0.0000
# 2 2.6755 17.8085 8.7234 0.0000 0.0000 0.0000
# 3 72.4482 8.7234 84.9829 0.0000 0.0000 0.0000
# 4 0.0000 0.0000 0.0000 3.1523 0.0000 0.0000
# 5 0.0000 0.0000 0.0000 0.0000 -2.0537 0.0000
# 6 0.0000 0.0000 0.0000 0.0000 0.0000 32.5368
#
#
#
# Elastic Compliance Matrix: (Units=1/GPa)
#
#
# Indices 1 2 3 4 5 6 
#
# 1 0.015482 0.004359 -0.013646 0.000000 0.000000 0.000000
# 2 0.004359 0.060353 -0.009911 0.000000 0.000000 0.000000
# 3 -0.013646 -0.009911 0.024418 0.000000 0.000000 0.000000
# 4 0.000000 0.000000 0.000000 0.317232 0.000000 0.000000
# 5 0.000000 0.000000 0.000000 0.000000 -0.486932 0.000000
# 6 0.000000 0.000000 0.000000 0.000000 0.000000 0.030734
#
#
# Mechanical properties :
#
#
# Convention : Reuss Voigt Hill
#
# Bulk Modulus (GPa) = 16.16653 44.24195 30.20424
# Shear Modulus (GPa) = 246.26265 16.50283 131.38274
#
# Velocity S-wave (km/s) = 11.60733 3.00478 8.47817
# Velocity P-wave (km/s) = 13.72897 6.02021 10.60018
#
# Compressibility (1/GPa) = 0.06185620
#
# Stress axis : x y z
#
# Youngs Moduli (GPa) = 64.58915 16.56920 40.95358
#
# Poissons Ratio (x) = -0.07222 0.55886
# Poissons Ratio (y) = -0.28151 0.40588
# Poissons Ratio (z) = 0.88140 0.16421
#
# Static dielectric constant tensor:
#      x y z
#    x 1.594000 0.000000 0.000000 
#    y 0.000000 1.637710 0.000000 
#    z 0.000000 0.000000 1.637150 
# 
# From -- ./inp_files/2029.got.cif
#   From: 2010.05.17/outbox.cif.g08.bks.cpg/sg58_2_cif.got.tgz:2029.got - 2010.06.03 14:20:14.
