data_PCOD9442215
_publ_section_title
;
Structure prediction by ZEFSAII (Michael W. Deem and Ramdas Pophale) SiO2 
 PCOD9442215
Probable space group: P N N M
;
_chemical_formula_sum "Si O2"
_cell_formula_units_Z 64
_cell_length_a 14.808370
_cell_length_b 25.340775
_cell_length_c 8.435656
_cell_angle_alpha 90.000000
_cell_angle_beta 90.000000
_cell_angle_gamma 90.000000
_cell_volume 3165.526920
_symmetry_space_group_name_H-M "P N N M"
_symmetry_group_IT_number 58
_symmetry_cell_setting 'orthorhombic'
loop_
_space_group_symop_operation_xyz
x,y,z
-x,-y,z
1/2+x,1/2-y,1/2-z
1/2-x,1/2+y,1/2-z
-x,-y,-z
x,y,-z
1/2-x,1/2+y,1/2+z
1/2+x,1/2-y,1/2+z
loop_
_atom_site_type_symbol
_atom_site_label
_atom_site_fract_x
_atom_site_fract_y
_atom_site_fract_z
Si Si1 0.223358 0.294570 0.810358
Si Si2 0.254977 0.680585 0.807623
Si Si3 0.419883 0.131360 0.683487
Si Si4 0.443967 0.950501 0.187238
Si Si5 0.748478 0.588342 0.690018
Si Si6 0.059387 0.949308 0.307694
Si Si7 0.522679 0.238643 0.682670
Si Si8 0.543463 0.345664 0.811903
O O1 0.266476 0.239413 0.754163
O O2 0.257557 0.350251 0.743362
O O3 0.118192 0.285794 0.760786
O O4 0.227819 0.297997 0.000000
O O5 0.182742 0.636200 0.760245
O O6 0.354618 0.663700 0.751782
O O7 0.254055 0.683142 0.000000
O O8 0.576089 0.887019 0.500000
O O9 0.488774 0.098006 0.785467
O O10 0.452816 0.191570 0.685813
O O11 0.344313 0.935808 0.250554
O O12 0.500000 0.000000 0.255846
O O13 0.431609 0.960228 0.000000
O O14 0.749858 0.587794 0.500000
O O15 0.662146 0.555485 0.749095
O O16 0.062153 0.949144 0.500000
O O17 0.008154 0.896483 0.249414
O O18 0.000000 0.000000 0.259330
O O19 0.535699 0.255137 0.500000
O O20 0.495011 0.290325 0.777615
O O21 0.550493 0.352821 0.000000
#
# Coordination Sequence:
#
# PCOD9442215 Si02
#       8
#     8   8   8   8   8   8   8   8
#     4  10  19  34  56  83 117 153 193 235 284 344
#     4   9  19  34  54  84 121 156 194 237 287 347
#     4  10  20  35  56  86 121 154 190 236 287 341
#     4  10  23  42  61  85 118 155 195 239 290 349
#     4  11  23  39  61  86 113 149 192 240 291 344
#     4  10  23  42  62  85 116 154 198 248 294 341
#     4   9  18  32  52  81 118 151 184 234 285 336
#     4   9  19  36  56  81 113 153 195 235 286 344
#
# _framework density 20.217801999999999
#
# number of rings (size 3 to 8) (size 9 to 14) (size 15 to 20)
#    0.000    2.250    1.250    0.750    1.750    4.000 
#    0.000    1.250    0.000    0.000    0.000    0.000 
#    0.000    0.000    0.000    0.000    0.000    0.000 
#
# Total GULP energy -356952.509728 kJ/mol
# GULP energy per Si atom -5577.382964 kJ/mol
# Density = 2.017179 g / cm^3
# Si number density = 20.217802 Si / 1000 Ang^3
#
#
#
# Elastic Constant Matrix: (Units=GPa)
#
#
# Indices 1 2 3 4 5 6 
#
# 1 105.4542 58.5235 16.2144 0.0000 0.0000 0.0000
# 2 58.5235 100.1800 17.8451 0.0000 0.0000 0.0000
# 3 16.2144 17.8451 12.8567 0.0000 0.0000 0.0000
# 4 0.0000 0.0000 0.0000 -4.0350 0.0000 0.0000
# 5 0.0000 0.0000 0.0000 0.0000 17.8814 0.0000
# 6 0.0000 0.0000 0.0000 0.0000 0.0000 27.3627
#
#
#
# Elastic Compliance Matrix: (Units=1/GPa)
#
#
# Indices 1 2 3 4 5 6 
#
# 1 0.014749 -0.007044 -0.008823 0.000000 0.000000 0.000000
# 2 -0.007044 0.016625 -0.014192 0.000000 0.000000 0.000000
# 3 -0.008823 -0.014192 0.108606 0.000000 0.000000 0.000000
# 4 0.000000 0.000000 0.000000 -0.247830 0.000000 0.000000
# 5 0.000000 0.000000 0.000000 0.000000 0.055924 0.000000
# 6 0.000000 0.000000 0.000000 0.000000 0.000000 0.036546
#
#
# Mechanical properties :
#
#
# Convention : Reuss Voigt Hill
#
# Bulk Modulus (GPa) = 12.52166 44.85077 28.68622
# Shear Modulus (GPa) = 70.06877 16.63568 43.35222
#
# Velocity S-wave (km/s) = 5.89340 2.87160 4.63564
# Velocity P-wave (km/s) = 7.24682 5.76427 6.54764
#
# Compressibility (1/GPa) = 0.07986160
#
# Stress axis : x y z
#
# Youngs Moduli (GPa) = 67.80222 60.14971 9.20761
#
# Poissons Ratio (x) = 0.42372 0.08124
# Poissons Ratio (y) = 0.47762 0.13067
# Poissons Ratio (z) = 0.59822 0.85363
#
# Static dielectric constant tensor:
#      x y z
#    x 1.771980 0.000000 0.000000 
#    y 0.000000 1.709790 0.000000 
#    z 0.000000 0.000000 1.711460 
# 
# From -- ./inp_files/6760.got.cif
#   From: 2010.05.17/outbox.cif.g08.bks.cpg/sg58_4_cif.got.tgz:6760.got - 2010.06.03 14:20:14.
