data_PCOD9442294
_publ_section_title
;
Structure prediction by ZEFSAII (Michael W. Deem and Ramdas Pophale) SiO2 
 PCOD9442294
Probable space group: P N N M
;
_chemical_formula_sum "Si O2"
_cell_formula_units_Z 64
_cell_length_a 12.895728
_cell_length_b 29.452537
_cell_length_c 8.328739
_cell_angle_alpha 90.000000
_cell_angle_beta 90.000000
_cell_angle_gamma 90.000000
_cell_volume 3163.354235
_symmetry_space_group_name_H-M "P N N M"
_symmetry_group_IT_number 58
_symmetry_cell_setting 'orthorhombic'
loop_
_space_group_symop_operation_xyz
x,y,z
-x,-y,z
1/2+x,1/2-y,1/2-z
1/2-x,1/2+y,1/2-z
-x,-y,-z
x,y,-z
1/2-x,1/2+y,1/2+z
1/2+x,1/2-y,1/2+z
loop_
_atom_site_type_symbol
_atom_site_label
_atom_site_fract_x
_atom_site_fract_y
_atom_site_fract_z
Si Si1 0.346617 0.621570 0.691710
Si Si2 0.282987 0.336566 0.194131
Si Si3 0.251074 0.436588 0.806531
Si Si4 0.617949 0.865208 0.307462
Si Si5 0.062458 0.298477 0.307469
Si Si6 0.984277 0.551098 0.195521
Si Si7 0.499792 0.300884 0.193662
Si Si8 0.111056 0.018926 0.193274
O O1 0.352459 0.620423 0.500000
O O2 0.233309 0.639349 0.741376
O O3 0.432978 0.656069 0.754512
O O4 0.364172 0.569825 0.752646
O O5 0.301464 0.388951 0.244613
O O6 0.172024 0.318962 0.252317
O O7 0.380864 0.306941 0.248456
O O8 0.279585 0.336289 0.000000
O O9 0.130680 0.433542 0.758720
O O10 0.304006 0.481617 0.740366
O O11 0.255338 0.439343 0.000000
O O12 0.622969 0.865427 0.500000
O O13 0.534625 0.827705 0.255120
O O14 0.570467 0.913427 0.250274
O O15 0.059747 0.299270 0.500000
O O16 0.048604 0.246560 0.250541
O O17 0.000000 0.500000 0.252501
O O18 0.988097 0.550669 0.000000
O O19 0.498566 0.299972 0.000000
O O20 0.106822 0.021087 0.000000
O O21 0.000000 0.000000 0.251755
#
# Coordination Sequence:
#
# PCOD9442294 Si02
#       8
#     8   8   8   8   8   8   8   8
#     4  11  24  41  62  92 129 167 209 257 309 368
#     4  10  21  41  65  90 122 160 207 259 310 370
#     4  10  19  34  58  87 115 152 205 252 299 359
#     4  11  22  40  64  88 124 166 204 253 312 371
#     4  11  24  41  62  93 125 158 204 258 318 377
#     4   9  17  31  53  83 116 151 195 246 295 350
#     4  10  24  43  64  91 122 160 208 258 310 373
#     4  10  22  39  58  85 125 167 205 248 309 371
#
# _framework density 20.231688999999999
#
# number of rings (size 3 to 8) (size 9 to 14) (size 15 to 20)
#    0.000    1.750    1.250    2.625    1.750    4.250 
#    0.000    0.000    0.000    2.625    0.000    0.000 
#    0.000    0.000    0.000    0.000    0.000    0.000 
#
# Total GULP energy -357579.594467 kJ/mol
# GULP energy per Si atom -5587.181164 kJ/mol
# Density = 2.018564 g / cm^3
# Si number density = 20.231689 Si / 1000 Ang^3
#
#
#
# Elastic Constant Matrix: (Units=GPa)
#
#
# Indices 1 2 3 4 5 6 
#
# 1 122.4211 50.1930 8.6816 0.0000 0.0000 0.0000
# 2 50.1930 141.1738 17.4561 0.0000 0.0000 0.0000
# 3 8.6816 17.4561 8.5214 0.0000 0.0000 0.0000
# 4 0.0000 0.0000 0.0000 22.6517 0.0000 0.0000
# 5 0.0000 0.0000 0.0000 0.0000 25.4032 0.0000
# 6 0.0000 0.0000 0.0000 0.0000 0.0000 35.3763
#
#
#
# Elastic Compliance Matrix: (Units=1/GPa)
#
#
# Indices 1 2 3 4 5 6 
#
# 1 0.009651 -0.002967 -0.003754 0.000000 0.000000 0.000000
# 2 -0.002967 0.010399 -0.018278 0.000000 0.000000 0.000000
# 3 -0.003754 -0.018278 0.158620 0.000000 0.000000 0.000000
# 4 0.000000 0.000000 0.000000 0.044147 0.000000 0.000000
# 5 0.000000 0.000000 0.000000 0.000000 0.039365 0.000000
# 6 0.000000 0.000000 0.000000 0.000000 0.000000 0.028267
#
#
# Mechanical properties :
#
#
# Convention : Reuss Voigt Hill
#
# Bulk Modulus (GPa) = 7.77186 47.19752 27.48469
# Shear Modulus (GPa) = 13.04329 29.73862 21.39096
#
# Velocity S-wave (km/s) = 2.54184 3.83809 3.25514
# Velocity P-wave (km/s) = 3.53049 6.55899 5.26711
#
# Compressibility (1/GPa) = 0.12866932
#
# Stress axis : x y z
#
# Youngs Moduli (GPa) = 103.61269 96.16710 6.30439
#
# Poissons Ratio (x) = 0.28535 0.02367
# Poissons Ratio (y) = 0.30744 0.11523
# Poissons Ratio (z) = 0.38900 1.75779
#
# Static dielectric constant tensor:
#      x y z
#    x 1.696650 0.000000 0.000000 
#    y 0.000000 1.721160 0.000000 
#    z 0.000000 0.000000 1.708710 
# 
# From -- ./inp_files/4703.got.cif
#   From: 2010.05.17/outbox.cif.g08.bks.cpg/sg58_3_cif.got.tgz:4703.got - 2010.06.03 14:20:14.
