data_PCOD9442063
_publ_section_title
;
Structure prediction by ZEFSAII (Michael W. Deem and Ramdas Pophale) SiO2 
 PCOD9442063
Probable space group: P N N M
;
_chemical_formula_sum "Si O2"
_cell_formula_units_Z 44
_cell_length_a 30.740151
_cell_length_b 7.423952
_cell_length_c 7.295481
_cell_angle_alpha 90.000000
_cell_angle_beta 90.000000
_cell_angle_gamma 90.000000
_cell_volume 1664.926564
_symmetry_space_group_name_H-M "P N N M"
_symmetry_group_IT_number 58
_symmetry_cell_setting 'orthorhombic'
loop_
_space_group_symop_operation_xyz
x,y,z
-x,-y,z
1/2+x,1/2-y,1/2-z
1/2-x,1/2+y,1/2-z
-x,-y,-z
x,y,-z
1/2-x,1/2+y,1/2+z
1/2+x,1/2-y,1/2+z
loop_
_atom_site_type_symbol
_atom_site_label
_atom_site_fract_x
_atom_site_fract_y
_atom_site_fract_z
Si Si1 0.192161 0.775115 0.789883
Si Si2 0.286717 0.680107 0.780357
Si Si3 0.098745 0.667194 0.222208
Si Si4 0.934476 0.879957 0.500000
Si Si5 0.378013 0.770624 0.290934
Si Si6 0.504606 0.781814 0.281525
O O1 0.238067 0.710405 0.708647
O O2 0.145518 0.728842 0.708349
O O3 0.197151 0.988786 0.788573
O O4 0.190881 0.708847 0.000000
O O5 0.326287 0.809878 0.725103
O O6 0.284604 0.684373 0.000000
O O7 0.097605 0.454330 0.264610
O O8 0.054134 0.758378 0.285211
O O9 0.098092 0.682926 0.000000
O O10 0.895544 0.880540 0.341941
O O11 0.970611 0.826053 0.339391
O O12 0.387728 0.727770 0.500000
O O13 0.500230 0.744685 0.500000
O O14 0.500000 0.000000 0.260837
#
# Coordination Sequence:
#
# PCOD9442063 Si02
#       6
#     8   8   8   4   8   8
#     4  10  22  41  65  87 126 163 207 256 317 374
#     4  11  23  41  61  95 125 162 209 261 308 385
#     4   9  19  36  59  92 123 167 209 258 314 376
#     4  12  21  34  58  95 126 169 214 267 303 384
#     4  11  22  38  62  89 130 166 210 260 321 367
#     4  10  19  33  55  88 130 164 210 264 314 361
#
# _framework density 26.427593000000002
#
# number of rings (size 3 to 8) (size 9 to 14) (size 15 to 20)
#    0.000    1.636    2.727    2.455    0.000    2.909 
#    3.273    0.000    0.000    2.182    0.000    5.091 
#    0.000    0.000    0.000    0.000    0.000    0.000 
#
# Total GULP energy -245469.389938 kJ/mol
# GULP energy per Si atom -5578.849771 kJ/mol
# Density = 2.636744 g / cm^3
# Si number density = 26.427593 Si / 1000 Ang^3
#
#
#
# Elastic Constant Matrix: (Units=GPa)
#
#
# Indices 1 2 3 4 5 6 
#
# 1 235.4461 32.0830 29.0369 0.0000 0.0000 0.0000
# 2 32.0830 52.5521 -0.9986 0.0000 0.0000 0.0000
# 3 29.0369 -0.9986 157.1618 0.0000 0.0000 0.0000
# 4 0.0000 0.0000 0.0000 6.1370 0.0000 0.0000
# 5 0.0000 0.0000 0.0000 0.0000 25.2592 0.0000
# 6 0.0000 0.0000 0.0000 0.0000 0.0000 48.3451
#
#
#
# Elastic Compliance Matrix: (Units=1/GPa)
#
#
# Indices 1 2 3 4 5 6 
#
# 1 0.004756 -0.002921 -0.000897 0.000000 0.000000 0.000000
# 2 -0.002921 0.020824 0.000672 0.000000 0.000000 0.000000
# 3 -0.000897 0.000672 0.006533 0.000000 0.000000 0.000000
# 4 0.000000 0.000000 0.000000 0.162946 0.000000 0.000000
# 5 0.000000 0.000000 0.000000 0.000000 0.039589 0.000000
# 6 0.000000 0.000000 0.000000 0.000000 0.000000 0.020685
#
#
# Mechanical properties :
#
#
# Convention : Reuss Voigt Hill
#
# Bulk Modulus (GPa) = 38.72734 62.82252 50.77493
# Shear Modulus (GPa) = 18.50263 41.61751 30.06007
#
# Velocity S-wave (km/s) = 2.64886 3.97265 3.37627
# Velocity P-wave (km/s) = 4.90318 6.69819 5.86971
#
# Compressibility (1/GPa) = 0.02582155
#
# Stress axis : x y z
#
# Youngs Moduli (GPa) = 210.26639 48.02046 153.07107
#
# Poissons Ratio (x) = 0.14024 0.13734
# Poissons Ratio (y) = 0.61408 -0.10285
# Poissons Ratio (z) = 0.18866 -0.03226
#
# Static dielectric constant tensor:
#      x y z
#    x 2.177830 0.000000 0.000000 
#    y 0.000000 2.144790 0.000000 
#    z 0.000000 0.000000 2.007440 
# 
# From -- ./inp_files/10695.got.cif
#   From: 2010.05.17/outbox.cif.g08.bks.cpg/sg58_6_cif.got.tgz:10695.got - 2010.06.03 14:20:14.
