data_PCOD9442257
_publ_section_title
;
Structure prediction by ZEFSAII (Michael W. Deem and Ramdas Pophale) SiO2 
 PCOD9442257
Probable space group: P N N M
;
_chemical_formula_sum "Si O2"
_cell_formula_units_Z 48
_cell_length_a 9.895100
_cell_length_b 7.254972
_cell_length_c 27.984016
_cell_angle_alpha 90.000000
_cell_angle_beta 90.000000
_cell_angle_gamma 90.000000
_cell_volume 2008.935386
_symmetry_space_group_name_H-M "P N N M"
_symmetry_group_IT_number 58
_symmetry_cell_setting 'orthorhombic'
loop_
_space_group_symop_operation_xyz
x,y,z
-x,-y,z
1/2+x,1/2-y,1/2-z
1/2-x,1/2+y,1/2-z
-x,-y,-z
x,y,-z
1/2-x,1/2+y,1/2+z
1/2+x,1/2-y,1/2+z
loop_
_atom_site_type_symbol
_atom_site_label
_atom_site_fract_x
_atom_site_fract_y
_atom_site_fract_z
Si Si1 0.747910 0.777595 0.093404
Si Si2 0.971079 0.278284 0.945898
Si Si3 0.314928 0.151167 0.799095
Si Si4 0.762623 0.845623 0.377505
Si Si5 0.521154 0.277693 0.050812
Si Si6 0.607155 0.263196 0.779428
O O1 0.888823 0.817951 0.068223
O O2 0.718647 0.859835 0.145086
O O3 0.744878 0.557390 0.105205
O O4 0.623076 0.813428 0.058611
O O5 0.000000 0.500000 0.947827
O O6 0.868132 0.254285 0.901744
O O7 0.926425 0.228940 0.000000
O O8 0.444630 0.286411 0.787683
O O9 0.176121 0.185716 0.770568
O O10 0.365443 0.953028 0.783332
O O11 0.887290 0.746533 0.403574
O O12 0.798930 0.845829 0.321887
O O13 0.500000 0.500000 0.049546
O O14 0.583017 0.226926 0.000000
#
# Coordination Sequence:
#
# PCOD9442257 Si02
#       6
#     8   8   8   8   8   8
#     4  10  19  34  57  85 119 153 191 240 288 339
#     4   9  18  32  54  87 122 155 194 239 284 333
#     4  11  25  43  63  87 117 152 194 243 298 357
#     4  10  19  34  57  85 119 153 191 240 288 339
#     4   9  16  28  52  83 112 149 194 237 282 333
#     4  11  25  43  63  87 117 152 194 243 298 357
#
# _framework density 23.893253000000001
#
# number of rings (size 3 to 8) (size 9 to 14) (size 15 to 20)
#    0.000    2.000    1.667    2.000    2.333    6.000 
#    0.000    0.000    0.000    6.000    0.000    0.000 
#    0.000    0.000    0.000    0.000    0.000    0.000 
#
# Total GULP energy -268164.071285 kJ/mol
# GULP energy per Si atom -5586.751485 kJ/mol
# Density = 2.383887 g / cm^3
# Si number density = 23.893253 Si / 1000 Ang^3
#
#
#
# Elastic Constant Matrix: (Units=GPa)
#
#
# Indices 1 2 3 4 5 6 
#
# 1 99.7855 -1.5287 26.4313 0.0000 0.0000 0.0000
# 2 -1.5287 44.7665 -0.2930 0.0000 0.0000 0.0000
# 3 26.4313 -0.2930 119.6351 0.0000 0.0000 0.0000
# 4 0.0000 0.0000 0.0000 85.1915 0.0000 0.0000
# 5 0.0000 0.0000 0.0000 0.0000 6.9840 0.0000
# 6 0.0000 0.0000 0.0000 0.0000 0.0000 10.4149
#
#
#
# Elastic Compliance Matrix: (Units=1/GPa)
#
#
# Indices 1 2 3 4 5 6 
#
# 1 0.010650 0.000348 -0.002352 0.000000 0.000000 0.000000
# 2 0.000348 0.022350 -0.000022 0.000000 0.000000 0.000000
# 3 -0.002352 -0.000022 0.008878 0.000000 0.000000 0.000000
# 4 0.000000 0.000000 0.000000 0.011738 0.000000 0.000000
# 5 0.000000 0.000000 0.000000 0.000000 0.143183 0.000000
# 6 0.000000 0.000000 0.000000 0.000000 0.000000 0.096016
#
#
# Mechanical properties :
#
#
# Convention : Reuss Voigt Hill
#
# Bulk Modulus (GPa) = 26.43676 34.82293 30.62984
# Shear Modulus (GPa) = 16.15633 36.48993 26.32313
#
# Velocity S-wave (km/s) = 2.60318 3.91219 3.32278
# Velocity P-wave (km/s) = 4.48597 5.91718 5.25057
#
# Compressibility (1/GPa) = 0.03782612
#
# Stress axis : x y z
#
# Youngs Moduli (GPa) = 93.89809 44.74296 112.63367
#
# Poissons Ratio (x) = -0.01558 0.26492
# Poissons Ratio (y) = -0.03270 0.00250
# Poissons Ratio (z) = 0.22085 0.00099
#
# Static dielectric constant tensor:
#      x y z
#    x 1.909690 0.000000 0.000000 
#    y 0.000000 1.779590 0.000000 
#    z 0.000000 0.000000 1.852690 
# 
# From -- ./inp_files/10749.got.cif
#   From: 2010.05.17/outbox.cif.g08.bks.cpg/sg58_6_cif.got.tgz:10749.got - 2010.06.03 14:20:14.
