data_PCOD9442511
_publ_section_title
;
Structure prediction by ZEFSAII (Michael W. Deem and Ramdas Pophale) SiO2 
 PCOD9442511
Probable space group: P N N M
;
_chemical_formula_sum "Si O2"
_cell_formula_units_Z 64
_cell_length_a 26.553776
_cell_length_b 15.065502
_cell_length_c 7.573095
_cell_angle_alpha 90.000000
_cell_angle_beta 90.000000
_cell_angle_gamma 90.000000
_cell_volume 3029.586101
_symmetry_space_group_name_H-M "P N N M"
_symmetry_group_IT_number 58
_symmetry_cell_setting 'orthorhombic'
loop_
_space_group_symop_operation_xyz
x,y,z
-x,-y,z
1/2+x,1/2-y,1/2-z
1/2-x,1/2+y,1/2-z
-x,-y,-z
x,y,-z
1/2-x,1/2+y,1/2+z
1/2+x,1/2-y,1/2+z
loop_
_atom_site_type_symbol
_atom_site_label
_atom_site_fract_x
_atom_site_fract_y
_atom_site_fract_z
Si Si1 0.899651 0.185350 0.716451
Si Si2 0.381507 0.644215 0.705944
Si Si3 0.373019 0.117001 0.207291
Si Si4 0.448711 0.965271 0.298363
Si Si5 0.674088 0.532743 0.795978
Si Si6 0.135495 0.339383 0.783457
Si Si7 0.213468 0.491026 0.213725
Si Si8 0.994922 0.896967 0.286349
O O1 0.899833 0.183208 0.500000
O O2 0.882714 0.283439 0.770589
O O3 0.860270 0.111056 0.780285
O O4 0.955972 0.157779 0.771579
O O5 0.368472 0.638264 0.500000
O O6 0.357623 0.557710 0.792538
O O7 0.361088 0.738119 0.775020
O O8 0.441810 0.641266 0.724089
O O9 0.409647 0.046703 0.299739
O O10 0.316835 0.078705 0.228983
O O11 0.385596 0.114123 0.000000
O O12 0.461349 0.939042 0.500000
O O13 0.500000 0.000000 0.213058
O O14 0.416834 0.884021 0.220941
O O15 0.729570 0.516769 0.719872
O O16 0.682682 0.558059 0.000000
O O17 0.180338 0.405503 0.730832
O O18 0.134370 0.339639 0.000000
O O19 0.213564 0.492940 0.000000
O O20 0.993959 0.896629 0.500000
O O21 0.000000 0.000000 0.230442
#
# Coordination Sequence:
#
# PCOD9442511 Si02
#       8
#     8   8   8   8   8   8   8   8
#     4   9  19  35  55  80 107 143 182 215 262 322
#     4  11  22  34  53  84 115 138 171 222 277 319
#     4  10  20  34  54  81 112 138 170 222 277 319
#     4   9  18  34  55  75 102 143 185 219 255 313
#     4  10  20  38  60  78 101 142 189 221 257 318
#     4   8  17  34  52  76 107 139 174 212 265 322
#     4   9  19  38  61  78 101 141 185 223 260 316
#     4  10  19  36  58  75 104 147 187 219 254 315
#
# _framework density 21.124998000000001
#
# number of rings (size 3 to 8) (size 9 to 14) (size 15 to 20)
#    0.000    2.500    1.250    1.500    1.750    2.000 
#    0.000    9.375    0.000    0.000    0.000    0.000 
#    0.000    0.000    0.000    0.000    0.000    0.000 
#
# Total GULP energy -357233.613377 kJ/mol
# GULP energy per Si atom -5581.775209 kJ/mol
# Density = 2.107692 g / cm^3
# Si number density = 21.124998 Si / 1000 Ang^3
#
#
#
# Elastic Constant Matrix: (Units=GPa)
#
#
# Indices 1 2 3 4 5 6 
#
# 1 107.0166 16.5621 -12.3014 0.0000 0.0000 0.0000
# 2 16.5621 113.7363 -10.5390 0.0000 0.0000 0.0000
# 3 -12.3014 -10.5390 50.9375 0.0000 0.0000 0.0000
# 4 0.0000 0.0000 0.0000 24.8519 0.0000 0.0000
# 5 0.0000 0.0000 0.0000 0.0000 0.4159 0.0000
# 6 0.0000 0.0000 0.0000 0.0000 0.0000 5.5348
#
#
#
# Elastic Compliance Matrix: (Units=1/GPa)
#
#
# Indices 1 2 3 4 5 6 
#
# 1 0.009777 -0.001228 0.002107 0.000000 0.000000 0.000000
# 2 -0.001228 0.009118 0.001590 0.000000 0.000000 0.000000
# 3 0.002107 0.001590 0.020470 0.000000 0.000000 0.000000
# 4 0.000000 0.000000 0.000000 0.040238 0.000000 0.000000
# 5 0.000000 0.000000 0.000000 0.000000 2.404194 0.000000
# 6 0.000000 0.000000 0.000000 0.000000 0.000000 0.180674
#
#
# Mechanical properties :
#
#
# Convention : Reuss Voigt Hill
#
# Bulk Modulus (GPa) = 22.57253 28.79265 25.68259
# Shear Modulus (GPa) = 1.86965 24.69177 13.28071
#
# Velocity S-wave (km/s) = 0.94179 3.42254 2.51005
# Velocity P-wave (km/s) = 3.44834 5.41088 4.53700
#
# Compressibility (1/GPa) = 0.04430163
#
# Stress axis : x y z
#
# Youngs Moduli (GPa) = 102.28459 109.66742 48.85273
#
# Poissons Ratio (x) = 0.13472 -0.10293
# Poissons Ratio (y) = 0.12565 -0.07767
# Poissons Ratio (z) = -0.21550 -0.17437
#
# Static dielectric constant tensor:
#      x y z
#    x 1.746330 0.000000 0.000000 
#    y 0.000000 1.731600 0.000000 
#    z 0.000000 0.000000 1.842790 
# 
# From -- ./inp_files/10062.got.cif
#   From: 2010.05.17/outbox.cif.g08.bks.cpg/sg58_6_cif.got.tgz:10062.got - 2010.06.03 14:20:14.
