data_PCOD9442822
_publ_section_title
;
Structure prediction by ZEFSAII (Michael W. Deem and Ramdas Pophale) SiO2 
 PCOD9442822
Probable space group: P N N M
;
_chemical_formula_sum "Si O2"
_cell_formula_units_Z 64
_cell_length_a 14.507593
_cell_length_b 28.930416
_cell_length_c 8.921646
_cell_angle_alpha 90.000000
_cell_angle_beta 90.000000
_cell_angle_gamma 90.000000
_cell_volume 3744.510294
_symmetry_space_group_name_H-M "P N N M"
_symmetry_group_IT_number 58
_symmetry_cell_setting 'orthorhombic'
loop_
_space_group_symop_operation_xyz
x,y,z
-x,-y,z
1/2+x,1/2-y,1/2-z
1/2-x,1/2+y,1/2-z
-x,-y,-z
x,y,-z
1/2-x,1/2+y,1/2+z
1/2+x,1/2-y,1/2+z
loop_
_atom_site_type_symbol
_atom_site_label
_atom_site_fract_x
_atom_site_fract_y
_atom_site_fract_z
Si Si1 0.257732 0.948599 0.820988
Si Si2 0.610349 0.873958 0.317779
Si Si3 0.890355 0.129569 0.821044
Si Si4 0.251597 0.801526 0.320831
Si Si5 0.743381 0.450805 0.180701
Si Si6 0.741535 0.299105 0.819456
Si Si7 0.409346 0.623950 0.820238
Si Si8 0.899282 0.620473 0.180797
O O1 0.170578 0.915741 0.782775
O O2 0.346414 0.922784 0.752396
O O3 0.245667 0.999425 0.755086
O O4 0.265640 0.950375 0.000000
O O5 0.610221 0.873491 0.500000
O O6 0.669400 0.919006 0.273785
O O7 0.668640 0.828843 0.272108
O O8 0.504820 0.875160 0.268201
O O9 0.837011 0.172675 0.747758
O O10 0.993274 0.125042 0.760496
O O11 0.890230 0.134785 0.000000
O O12 0.243779 0.800183 0.500000
O O13 0.262125 0.750467 0.256236
O O14 0.339187 0.834056 0.281927
O O15 0.652607 0.420800 0.218480
O O16 0.745866 0.455582 0.000000
O O17 0.653577 0.331395 0.784129
O O18 0.744691 0.293862 0.000000
O O19 0.422815 0.623568 0.000000
O O20 0.898254 0.615425 0.000000
#
# Coordination Sequence:
#
# PCOD9442822 Si02
#       8
#     8   8   8   8   8   8   8   8
#     4  10  21  35  50  73 104 133 165 208 256 301
#     4   8  16  33  55  76  98 130 171 206 241 296
#     4  10  21  36  53  72  99 137 174 210 256 304
#     4  10  20  33  51  77 105 133 170 211 249 296
#     4   9  18  34  55  76 100 133 169 204 248 302
#     4   9  18  34  54  76 105 136 164 203 255 303
#     4   9  19  35  54  77 104 133 169 212 253 299
#     4   9  18  34  54  73  97 131 170 208 243 291
#
# _framework density 17.091688000000001
#
# number of rings (size 3 to 8) (size 9 to 14) (size 15 to 20)
#    0.000    2.750    0.000    2.625    0.000    5.000 
#    0.000    9.375    0.000    0.000    0.000    0.000 
#    0.000    0.000    0.000    0.000    0.000    0.000 
#
# Total GULP energy -356941.448304 kJ/mol
# GULP energy per Si atom -5577.210130 kJ/mol
# Density = 1.705279 g / cm^3
# Si number density = 17.091688 Si / 1000 Ang^3
#
#
#
# Elastic Constant Matrix: (Units=GPa)
#
#
# Indices 1 2 3 4 5 6 
#
# 1 153.8778 67.6486 44.5043 0.0000 0.0000 0.0000
# 2 67.6486 152.6446 46.6828 0.0000 0.0000 0.0000
# 3 44.5043 46.6828 28.5493 0.0000 0.0000 0.0000
# 4 0.0000 0.0000 0.0000 35.3739 0.0000 0.0000
# 5 0.0000 0.0000 0.0000 0.0000 11.9625 0.0000
# 6 0.0000 0.0000 0.0000 0.0000 0.0000 6.2841
#
#
#
# Elastic Compliance Matrix: (Units=1/GPa)
#
#
# Indices 1 2 3 4 5 6 
#
# 1 0.011882 0.000798 -0.019828 0.000000 0.000000 0.000000
# 2 0.000798 0.013158 -0.022759 0.000000 0.000000 0.000000
# 3 -0.019828 -0.022759 0.103150 0.000000 0.000000 0.000000
# 4 0.000000 0.000000 0.000000 0.028269 0.000000 0.000000
# 5 0.000000 0.000000 0.000000 0.000000 0.083595 0.000000
# 6 0.000000 0.000000 0.000000 0.000000 0.000000 0.159132
#
#
# Mechanical properties :
#
#
# Convention : Reuss Voigt Hill
#
# Bulk Modulus (GPa) = 22.41498 72.52701 47.47100
# Shear Modulus (GPa) = 10.04752 22.47315 16.26033
#
# Velocity S-wave (km/s) = 2.42721 3.63003 3.08776
# Velocity P-wave (km/s) = 4.58238 7.75214 6.36765
#
# Compressibility (1/GPa) = 0.04461303
#
# Stress axis : x y z
#
# Youngs Moduli (GPa) = 84.15781 75.99990 9.69460
#
# Poissons Ratio (x) = -0.06063 0.19222
# Poissons Ratio (y) = -0.06714 0.22064
# Poissons Ratio (z) = 1.66864 1.72968
#
# Static dielectric constant tensor:
#      x y z
#    x 1.567830 0.000000 0.000000 
#    y 0.000000 1.550890 0.000000 
#    z 0.000000 0.000000 1.569830 
# 
# From -- ./inp_files/7177.got.cif
#   From: 2010.05.17/outbox.cif.g08.bks.cpg/sg58_4_cif.got.tgz:7177.got - 2010.06.03 14:20:14.
