data_PCOD9442997
_publ_section_title
;
Structure prediction by ZEFSAII (Michael W. Deem and Ramdas Pophale) SiO2 
 PCOD9442997
Probable space group: P N N M
;
_chemical_formula_sum "Si O2"
_cell_formula_units_Z 40
_cell_length_a 5.212187
_cell_length_b 32.366071
_cell_length_c 11.624760
_cell_angle_alpha 90.000000
_cell_angle_beta 90.000000
_cell_angle_gamma 90.000000
_cell_volume 1961.073931
_symmetry_space_group_name_H-M "P N N M"
_symmetry_group_IT_number 58
_symmetry_cell_setting 'orthorhombic'
loop_
_space_group_symop_operation_xyz
x,y,z
-x,-y,z
1/2+x,1/2-y,1/2-z
1/2-x,1/2+y,1/2-z
-x,-y,-z
x,y,-z
1/2-x,1/2+y,1/2+z
1/2+x,1/2-y,1/2+z
loop_
_atom_site_type_symbol
_atom_site_label
_atom_site_fract_x
_atom_site_fract_y
_atom_site_fract_z
Si Si1 0.748490 0.973332 0.138024
Si Si2 0.011598 0.221342 0.374611
Si Si3 0.704737 0.143818 0.629374
Si Si4 0.210294 0.117608 0.237623
Si Si5 0.271257 0.699317 0.375956
O O1 0.756386 0.929069 0.198162
O O2 0.500000 0.000000 0.170322
O O3 0.742202 0.966892 0.000000
O O4 0.000000 0.000000 0.165339
O O5 0.131962 0.209077 0.500000
O O6 0.750708 0.193527 0.371743
O O7 0.970720 0.270200 0.380016
O O8 0.121374 0.211339 0.249551
O O9 0.751512 0.129146 0.500000
O O10 0.425362 0.130509 0.669860
O O11 0.926198 0.125617 0.711929
O O12 0.262833 0.150415 0.135611
O O13 0.405428 0.707589 0.500000
#
# Coordination Sequence:
#
# PCOD9442997 Si02
#       5
#     8   8   8   8   8
#     4  10  21  38  60  85 114 148 186 233 298 369
#     4   9  19  34  52  80 119 163 200 235 288 348
#     4  10  21  37  59  85 117 158 198 233 279 346
#     4  11  21  37  61  87 115 149 192 244 294 343
#     4  10  20  34  54  85 120 154 200 251 292 337
#
# _framework density 20.396988
#
# number of rings (size 3 to 8) (size 9 to 14) (size 15 to 20)
#    0.000    2.000    0.000    3.600    0.000    1.600 
#    0.000   11.000    0.000   12.000    0.000    0.000 
#    0.000    0.000    0.000    0.000    0.000    0.000 
#
# Total GULP energy -222808.069738 kJ/mol
# GULP energy per Si atom -5570.201743 kJ/mol
# Density = 2.035056 g / cm^3
# Si number density = 20.396988 Si / 1000 Ang^3
#
#
#
# Elastic Constant Matrix: (Units=GPa)
#
#
# Indices 1 2 3 4 5 6 
#
# 1 58.8977 16.1301 15.7550 0.0000 0.0000 0.0000
# 2 16.1301 105.5771 44.0361 0.0000 0.0000 0.0000
# 3 15.7550 44.0361 147.3444 0.0000 0.0000 0.0000
# 4 0.0000 0.0000 0.0000 15.7886 0.0000 0.0000
# 5 0.0000 0.0000 0.0000 0.0000 14.4060 0.0000
# 6 0.0000 0.0000 0.0000 0.0000 0.0000 22.8091
#
#
#
# Elastic Compliance Matrix: (Units=1/GPa)
#
#
# Indices 1 2 3 4 5 6 
#
# 1 0.017921 -0.002215 -0.001254 0.000000 0.000000 0.000000
# 2 -0.002215 0.011094 -0.003079 0.000000 0.000000 0.000000
# 3 -0.001254 -0.003079 0.007841 0.000000 0.000000 0.000000
# 4 0.000000 0.000000 0.000000 0.063337 0.000000 0.000000
# 5 0.000000 0.000000 0.000000 0.000000 0.069416 0.000000
# 6 0.000000 0.000000 0.000000 0.000000 0.000000 0.043842
#
#
# Mechanical properties :
#
#
# Convention : Reuss Voigt Hill
#
# Bulk Modulus (GPa) = 42.08712 51.51795 46.80254
# Shear Modulus (GPa) = 21.32502 26.32729 23.82616
#
# Velocity S-wave (km/s) = 3.23692 3.59659 3.42149
# Velocity P-wave (km/s) = 5.88634 6.52378 6.21324
#
# Compressibility (1/GPa) = 0.02376024
#
# Stress axis : x y z
#
# Youngs Moduli (GPa) = 55.80152 90.13620 127.53304
#
# Poissons Ratio (x) = 0.19963 0.15996
# Poissons Ratio (y) = 0.12359 0.39266
# Poissons Ratio (z) = 0.06999 0.27752
#
# Static dielectric constant tensor:
#      x y z
#    x 1.754070 0.000000 0.000000 
#    y 0.000000 1.721600 0.000000 
#    z 0.000000 0.000000 1.759550 
# 
# From -- ./inp_files/11751.got.cif
#   From: 2010.05.17/outbox.cif.g08.bks.cpg/sg58_6_cif.got.tgz:11751.got - 2010.06.03 14:20:14.
