data_PCOD9442978
_publ_section_title
;
Structure prediction by ZEFSAII (Michael W. Deem and Ramdas Pophale) SiO2 
 PCOD9442978
Probable space group: P N N M
;
_chemical_formula_sum "Si O2"
_cell_formula_units_Z 48
_cell_length_a 9.428915
_cell_length_b 30.897310
_cell_length_c 8.082027
_cell_angle_alpha 90.000000
_cell_angle_beta 90.000000
_cell_angle_gamma 90.000000
_cell_volume 2354.521649
_symmetry_space_group_name_H-M "P N N M"
_symmetry_group_IT_number 58
_symmetry_cell_setting 'orthorhombic'
loop_
_space_group_symop_operation_xyz
x,y,z
-x,-y,z
1/2+x,1/2-y,1/2-z
1/2-x,1/2+y,1/2-z
-x,-y,-z
x,y,-z
1/2-x,1/2+y,1/2+z
1/2+x,1/2-y,1/2+z
loop_
_atom_site_type_symbol
_atom_site_label
_atom_site_fract_x
_atom_site_fract_y
_atom_site_fract_z
Si Si1 0.933551 0.952765 0.000000
Si Si2 0.327658 0.995274 0.000000
Si Si3 0.350950 0.215275 0.699211
Si Si4 0.092981 0.622655 0.195844
Si Si5 0.599309 0.042721 0.686050
Si Si6 0.468826 0.703639 0.801433
Si Si7 0.931813 0.893329 0.694215
O O1 0.972372 0.927388 0.833366
O O2 0.762758 0.961146 0.000000
O O3 0.000000 0.000000 0.000000
O O4 0.293497 0.969930 0.831007
O O5 0.500000 0.000000 0.000000
O O6 0.345676 0.211256 0.500000
O O7 0.427337 0.171344 0.763330
O O8 0.425513 0.259907 0.740546
O O9 0.189467 0.214147 0.761363
O O10 0.260505 0.612650 0.209345
O O11 0.994406 0.583124 0.250823
O O12 0.063174 0.624287 0.000000
O O13 0.655484 0.051269 0.500000
O O14 0.500000 0.000000 0.668919
O O15 0.498995 0.653481 0.763508
O O16 0.465468 0.705906 0.000000
O O17 0.960338 0.903775 0.500000
#
# Coordination Sequence:
#
# PCOD9442978 Si02
#       7
#     4   4   8   8   8   8   8
#     4  12  26  40  58  88 116 148 198 238 283 349
#     4  10  20  34  54  80 106 138 186 232 278 333
#     4   9  18  33  55  81 115 149 186 244 286 340
#     4   8  15  31  54  83 112 144 193 236 282 338
#     4   9  16  28  50  77 106 139 176 227 284 324
#     4   9  19  36  56  85 114 146 194 235 290 349
#     4   9  19  38  61  80 110 154 195 237 275 342
#
# _framework density 20.386305
#
# number of rings (size 3 to 8) (size 9 to 14) (size 15 to 20)
#    0.000    2.833    0.000    4.000    1.167    3.000 
#    6.000    1.667    0.000    4.000    0.000    0.000 
#    0.000    0.000    0.000    0.000    0.000    0.000 
#
# Total GULP energy -267389.362403 kJ/mol
# GULP energy per Si atom -5570.611717 kJ/mol
# Density = 2.033990 g / cm^3
# Si number density = 20.386305 Si / 1000 Ang^3
#
#
#
# Elastic Constant Matrix: (Units=GPa)
#
#
# Indices 1 2 3 4 5 6 
#
# 1 30.0489 32.8297 17.8982 0.0000 0.0000 0.0000
# 2 32.8297 134.9538 68.3655 0.0000 0.0000 0.0000
# 3 17.8982 68.3655 95.4405 0.0000 0.0000 0.0000
# 4 0.0000 0.0000 0.0000 29.0673 0.0000 0.0000
# 5 0.0000 0.0000 0.0000 0.0000 14.5293 0.0000
# 6 0.0000 0.0000 0.0000 0.0000 0.0000 33.0540
#
#
#
# Elastic Compliance Matrix: (Units=1/GPa)
#
#
# Indices 1 2 3 4 5 6 
#
# 1 0.045380 -0.010560 -0.000946 0.000000 0.000000 0.000000
# 2 -0.010560 0.014088 -0.008111 0.000000 0.000000 0.000000
# 3 -0.000946 -0.008111 0.016465 0.000000 0.000000 0.000000
# 4 0.000000 0.000000 0.000000 0.034403 0.000000 0.000000
# 5 0.000000 0.000000 0.000000 0.000000 0.068826 0.000000
# 6 0.000000 0.000000 0.000000 0.000000 0.000000 0.030254
#
#
# Mechanical properties :
#
#
# Convention : Reuss Voigt Hill
#
# Bulk Modulus (GPa) = 27.24867 55.40332 41.32600
# Shear Modulus (GPa) = 19.16571 24.75345 21.95958
#
# Velocity S-wave (km/s) = 3.06947 3.48835 3.28559
# Velocity P-wave (km/s) = 5.09484 6.59246 5.89143
#
# Compressibility (1/GPa) = 0.03669903
#
# Stress axis : x y z
#
# Youngs Moduli (GPa) = 22.03610 70.98353 60.73488
#
# Poissons Ratio (x) = 0.74962 0.05743
# Poissons Ratio (y) = 0.23271 0.49261
# Poissons Ratio (z) = 0.02084 0.57574
#
# Static dielectric constant tensor:
#      x y z
#    x 1.784330 0.000000 0.000000 
#    y 0.000000 1.753440 0.000000 
#    z 0.000000 0.000000 1.779140 
# 
# From -- ./inp_files/3095.got.cif
#   From: 2010.05.17/outbox.cif.g08.bks.cpg/sg58_2_cif.got.tgz:3095.got - 2010.06.03 14:20:14.
