data_PCOD9442711
_publ_section_title
;
Structure prediction by ZEFSAII (Michael W. Deem and Ramdas Pophale) SiO2 
 PCOD9442711
Probable space group: P N N M
;
_chemical_formula_sum "Si O2"
_cell_formula_units_Z 48
_cell_length_a 18.669847
_cell_length_b 8.817525
_cell_length_c 15.249065
_cell_angle_alpha 90.000000
_cell_angle_beta 90.000000
_cell_angle_gamma 90.000000
_cell_volume 2510.329179
_symmetry_space_group_name_H-M "P N N M"
_symmetry_group_IT_number 58
_symmetry_cell_setting 'orthorhombic'
loop_
_space_group_symop_operation_xyz
x,y,z
-x,-y,z
1/2+x,1/2-y,1/2-z
1/2-x,1/2+y,1/2-z
-x,-y,-z
x,y,-z
1/2-x,1/2+y,1/2+z
1/2+x,1/2-y,1/2+z
loop_
_atom_site_type_symbol
_atom_site_label
_atom_site_fract_x
_atom_site_fract_y
_atom_site_fract_z
Si Si1 0.268848 0.512438 0.500000
Si Si2 0.957563 0.652648 0.672144
Si Si3 0.700417 0.028050 0.181891
Si Si4 0.543474 0.656107 0.308289
Si Si5 0.571495 0.602851 0.500000
Si Si6 0.683526 0.662902 0.192228
Si Si7 0.504718 0.680822 0.000000
Si Si8 0.328994 0.311780 0.000000
O O1 0.238620 0.439394 0.411101
O O2 0.355055 0.496434 0.500000
O O3 0.231629 0.679593 0.500000
O O4 0.875626 0.609436 0.685800
O O5 0.000000 0.500000 0.649779
O O6 0.993748 0.723101 0.758749
O O7 0.968251 0.760895 0.588805
O O8 0.750452 0.088452 0.258621
O O9 0.690509 0.846125 0.188483
O O10 0.500000 0.500000 0.311863
O O11 0.567600 0.693166 0.407873
O O12 0.612272 0.630700 0.247125
O O13 0.500000 0.500000 0.500000
O O14 0.678753 0.604884 0.092467
O O15 0.500000 0.500000 0.000000
O O16 0.587515 0.740802 0.000000
#
# Coordination Sequence:
#
# PCOD9442711 Si02
#       8
#     4   8   8   8   4   8   4   4
#     4  10  19  40  62  91 129 166 217 271 320 399
#     4  12  23  42  65  94 133 175 216 269 337 399
#     4  11  24  39  66  92 128 172 216 268 335 399
#     4  11  23  41  67  93 128 170 224 276 325 401
#     4  10  22  39  67  96 124 173 232 275 327 388
#     4  11  23  42  62  94 130 168 216 266 329 396
#     4  12  24  39  67 100 135 167 218 269 326 403
#     4  10  22  38  62  95 131 163 202 269 335 387
#
# _framework density 19.120996999999999
#
# number of rings (size 3 to 8) (size 9 to 14) (size 15 to 20)
#    0.000    1.000    5.000    2.250    2.333    1.333 
#    0.000    2.083    0.000    0.000    0.000    0.000 
#    0.000    0.000    0.000    0.000    0.000    0.000 
#
# Total GULP energy -268036.871608 kJ/mol
# GULP energy per Si atom -5584.101492 kJ/mol
# Density = 1.907748 g / cm^3
# Si number density = 19.120997 Si / 1000 Ang^3
#
#
#
# Elastic Constant Matrix: (Units=GPa)
#
#
# Indices 1 2 3 4 5 6 
#
# 1 150.8302 16.6559 57.4645 0.0000 0.0000 0.0000
# 2 16.6559 64.9615 30.6894 0.0000 0.0000 0.0000
# 3 57.4645 30.6894 191.2770 0.0000 0.0000 0.0000
# 4 0.0000 0.0000 0.0000 -615.6462 0.0000 0.0000
# 5 0.0000 0.0000 0.0000 0.0000 -32.9422 0.0000
# 6 0.0000 0.0000 0.0000 0.0000 0.0000 33.4647
#
#
#
# Elastic Compliance Matrix: (Units=1/GPa)
#
#
# Indices 1 2 3 4 5 6 
#
# 1 0.007539 -0.000934 -0.002115 0.000000 0.000000 0.000000
# 2 -0.000934 0.016772 -0.002410 0.000000 0.000000 0.000000
# 3 -0.002115 -0.002410 0.006250 0.000000 0.000000 0.000000
# 4 0.000000 0.000000 0.000000 -0.001624 0.000000 0.000000
# 5 0.000000 0.000000 0.000000 0.000000 -0.030356 0.000000
# 6 0.000000 0.000000 0.000000 0.000000 0.000000 0.029882
#
#
# Mechanical properties :
#
#
# Convention : Reuss Voigt Hill
#
# Bulk Modulus (GPa) = 50.91009 68.52093 59.71551
# Shear Modulus (GPa) = 108.86435 -102.87416 2.99509
#
# Velocity S-wave (km/s) = 7.55368 -7.34292 1.25291
# Velocity P-wave (km/s) = 10.13708 5.99817 5.77851
#
# Compressibility (1/GPa) = 0.01964247
#
# Stress axis : x y z
#
# Youngs Moduli (GPa) = 132.64537 59.62360 159.99533
#
# Poissons Ratio (x) = 0.05567 0.33840
# Poissons Ratio (y) = 0.12386 0.38566
# Poissons Ratio (z) = 0.28055 0.14372
#
# Static dielectric constant tensor:
#      x y z
#    x 1.664510 0.000000 0.000000 
#    y 0.000000 1.650730 0.000000 
#    z 0.000000 0.000000 1.692770 
# 
# From -- ./inp_files/19900.got.cif
#   From: 2010.05.17/outbox.cif.g08.bks.cpg/sg58_10_cif.got.tgz:19900.got - 2010.06.03 14:20:14.
