data_PCOD9442172
_publ_section_title
;
Structure prediction by ZEFSAII (Michael W. Deem and Ramdas Pophale) SiO2 
 PCOD9442172
Probable space group: P N N M
;
_chemical_formula_sum "Si O2"
_cell_formula_units_Z 64
_cell_length_a 25.063536
_cell_length_b 15.383803
_cell_length_c 7.542142
_cell_angle_alpha 90.000000
_cell_angle_beta 90.000000
_cell_angle_gamma 90.000000
_cell_volume 2908.042549
_symmetry_space_group_name_H-M "P N N M"
_symmetry_group_IT_number 58
_symmetry_cell_setting 'orthorhombic'
loop_
_space_group_symop_operation_xyz
x,y,z
-x,-y,z
1/2+x,1/2-y,1/2-z
1/2-x,1/2+y,1/2-z
-x,-y,-z
x,y,-z
1/2-x,1/2+y,1/2+z
1/2+x,1/2-y,1/2+z
loop_
_atom_site_type_symbol
_atom_site_label
_atom_site_fract_x
_atom_site_fract_y
_atom_site_fract_z
Si Si1 0.744909 0.622656 0.795367
Si Si2 0.515404 0.594730 0.209047
Si Si3 0.550827 0.244854 0.204160
Si Si4 0.763930 0.320037 0.716355
Si Si5 0.166925 0.520847 0.708252
Si Si6 0.370439 0.450118 0.287327
Si Si7 0.355887 0.641250 0.286702
Si Si8 0.553620 0.050324 0.217700
O O1 0.737482 0.720211 0.719973
O O2 0.789510 0.557120 0.720727
O O3 0.686586 0.580120 0.781683
O O4 0.760394 0.633632 0.000000
O O5 0.500000 0.500000 0.286007
O O6 0.483845 0.676940 0.285836
O O7 0.578800 0.605199 0.229304
O O8 0.502221 0.591428 0.000000
O O9 0.611232 0.279416 0.209260
O O10 0.548784 0.149373 0.282042
O O11 0.532976 0.236292 0.000000
O O12 0.768332 0.317401 0.500000
O O13 0.807648 0.389503 0.781340
O O14 0.705932 0.357968 0.760497
O O15 0.158800 0.536957 0.500000
O O16 0.109374 0.491801 0.779850
O O17 0.367381 0.449754 0.500000
O O18 0.380119 0.549443 0.227913
O O19 0.359533 0.647130 0.500000
O O20 0.500000 0.000000 0.267168
O O21 0.556025 0.051857 0.000000
#
# Coordination Sequence:
#
# PCOD9442172 Si02
#       8
#     8   8   8   8   8   8   8   8
#     4  11  22  36  57  85 116 148 186 231 283 341
#     4  10  20  34  52  78 115 149 181 227 280 335
#     4  10  20  34  55  83 111 143 187 234 281 328
#     4   9  19  35  55  80 110 150 189 224 280 341
#     4  10  19  37  61  83 113 149 191 238 282 337
#     4  11  22  36  56  80 112 150 187 228 278 337
#     4  10  19  34  55  78 109 146 185 225 273 337
#     4   9  19  35  58  86 110 142 191 240 278 323
#
# _framework density 22.007930000000002
#
# number of rings (size 3 to 8) (size 9 to 14) (size 15 to 20)
#    0.000    2.000    2.500    1.500    0.000    2.250 
#    0.000    5.625    0.000    1.500    0.000    0.000 
#    0.000    0.000    0.000    0.000    0.000    0.000 
#
# Total GULP energy -357379.379576 kJ/mol
# GULP energy per Si atom -5584.052806 kJ/mol
# Density = 2.195784 g / cm^3
# Si number density = 22.007930 Si / 1000 Ang^3
#
#
#
# Elastic Constant Matrix: (Units=GPa)
#
#
# Indices 1 2 3 4 5 6 
#
# 1 142.6106 62.2745 -12.4790 0.0000 0.0000 0.0000
# 2 62.2745 140.2540 -1.0955 0.0000 0.0000 0.0000
# 3 -12.4790 -1.0955 52.6519 0.0000 0.0000 0.0000
# 4 0.0000 0.0000 0.0000 10.6155 0.0000 0.0000
# 5 0.0000 0.0000 0.0000 0.0000 10.4199 0.0000
# 6 0.0000 0.0000 0.0000 0.0000 0.0000 29.3723
#
#
#
# Elastic Compliance Matrix: (Units=1/GPa)
#
#
# Indices 1 2 3 4 5 6 
#
# 1 0.008910 -0.003940 0.002030 0.000000 0.000000 0.000000
# 2 -0.003940 0.008874 -0.000749 0.000000 0.000000 0.000000
# 3 0.002030 -0.000749 0.019458 0.000000 0.000000 0.000000
# 4 0.000000 0.000000 0.000000 0.094202 0.000000 0.000000
# 5 0.000000 0.000000 0.000000 0.000000 0.095971 0.000000
# 6 0.000000 0.000000 0.000000 0.000000 0.000000 0.034046
#
#
# Mechanical properties :
#
#
# Convention : Reuss Voigt Hill
#
# Bulk Modulus (GPa) = 31.32588 48.10182 39.71385
# Shear Modulus (GPa) = 18.02312 29.20264 23.61288
#
# Velocity S-wave (km/s) = 2.86481 3.64664 3.27911
# Velocity P-wave (km/s) = 5.02072 6.29560 5.69396
#
# Compressibility (1/GPa) = 0.03192248
#
# Stress axis : x y z
#
# Youngs Moduli (GPa) = 112.22803 112.69271 51.39224
#
# Poissons Ratio (x) = 0.44406 -0.10432
# Poissons Ratio (y) = 0.44223 0.03851
# Poissons Ratio (z) = -0.22781 0.08444
#
# Static dielectric constant tensor:
#      x y z
#    x 1.773200 0.000000 0.000000 
#    y 0.000000 1.825580 0.000000 
#    z 0.000000 0.000000 1.824190 
# 
# From -- ./inp_files/6783.got.cif
#   From: 2010.05.17/outbox.cif.g08.bks.cpg/sg58_4_cif.got.tgz:6783.got - 2010.06.03 14:20:14.
