data_PCOD9442485
_publ_section_title
;
Structure prediction by ZEFSAII (Michael W. Deem and Ramdas Pophale) SiO2 
 PCOD9442485
Probable space group: P N N M
;
_chemical_formula_sum "Si O2"
_cell_formula_units_Z 40
_cell_length_a 13.962405
_cell_length_b 13.544079
_cell_length_c 10.086980
_cell_angle_alpha 90.000000
_cell_angle_beta 90.000000
_cell_angle_gamma 90.000000
_cell_volume 1907.527770
_symmetry_space_group_name_H-M "P N N M"
_symmetry_group_IT_number 58
_symmetry_cell_setting 'orthorhombic'
loop_
_space_group_symop_operation_xyz
x,y,z
-x,-y,z
1/2+x,1/2-y,1/2-z
1/2-x,1/2+y,1/2-z
-x,-y,-z
x,y,-z
1/2-x,1/2+y,1/2+z
1/2+x,1/2-y,1/2+z
loop_
_atom_site_type_symbol
_atom_site_label
_atom_site_fract_x
_atom_site_fract_y
_atom_site_fract_z
Si Si1 0.998957 0.339569 0.730946
Si Si2 0.367554 0.663386 0.845546
Si Si3 0.831058 0.232016 0.151759
Si Si4 0.629419 0.010279 0.144842
Si Si5 0.645625 0.512321 0.655471
O O1 0.051251 0.246745 0.666626
O O2 0.084831 0.417679 0.755712
O O3 0.925140 0.299677 0.839687
O O4 0.927806 0.408415 0.646299
O O5 0.265835 0.713816 0.799218
O O6 0.395205 0.572071 0.750682
O O7 0.356110 0.633639 0.000000
O O8 0.860379 0.124874 0.208107
O O9 0.807048 0.208861 0.000000
O O10 0.740471 0.993393 0.159386
O O11 0.615597 0.058884 0.000000
O O12 0.614337 0.504652 0.500000
#
# Coordination Sequence:
#
# PCOD9442485 Si02
#       5
#     8   8   8   8   8
#     4  11  20  35  62  91 117 156 207 249 304 360
#     4  11  22  40  62  91 127 160 197 258 316 358
#     4  10  22  40  61  87 126 165 200 249 315 369
#     4  10  19  35  62  93 115 149 208 262 300 354
#     4  10  21  41  65  89 121 165 208 249 301 376
#
# _framework density 20.969550000000002
#
# number of rings (size 3 to 8) (size 9 to 14) (size 15 to 20)
#    0.000    1.600    4.000    2.400    0.000    1.600 
#    0.000   10.000    0.000    0.000    0.000    0.000 
#    0.000    0.000    0.000    0.000    0.000    0.000 
#
# Total GULP energy -222709.544560 kJ/mol
# GULP energy per Si atom -5567.738614 kJ/mol
# Density = 2.092182 g / cm^3
# Si number density = 20.969550 Si / 1000 Ang^3
#
#
#
# Elastic Constant Matrix: (Units=GPa)
#
#
# Indices 1 2 3 4 5 6 
#
# 1 75.0914 12.4003 6.3997 0.0000 0.0000 0.0000
# 2 12.4003 120.4503 43.5512 0.0000 0.0000 0.0000
# 3 6.3997 43.5512 44.6320 0.0000 0.0000 0.0000
# 4 0.0000 0.0000 0.0000 23.5613 0.0000 0.0000
# 5 0.0000 0.0000 0.0000 0.0000 -38.7467 0.0000
# 6 0.0000 0.0000 0.0000 0.0000 0.0000 38.2848
#
#
#
# Elastic Compliance Matrix: (Units=1/GPa)
#
#
# Indices 1 2 3 4 5 6 
#
# 1 0.013571 -0.001072 -0.000900 0.000000 0.000000 0.000000
# 2 -0.001072 0.012913 -0.012446 0.000000 0.000000 0.000000
# 3 -0.000900 -0.012446 0.034679 0.000000 0.000000 0.000000
# 4 0.000000 0.000000 0.000000 0.042443 0.000000 0.000000
# 5 0.000000 0.000000 0.000000 0.000000 -0.025809 0.000000
# 6 0.000000 0.000000 0.000000 0.000000 0.000000 0.026120
#
#
# Mechanical properties :
#
#
# Convention : Reuss Voigt Hill
#
# Bulk Modulus (GPa) = 30.93433 40.54181 35.73807
# Shear Modulus (GPa) = 34.83620 16.47471 25.65546
#
# Velocity S-wave (km/s) = 4.08030 2.80598 3.50160
# Velocity P-wave (km/s) = 6.08132 5.46568 5.78170
#
# Compressibility (1/GPa) = 0.03232655
#
# Stress axis : x y z
#
# Youngs Moduli (GPa) = 73.68769 77.44295 28.83550
#
# Poissons Ratio (x) = 0.08299 0.02596
# Poissons Ratio (y) = 0.07896 0.35890
# Poissons Ratio (z) = 0.06634 0.96388
#
# Static dielectric constant tensor:
#      x y z
#    x 1.796830 0.000000 0.000000 
#    y 0.000000 1.797280 0.000000 
#    z 0.000000 0.000000 1.757020 
# 
# From -- ./inp_files/14110.got.cif
#   From: 2010.05.17/outbox.cif.g08.bks.cpg/sg58_8_cif.got.tgz:14110.got - 2010.06.03 14:20:14.
