data_PCOD9442271
_publ_section_title
;
Structure prediction by ZEFSAII (Michael W. Deem and Ramdas Pophale) SiO2 
 PCOD9442271
Probable space group: P N N M
;
_chemical_formula_sum "Si O2"
_cell_formula_units_Z 48
_cell_length_a 10.300954
_cell_length_b 30.075568
_cell_length_c 7.858626
_cell_angle_alpha 90.000000
_cell_angle_beta 90.000000
_cell_angle_gamma 90.000000
_cell_volume 2434.657679
_symmetry_space_group_name_H-M "P N N M"
_symmetry_group_IT_number 58
_symmetry_cell_setting 'orthorhombic'
loop_
_space_group_symop_operation_xyz
x,y,z
-x,-y,z
1/2+x,1/2-y,1/2-z
1/2-x,1/2+y,1/2-z
-x,-y,-z
x,y,-z
1/2-x,1/2+y,1/2+z
1/2+x,1/2-y,1/2+z
loop_
_atom_site_type_symbol
_atom_site_label
_atom_site_fract_x
_atom_site_fract_y
_atom_site_fract_z
Si Si1 0.237343 0.282699 0.705648
Si Si2 0.541329 0.891664 0.199923
Si Si3 0.138498 0.518368 0.802548
Si Si4 0.244551 0.883025 0.791480
Si Si5 0.889745 0.030979 0.803222
Si Si6 0.560455 0.791052 0.296913
O O1 0.241707 0.282816 0.500000
O O2 0.279390 0.332304 0.762060
O O3 0.334395 0.244521 0.767346
O O4 0.087132 0.276754 0.755636
O O5 0.629548 0.928501 0.287633
O O6 0.391753 0.895092 0.262047
O O7 0.580645 0.840568 0.225596
O O8 0.542318 0.901629 0.000000
O O9 0.256685 0.496730 0.703433
O O10 0.000000 0.500000 0.739453
O O11 0.152342 0.505488 0.000000
O O12 0.145166 0.920568 0.730187
O O13 0.244877 0.883869 0.000000
O O14 0.928276 0.038800 0.000000
O O15 0.000000 0.000000 0.722334
O O16 0.572188 0.793933 0.500000
#
# Coordination Sequence:
#
# PCOD9442271 Si02
#       6
#     8   8   8   8   8   8
#     4   9  19  36  56  78 108 146 181 221 272 327
#     4  10  19  34  58  81 106 142 185 228 272 324
#     4  11  22  35  55  82 112 143 179 223 271 323
#     4   8  15  31  54  76 102 139 180 218 261 317
#     4  10  20  35  55  80 110 145 184 224 268 323
#     4  10  20  35  56  82 114 143 180 231 276 322
#
# _framework density 19.715295999999999
#
# number of rings (size 3 to 8) (size 9 to 14) (size 15 to 20)
#    0.000    2.333    1.667    2.500    0.000    2.333 
#    3.000    0.000    0.000    0.000    0.000    0.000 
#    0.000    0.000    0.000    0.000    0.000    0.000 
#
# Total GULP energy -267818.669887 kJ/mol
# GULP energy per Si atom -5579.555623 kJ/mol
# Density = 1.967042 g / cm^3
# Si number density = 19.715296 Si / 1000 Ang^3
#
#
#
# Elastic Constant Matrix: (Units=GPa)
#
#
# Indices 1 2 3 4 5 6 
#
# 1 48.9204 32.6142 -8.3839 0.0000 0.0000 0.0000
# 2 32.6142 98.2640 -8.3244 0.0000 0.0000 0.0000
# 3 -8.3839 -8.3244 30.9885 0.0000 0.0000 0.0000
# 4 0.0000 0.0000 0.0000 -73.9959 0.0000 0.0000
# 5 0.0000 0.0000 0.0000 0.0000 15.3607 0.0000
# 6 0.0000 0.0000 0.0000 0.0000 0.0000 38.7846
#
#
#
# Elastic Compliance Matrix: (Units=1/GPa)
#
#
# Indices 1 2 3 4 5 6 
#
# 1 0.026989 -0.008533 0.005009 0.000000 0.000000 0.000000
# 2 -0.008533 0.013112 0.001214 0.000000 0.000000 0.000000
# 3 0.005009 0.001214 0.033951 0.000000 0.000000 0.000000
# 4 0.000000 0.000000 0.000000 -0.013514 0.000000 0.000000
# 5 0.000000 0.000000 0.000000 0.000000 0.065101 0.000000
# 6 0.000000 0.000000 0.000000 0.000000 0.000000 0.025783
#
#
# Mechanical properties :
#
#
# Convention : Reuss Voigt Hill
#
# Bulk Modulus (GPa) = 14.40273 23.33162 18.86718
# Shear Modulus (GPa) = 27.90388 6.84768 17.37578
#
# Velocity S-wave (km/s) = 3.76618 1.86570 2.97195
# Velocity P-wave (km/s) = 5.12186 4.06215 4.62247
#
# Compressibility (1/GPa) = 0.06943127
#
# Stress axis : x y z
#
# Youngs Moduli (GPa) = 37.05235 76.26778 29.45393
#
# Poissons Ratio (x) = 0.65082 -0.14755
# Poissons Ratio (y) = 0.31618 -0.03574
# Poissons Ratio (z) = -0.18561 -0.09255
#
# Static dielectric constant tensor:
#      x y z
#    x 1.668200 0.000000 0.000000 
#    y 0.000000 1.717030 0.000000 
#    z 0.000000 0.000000 1.720120 
# 
# From -- ./inp_files/2918.got.cif
#   From: 2010.05.17/outbox.cif.g08.bks.cpg/sg58_2_cif.got.tgz:2918.got - 2010.06.03 14:20:14.
