data_PCOD9442144
_publ_section_title
;
Structure prediction by ZEFSAII (Michael W. Deem and Ramdas Pophale) SiO2 
 PCOD9442144
Probable space group: P N N M
;
_chemical_formula_sum "Si O2"
_cell_formula_units_Z 56
_cell_length_a 12.510290
_cell_length_b 14.779645
_cell_length_c 15.054496
_cell_angle_alpha 90.000000
_cell_angle_beta 90.000000
_cell_angle_gamma 90.000000
_cell_volume 2783.540858
_symmetry_space_group_name_H-M "P N N M"
_symmetry_group_IT_number 58
_symmetry_cell_setting 'orthorhombic'
loop_
_space_group_symop_operation_xyz
x,y,z
-x,-y,z
1/2+x,1/2-y,1/2-z
1/2-x,1/2+y,1/2-z
-x,-y,-z
x,y,-z
1/2-x,1/2+y,1/2+z
1/2+x,1/2-y,1/2+z
loop_
_atom_site_type_symbol
_atom_site_label
_atom_site_fract_x
_atom_site_fract_y
_atom_site_fract_z
Si Si1 0.755549 0.776949 0.099983
Si Si2 0.214600 0.517656 0.595009
Si Si3 0.932078 0.090805 0.097513
Si Si4 0.314757 0.984835 0.713762
Si Si5 0.551182 0.143792 0.398820
Si Si6 0.327245 0.313130 0.736906
Si Si7 0.797255 0.337228 0.105132
O O1 0.770348 0.884221 0.099927
O O2 0.867594 0.726843 0.118210
O O3 0.670933 0.748794 0.175409
O O4 0.721194 0.750725 0.000000
O O5 0.156829 0.512482 0.500000
O O6 0.309037 0.443678 0.593554
O O7 0.151823 0.510464 0.686411
O O8 0.932184 0.153926 0.183650
O O9 0.957731 0.132283 0.000000
O O10 0.000000 0.000000 0.107319
O O11 0.409776 0.936815 0.662532
O O12 0.228204 0.904753 0.727504
O O13 0.269827 0.070073 0.657888
O O14 0.570343 0.114803 0.500000
O O15 0.426752 0.164016 0.390373
O O16 0.264875 0.250894 0.663402
O O17 0.767212 0.335506 0.000000
#
# Coordination Sequence:
#
# PCOD9442144 Si02
#       7
#     8   8   8   8   8   8   8
#     4   9  17  32  52  74 100 137 178 212 254 314
#     4   9  17  30  49  71 100 138 177 212 253 309
#     4   9  18  30  48  76 108 133 162 213 274 322
#     4  10  19  34  52  76 112 144 179 219 270 330
#     4   9  19  32  53  82 111 135 166 220 281 331
#     4  10  20  33  51  78 109 145 180 213 264 330
#     4  11  21  34  56  86 114 139 175 227 285 331
#
# _framework density 20.118259999999999
#
# number of rings (size 3 to 8) (size 9 to 14) (size 15 to 20)
#    0.000    2.429    1.429    1.286    2.000    2.286 
#    0.000    0.000    0.000    3.000    0.000    8.000 
#    0.000    0.000    0.000    0.000    0.000    0.000 
#
# Total GULP energy -311816.572039 kJ/mol
# GULP energy per Si atom -5568.153072 kJ/mol
# Density = 2.007247 g / cm^3
# Si number density = 20.118260 Si / 1000 Ang^3
#
#
#
# Elastic Constant Matrix: (Units=GPa)
#
#
# Indices 1 2 3 4 5 6 
#
# 1 21.4863 4.1410 22.6758 0.0000 0.0000 0.0000
# 2 4.1410 97.7902 48.2156 0.0000 0.0000 0.0000
# 3 22.6758 48.2156 131.4745 0.0000 0.0000 0.0000
# 4 0.0000 0.0000 0.0000 31.5446 0.0000 0.0000
# 5 0.0000 0.0000 0.0000 0.0000 15.5865 0.0000
# 6 0.0000 0.0000 0.0000 0.0000 0.0000 25.8013
#
#
#
# Elastic Compliance Matrix: (Units=1/GPa)
#
#
# Indices 1 2 3 4 5 6 
#
# 1 0.057611 0.003002 -0.011037 0.000000 0.000000 0.000000
# 2 0.003002 0.012640 -0.005153 0.000000 0.000000 0.000000
# 3 -0.011037 -0.005153 0.011399 0.000000 0.000000 0.000000
# 4 0.000000 0.000000 0.000000 0.031701 0.000000 0.000000
# 5 0.000000 0.000000 0.000000 0.000000 0.064158 0.000000
# 6 0.000000 0.000000 0.000000 0.000000 0.000000 0.038758
#
#
# Mechanical properties :
#
#
# Convention : Reuss Voigt Hill
#
# Bulk Modulus (GPa) = 18.09172 44.53507 31.31340
# Shear Modulus (GPa) = 19.15209 26.30106 22.72657
#
# Velocity S-wave (km/s) = 3.08876 3.61961 3.36467
# Velocity P-wave (km/s) = 4.66184 6.29710 5.54014
#
# Compressibility (1/GPa) = 0.05527391
#
# Stress axis : x y z
#
# Youngs Moduli (GPa) = 17.35777 79.11642 87.72316
#
# Poissons Ratio (x) = -0.23754 0.96824
# Poissons Ratio (y) = -0.05212 0.45205
# Poissons Ratio (z) = 0.19158 0.40770
#
# Static dielectric constant tensor:
#      x y z
#    x 1.713510 0.000000 0.000000 
#    y 0.000000 1.769740 0.000000 
#    z 0.000000 0.000000 1.784920 
# 
# From -- ./inp_files/22331.got.cif
#   From: 2010.05.17/outbox.cif.g08.bks.cpg/sg58_12_cif.got.tgz:22331.got - 2010.06.03 14:20:14.
