data_PCOD9442980
_publ_section_title
;
Structure prediction by ZEFSAII (Michael W. Deem and Ramdas Pophale) SiO2 
 PCOD9442980
Probable space group: P N N M
;
_chemical_formula_sum "Si O2"
_cell_formula_units_Z 64
_cell_length_a 20.773068
_cell_length_b 18.921572
_cell_length_c 7.931501
_cell_angle_alpha 90.000000
_cell_angle_beta 90.000000
_cell_angle_gamma 90.000000
_cell_volume 3117.548659
_symmetry_space_group_name_H-M "P N N M"
_symmetry_group_IT_number 58
_symmetry_cell_setting 'orthorhombic'
loop_
_space_group_symop_operation_xyz
x,y,z
-x,-y,z
1/2+x,1/2-y,1/2-z
1/2-x,1/2+y,1/2-z
-x,-y,-z
x,y,-z
1/2-x,1/2+y,1/2+z
1/2+x,1/2-y,1/2+z
loop_
_atom_site_type_symbol
_atom_site_label
_atom_site_fract_x
_atom_site_fract_y
_atom_site_fract_z
Si Si1 0.050823 0.056440 0.198468
Si Si2 0.342235 0.306255 0.797724
Si Si3 0.698579 0.210582 0.798606
Si Si4 0.450554 0.200311 0.201532
Si Si5 0.686745 0.049172 0.796019
Si Si6 0.064363 0.540788 0.293373
Si Si7 0.571475 0.286941 0.299425
Si Si8 0.169353 0.966959 0.299241
O O1 0.051800 0.135760 0.270296
O O2 0.121035 0.022300 0.217829
O O3 0.035436 0.063281 0.000000
O O4 0.000000 0.000000 0.272554
O O5 0.271564 0.275824 0.758769
O O6 0.399098 0.257000 0.730627
O O7 0.345256 0.387156 0.734840
O O8 0.348095 0.310389 0.000000
O O9 0.681641 0.130818 0.737822
O O10 0.644389 0.265076 0.741142
O O11 0.698077 0.209475 0.000000
O O12 0.438403 0.121511 0.266066
O O13 0.522138 0.228292 0.233330
O O14 0.441525 0.197343 0.000000
O O15 0.755799 0.020435 0.738608
O O16 0.627494 0.001577 0.738009
O O17 0.686252 0.050061 0.000000
O O18 0.065033 0.541367 0.500000
O O19 0.000000 0.500000 0.241900
O O20 0.565243 0.289075 0.500000
O O21 0.159373 0.968865 0.500000
#
# Coordination Sequence:
#
# PCOD9442980 Si02
#       8
#     8   8   8   8   8   8   8   8
#     4  10  22  39  57  77 103 138 180 222 266 322
#     4   9  19  35  54  80 113 144 175 216 268 321
#     4  10  20  35  57  81 107 143 183 221 262 316
#     4  10  20  35  56  79 105 139 177 217 264 321
#     4   9  18  34  56  80 108 144 182 217 257 313
#     4   9  17  31  53  79 104 133 175 221 258 301
#     4  11  23  37  55  79 108 140 176 225 276 320
#     4  10  20  34  54  80 110 141 174 218 267 314
#
# _framework density 20.528950999999999
#
# number of rings (size 3 to 8) (size 9 to 14) (size 15 to 20)
#    0.000    2.250    0.000    2.625    0.000    5.750 
#    0.000    3.125    0.000    1.500    0.000    0.000 
#    0.000    0.000    0.000    0.000    0.000    0.000 
#
# Total GULP energy -357434.391560 kJ/mol
# GULP energy per Si atom -5584.912368 kJ/mol
# Density = 2.048223 g / cm^3
# Si number density = 20.528951 Si / 1000 Ang^3
#
#
#
# Elastic Constant Matrix: (Units=GPa)
#
#
# Indices 1 2 3 4 5 6 
#
# 1 45.8157 5.2023 -17.2366 0.0000 0.0000 0.0000
# 2 5.2023 34.0389 -6.4281 0.0000 0.0000 0.0000
# 3 -17.2366 -6.4281 13.3849 0.0000 0.0000 0.0000
# 4 0.0000 0.0000 0.0000 21.0660 0.0000 0.0000
# 5 0.0000 0.0000 0.0000 0.0000 143.2524 0.0000
# 6 0.0000 0.0000 0.0000 0.0000 0.0000 40.9154
#
#
#
# Elastic Compliance Matrix: (Units=1/GPa)
#
#
# Indices 1 2 3 4 5 6 
#
# 1 0.042894 0.004262 0.057284 0.000000 0.000000 0.000000
# 2 0.004262 0.032732 0.021208 0.000000 0.000000 0.000000
# 3 0.057284 0.021208 0.158665 0.000000 0.000000 0.000000
# 4 0.000000 0.000000 0.000000 0.047470 0.000000 0.000000
# 5 0.000000 0.000000 0.000000 0.000000 0.006981 0.000000
# 6 0.000000 0.000000 0.000000 0.000000 0.000000 0.024441
#
#
# Mechanical properties :
#
#
# Convention : Reuss Voigt Hill
#
# Bulk Modulus (GPa) = 2.50125 6.25719 4.37922
# Shear Modulus (GPa) = 17.79746 48.49357 33.14552
#
# Velocity S-wave (km/s) = 2.94759 4.86552 4.02254
# Velocity P-wave (km/s) = 3.57846 5.88379 4.86952
#
# Compressibility (1/GPa) = 0.39979953
#
# Stress axis : x y z
#
# Youngs Moduli (GPa) = 23.31346 30.55131 6.30259
#
# Poissons Ratio (x) = -0.13022 -0.36104
# Poissons Ratio (y) = -0.09937 -0.13367
# Poissons Ratio (z) = -1.33549 -0.64794
#
# Static dielectric constant tensor:
#      x y z
#    x 1.694030 0.000000 0.000000 
#    y 0.000000 1.739960 0.000000 
#    z 0.000000 0.000000 1.737900 
# 
# From -- ./inp_files/9289.got.cif
#   From: 2010.05.17/outbox.cif.g08.bks.cpg/sg58_5_cif.got.tgz:9289.got - 2010.06.03 14:20:14.
