data_PCOD9442437
_publ_section_title
;
Structure prediction by ZEFSAII (Michael W. Deem and Ramdas Pophale) SiO2 
 PCOD9442437
Probable space group: P N N M
;
_chemical_formula_sum "Si O2"
_cell_formula_units_Z 48
_cell_length_a 8.100904
_cell_length_b 11.358958
_cell_length_c 23.586863
_cell_angle_alpha 90.000000
_cell_angle_beta 90.000000
_cell_angle_gamma 90.000000
_cell_volume 2170.411910
_symmetry_space_group_name_H-M "P N N M"
_symmetry_group_IT_number 58
_symmetry_cell_setting 'orthorhombic'
loop_
_space_group_symop_operation_xyz
x,y,z
-x,-y,z
1/2+x,1/2-y,1/2-z
1/2-x,1/2+y,1/2-z
-x,-y,-z
x,y,-z
1/2-x,1/2+y,1/2+z
1/2+x,1/2-y,1/2+z
loop_
_atom_site_type_symbol
_atom_site_label
_atom_site_fract_x
_atom_site_fract_y
_atom_site_fract_z
Si Si1 0.508552 0.861039 0.175014
Si Si2 0.199569 0.798561 0.747356
Si Si3 0.234610 0.950003 0.353952
Si Si4 0.533422 0.370001 0.433987
Si Si5 0.109312 0.757086 0.433490
Si Si6 0.914502 0.316107 0.854909
O O1 0.367863 0.820804 0.218767
O O2 0.676585 0.811161 0.203879
O O3 0.492122 0.805467 0.112599
O O4 0.500000 0.000000 0.171480
O O5 0.159397 0.907351 0.705892
O O6 0.085291 0.766182 0.800097
O O7 0.144217 0.886596 0.406533
O O8 0.415600 0.889277 0.354118
O O9 0.267734 0.088547 0.355627
O O10 0.500000 0.500000 0.409111
O O11 0.495481 0.376897 0.500000
O O12 0.720953 0.320776 0.429031
O O13 0.418499 0.271001 0.407180
O O14 0.063088 0.760917 0.500000
#
# Coordination Sequence:
#
# PCOD9442437 Si02
#       6
#     8   8   8   8   8   8
#     4  11  24  41  63  93 129 170 216 266 326 394
#     4  11  21  38  60  88 126 166 206 266 319 384
#     4   9  19  37  58  87 123 161 211 261 315 384
#     4   9  19  36  58  91 128 166 216 268 319 386
#     4   9  20  39  63  90 125 169 216 267 325 388
#     4  10  19  35  59  86 121 163 211 261 317 378
#
# _framework density 22.115618999999999
#
# number of rings (size 3 to 8) (size 9 to 14) (size 15 to 20)
#    0.000    2.167    1.667    1.000    2.333    1.000 
#    3.000   11.667    0.000    1.000    0.000    0.000 
#    0.000    0.000    0.000    0.000    0.000    0.000 
#
# Total GULP energy -267732.550519 kJ/mol
# GULP energy per Si atom -5577.761469 kJ/mol
# Density = 2.206528 g / cm^3
# Si number density = 22.115619 Si / 1000 Ang^3
#
#
#
# Elastic Constant Matrix: (Units=GPa)
#
#
# Indices 1 2 3 4 5 6 
#
# 1 47.4676 38.8742 35.8458 0.0000 0.0000 0.0000
# 2 38.8742 128.1184 44.0218 0.0000 0.0000 0.0000
# 3 35.8458 44.0218 152.1704 0.0000 0.0000 0.0000
# 4 0.0000 0.0000 0.0000 17.2965 0.0000 0.0000
# 5 0.0000 0.0000 0.0000 0.0000 -2.3508 0.0000
# 6 0.0000 0.0000 0.0000 0.0000 0.0000 22.4933
#
#
#
# Elastic Compliance Matrix: (Units=1/GPa)
#
#
# Indices 1 2 3 4 5 6 
#
# 1 0.031268 -0.007724 -0.005131 0.000000 0.000000 0.000000
# 2 -0.007724 0.010575 -0.001240 0.000000 0.000000 0.000000
# 3 -0.005131 -0.001240 0.008139 0.000000 0.000000 0.000000
# 4 0.000000 0.000000 0.000000 0.057815 0.000000 0.000000
# 5 0.000000 0.000000 0.000000 0.000000 -0.425380 0.000000
# 6 0.000000 0.000000 0.000000 0.000000 0.000000 0.044458
#
#
# Mechanical properties :
#
#
# Convention : Reuss Voigt Hill
#
# Bulk Modulus (GPa) = 45.88931 62.80444 54.34688
# Shear Modulus (GPa) = -21.03745 21.42210 0.19233
#
# Velocity S-wave (km/s) = -3.08758 3.11568 0.29522
# Velocity P-wave (km/s) = 2.84323 6.43453 4.97429
#
# Compressibility (1/GPa) = 0.02179157
#
# Stress axis : x y z
#
# Youngs Moduli (GPa) = 31.98201 94.56276 122.86721
#
# Poissons Ratio (x) = 0.73043 0.63042
# Poissons Ratio (y) = 0.24704 0.15232
# Poissons Ratio (z) = 0.16410 0.11723
#
# Static dielectric constant tensor:
#      x y z
#    x 1.983480 0.000000 0.000000 
#    y 0.000000 1.804270 0.000000 
#    z 0.000000 0.000000 1.786390 
# 
# From -- ./inp_files/31443.got.cif
#   From: 2010.05.17/outbox.cif.g08.bks.cpg/sg58_16_cif.got.tgz:31443.got - 2010.06.03 14:20:14.
