data_PCOD9442588
_publ_section_title
;
Structure prediction by ZEFSAII (Michael W. Deem and Ramdas Pophale) SiO2 
 PCOD9442588
Probable space group: P N N M
;
_chemical_formula_sum "Si O2"
_cell_formula_units_Z 64
_cell_length_a 31.185458
_cell_length_b 12.322152
_cell_length_c 8.172779
_cell_angle_alpha 90.000000
_cell_angle_beta 90.000000
_cell_angle_gamma 90.000000
_cell_volume 3140.569753
_symmetry_space_group_name_H-M "P N N M"
_symmetry_group_IT_number 58
_symmetry_cell_setting 'orthorhombic'
loop_
_space_group_symop_operation_xyz
x,y,z
-x,-y,z
1/2+x,1/2-y,1/2-z
1/2-x,1/2+y,1/2-z
-x,-y,-z
x,y,-z
1/2-x,1/2+y,1/2+z
1/2+x,1/2-y,1/2+z
loop_
_atom_site_type_symbol
_atom_site_label
_atom_site_fract_x
_atom_site_fract_y
_atom_site_fract_z
Si Si1 0.044304 0.552647 0.301396
Si Si2 0.693385 0.487406 0.302220
Si Si3 0.950224 0.990285 0.699779
Si Si4 0.574118 0.724421 0.190009
Si Si5 0.289888 0.065606 0.805599
Si Si6 0.664838 0.727990 0.691740
Si Si7 0.870396 0.574214 0.192542
Si Si8 0.120309 0.178969 0.305065
O O1 0.043921 0.556211 0.500000
O O2 0.047310 0.676435 0.238448
O O3 0.086377 0.485370 0.252800
O O4 0.000000 0.500000 0.245693
O O5 0.691090 0.479865 0.500000
O O6 0.742720 0.471954 0.252722
O O7 0.679273 0.608678 0.255554
O O8 0.660961 0.398430 0.230943
O O9 0.948571 0.985676 0.500000
O O10 0.921833 0.887901 0.755020
O O11 0.929730 0.103617 0.759263
O O12 0.000000 0.000000 0.746080
O O13 0.623092 0.759988 0.206390
O O14 0.561679 0.714417 0.000000
O O15 0.300570 0.179307 0.720240
O O16 0.327892 0.980317 0.769096
O O17 0.288857 0.083117 0.000000
O O18 0.653415 0.724781 0.500000
O O19 0.873930 0.702244 0.229565
O O20 0.867089 0.556495 0.000000
O O21 0.116346 0.193629 0.500000
#
# Coordination Sequence:
#
# PCOD9442588 Si02
#       8
#     8   8   8   8   8   8   8   8
#     4  10  22  39  64  94 124 163 210 257 306 366
#     4  10  24  43  63  91 127 162 201 253 310 369
#     4   9  19  35  60  93 122 155 202 251 296 351
#     4  10  19  36  62  90 120 158 204 254 300 357
#     4  11  24  43  65  91 121 162 211 256 306 368
#     4  11  22  39  63  91 125 161 199 254 315 367
#     4  12  26  43  62  89 127 166 205 256 318 372
#     4  11  23  40  65  91 122 164 209 254 307 369
#
# _framework density 20.378468000000002
#
# number of rings (size 3 to 8) (size 9 to 14) (size 15 to 20)
#    0.000    1.500    2.500    2.250    3.500    1.750 
#    0.000    0.000    0.000    1.875    0.000    0.000 
#    0.000    0.000    0.000    0.000    0.000    0.000 
#
# Total GULP energy -357457.373267 kJ/mol
# GULP energy per Si atom -5585.271457 kJ/mol
# Density = 2.033209 g / cm^3
# Si number density = 20.378468 Si / 1000 Ang^3
#
#
#
# Elastic Constant Matrix: (Units=GPa)
#
#
# Indices 1 2 3 4 5 6 
#
# 1 88.0757 10.8532 -6.0867 0.0000 0.0000 0.0000
# 2 10.8532 98.1243 -1.9831 0.0000 0.0000 0.0000
# 3 -6.0867 -1.9831 17.5208 0.0000 0.0000 0.0000
# 4 0.0000 0.0000 0.0000 17.7485 0.0000 0.0000
# 5 0.0000 0.0000 0.0000 0.0000 15.5529 0.0000
# 6 0.0000 0.0000 0.0000 0.0000 0.0000 35.5523
#
#
#
# Elastic Compliance Matrix: (Units=1/GPa)
#
#
# Indices 1 2 3 4 5 6 
#
# 1 0.011778 -0.001223 0.003953 0.000000 0.000000 0.000000
# 2 -0.001223 0.010341 0.000746 0.000000 0.000000 0.000000
# 3 0.003953 0.000746 0.058533 0.000000 0.000000 0.000000
# 4 0.000000 0.000000 0.000000 0.056343 0.000000 0.000000
# 5 0.000000 0.000000 0.000000 0.000000 0.064297 0.000000
# 6 0.000000 0.000000 0.000000 0.000000 0.000000 0.028128
#
#
# Mechanical properties :
#
#
# Convention : Reuss Voigt Hill
#
# Bulk Modulus (GPa) = 11.41497 23.25416 17.33456
# Shear Modulus (GPa) = 19.86739 27.16655 23.51697
#
# Velocity S-wave (km/s) = 3.12576 3.65513 3.40076
# Velocity P-wave (km/s) = 4.31750 5.40825 4.89336
#
# Compressibility (1/GPa) = 0.08760427
#
# Stress axis : x y z
#
# Youngs Moduli (GPa) = 84.90591 96.69796 17.08441
#
# Poissons Ratio (x) = 0.11824 -0.06754
# Poissons Ratio (y) = 0.10382 -0.01274
# Poissons Ratio (z) = -0.33565 -0.07211
#
# Static dielectric constant tensor:
#      x y z
#    x 1.725160 0.000000 0.000000 
#    y 0.000000 1.725800 0.000000 
#    z 0.000000 0.000000 1.722740 
# 
# From -- ./inp_files/11076.got.cif
#   From: 2010.05.17/outbox.cif.g08.bks.cpg/sg58_6_cif.got.tgz:11076.got - 2010.06.03 14:20:14.
