data_PCOD9442310
_publ_section_title
;
Structure prediction by ZEFSAII (Michael W. Deem and Ramdas Pophale) SiO2 
 PCOD9442310
Probable space group: P N N M
;
_chemical_formula_sum "Si O2"
_cell_formula_units_Z 64
_cell_length_a 15.400347
_cell_length_b 25.786194
_cell_length_c 8.453192
_cell_angle_alpha 90.000000
_cell_angle_beta 90.000000
_cell_angle_gamma 90.000000
_cell_volume 3356.900630
_symmetry_space_group_name_H-M "P N N M"
_symmetry_group_IT_number 58
_symmetry_cell_setting 'orthorhombic'
loop_
_space_group_symop_operation_xyz
x,y,z
-x,-y,z
1/2+x,1/2-y,1/2-z
1/2-x,1/2+y,1/2-z
-x,-y,-z
x,y,-z
1/2-x,1/2+y,1/2+z
1/2+x,1/2-y,1/2+z
loop_
_atom_site_type_symbol
_atom_site_label
_atom_site_fract_x
_atom_site_fract_y
_atom_site_fract_z
Si Si1 0.778693 0.349620 0.308997
Si Si2 0.257686 0.265798 0.808917
Si Si3 0.952869 0.220108 0.187750
Si Si4 0.694888 0.559314 0.806656
Si Si5 0.161464 0.057118 0.309339
Si Si6 0.986346 0.110360 0.690918
Si Si7 0.848380 0.634424 0.191249
Si Si8 0.522877 0.832169 0.188681
O O1 0.774944 0.351509 0.500000
O O2 0.740929 0.293424 0.257843
O O3 0.726545 0.397749 0.241722
O O4 0.880318 0.349400 0.261276
O O5 0.354713 0.280193 0.754795
O O6 0.192399 0.310419 0.755495
O O7 0.257614 0.266127 0.000000
O O8 0.999572 0.168808 0.250463
O O9 0.992453 0.274626 0.242645
O O10 0.951033 0.218835 0.000000
O O11 0.689206 0.499853 0.753294
O O12 0.607496 0.589282 0.756064
O O13 0.781074 0.590013 0.757129
O O14 0.694590 0.559793 0.000000
O O15 0.159568 0.055106 0.500000
O O16 0.064794 0.073441 0.256398
O O17 0.985454 0.110894 0.500000
O O18 0.945531 0.631134 0.255085
O O19 0.851154 0.634399 0.000000
O O20 0.523444 0.828492 0.000000
#
# Coordination Sequence:
#
# PCOD9442310 Si02
#       8
#     8   8   8   8   8   8   8   8
#     4   9  20  38  56  76 111 151 183 227 286 334
#     4   9  18  35  56  79 111 150 182 220 283 340
#     4  11  21  33  53  83 115 147 186 227 274 329
#     4   9  18  36  59  83 114 147 185 229 281 335
#     4  10  21  35  58  86 108 144 195 236 270 328
#     4  10  19  35  56  81 115 152 184 223 279 335
#     4  10  19  34  59  86 112 147 185 231 286 332
#     4  10  22  39  57  79 112 151 190 232 284 340
#
# _framework density 19.065206
#
# number of rings (size 3 to 8) (size 9 to 14) (size 15 to 20)
#    0.000    2.250    1.250    2.625    1.750    5.000 
#    0.000    1.875    0.000    5.250    0.000    0.000 
#    0.000    0.000    0.000    0.000    0.000    0.000 
#
# Total GULP energy -357269.021308 kJ/mol
# GULP energy per Si atom -5582.328458 kJ/mol
# Density = 1.902181 g / cm^3
# Si number density = 19.065206 Si / 1000 Ang^3
#
#
#
# Elastic Constant Matrix: (Units=GPa)
#
#
# Indices 1 2 3 4 5 6 
#
# 1 22.9399 22.6666 13.2333 0.0000 0.0000 0.0000
# 2 22.6666 93.5111 20.0489 0.0000 0.0000 0.0000
# 3 13.2333 20.0489 -30.6200 0.0000 0.0000 0.0000
# 4 0.0000 0.0000 0.0000 21.2094 0.0000 0.0000
# 5 0.0000 0.0000 0.0000 0.0000 18.0300 0.0000
# 6 0.0000 0.0000 0.0000 0.0000 0.0000 21.3354
#
#
#
# Elastic Compliance Matrix: (Units=1/GPa)
#
#
# Indices 1 2 3 4 5 6 
#
# 1 0.051404 -0.015103 0.012327 0.000000 0.000000 0.000000
# 2 -0.015103 0.013815 0.002518 0.000000 0.000000 0.000000
# 3 0.012327 0.002518 -0.025682 0.000000 0.000000 0.000000
# 4 0.000000 0.000000 0.000000 0.047149 0.000000 0.000000
# 5 0.000000 0.000000 0.000000 0.000000 0.055463 0.000000
# 6 0.000000 0.000000 0.000000 0.000000 0.000000 0.046870
#
#
# Mechanical properties :
#
#
# Convention : Reuss Voigt Hill
#
# Bulk Modulus (GPa) = 25.62702 21.96986 23.79844
# Shear Modulus (GPa) = 24.68621 14.10711 19.39666
#
# Velocity S-wave (km/s) = 3.60228 2.72313 3.19311
# Velocity P-wave (km/s) = 5.54733 4.62988 5.10924
#
# Compressibility (1/GPa) = 0.03902132
#
# Stress axis : x y z
#
# Youngs Moduli (GPa) = 19.45367 72.38562 -38.93764
#
# Poissons Ratio (x) = 1.09324 0.47998
# Poissons Ratio (y) = 0.29381 0.09806
# Poissons Ratio (z) = -0.23980 -0.18229
#
# Static dielectric constant tensor:
#      x y z
#    x 1.661660 0.000000 0.000000 
#    y 0.000000 1.656630 0.000000 
#    z 0.000000 0.000000 1.655130 
# 
# From -- ./inp_files/6816.got.cif
#   From: 2010.05.17/outbox.cif.g08.bks.cpg/sg58_4_cif.got.tgz:6816.got - 2010.06.03 14:20:14.
