data_PCOD9442265
_publ_section_title
;
Structure prediction by ZEFSAII (Michael W. Deem and Ramdas Pophale) SiO2 
 PCOD9442265
Probable space group: P N N M
;
_chemical_formula_sum "Si O2"
_cell_formula_units_Z 48
_cell_length_a 12.645566
_cell_length_b 22.554888
_cell_length_c 7.680280
_cell_angle_alpha 90.000000
_cell_angle_beta 90.000000
_cell_angle_gamma 90.000000
_cell_volume 2190.564276
_symmetry_space_group_name_H-M "P N N M"
_symmetry_group_IT_number 58
_symmetry_cell_setting 'orthorhombic'
loop_
_space_group_symop_operation_xyz
x,y,z
-x,-y,z
1/2+x,1/2-y,1/2-z
1/2-x,1/2+y,1/2-z
-x,-y,-z
x,y,-z
1/2-x,1/2+y,1/2+z
1/2+x,1/2-y,1/2+z
loop_
_atom_site_type_symbol
_atom_site_label
_atom_site_fract_x
_atom_site_fract_y
_atom_site_fract_z
Si Si1 0.130902 0.175298 0.797579
Si Si2 0.082118 0.304146 0.209927
Si Si3 0.140782 0.645580 0.797011
Si Si4 0.490411 0.431533 0.713334
Si Si5 0.243287 0.899660 0.791197
Si Si6 0.879298 0.488781 0.288963
O O1 0.089931 0.237165 0.721136
O O2 0.257322 0.174915 0.787974
O O3 0.081114 0.114244 0.726787
O O4 0.099295 0.176004 0.000000
O O5 0.186048 0.342546 0.250497
O O6 0.974378 0.335620 0.273245
O O7 0.076476 0.302378 0.000000
O O8 0.153502 0.575333 0.775828
O O9 0.144102 0.661313 0.000000
O O10 0.500000 0.500000 0.771655
O O11 0.493948 0.434270 0.500000
O O12 0.377719 0.403721 0.767571
O O13 0.306206 0.957655 0.726868
O O14 0.239574 0.903805 0.000000
O O15 0.875500 0.487531 0.500000
O O16 0.000000 0.500000 0.235747
#
# Coordination Sequence:
#
# PCOD9442265 Si02
#       6
#     8   8   8   8   8   8
#     4  10  22  40  60  81 113 154 194 239 291 347
#     4  10  23  39  55  83 119 155 189 235 296 347
#     4  11  23  38  59  86 117 152 192 238 292 348
#     4   9  18  35  61  88 111 143 192 246 293 338
#     4  10  20  35  61  89 115 152 196 240 285 346
#     4  10  19  34  57  88 118 149 192 237 286 341
#
# _framework density 21.912163
#
# number of rings (size 3 to 8) (size 9 to 14) (size 15 to 20)
#    0.000    2.000    1.667    1.500    2.333    5.000 
#    0.000    0.833    0.000    2.000    0.000    0.000 
#    0.000    0.000    0.000    0.000    0.000    0.000 
#
# Total GULP energy -268111.729063 kJ/mol
# GULP energy per Si atom -5585.661022 kJ/mol
# Density = 2.186229 g / cm^3
# Si number density = 21.912163 Si / 1000 Ang^3
#
#
#
# Elastic Constant Matrix: (Units=GPa)
#
#
# Indices 1 2 3 4 5 6 
#
# 1 120.4302 53.7967 0.3583 0.0000 0.0000 0.0000
# 2 53.7967 152.3487 1.8084 0.0000 0.0000 0.0000
# 3 0.3583 1.8084 32.0273 0.0000 0.0000 0.0000
# 4 0.0000 0.0000 0.0000 -38.1845 0.0000 0.0000
# 5 0.0000 0.0000 0.0000 0.0000 9.5946 0.0000
# 6 0.0000 0.0000 0.0000 0.0000 0.0000 2.4790
#
#
#
# Elastic Compliance Matrix: (Units=1/GPa)
#
#
# Indices 1 2 3 4 5 6 
#
# 1 0.009859 -0.003482 0.000086 0.000000 0.000000 0.000000
# 2 -0.003482 0.007798 -0.000401 0.000000 0.000000 0.000000
# 3 0.000086 -0.000401 0.031245 0.000000 0.000000 0.000000
# 4 0.000000 0.000000 0.000000 -0.026189 0.000000 0.000000
# 5 0.000000 0.000000 0.000000 0.000000 0.104225 0.000000
# 6 0.000000 0.000000 0.000000 0.000000 0.000000 0.403381
#
#
# Mechanical properties :
#
#
# Convention : Reuss Voigt Hill
#
# Bulk Modulus (GPa) = 24.20869 46.30368 35.25618
# Shear Modulus (GPa) = 9.06317 11.36736 10.21527
#
# Velocity S-wave (km/s) = 2.03596 2.28012 2.16149
# Velocity P-wave (km/s) = 4.07417 5.30182 4.72801
#
# Compressibility (1/GPa) = 0.04130747
#
# Stress axis : x y z
#
# Youngs Moduli (GPa) = 101.43131 128.23264 32.00509
#
# Poissons Ratio (x) = 0.44655 -0.00276
# Poissons Ratio (y) = 0.35322 0.01285
# Poissons Ratio (z) = -0.00876 0.05147
#
# Static dielectric constant tensor:
#      x y z
#    x 1.789290 0.000000 0.000000 
#    y 0.000000 1.784920 0.000000 
#    z 0.000000 0.000000 1.834090 
# 
# From -- ./inp_files/4238.got.cif
#   From: 2010.05.17/outbox.cif.g08.bks.cpg/sg58_3_cif.got.tgz:4238.got - 2010.06.03 14:20:14.
