data_PCOD9442405
_publ_section_title
;
Structure prediction by ZEFSAII (Michael W. Deem and Ramdas Pophale) SiO2 
 PCOD9442405
Probable space group: P N N M
;
_chemical_formula_sum "Si O2"
_cell_formula_units_Z 56
_cell_length_a 15.360255
_cell_length_b 21.799086
_cell_length_c 7.870842
_cell_angle_alpha 90.000000
_cell_angle_beta 90.000000
_cell_angle_gamma 90.000000
_cell_volume 2635.468955
_symmetry_space_group_name_H-M "P N N M"
_symmetry_group_IT_number 58
_symmetry_cell_setting 'orthorhombic'
loop_
_space_group_symop_operation_xyz
x,y,z
-x,-y,z
1/2+x,1/2-y,1/2-z
1/2-x,1/2+y,1/2-z
-x,-y,-z
x,y,-z
1/2-x,1/2+y,1/2+z
1/2+x,1/2-y,1/2+z
loop_
_atom_site_type_symbol
_atom_site_label
_atom_site_fract_x
_atom_site_fract_y
_atom_site_fract_z
Si Si1 0.135707 0.513095 0.803004
Si Si2 0.720899 0.767841 0.698112
Si Si3 0.285350 0.600778 0.208668
Si Si4 0.902937 0.724432 0.800373
Si Si5 0.020827 0.404282 0.304368
Si Si6 0.057925 0.809659 0.794819
Si Si7 0.521232 0.431890 0.795858
O O1 0.224276 0.544009 0.741040
O O2 0.097801 0.454545 0.706887
O O3 0.061176 0.565312 0.789193
O O4 0.145483 0.495532 0.000000
O O5 0.699746 0.778033 0.500000
O O6 0.743332 0.835200 0.769887
O O7 0.810149 0.729966 0.711684
O O8 0.640906 0.728639 0.770449
O O9 0.384232 0.591158 0.266415
O O10 0.285361 0.602532 0.000000
O O11 0.947661 0.658952 0.774200
O O12 0.970342 0.775448 0.734352
O O13 0.888504 0.734723 0.000000
O O14 0.996821 0.394853 0.500000
O O15 0.050255 0.880555 0.746145
O O16 0.058709 0.806785 0.000000
O O17 0.500000 0.500000 0.731818
O O18 0.527022 0.435419 0.000000
#
# Coordination Sequence:
#
# PCOD9442405 Si02
#       7
#     8   8   8   8   8   8   8
#     4  10  19  35  58  82 113 156 198 239 289 351
#     4  10  20  37  60  85 116 154 193 239 300 356
#     4   9  18  35  59  84 115 155 194 238 295 354
#     4  11  22  38  59  85 115 151 195 242 290 353
#     4  11  22  36  54  83 119 153 191 242 299 350
#     4  10  22  39  60  87 119 154 196 247 304 359
#     4  10  21  38  61  87 116 154 199 243 292 354
#
# _framework density 21.24859
#
# number of rings (size 3 to 8) (size 9 to 14) (size 15 to 20)
#    0.000    1.857    1.429    3.857    0.000    4.857 
#    0.000    5.714    0.000    0.000    0.000    0.000 
#    0.000    0.000    0.000    0.000    0.000    0.000 
#
# Total GULP energy -312867.210556 kJ/mol
# GULP energy per Si atom -5586.914474 kJ/mol
# Density = 2.120023 g / cm^3
# Si number density = 21.248590 Si / 1000 Ang^3
#
#
#
# Elastic Constant Matrix: (Units=GPa)
#
#
# Indices 1 2 3 4 5 6 
#
# 1 97.4838 52.3945 0.8693 0.0000 0.0000 0.0000
# 2 52.3945 113.0654 -6.4866 0.0000 0.0000 0.0000
# 3 0.8693 -6.4866 32.2061 0.0000 0.0000 0.0000
# 4 0.0000 0.0000 0.0000 -61.7263 0.0000 0.0000
# 5 0.0000 0.0000 0.0000 0.0000 14.7453 0.0000
# 6 0.0000 0.0000 0.0000 0.0000 0.0000 26.3680
#
#
#
# Elastic Compliance Matrix: (Units=1/GPa)
#
#
# Indices 1 2 3 4 5 6 
#
# 1 0.013749 -0.006467 -0.001674 0.000000 0.000000 0.000000
# 2 -0.006467 0.011990 0.002589 0.000000 0.000000 0.000000
# 3 -0.001674 0.002589 0.031617 0.000000 0.000000 0.000000
# 4 0.000000 0.000000 0.000000 -0.016201 0.000000 0.000000
# 5 0.000000 0.000000 0.000000 0.000000 0.067818 0.000000
# 6 0.000000 0.000000 0.000000 0.000000 0.000000 0.037925
#
#
# Mechanical properties :
#
#
# Convention : Reuss Voigt Hill
#
# Bulk Modulus (GPa) = 21.62041 37.36774 29.49408
# Shear Modulus (GPa) = 28.83198 8.94262 18.88730
#
# Velocity S-wave (km/s) = 3.68759 2.05371 2.98463
# Velocity P-wave (km/s) = 5.32242 4.82159 5.07819
#
# Compressibility (1/GPa) = 0.04625258
#
# Stress axis : x y z
#
# Youngs Moduli (GPa) = 72.73253 83.40324 31.62886
#
# Poissons Ratio (x) = 0.53939 0.05294
# Poissons Ratio (y) = 0.47038 -0.08190
# Poissons Ratio (z) = 0.12173 -0.21597
#
# Static dielectric constant tensor:
#      x y z
#    x 1.760310 0.000000 0.000000 
#    y 0.000000 1.756060 0.000000 
#    z 0.000000 0.000000 1.771050 
# 
# From -- ./inp_files/6255.got.cif
#   From: 2010.05.17/outbox.cif.g08.bks.cpg/sg58_4_cif.got.tgz:6255.got - 2010.06.03 14:20:14.
