data_PCOD9442718
_publ_section_title
;
Structure prediction by ZEFSAII (Michael W. Deem and Ramdas Pophale) SiO2 
 PCOD9442718
Probable space group: P N N M
;
_chemical_formula_sum "Si O2"
_cell_formula_units_Z 48
_cell_length_a 13.691995
_cell_length_b 8.137408
_cell_length_c 18.730148
_cell_angle_alpha 90.000000
_cell_angle_beta 90.000000
_cell_angle_gamma 90.000000
_cell_volume 2086.863449
_symmetry_space_group_name_H-M "P N N M"
_symmetry_group_IT_number 58
_symmetry_cell_setting 'orthorhombic'
loop_
_space_group_symop_operation_xyz
x,y,z
-x,-y,z
1/2+x,1/2-y,1/2-z
1/2-x,1/2+y,1/2-z
-x,-y,-z
x,y,-z
1/2-x,1/2+y,1/2+z
1/2+x,1/2-y,1/2+z
loop_
_atom_site_type_symbol
_atom_site_label
_atom_site_fract_x
_atom_site_fract_y
_atom_site_fract_z
Si Si1 0.051817 0.818931 0.500000
Si Si2 0.830673 0.798341 0.659602
Si Si3 0.582151 0.385305 0.371793
Si Si4 0.765882 0.438578 0.284224
Si Si5 0.045177 0.683272 0.353285
Si Si6 0.345267 0.761135 0.000000
Si Si7 0.986027 0.312481 0.000000
Si Si8 0.327602 0.418230 0.500000
O O1 0.957540 0.701919 0.500000
O O2 0.093657 0.772557 0.422745
O O3 0.000000 0.000000 0.500000
O O4 0.784783 0.620870 0.683414
O O5 0.771270 0.933939 0.703120
O O6 0.820180 0.822542 0.574651
O O7 0.948563 0.785236 0.670652
O O8 0.500000 0.500000 0.334773
O O9 0.673435 0.346491 0.321744
O O10 0.533056 0.254491 0.425545
O O11 0.629695 0.501948 0.430893
O O12 0.867947 0.344511 0.296943
O O13 0.000000 0.500000 0.367286
O O14 0.286841 0.929708 0.000000
O O15 0.000000 0.500000 0.000000
O O16 0.872504 0.262739 0.000000
#
# Coordination Sequence:
#
# PCOD9442718 Si02
#       8
#     4   8   8   8   8   4   4   4
#     4  10  21  36  60  95 129 164 213 275 321 369
#     4  10  23  41  66  94 124 169 215 261 318 380
#     4   9  19  36  63  90 121 169 218 255 303 400
#     4  11  22  40  63  96 125 163 211 269 328 371
#     4   9  21  41  62  88 127 172 214 254 319 398
#     4  10  19  41  66  85 124 174 213 248 312 394
#     4   9  19  37  53  94 135 164 209 268 323 364
#     4   9  16  36  64  83 120 171 221 242 301 394
#
# _framework density 23.001026
#
# number of rings (size 3 to 8) (size 9 to 14) (size 15 to 20)
#    0.000    2.333    1.667    1.250    0.000    7.333 
#    6.000    1.667    0.000    1.000    0.000    0.000 
#    0.000    0.000    0.000    0.000    0.000    0.000 
#
# Total GULP energy -267352.567479 kJ/mol
# GULP energy per Si atom -5569.845156 kJ/mol
# Density = 2.294867 g / cm^3
# Si number density = 23.001026 Si / 1000 Ang^3
#
#
#
# Elastic Constant Matrix: (Units=GPa)
#
#
# Indices 1 2 3 4 5 6 
#
# 1 109.1803 20.5944 36.5437 0.0000 0.0000 0.0000
# 2 20.5944 59.3146 10.7760 0.0000 0.0000 0.0000
# 3 36.5437 10.7760 121.1684 0.0000 0.0000 0.0000
# 4 0.0000 0.0000 0.0000 40.5203 0.0000 0.0000
# 5 0.0000 0.0000 0.0000 0.0000 29.4571 0.0000
# 6 0.0000 0.0000 0.0000 0.0000 0.0000 15.9121
#
#
#
# Elastic Compliance Matrix: (Units=1/GPa)
#
#
# Indices 1 2 3 4 5 6 
#
# 1 0.010752 -0.003196 -0.002959 0.000000 0.000000 0.000000
# 2 -0.003196 0.018086 -0.000645 0.000000 0.000000 0.000000
# 3 -0.002959 -0.000645 0.009203 0.000000 0.000000 0.000000
# 4 0.000000 0.000000 0.000000 0.024679 0.000000 0.000000
# 5 0.000000 0.000000 0.000000 0.000000 0.033948 0.000000
# 6 0.000000 0.000000 0.000000 0.000000 0.000000 0.062845
#
#
# Mechanical properties :
#
#
# Convention : Reuss Voigt Hill
#
# Bulk Modulus (GPa) = 40.91179 47.27683 44.09431
# Shear Modulus (GPa) = 27.58497 31.96118 29.77307
#
# Velocity S-wave (km/s) = 3.46684 3.73172 3.60171
# Velocity P-wave (km/s) = 5.81815 6.25831 6.04224
#
# Compressibility (1/GPa) = 0.02444283
#
# Stress axis : x y z
#
# Youngs Moduli (GPa) = 93.00385 55.29151 108.66489
#
# Poissons Ratio (x) = 0.17670 0.32150
# Poissons Ratio (y) = 0.29722 0.07005
# Poissons Ratio (z) = 0.27516 0.03564
#
# Static dielectric constant tensor:
#      x y z
#    x 2.027740 0.000000 0.000000 
#    y 0.000000 1.914720 0.000000 
#    z 0.000000 0.000000 1.904580 
# 
# From -- ./inp_files/26852.got.cif
#   From: 2010.05.17/outbox.cif.g08.bks.cpg/sg58_14_cif.got.tgz:26852.got - 2010.06.03 14:20:14.
