data_PCOD9442447
_publ_section_title
;
Structure prediction by ZEFSAII (Michael W. Deem and Ramdas Pophale) SiO2 
 PCOD9442447
Probable space group: P N N M
;
_chemical_formula_sum "Si O2"
_cell_formula_units_Z 64
_cell_length_a 12.907142
_cell_length_b 27.661982
_cell_length_c 9.039128
_cell_angle_alpha 90.000000
_cell_angle_beta 90.000000
_cell_angle_gamma 90.000000
_cell_volume 3227.304316
_symmetry_space_group_name_H-M "P N N M"
_symmetry_group_IT_number 58
_symmetry_cell_setting 'orthorhombic'
loop_
_space_group_symop_operation_xyz
x,y,z
-x,-y,z
1/2+x,1/2-y,1/2-z
1/2-x,1/2+y,1/2-z
-x,-y,-z
x,y,-z
1/2-x,1/2+y,1/2+z
1/2+x,1/2-y,1/2+z
loop_
_atom_site_type_symbol
_atom_site_label
_atom_site_fract_x
_atom_site_fract_y
_atom_site_fract_z
Si Si1 0.559145 0.199588 0.827971
Si Si2 0.644453 0.823371 0.669395
Si Si3 0.121623 0.413095 0.327491
Si Si4 0.688455 0.459555 0.177189
Si Si5 0.153864 0.212348 0.825038
Si Si6 0.964579 0.882901 0.823259
Si Si7 0.085185 0.563125 0.170988
Si Si8 0.840633 0.068484 0.675628
O O1 0.456705 0.203660 0.728492
O O2 0.598412 0.144455 0.816233
O O3 0.638197 0.238763 0.765721
O O4 0.535790 0.208604 0.000000
O O5 0.669190 0.810538 0.500000
O O6 0.739133 0.811891 0.775706
O O7 0.617151 0.880183 0.673454
O O8 0.134805 0.425251 0.500000
O O9 0.226107 0.422419 0.237854
O O10 0.021081 0.440362 0.261294
O O11 0.624257 0.417818 0.256750
O O12 0.809291 0.462214 0.225228
O O13 0.637119 0.511635 0.201602
O O14 0.689756 0.449828 0.000000
O O15 0.066018 0.172419 0.789593
O O16 0.152537 0.221774 0.000000
O O17 0.073177 0.899227 0.754461
O O18 0.966598 0.888413 0.000000
O O19 0.066472 0.549431 0.000000
O O20 0.842791 0.076806 0.500000
#
# Coordination Sequence:
#
# PCOD9442447 Si02
#       8
#     8   8   8   8   8   8   8   8
#     4  10  22  39  60  86 117 154 195 244 299 356
#     4  10  19  35  60  85 113 151 191 239 295 349
#     4  10  22  40  60  85 120 156 196 246 300 355
#     4  10  21  39  62  90 119 155 202 247 293 353
#     4  11  23  38  59  88 118 152 196 244 295 357
#     4  11  24  40  60  87 121 156 197 249 301 354
#     4   9  18  35  61  87 115 151 194 241 289 347
#     4  11  24  40  61  86 120 163 203 244 295 356
#
# _framework density 19.830791999999999
#
# number of rings (size 3 to 8) (size 9 to 14) (size 15 to 20)
#    0.000    1.750    1.250    2.625    0.000    8.000 
#    0.000    3.750    0.000    0.000    0.000    0.000 
#    0.000    0.000    0.000    0.000    0.000    0.000 
#
# Total GULP energy -357660.076548 kJ/mol
# GULP energy per Si atom -5588.438696 kJ/mol
# Density = 1.978566 g / cm^3
# Si number density = 19.830792 Si / 1000 Ang^3
#
#
#
# Elastic Constant Matrix: (Units=GPa)
#
#
# Indices 1 2 3 4 5 6 
#
# 1 73.9390 4.4713 3.3606 0.0000 0.0000 0.0000
# 2 4.4713 32.5186 19.9147 0.0000 0.0000 0.0000
# 3 3.3606 19.9147 44.4625 0.0000 0.0000 0.0000
# 4 0.0000 0.0000 0.0000 23.3637 0.0000 0.0000
# 5 0.0000 0.0000 0.0000 0.0000 35.8436 0.0000
# 6 0.0000 0.0000 0.0000 0.0000 0.0000 23.3459
#
#
#
# Elastic Compliance Matrix: (Units=1/GPa)
#
#
# Indices 1 2 3 4 5 6 
#
# 1 0.013640 -0.001714 -0.000263 0.000000 0.000000 0.000000
# 2 -0.001714 0.042590 -0.018947 0.000000 0.000000 0.000000
# 3 -0.000263 -0.018947 0.030997 0.000000 0.000000 0.000000
# 4 0.000000 0.000000 0.000000 0.042801 0.000000 0.000000
# 5 0.000000 0.000000 0.000000 0.000000 0.027899 0.000000
# 6 0.000000 0.000000 0.000000 0.000000 0.000000 0.042834
#
#
# Mechanical properties :
#
#
# Convention : Reuss Voigt Hill
#
# Bulk Modulus (GPa) = 22.03644 22.93482 22.48563
# Shear Modulus (GPa) = 19.39963 24.72221 22.06092
#
# Velocity S-wave (km/s) = 3.13110 3.53463 3.33897
# Velocity P-wave (km/s) = 4.92017 5.31494 5.12136
#
# Compressibility (1/GPa) = 0.04537938
#
# Stress axis : x y z
#
# Youngs Moduli (GPa) = 73.31215 23.47943 32.26125
#
# Poissons Ratio (x) = 0.04025 0.00849
# Poissons Ratio (y) = 0.12569 0.61124
# Poissons Ratio (z) = 0.01929 0.44486
#
# Static dielectric constant tensor:
#      x y z
#    x 1.686290 0.000000 0.000000 
#    y 0.000000 1.707040 0.000000 
#    z 0.000000 0.000000 1.658530 
# 
# From -- ./inp_files/4713.got.cif
#   From: 2010.05.17/outbox.cif.g08.bks.cpg/sg58_3_cif.got.tgz:4713.got - 2010.06.03 14:20:14.
