data_PCOD9442799
_publ_section_title
;
Structure prediction by ZEFSAII (Michael W. Deem and Ramdas Pophale) SiO2 
 PCOD9442799
Probable space group: P N N M
;
_chemical_formula_sum "Si O2"
_cell_formula_units_Z 64
_cell_length_a 23.541645
_cell_length_b 19.501649
_cell_length_c 8.934813
_cell_angle_alpha 90.000000
_cell_angle_beta 90.000000
_cell_angle_gamma 90.000000
_cell_volume 4101.980669
_symmetry_space_group_name_H-M "P N N M"
_symmetry_group_IT_number 58
_symmetry_cell_setting 'orthorhombic'
loop_
_space_group_symop_operation_xyz
x,y,z
-x,-y,z
1/2+x,1/2-y,1/2-z
1/2-x,1/2+y,1/2-z
-x,-y,-z
x,y,-z
1/2-x,1/2+y,1/2+z
1/2+x,1/2-y,1/2+z
loop_
_atom_site_type_symbol
_atom_site_label
_atom_site_fract_x
_atom_site_fract_y
_atom_site_fract_z
Si Si1 0.558722 0.649254 0.177896
Si Si2 0.827002 0.786879 0.822185
Si Si3 0.271334 0.838342 0.178945
Si Si4 0.562435 0.373639 0.321636
Si Si5 0.878792 0.005093 0.321094
Si Si6 0.776949 0.369762 0.820943
Si Si7 0.253346 0.492789 0.320634
Si Si8 0.653309 0.738424 0.321365
O O1 0.498319 0.647982 0.258788
O O2 0.590996 0.577539 0.210990
O O3 0.599375 0.709660 0.235420
O O4 0.550778 0.653458 0.000000
O O5 0.815345 0.710446 0.763420
O O6 0.889247 0.816663 0.791453
O O7 0.780811 0.834858 0.740042
O O8 0.816917 0.790496 0.000000
O O9 0.208316 0.808934 0.213941
O O10 0.272323 0.918381 0.217041
O O11 0.278985 0.830389 0.000000
O O12 0.559629 0.384290 0.500000
O O13 0.583608 0.443428 0.243759
O O14 0.873066 0.997705 0.500000
O O15 0.816847 0.003439 0.246258
O O16 0.781336 0.443778 0.746384
O O17 0.826857 0.315663 0.785197
O O18 0.773127 0.375545 0.000000
O O19 0.256934 0.498402 0.500000
O O20 0.643836 0.733657 0.500000
#
# Coordination Sequence:
#
# PCOD9442799 Si02
#       8
#     8   8   8   8   8   8   8   8
#     4  11  23  35  50  73  99 133 175 214 250 292
#     4  10  20  33  50  73  98 129 170 210 249 298
#     4   9  19  33  51  73 100 132 165 204 254 302
#     4  11  23  36  51  71  98 137 175 210 251 297
#     4  11  22  34  48  71 102 135 173 212 247 290
#     4  10  20  33  51  74 101 133 165 206 256 299
#     4  11  20  32  51  76 103 135 170 203 248 305
#     4   9  18  34  51  70  98 132 167 204 250 300
#
# _framework density 15.602219
#
# number of rings (size 3 to 8) (size 9 to 14) (size 15 to 20)
#    0.000    1.750    2.500    3.375    0.000    8.000 
#    0.000    0.000    0.000    0.000    0.000    0.875 
#    0.000    7.000    0.000    0.000    0.000    0.000 
#
# Total GULP energy -357327.472896 kJ/mol
# GULP energy per Si atom -5583.241764 kJ/mol
# Density = 1.556671 g / cm^3
# Si number density = 15.602219 Si / 1000 Ang^3
#
#
#
# Elastic Constant Matrix: (Units=GPa)
#
#
# Indices 1 2 3 4 5 6 
#
# 1 52.5162 30.9390 33.7931 0.0000 0.0000 0.0000
# 2 30.9390 102.9399 42.7889 0.0000 0.0000 0.0000
# 3 33.7931 42.7889 50.0554 0.0000 0.0000 0.0000
# 4 0.0000 0.0000 0.0000 29.4497 0.0000 0.0000
# 5 0.0000 0.0000 0.0000 0.0000 24.1107 0.0000
# 6 0.0000 0.0000 0.0000 0.0000 0.0000 16.7633
#
#
#
# Elastic Compliance Matrix: (Units=1/GPa)
#
#
# Indices 1 2 3 4 5 6 
#
# 1 0.033740 -0.001043 -0.021886 0.000000 0.000000 0.000000
# 2 -0.001043 0.015101 -0.012205 0.000000 0.000000 0.000000
# 3 -0.021886 -0.012205 0.045187 0.000000 0.000000 0.000000
# 4 0.000000 0.000000 0.000000 0.033956 0.000000 0.000000
# 5 0.000000 0.000000 0.000000 0.000000 0.041475 0.000000
# 6 0.000000 0.000000 0.000000 0.000000 0.000000 0.059654
#
#
# Mechanical properties :
#
#
# Convention : Reuss Voigt Hill
#
# Bulk Modulus (GPa) = 42.08932 46.72814 44.40873
# Shear Modulus (GPa) = 16.27071 20.59745 18.43408
#
# Velocity S-wave (km/s) = 3.23282 3.63734 3.44103
# Velocity P-wave (km/s) = 6.40077 6.90326 6.65676
#
# Compressibility (1/GPa) = 0.02375900
#
# Stress axis : x y z
#
# Youngs Moduli (GPa) = 29.63863 66.22095 22.13050
#
# Poissons Ratio (x) = 0.06907 0.48436
# Poissons Ratio (y) = 0.03092 0.27009
# Poissons Ratio (z) = 0.64868 0.80820
#
# Static dielectric constant tensor:
#      x y z
#    x 1.488280 0.000000 0.000000 
#    y 0.000000 1.527760 0.000000 
#    z 0.000000 0.000000 1.519910 
# 
# From -- ./inp_files/9414.got.cif
#   From: 2010.05.17/outbox.cif.g08.bks.cpg/sg58_5_cif.got.tgz:9414.got - 2010.06.03 14:20:14.
