data_PCOD9442347
_publ_section_title
;
Structure prediction by ZEFSAII (Michael W. Deem and Ramdas Pophale) SiO2 
 PCOD9442347
Probable space group: P N N M
;
_chemical_formula_sum "Si O2"
_cell_formula_units_Z 58
_cell_length_a 16.857928
_cell_length_b 12.584458
_cell_length_c 14.479280
_cell_angle_alpha 90.000000
_cell_angle_beta 90.000000
_cell_angle_gamma 90.000000
_cell_volume 3071.748656
_symmetry_space_group_name_H-M "P N N M"
_symmetry_group_IT_number 58
_symmetry_cell_setting 'orthorhombic'
loop_
_space_group_symop_operation_xyz
x,y,z
-x,-y,z
1/2+x,1/2-y,1/2-z
1/2-x,1/2+y,1/2-z
-x,-y,-z
x,y,-z
1/2-x,1/2+y,1/2+z
1/2+x,1/2-y,1/2+z
loop_
_atom_site_type_symbol
_atom_site_label
_atom_site_fract_x
_atom_site_fract_y
_atom_site_fract_z
Si Si1 0.413227 0.160718 0.898570
Si Si2 0.248971 0.525325 0.395904
Si Si3 0.695200 0.171973 0.211666
Si Si4 0.350011 0.368099 0.817312
Si Si5 0.015787 0.840377 0.171487
Si Si6 0.521974 0.114560 0.721316
Si Si7 0.857804 0.902551 0.275068
Si Si8 0.000000 0.000000 0.000000
O O1 0.332180 0.093047 0.891765
O O2 0.388807 0.283983 0.886182
O O3 0.471387 0.129292 0.815915
O O4 0.448476 0.142370 0.000000
O O5 0.282524 0.532312 0.500000
O O6 0.226183 0.405086 0.368816
O O7 0.308461 0.568966 0.318191
O O8 0.761374 0.167124 0.291698
O O9 0.613787 0.123865 0.251425
O O10 0.677946 0.293635 0.185186
O O11 0.401247 0.356363 0.723305
O O12 0.352445 0.493247 0.838707
O O13 0.000409 0.715157 0.158671
O O14 0.947209 0.878974 0.242700
O O15 0.010464 0.909139 0.080835
O O16 0.500000 0.000000 0.682113
#
# Coordination Sequence:
#
# PCOD9442347 Si02
#       8
#     8   8   8   8   8   8   8   2
#     4  10  20  35  56  82 111 146 185 230 272 326
#     4  10  20  32  53  83 111 137 181 235 272 321
#     4  10  20  33  54  81 108 146 179 227 274 338
#     4  10  19  36  54  80 111 146 187 227 279 335
#     4  10  22  33  58  80 113 143 187 234 278 333
#     4  10  20  37  56  83 113 149 185 221 284 343
#     4  10  19  35  54  80 108 146 182 229 276 339
#     4  12  20  40  54  92 102 144 190 242 276 316
#
# _framework density 18.881753
#
# number of rings (size 3 to 8) (size 9 to 14) (size 15 to 20)
#    0.000    1.931    4.138    0.000    0.966    0.828 
#    0.000    1.034    0.000   10.759    3.586    0.000 
#    0.000    0.000    0.000    0.000    0.000    0.000 
#
# Total GULP energy -323152.727558 kJ/mol
# GULP energy per Si atom -5571.598751 kJ/mol
# Density = 1.883878 g / cm^3
# Si number density = 18.881753 Si / 1000 Ang^3
#
#
#
# Elastic Constant Matrix: (Units=GPa)
#
#
# Indices 1 2 3 4 5 6 
#
# 1 75.4650 13.4319 -1.0103 0.0000 0.0000 0.0000
# 2 13.4319 150.1281 17.4896 0.0000 0.0000 0.0000
# 3 -1.0103 17.4896 53.1585 0.0000 0.0000 0.0000
# 4 0.0000 0.0000 0.0000 13.3132 0.0000 0.0000
# 5 0.0000 0.0000 0.0000 0.0000 2.0745 0.0000
# 6 0.0000 0.0000 0.0000 0.0000 0.0000 24.5295
#
#
#
# Elastic Compliance Matrix: (Units=1/GPa)
#
#
# Indices 1 2 3 4 5 6 
#
# 1 0.013489 -0.001286 0.000679 0.000000 0.000000 0.000000
# 2 -0.001286 0.007049 -0.002344 0.000000 0.000000 0.000000
# 3 0.000679 -0.002344 0.019596 0.000000 0.000000 0.000000
# 4 0.000000 0.000000 0.000000 0.075113 0.000000 0.000000
# 5 0.000000 0.000000 0.000000 0.000000 0.482039 0.000000
# 6 0.000000 0.000000 0.000000 0.000000 0.000000 0.040767
#
#
# Mechanical properties :
#
#
# Convention : Reuss Voigt Hill
#
# Bulk Modulus (GPa) = 29.21115 37.61933 33.41524
# Shear Modulus (GPa) = 7.62934 24.57281 16.10108
#
# Velocity S-wave (km/s) = 2.01230 3.61141 2.92333
# Velocity P-wave (km/s) = 4.57201 6.11201 5.39722
#
# Compressibility (1/GPa) = 0.03423350
#
# Stress axis : x y z
#
# Youngs Moduli (GPa) = 74.13350 141.86274 51.03175
#
# Poissons Ratio (x) = 0.18244 -0.03467
# Poissons Ratio (y) = 0.09534 0.11960
# Poissons Ratio (z) = -0.05037 0.33247
#
# Static dielectric constant tensor:
#      x y z
#    x 1.668680 0.000000 0.000000 
#    y 0.000000 1.697750 0.000000 
#    z 0.000000 0.000000 1.606090 
# 
# From -- ./inp_files/21472.got.cif
#   From: 2010.05.17/outbox.cif.g08.bks.cpg/sg58_11_cif.got.tgz:21472.got - 2010.06.03 14:20:14.
