data_PCOD9442449
_publ_section_title
;
Structure prediction by ZEFSAII (Michael W. Deem and Ramdas Pophale) SiO2 
 PCOD9442449
Probable space group: P N N M
;
_chemical_formula_sum "Si O2"
_cell_formula_units_Z 48
_cell_length_a 12.134980
_cell_length_b 8.855899
_cell_length_c 23.207185
_cell_angle_alpha 90.000000
_cell_angle_beta 90.000000
_cell_angle_gamma 90.000000
_cell_volume 2493.986992
_symmetry_space_group_name_H-M "P N N M"
_symmetry_group_IT_number 58
_symmetry_cell_setting 'orthorhombic'
loop_
_space_group_symop_operation_xyz
x,y,z
-x,-y,z
1/2+x,1/2-y,1/2-z
1/2-x,1/2+y,1/2-z
-x,-y,-z
x,y,-z
1/2-x,1/2+y,1/2+z
1/2+x,1/2-y,1/2+z
loop_
_atom_site_type_symbol
_atom_site_label
_atom_site_fract_x
_atom_site_fract_y
_atom_site_fract_z
Si Si1 0.529699 0.828024 0.567809
Si Si2 0.322548 0.338408 0.154918
Si Si3 0.097165 0.166149 0.839141
Si Si4 0.008366 0.184543 0.567042
Si Si5 0.881322 0.164339 0.785455
Si Si6 0.737734 0.321781 0.874717
O O1 0.514915 0.822932 0.500000
O O2 0.451871 0.705335 0.598275
O O3 0.656136 0.797347 0.584881
O O4 0.500000 0.000000 0.587316
O O5 0.215372 0.239452 0.164528
O O6 0.407603 0.269998 0.108610
O O7 0.375706 0.359725 0.217668
O O8 0.281977 0.500603 0.133075
O O9 0.000110 0.238142 0.799634
O O10 0.112859 0.994127 0.819571
O O11 0.000827 0.231958 0.500000
O O12 0.123979 0.233373 0.596377
O O13 0.000000 0.000000 0.567023
O O14 0.778775 0.253346 0.813609
#
# Coordination Sequence:
#
# PCOD9442449 Si02
#       6
#     8   8   8   8   8   8
#     4  10  19  35  60  86 113 148 193 247 287 338
#     4  11  21  35  62  82 114 154 196 241 287 347
#     4  10  22  39  54  88 115 147 194 235 296 352
#     4   9  20  35  57  87 114 147 193 244 292 338
#     4  10  23  36  58  81 122 154 185 241 295 356
#     4  10  20  37  58  86 115 151 197 237 289 351
#
# _framework density 19.246292
#
# number of rings (size 3 to 8) (size 9 to 14) (size 15 to 20)
#    0.000    2.000    1.667    1.500    9.333    1.333 
#    0.000    8.333    0.000    1.000    0.000    0.000 
#    0.000    0.000    0.000    0.000    0.000    0.000 
#
# Total GULP energy -267542.510388 kJ/mol
# GULP energy per Si atom -5573.802300 kJ/mol
# Density = 1.920249 g / cm^3
# Si number density = 19.246292 Si / 1000 Ang^3
#
#
#
# Elastic Constant Matrix: (Units=GPa)
#
#
# Indices 1 2 3 4 5 6 
#
# 1 124.1741 31.1147 43.8182 0.0000 0.0000 0.0000
# 2 31.1147 15.9755 7.5676 0.0000 0.0000 0.0000
# 3 43.8182 7.5676 68.7571 0.0000 0.0000 0.0000
# 4 0.0000 0.0000 0.0000 -143.8590 0.0000 0.0000
# 5 0.0000 0.0000 0.0000 0.0000 14.1099 0.0000
# 6 0.0000 0.0000 0.0000 0.0000 0.0000 85.9034
#
#
#
# Elastic Compliance Matrix: (Units=1/GPa)
#
#
# Indices 1 2 3 4 5 6 
#
# 1 0.019763 -0.034315 -0.008818 0.000000 0.000000 0.000000
# 2 -0.034315 0.125619 0.008042 0.000000 0.000000 0.000000
# 3 -0.008818 0.008042 0.019278 0.000000 0.000000 0.000000
# 4 0.000000 0.000000 0.000000 -0.006951 0.000000 0.000000
# 5 0.000000 0.000000 0.000000 0.000000 0.070872 0.000000
# 6 0.000000 0.000000 0.000000 0.000000 0.000000 0.011641
#
#
# Mechanical properties :
#
#
# Convention : Reuss Voigt Hill
#
# Bulk Modulus (GPa) = 10.58425 41.54531 26.06478
# Shear Modulus (GPa) = 14.62428 -0.34205 7.14111
#
# Velocity S-wave (km/s) = 2.75953 -0.42203 1.92833
# Velocity P-wave (km/s) = 3.95786 4.62553 4.30466
#
# Compressibility (1/GPa) = 0.09448003
#
# Stress axis : x y z
#
# Youngs Moduli (GPa) = 50.59888 7.96056 51.87128
#
# Poissons Ratio (x) = 0.27316 0.45741
# Poissons Ratio (y) = 1.73629 -0.41717
# Poissons Ratio (z) = 0.44619 -0.06402
#
# Static dielectric constant tensor:
#      x y z
#    x 1.677090 0.000000 0.000000 
#    y 0.000000 1.682150 0.000000 
#    z 0.000000 0.000000 1.693760 
# 
# From -- ./inp_files/31892.got.cif
#   From: 2010.05.17/outbox.cif.g08.bks.cpg/sg58_16_cif.got.tgz:31892.got - 2010.06.03 14:20:14.
