data_PCOD9442446
_publ_section_title
;
Structure prediction by ZEFSAII (Michael W. Deem and Ramdas Pophale) SiO2 
 PCOD9442446
Probable space group: P N N M
;
_chemical_formula_sum "Si O2"
_cell_formula_units_Z 56
_cell_length_a 12.629548
_cell_length_b 20.734204
_cell_length_c 10.985450
_cell_angle_alpha 90.000000
_cell_angle_beta 90.000000
_cell_angle_gamma 90.000000
_cell_volume 2876.689756
_symmetry_space_group_name_H-M "P N N M"
_symmetry_group_IT_number 58
_symmetry_cell_setting 'orthorhombic'
loop_
_space_group_symop_operation_xyz
x,y,z
-x,-y,z
1/2+x,1/2-y,1/2-z
1/2-x,1/2+y,1/2-z
-x,-y,-z
x,y,-z
1/2-x,1/2+y,1/2+z
1/2+x,1/2-y,1/2+z
loop_
_atom_site_type_symbol
_atom_site_label
_atom_site_fract_x
_atom_site_fract_y
_atom_site_fract_z
Si Si1 0.731653 0.199733 0.357365
Si Si2 0.661575 0.326938 0.214827
Si Si3 0.456207 0.259285 0.863899
Si Si4 0.402630 0.924743 0.639915
Si Si5 0.095254 0.045794 0.857931
Si Si6 0.664292 0.985560 0.138410
Si Si7 0.610182 0.863915 0.719367
O O1 0.712081 0.205371 0.500000
O O2 0.695131 0.266798 0.299571
O O3 0.857328 0.193779 0.336696
O O4 0.668481 0.136471 0.320240
O O5 0.566598 0.296437 0.138412
O O6 0.612547 0.388125 0.284901
O O7 0.775053 0.349249 0.160486
O O8 0.444032 0.201290 0.768540
O O9 0.438973 0.232931 0.000000
O O10 0.375126 0.944798 0.500000
O O11 0.523618 0.900583 0.639955
O O12 0.384758 0.974878 0.749405
O O13 0.208327 0.009599 0.852824
O O14 0.074455 0.061281 0.000000
O O15 0.000000 0.000000 0.814035
O O16 0.635946 0.911020 0.166655
O O17 0.632399 0.003446 0.000000
#
# Coordination Sequence:
#
# PCOD9442446 Si02
#       7
#     8   8   8   8   8   8   8
#     4   9  19  36  55  80 114 154 195 234 292 359
#     4  10  19  35  60  84 112 150 193 243 301 351
#     4  10  20  35  58  83 113 152 198 245 291 350
#     4  11  23  39  60  87 123 161 198 242 298 356
#     4   9  19  36  59  87 118 152 194 248 300 353
#     4  10  22  39  61  89 119 158 206 249 293 350
#     4  10  21  38  58  85 118 156 194 245 300 356
#
# _framework density 19.466819999999998
#
# number of rings (size 3 to 8) (size 9 to 14) (size 15 to 20)
#    0.000    2.143    1.429    1.286    2.000    6.857 
#    0.000    2.143    0.000    0.857    0.000    0.000 
#    0.000    0.000    0.000    0.000    0.000    0.000 
#
# Total GULP energy -312007.712692 kJ/mol
# GULP energy per Si atom -5571.566298 kJ/mol
# Density = 1.942251 g / cm^3
# Si number density = 19.466820 Si / 1000 Ang^3
#
#
#
# Elastic Constant Matrix: (Units=GPa)
#
#
# Indices 1 2 3 4 5 6 
#
# 1 115.1884 42.0585 29.8668 0.0000 0.0000 0.0000
# 2 42.0585 76.4817 36.5063 0.0000 0.0000 0.0000
# 3 29.8668 36.5063 63.9103 0.0000 0.0000 0.0000
# 4 0.0000 0.0000 0.0000 13.5648 0.0000 0.0000
# 5 0.0000 0.0000 0.0000 0.0000 19.8003 0.0000
# 6 0.0000 0.0000 0.0000 0.0000 0.0000 35.7455
#
#
#
# Elastic Compliance Matrix: (Units=1/GPa)
#
#
# Indices 1 2 3 4 5 6 
#
# 1 0.011111 -0.004993 -0.002340 0.000000 0.000000 0.000000
# 2 -0.004993 0.020220 -0.009217 0.000000 0.000000 0.000000
# 3 -0.002340 -0.009217 0.022005 0.000000 0.000000 0.000000
# 4 0.000000 0.000000 0.000000 0.073720 0.000000 0.000000
# 5 0.000000 0.000000 0.000000 0.000000 0.050504 0.000000
# 6 0.000000 0.000000 0.000000 0.000000 0.000000 0.027976
#
#
# Mechanical properties :
#
#
# Convention : Reuss Voigt Hill
#
# Bulk Modulus (GPa) = 49.41582 52.49375 50.95479
# Shear Modulus (GPa) = 20.37635 23.63204 22.00420
#
# Velocity S-wave (km/s) = 3.23882 3.48798 3.36571
# Velocity P-wave (km/s) = 6.27904 6.57614 6.42931
#
# Compressibility (1/GPa) = 0.02023643
#
# Stress axis : x y z
#
# Youngs Moduli (GPa) = 89.99729 49.45574 45.44366
#
# Poissons Ratio (x) = 0.24694 0.10636
# Poissons Ratio (y) = 0.44938 0.41883
# Poissons Ratio (z) = 0.21064 0.45581
#
# Static dielectric constant tensor:
#      x y z
#    x 1.725910 0.000000 0.000000 
#    y 0.000000 1.700580 0.000000 
#    z 0.000000 0.000000 1.662730 
# 
# From -- ./inp_files/14582.got.cif
#   From: 2010.05.17/outbox.cif.g08.bks.cpg/sg58_8_cif.got.tgz:14582.got - 2010.06.03 14:20:14.
