data_PCOD9442052
_publ_section_title
;
Structure prediction by ZEFSAII (Michael W. Deem and Ramdas Pophale) SiO2 
 PCOD9442052
Probable space group: P N N M
;
_chemical_formula_sum "Si O2"
_cell_formula_units_Z 64
_cell_length_a 25.255096
_cell_length_b 15.143158
_cell_length_c 7.969991
_cell_angle_alpha 90.000000
_cell_angle_beta 90.000000
_cell_angle_gamma 90.000000
_cell_volume 3048.058573
_symmetry_space_group_name_H-M "P N N M"
_symmetry_group_IT_number 58
_symmetry_cell_setting 'orthorhombic'
loop_
_space_group_symop_operation_xyz
x,y,z
-x,-y,z
1/2+x,1/2-y,1/2-z
1/2-x,1/2+y,1/2-z
-x,-y,-z
x,y,-z
1/2-x,1/2+y,1/2+z
1/2+x,1/2-y,1/2+z
loop_
_atom_site_type_symbol
_atom_site_label
_atom_site_fract_x
_atom_site_fract_y
_atom_site_fract_z
Si Si1 0.447160 0.455644 0.306129
Si Si2 0.050855 0.759669 0.694899
Si Si3 0.172378 0.989935 0.698348
Si Si4 0.980804 0.596753 0.703898
Si Si5 0.764923 0.637087 0.701223
Si Si6 0.265833 0.662168 0.204951
Si Si7 0.644897 0.848064 0.304160
Si Si8 0.869173 0.539917 0.297308
O O1 0.500000 0.500000 0.230211
O O2 0.444409 0.482796 0.500000
O O3 0.454248 0.350760 0.290761
O O4 0.389841 0.479414 0.231702
O O5 0.037656 0.775571 0.500000
O O6 0.110655 0.723720 0.707851
O O7 0.014433 0.680163 0.763608
O O8 0.180292 0.990535 0.500000
O O9 0.196127 0.083281 0.764818
O O10 0.208750 0.908935 0.762417
O O11 0.986923 0.596369 0.500000
O O12 0.918591 0.602709 0.742558
O O13 0.000000 0.500000 0.761692
O O14 0.769503 0.640690 0.500000
O O15 0.773944 0.737054 0.762694
O O16 0.813108 0.576433 0.764233
O O17 0.205282 0.642166 0.252811
O O18 0.268828 0.662818 0.000000
O O19 0.644865 0.823826 0.500000
O O20 0.619866 0.943915 0.276854
O O21 0.867653 0.530321 0.500000
#
# Coordination Sequence:
#
# PCOD9442052 Si02
#       8
#     8   8   8   8   8   8   8   8
#     4  11  26  47  66  87 120 158 198 249 309 363
#     4  11  22  38  64  93 119 156 208 254 297 356
#     4  11  22  40  65  92 121 155 204 255 299 356
#     4   9  17  32  54  83 121 156 192 243 297 350
#     4  10  20  36  59  87 121 161 201 246 307 362
#     4   9  20  36  56  84 119 157 196 245 301 354
#     4  11  20  34  56  83 123 163 199 245 302 358
#     4  10  19  33  55  82 114 157 205 248 297 357
#
# _framework density 20.996974000000002
#
# number of rings (size 3 to 8) (size 9 to 14) (size 15 to 20)
#    0.000    1.750    2.500    2.250    0.000    3.000 
#    0.000    6.250    0.000    0.000    0.000    0.000 
#    0.000    0.000    0.000    0.000    0.000    0.000 
#
# Total GULP energy -357345.807699 kJ/mol
# GULP energy per Si atom -5583.528245 kJ/mol
# Density = 2.094918 g / cm^3
# Si number density = 20.996974 Si / 1000 Ang^3
#
#
#
# Elastic Constant Matrix: (Units=GPa)
#
#
# Indices 1 2 3 4 5 6 
#
# 1 110.3234 48.5940 -7.9259 0.0000 0.0000 0.0000
# 2 48.5940 123.5174 -8.3345 0.0000 0.0000 0.0000
# 3 -7.9259 -8.3345 17.8324 0.0000 0.0000 0.0000
# 4 0.0000 0.0000 0.0000 19.1633 0.0000 0.0000
# 5 0.0000 0.0000 0.0000 0.0000 14.2936 0.0000
# 6 0.0000 0.0000 0.0000 0.0000 0.0000 33.2774
#
#
#
# Elastic Compliance Matrix: (Units=1/GPa)
#
#
# Indices 1 2 3 4 5 6 
#
# 1 0.011117 -0.004172 0.002991 0.000000 0.000000 0.000000
# 2 -0.004172 0.009925 0.002785 0.000000 0.000000 0.000000
# 3 0.002991 0.002785 0.058709 0.000000 0.000000 0.000000
# 4 0.000000 0.000000 0.000000 0.052183 0.000000 0.000000
# 5 0.000000 0.000000 0.000000 0.000000 0.069962 0.000000
# 6 0.000000 0.000000 0.000000 0.000000 0.000000 0.030050
#
#
# Mechanical properties :
#
#
# Convention : Reuss Voigt Hill
#
# Bulk Modulus (GPa) = 12.05414 35.14892 23.60153
# Shear Modulus (GPa) = 19.50153 27.96949 23.73551
#
# Velocity S-wave (km/s) = 3.05089 3.65372 3.36583
# Velocity P-wave (km/s) = 4.26192 5.88012 5.13516
#
# Compressibility (1/GPa) = 0.08295905
#
# Stress axis : x y z
#
# Youngs Moduli (GPa) = 89.95521 100.75438 17.03322
#
# Poissons Ratio (x) = 0.42031 -0.05095
# Poissons Ratio (y) = 0.37526 -0.04743
# Poissons Ratio (z) = -0.26908 -0.28057
#
# Static dielectric constant tensor:
#      x y z
#    x 1.771950 0.000000 0.000000 
#    y 0.000000 1.754500 0.000000 
#    z 0.000000 0.000000 1.745450 
# 
# From -- ./inp_files/10056.got.cif
#   From: 2010.05.17/outbox.cif.g08.bks.cpg/sg58_6_cif.got.tgz:10056.got - 2010.06.03 14:20:14.
