data_PCOD9442618
_publ_section_title
;
Structure prediction by ZEFSAII (Michael W. Deem and Ramdas Pophale) SiO2 
 PCOD9442618
Probable space group: P N N M
;
_chemical_formula_sum "Si O2"
_cell_formula_units_Z 40
_cell_length_a 17.778631
_cell_length_b 7.596899
_cell_length_c 15.887751
_cell_angle_alpha 90.000000
_cell_angle_beta 90.000000
_cell_angle_gamma 90.000000
_cell_volume 2145.838799
_symmetry_space_group_name_H-M "P N N M"
_symmetry_group_IT_number 58
_symmetry_cell_setting 'orthorhombic'
loop_
_space_group_symop_operation_xyz
x,y,z
-x,-y,z
1/2+x,1/2-y,1/2-z
1/2-x,1/2+y,1/2-z
-x,-y,-z
x,y,-z
1/2-x,1/2+y,1/2+z
1/2+x,1/2-y,1/2+z
loop_
_atom_site_type_symbol
_atom_site_label
_atom_site_fract_x
_atom_site_fract_y
_atom_site_fract_z
Si Si1 0.060141 0.345909 0.091483
Si Si2 0.671347 0.295815 0.906496
Si Si3 0.768673 0.007690 0.820269
Si Si4 0.575856 0.403409 0.749560
Si Si5 0.274991 0.898503 0.362023
O O1 0.053962 0.221591 0.171959
O O2 0.144369 0.422398 0.096291
O O3 0.000000 0.500000 0.096537
O O4 0.051440 0.255638 0.000000
O O5 0.736017 0.154292 0.882266
O O6 0.611962 0.303697 0.829799
O O7 0.710890 0.486963 0.905048
O O8 0.641457 0.259328 0.000000
O O9 0.722605 0.030214 0.733710
O O10 0.855739 0.021581 0.789493
O O11 0.759963 0.810698 0.856310
O O12 0.500000 0.500000 0.776046
#
# Coordination Sequence:
#
# PCOD9442618 Si02
#       5
#     8   8   8   8   8
#     4  10  21  35  56  86 120 156 195 246 312 370
#     4  11  23  39  63  90 121 164 208 254 306 361
#     4  10  19  37  63  87 119 158 206 247 306 359
#     4  10  23  40  60  89 125 161 200 255 306 367
#     4  10  19  37  60  89 118 154 204 255 298 364
#
# _framework density 18.640729
#
# number of rings (size 3 to 8) (size 9 to 14) (size 15 to 20)
#    0.000    1.800    6.000    0.600    2.800    4.800 
#    0.000    0.000    0.000    0.600    0.000    0.000 
#    0.000    0.000    0.000    0.000    0.000    0.000 
#
# Total GULP energy -222909.720973 kJ/mol
# GULP energy per Si atom -5572.743024 kJ/mol
# Density = 1.859830 g / cm^3
# Si number density = 18.640729 Si / 1000 Ang^3
#
#
#
# Elastic Constant Matrix: (Units=GPa)
#
#
# Indices 1 2 3 4 5 6 
#
# 1 74.7886 54.3081 47.2911 0.0000 0.0000 0.0000
# 2 54.3081 72.8290 32.8240 0.0000 0.0000 0.0000
# 3 47.2911 32.8240 132.2852 0.0000 0.0000 0.0000
# 4 0.0000 0.0000 0.0000 16.7015 0.0000 0.0000
# 5 0.0000 0.0000 0.0000 0.0000 17.8653 0.0000
# 6 0.0000 0.0000 0.0000 0.0000 0.0000 22.4697
#
#
#
# Elastic Compliance Matrix: (Units=1/GPa)
#
#
# Indices 1 2 3 4 5 6 
#
# 1 0.033488 -0.022041 -0.006503 0.000000 0.000000 0.000000
# 2 -0.022041 0.029967 0.000444 0.000000 0.000000 0.000000
# 3 -0.006503 0.000444 0.009774 0.000000 0.000000 0.000000
# 4 0.000000 0.000000 0.000000 0.059875 0.000000 0.000000
# 5 0.000000 0.000000 0.000000 0.000000 0.055974 0.000000
# 6 0.000000 0.000000 0.000000 0.000000 0.000000 0.044504
#
#
# Mechanical properties :
#
#
# Convention : Reuss Voigt Hill
#
# Bulk Modulus (GPa) = 58.72370 60.97213 59.84791
# Shear Modulus (GPa) = 16.92286 21.10595 19.01440
#
# Velocity S-wave (km/s) = 3.01631 3.36854 3.19728
# Velocity P-wave (km/s) = 6.61076 6.92167 6.76800
#
# Compressibility (1/GPa) = 0.01702890
#
# Stress axis : x y z
#
# Youngs Moduli (GPa) = 29.86132 33.37046 102.31274
#
# Poissons Ratio (x) = 0.73552 0.66531
# Poissons Ratio (y) = 0.65818 -0.04542
# Poissons Ratio (z) = 0.19418 -0.01481
#
# Static dielectric constant tensor:
#      x y z
#    x 1.633990 0.000000 0.000000 
#    y 0.000000 1.655990 0.000000 
#    z 0.000000 0.000000 1.674800 
# 
# From -- ./inp_files/22642.got.cif
#   From: 2010.05.17/outbox.cif.g08.bks.cpg/sg58_12_cif.got.tgz:22642.got - 2010.06.03 14:20:14.
