data_PCOD9442298
_publ_section_title
;
Structure prediction by ZEFSAII (Michael W. Deem and Ramdas Pophale) SiO2 
 PCOD9442298
Probable space group: P N N M
;
_chemical_formula_sum "Si O2"
_cell_formula_units_Z 64
_cell_length_a 24.919725
_cell_length_b 14.755651
_cell_length_c 9.015547
_cell_angle_alpha 90.000000
_cell_angle_beta 90.000000
_cell_angle_gamma 90.000000
_cell_volume 3315.077623
_symmetry_space_group_name_H-M "P N N M"
_symmetry_group_IT_number 58
_symmetry_cell_setting 'orthorhombic'
loop_
_space_group_symop_operation_xyz
x,y,z
-x,-y,z
1/2+x,1/2-y,1/2-z
1/2-x,1/2+y,1/2-z
-x,-y,-z
x,y,-z
1/2-x,1/2+y,1/2+z
1/2+x,1/2-y,1/2+z
loop_
_atom_site_type_symbol
_atom_site_label
_atom_site_fract_x
_atom_site_fract_y
_atom_site_fract_z
Si Si1 0.555294 0.054280 0.331646
Si Si2 0.795853 0.310949 0.179779
Si Si3 0.392795 0.659269 0.173015
Si Si4 0.172237 0.493368 0.822124
Si Si5 0.508805 0.214958 0.168285
Si Si6 0.591215 0.716447 0.675750
Si Si7 0.194517 0.287295 0.178416
Si Si8 0.060787 0.973764 0.679323
O O1 0.563155 0.090864 0.500000
O O2 0.547406 0.133698 0.215250
O O3 0.500000 0.000000 0.330507
O O4 0.608258 0.997268 0.296612
O O5 0.798234 0.416140 0.231572
O O6 0.852531 0.263074 0.215311
O O7 0.747984 0.256481 0.254861
O O8 0.789791 0.309790 0.000000
O O9 0.453596 0.697137 0.178413
O O10 0.354316 0.724033 0.266143
O O11 0.398576 0.555130 0.220967
O O12 0.375707 0.662946 0.000000
O O13 0.188070 0.392395 0.770355
O O14 0.179937 0.492968 0.000000
O O15 0.458598 0.220873 0.276393
O O16 0.489870 0.205270 0.000000
O O17 0.590349 0.703302 0.500000
O O18 0.580443 0.621005 0.755557
O O19 0.195660 0.287160 0.000000
O O20 0.060005 0.968210 0.500000
O O21 0.000000 0.000000 0.726858
#
# Coordination Sequence:
#
# PCOD9442298 Si02
#       8
#     8   8   8   8   8   8   8   8
#     4  10  19  34  58  87 119 157 200 245 300 362
#     4  10  23  44  64  85 119 161 202 243 301 367
#     4  10  21  38  60  85 118 161 199 240 299 363
#     4   9  19  38  62  86 115 154 197 240 291 357
#     4  11  21  35  57  86 122 159 199 243 298 365
#     4  11  23  38  60  90 123 160 204 257 309 359
#     4  11  23  40  64  91 117 150 203 259 297 346
#     4  10  20  38  60  85 122 166 207 245 298 370
#
# _framework density 19.305731999999999
#
# number of rings (size 3 to 8) (size 9 to 14) (size 15 to 20)
#    0.000    1.750    2.500    1.875    0.000    5.500 
#    0.000    5.625    0.000    0.000    0.000    0.000 
#    0.000    0.000    0.000    0.000    0.000    0.000 
#
# Total GULP energy -357218.722450 kJ/mol
# GULP energy per Si atom -5581.542538 kJ/mol
# Density = 1.926179 g / cm^3
# Si number density = 19.305732 Si / 1000 Ang^3
#
#
#
# Elastic Constant Matrix: (Units=GPa)
#
#
# Indices 1 2 3 4 5 6 
#
# 1 100.2381 49.1415 28.2760 0.0000 0.0000 0.0000
# 2 49.1415 123.7285 32.6069 0.0000 0.0000 0.0000
# 3 28.2760 32.6069 27.0148 0.0000 0.0000 0.0000
# 4 0.0000 0.0000 0.0000 13.6622 0.0000 0.0000
# 5 0.0000 0.0000 0.0000 0.0000 27.5055 0.0000
# 6 0.0000 0.0000 0.0000 0.0000 0.0000 28.1460
#
#
#
# Elastic Compliance Matrix: (Units=1/GPa)
#
#
# Indices 1 2 3 4 5 6 
#
# 1 0.014712 -0.002618 -0.012239 0.000000 0.000000 0.000000
# 2 -0.002618 0.012318 -0.012128 0.000000 0.000000 0.000000
# 3 -0.012239 -0.012128 0.064466 0.000000 0.000000 0.000000
# 4 0.000000 0.000000 0.000000 0.073195 0.000000 0.000000
# 5 0.000000 0.000000 0.000000 0.000000 0.036356 0.000000
# 6 0.000000 0.000000 0.000000 0.000000 0.000000 0.035529
#
#
# Mechanical properties :
#
#
# Convention : Reuss Voigt Hill
#
# Bulk Modulus (GPa) = 26.64821 52.33669 39.49245
# Shear Modulus (GPa) = 16.49866 23.25989 19.87928
#
# Velocity S-wave (km/s) = 2.92652 3.47481 3.21239
# Velocity P-wave (km/s) = 5.02520 6.57779 5.85320
#
# Compressibility (1/GPa) = 0.03752597
#
# Stress axis : x y z
#
# Youngs Moduli (GPa) = 67.97095 81.18167 15.51209
#
# Poissons Ratio (x) = 0.21251 0.18986
# Poissons Ratio (y) = 0.17793 0.18813
# Poissons Ratio (z) = 0.83192 0.98457
#
# Static dielectric constant tensor:
#      x y z
#    x 1.669650 0.000000 0.000000 
#    y 0.000000 1.698790 0.000000 
#    z 0.000000 0.000000 1.650170 
# 
# From -- ./inp_files/10107.got.cif
#   From: 2010.05.17/outbox.cif.g08.bks.cpg/sg58_6_cif.got.tgz:10107.got - 2010.06.03 14:20:14.
