data_PCOD9442350
_publ_section_title
;
Structure prediction by ZEFSAII (Michael W. Deem and Ramdas Pophale) SiO2 
 PCOD9442350
Probable space group: P N N M
;
_chemical_formula_sum "Si O2"
_cell_formula_units_Z 64
_cell_length_a 13.604703
_cell_length_b 7.598478
_cell_length_c 31.426029
_cell_angle_alpha 90.000000
_cell_angle_beta 90.000000
_cell_angle_gamma 90.000000
_cell_volume 3248.666893
_symmetry_space_group_name_H-M "P N N M"
_symmetry_group_IT_number 58
_symmetry_cell_setting 'orthorhombic'
loop_
_space_group_symop_operation_xyz
x,y,z
-x,-y,z
1/2+x,1/2-y,1/2-z
1/2-x,1/2+y,1/2-z
-x,-y,-z
x,y,-z
1/2-x,1/2+y,1/2+z
1/2+x,1/2-y,1/2+z
loop_
_atom_site_type_symbol
_atom_site_label
_atom_site_fract_x
_atom_site_fract_y
_atom_site_fract_z
Si Si1 0.416644 0.758084 0.736937
Si Si2 0.885937 0.974709 0.051203
Si Si3 0.263152 0.357495 0.815545
Si Si4 0.817982 0.742402 0.677255
Si Si5 0.763072 0.239153 0.410478
Si Si6 0.188923 0.392641 0.417206
Si Si7 0.130066 0.839488 0.768276
Si Si8 0.107959 0.049500 0.549326
O O1 0.343496 0.865710 0.706755
O O2 0.396934 0.805173 0.786263
O O3 0.529309 0.761521 0.723704
O O4 0.387647 0.549996 0.733958
O O5 0.806736 0.110242 0.071966
O O6 0.840983 0.790257 0.068278
O O7 0.877584 0.984064 0.000000
O O8 0.000000 0.000000 0.062782
O O9 0.309970 0.546412 0.826182
O O10 0.255489 0.254946 0.859566
O O11 0.328955 0.278090 0.777659
O O12 0.831790 0.658209 0.631459
O O13 0.713338 0.688500 0.697042
O O14 0.832943 0.401670 0.424594
O O15 0.809031 0.058822 0.425871
O O16 0.131046 0.254558 0.445400
O O17 0.112262 0.998055 0.500000
O O18 0.000000 0.000000 0.566109
#
# Coordination Sequence:
#
# PCOD9442350 Si02
#       8
#     8   8   8   8   8   8   8   8
#     4   9  19  34  54  77 111 157 196 240 298 353
#     4   9  20  40  65  90 119 158 203 248 300 365
#     4  10  19  35  54  83 117 151 197 249 295 350
#     4  10  19  35  54  83 117 151 197 249 295 350
#     4  10  22  39  64  90 124 164 198 251 304 362
#     4  10  22  39  64  90 124 164 198 251 304 362
#     4   9  19  34  54  77 111 157 196 240 298 353
#     4  11  24  42  65  94 125 158 201 252 306 367
#
# _framework density 19.700389000000001
#
# number of rings (size 3 to 8) (size 9 to 14) (size 15 to 20)
#    0.750    1.500    1.250    1.500    0.000    4.000 
#    0.000    1.875    0.000    2.250    0.000    0.000 
#    0.000    0.000    0.000    0.000    0.000    0.000 
#
# Total GULP energy -356740.246307 kJ/mol
# GULP energy per Si atom -5574.066349 kJ/mol
# Density = 1.965555 g / cm^3
# Si number density = 19.700389 Si / 1000 Ang^3
#
#
#
# Elastic Constant Matrix: (Units=GPa)
#
#
# Indices 1 2 3 4 5 6 
#
# 1 29.8714 -12.7797 -10.2741 0.0000 0.0000 0.0000
# 2 -12.7797 32.8191 -1.2518 0.0000 0.0000 0.0000
# 3 -10.2741 -1.2518 47.3750 0.0000 0.0000 0.0000
# 4 0.0000 0.0000 0.0000 20.1085 0.0000 0.0000
# 5 0.0000 0.0000 0.0000 0.0000 -2.7278 0.0000
# 6 0.0000 0.0000 0.0000 0.0000 0.0000 23.6474
#
#
#
# Elastic Compliance Matrix: (Units=1/GPa)
#
#
# Indices 1 2 3 4 5 6 
#
# 1 0.044547 0.017733 0.010129 0.000000 0.000000 0.000000
# 2 0.017733 0.037560 0.004838 0.000000 0.000000 0.000000
# 3 0.010129 0.004838 0.023433 0.000000 0.000000 0.000000
# 4 0.000000 0.000000 0.000000 0.049730 0.000000 0.000000
# 5 0.000000 0.000000 0.000000 0.000000 -0.366602 0.000000
# 6 0.000000 0.000000 0.000000 0.000000 0.000000 0.042288
#
#
# Mechanical properties :
#
#
# Convention : Reuss Voigt Hill
#
# Bulk Modulus (GPa) = 5.84997 6.82828 6.33912
# Shear Modulus (GPa) = -28.17465 17.16369 -5.50548
#
# Velocity S-wave (km/s) = -3.78584 2.95487 -1.67352
# Velocity P-wave (km/s) = 4.01675 3.88784 0.71378
#
# Compressibility (1/GPa) = 0.17094096
#
# Stress axis : x y z
#
# Youngs Moduli (GPa) = 22.44799 26.62422 42.67535
#
# Poissons Ratio (x) = -0.47213 -0.43228
# Poissons Ratio (y) = -0.39807 -0.20647
# Poissons Ratio (z) = -0.22738 -0.12881
#
# Static dielectric constant tensor:
#      x y z
#    x 1.694630 0.000000 0.000000 
#    y 0.000000 1.731060 0.000000 
#    z 0.000000 0.000000 1.664110 
# 
# From -- ./inp_files/35089.got.cif
#   From: 2010.05.17/outbox.cif.g08.bks.cpg/sg58_18_cif.got.tgz:35089.got - 2010.06.03 14:20:14.
