data_PCOD9442830
_publ_section_title
;
Structure prediction by ZEFSAII (Michael W. Deem and Ramdas Pophale) SiO2 
 PCOD9442830
Probable space group: P N N M
;
_chemical_formula_sum "Si O2"
_cell_formula_units_Z 64
_cell_length_a 20.806879
_cell_length_b 6.579192
_cell_length_c 19.942237
_cell_angle_alpha 90.000000
_cell_angle_beta 90.000000
_cell_angle_gamma 90.000000
_cell_volume 2729.941719
_symmetry_space_group_name_H-M "P N N M"
_symmetry_group_IT_number 58
_symmetry_cell_setting 'orthorhombic'
loop_
_space_group_symop_operation_xyz
x,y,z
-x,-y,z
1/2+x,1/2-y,1/2-z
1/2-x,1/2+y,1/2-z
-x,-y,-z
x,y,-z
1/2-x,1/2+y,1/2+z
1/2+x,1/2-y,1/2+z
loop_
_atom_site_type_symbol
_atom_site_label
_atom_site_fract_x
_atom_site_fract_y
_atom_site_fract_z
Si Si1 0.372840 0.399182 0.921303
Si Si2 0.158254 0.336225 0.263023
Si Si3 0.714657 0.257967 0.896149
Si Si4 0.944938 0.335539 0.688086
Si Si5 0.750554 0.814513 0.073936
Si Si6 0.157192 0.588077 0.865433
Si Si7 0.915946 0.037587 0.801520
Si Si8 0.902113 0.773646 0.077906
O O1 0.351894 0.634416 0.915955
O O2 0.428188 0.308603 0.874721
O O3 0.306624 0.305031 0.889632
O O4 0.383358 0.349729 0.000000
O O5 0.212144 0.278403 0.316075
O O6 0.114109 0.513182 0.294695
O O7 0.180082 0.440409 0.194493
O O8 0.119615 0.130807 0.244565
O O9 0.722904 0.039871 0.927542
O O10 0.781136 0.373352 0.911369
O O11 0.956925 0.184836 0.751873
O O12 0.000000 0.500000 0.675915
O O13 0.826120 0.828730 0.088451
O O14 0.748866 0.723211 0.000000
O O15 0.131458 0.796812 0.835231
O O16 0.100433 0.465471 0.903119
O O17 0.938791 0.901563 0.865291
O O18 0.919071 0.808487 0.000000
#
# Coordination Sequence:
#
# PCOD9442830 Si02
#       8
#     8   8   8   8   8   8   8   8
#     4  11  23  39  57  86 123 160 205 251 297 354
#     4  10  23  36  56  86 118 152 201 251 303 357
#     4  12  20  33  55  82 122 164 198 236 290 356
#     4  11  24  44  66  85 110 153 209 271 329 365
#     4  10  20  33  51  81 124 168 199 230 277 345
#     4  10  22  31  53  87 124 164 193 229 284 360
#     4  10  21  41  57  88 122 155 198 250 301 359
#     4  10  20  35  56  88 127 165 198 226 277 355
#
# _framework density 23.443725000000001
#
# number of rings (size 3 to 8) (size 9 to 14) (size 15 to 20)
#    0.000    1.500    5.000    0.375    1.750    1.750 
#    0.000    0.000    0.000    1.125    0.000    7.875 
#    0.000    0.000    0.000    0.000    0.000    0.000 
#
# Total GULP energy -356869.986546 kJ/mol
# GULP energy per Si atom -5576.093540 kJ/mol
# Density = 2.339037 g / cm^3
# Si number density = 23.443725 Si / 1000 Ang^3
#
#
#
# Elastic Constant Matrix: (Units=GPa)
#
#
# Indices 1 2 3 4 5 6 
#
# 1 18.5905 -6.2579 0.2747 0.0000 0.0000 0.0000
# 2 -6.2579 96.6629 16.7408 0.0000 0.0000 0.0000
# 3 0.2747 16.7408 102.6457 0.0000 0.0000 0.0000
# 4 0.0000 0.0000 0.0000 19.1269 0.0000 0.0000
# 5 0.0000 0.0000 0.0000 0.0000 11.0261 0.0000
# 6 0.0000 0.0000 0.0000 0.0000 0.0000 22.0518
#
#
#
# Elastic Compliance Matrix: (Units=1/GPa)
#
#
# Indices 1 2 3 4 5 6 
#
# 1 0.055045 0.003693 -0.000750 0.000000 0.000000 0.000000
# 2 0.003693 0.010894 -0.001787 0.000000 0.000000 0.000000
# 3 -0.000750 -0.001787 0.010036 0.000000 0.000000 0.000000
# 4 0.000000 0.000000 0.000000 0.052282 0.000000 0.000000
# 5 0.000000 0.000000 0.000000 0.000000 0.090694 0.000000
# 6 0.000000 0.000000 0.000000 0.000000 0.000000 0.045348
#
#
# Mechanical properties :
#
#
# Convention : Reuss Voigt Hill
#
# Bulk Modulus (GPa) = 12.77316 26.60160 19.68738
# Shear Modulus (GPa) = 17.35625 24.25040 20.80332
#
# Velocity S-wave (km/s) = 2.72386 3.21971 2.98211
# Velocity P-wave (km/s) = 3.91827 5.01933 4.50258
#
# Compressibility (1/GPa) = 0.07828913
#
# Stress axis : x y z
#
# Youngs Moduli (GPa) = 18.16682 91.79572 99.64496
#
# Poissons Ratio (x) = -0.33904 0.07470
# Poissons Ratio (y) = -0.06710 0.17802
# Poissons Ratio (z) = 0.01362 0.16400
#
# Static dielectric constant tensor:
#      x y z
#    x 1.990970 0.000000 0.000000 
#    y 0.000000 1.953210 0.000000 
#    z 0.000000 0.000000 1.895740 
# 
# From -- ./inp_files/28325.got.cif
#   From: 2010.05.17/outbox.cif.g08.bks.cpg/sg58_15_cif.got.tgz:28325.got - 2010.06.03 14:20:14.
