data_PCOD9442046
_publ_section_title
;
Structure prediction by ZEFSAII (Michael W. Deem and Ramdas Pophale) SiO2 
 PCOD9442046
Probable space group: P N N M
;
_chemical_formula_sum "Si O2"
_cell_formula_units_Z 56
_cell_length_a 20.450886
_cell_length_b 16.064275
_cell_length_c 8.414237
_cell_angle_alpha 90.000000
_cell_angle_beta 90.000000
_cell_angle_gamma 90.000000
_cell_volume 2764.317979
_symmetry_space_group_name_H-M "P N N M"
_symmetry_group_IT_number 58
_symmetry_cell_setting 'orthorhombic'
loop_
_space_group_symop_operation_xyz
x,y,z
-x,-y,z
1/2+x,1/2-y,1/2-z
1/2-x,1/2+y,1/2-z
-x,-y,-z
x,y,-z
1/2-x,1/2+y,1/2+z
1/2+x,1/2-y,1/2+z
loop_
_atom_site_type_symbol
_atom_site_label
_atom_site_fract_x
_atom_site_fract_y
_atom_site_fract_z
Si Si1 0.973888 0.917187 0.822589
Si Si2 0.058724 0.252492 0.691067
Si Si3 0.119460 0.859573 0.825226
Si Si4 0.723626 0.533107 0.811125
Si Si5 0.415606 0.195019 0.816326
Si Si6 0.719107 0.859760 0.808148
Si Si7 0.798976 0.697098 0.308651
O O1 0.043441 0.873546 0.844788
O O2 0.933906 0.844974 0.738444
O O3 0.947288 0.938088 0.000000
O O4 0.000000 0.000000 0.736266
O O5 0.055081 0.254747 0.500000
O O6 0.125319 0.296146 0.744721
O O7 0.989693 0.293671 0.749420
O O8 0.153706 0.941882 0.762204
O O9 0.120496 0.784691 0.700560
O O10 0.146639 0.836414 0.000000
O O11 0.748325 0.446370 0.741838
O O12 0.766596 0.613533 0.760456
O O13 0.720116 0.527784 0.000000
O O14 0.357066 0.138506 0.748606
O O15 0.424005 0.172273 0.000000
O O16 0.759190 0.780124 0.742238
O O17 0.718356 0.853239 0.000000
O O18 0.799037 0.692589 0.500000
#
# Coordination Sequence:
#
# PCOD9442046 Si02
#       7
#     8   8   8   8   8   8   8
#     4   9  19  33  50  79 115 152 191 235 290 354
#     4   9  20  37  58  84 114 153 195 242 296 356
#     4  10  19  33  55  81 114 152 191 239 291 346
#     4  12  25  40  59  86 120 159 203 250 302 358
#     4   9  18  37  61  85 114 153 197 237 292 355
#     4  11  23  39  63  90 119 158 202 249 302 360
#     4  11  23  41  63  91 125 157 198 250 303 360
#
# _framework density 20.258161999999999
#
# number of rings (size 3 to 8) (size 9 to 14) (size 15 to 20)
#    0.000    1.857    1.429    2.571    2.000    2.571 
#    0.000    0.714    0.000    4.286    0.000    0.000 
#    0.000    0.000    0.000    0.000    0.000    0.000 
#
# Total GULP energy -311802.448246 kJ/mol
# GULP energy per Si atom -5567.900862 kJ/mol
# Density = 2.021205 g / cm^3
# Si number density = 20.258162 Si / 1000 Ang^3
#
#
#
# Elastic Constant Matrix: (Units=GPa)
#
#
# Indices 1 2 3 4 5 6 
#
# 1 81.8465 6.5984 11.1193 0.0000 0.0000 0.0000
# 2 6.5984 56.4461 0.5229 0.0000 0.0000 0.0000
# 3 11.1193 0.5229 46.0494 0.0000 0.0000 0.0000
# 4 0.0000 0.0000 0.0000 31.9516 0.0000 0.0000
# 5 0.0000 0.0000 0.0000 0.0000 23.3395 0.0000
# 6 0.0000 0.0000 0.0000 0.0000 0.0000 18.3256
#
#
#
# Elastic Compliance Matrix: (Units=1/GPa)
#
#
# Indices 1 2 3 4 5 6 
#
# 1 0.012752 -0.001462 -0.003063 0.000000 0.000000 0.000000
# 2 -0.001462 0.017886 0.000150 0.000000 0.000000 0.000000
# 3 -0.003063 0.000150 0.022454 0.000000 0.000000 0.000000
# 4 0.000000 0.000000 0.000000 0.031297 0.000000 0.000000
# 5 0.000000 0.000000 0.000000 0.000000 0.042846 0.000000
# 6 0.000000 0.000000 0.000000 0.000000 0.000000 0.054569
#
#
# Mechanical properties :
#
#
# Convention : Reuss Voigt Hill
#
# Bulk Modulus (GPa) = 22.55228 24.53592 23.54410
# Shear Modulus (GPa) = 24.35068 25.79675 25.07372
#
# Velocity S-wave (km/s) = 3.47077 3.57234 3.52193
# Velocity P-wave (km/s) = 5.21712 5.39939 5.30904
#
# Compressibility (1/GPa) = 0.04434141
#
# Stress axis : x y z
#
# Youngs Moduli (GPa) = 78.41942 55.91101 44.53629
#
# Poissons Ratio (x) = 0.08176 0.13639
# Poissons Ratio (y) = 0.11467 -0.00668
# Poissons Ratio (z) = 0.24016 -0.00839
#
# Static dielectric constant tensor:
#      x y z
#    x 1.791370 0.000000 0.000000 
#    y 0.000000 1.729090 0.000000 
#    z 0.000000 0.000000 1.749220 
# 
# From -- ./inp_files/8977.got.cif
#   From: 2010.05.17/outbox.cif.g08.bks.cpg/sg58_5_cif.got.tgz:8977.got - 2010.06.03 14:20:14.
