data_PCOD9442303
_publ_section_title
;
Structure prediction by ZEFSAII (Michael W. Deem and Ramdas Pophale) SiO2 
 PCOD9442303
Probable space group: P N N M
;
_chemical_formula_sum "Si O2"
_cell_formula_units_Z 44
_cell_length_a 26.770316
_cell_length_b 10.208420
_cell_length_c 8.053066
_cell_angle_alpha 90.000000
_cell_angle_beta 90.000000
_cell_angle_gamma 90.000000
_cell_volume 2200.763050
_symmetry_space_group_name_H-M "P N N M"
_symmetry_group_IT_number 58
_symmetry_cell_setting 'orthorhombic'
loop_
_space_group_symop_operation_xyz
x,y,z
-x,-y,z
1/2+x,1/2-y,1/2-z
1/2-x,1/2+y,1/2-z
-x,-y,-z
x,y,-z
1/2-x,1/2+y,1/2+z
1/2+x,1/2-y,1/2+z
loop_
_atom_site_type_symbol
_atom_site_label
_atom_site_fract_x
_atom_site_fract_y
_atom_site_fract_z
Si Si1 0.198108 0.150800 0.310682
Si Si2 0.889901 0.924919 0.500000
Si Si3 0.605105 0.725576 0.000000
Si Si4 0.955791 0.606638 0.815467
Si Si5 0.633725 0.905549 0.690299
Si Si6 0.264823 0.932150 0.309137
Si Si7 0.015091 0.221764 0.500000
O O1 0.217701 0.145212 0.500000
O O2 0.138515 0.140043 0.341323
O O3 0.217522 0.290112 0.251166
O O4 0.220342 0.018912 0.228611
O O5 0.948874 0.904409 0.500000
O O6 0.876230 0.076979 0.500000
O O7 0.623286 0.801669 0.835168
O O8 0.544652 0.717348 0.000000
O O9 0.905512 0.524205 0.787838
O O10 0.967920 0.701170 0.664704
O O11 0.000000 0.500000 0.817796
O O12 0.953701 0.668285 0.000000
O O13 0.627217 0.855402 0.500000
O O14 0.688061 0.969947 0.703984
O O15 0.251758 0.904911 0.500000
#
# Coordination Sequence:
#
# PCOD9442303 Si02
#       7
#     8   4   4   8   8   8   4
#     4   9  22  40  61  87 120 159 200 257 313 370
#     4  10  25  43  58  88 129 159 215 265 307 384
#     4  12  24  38  64  89 124 180 209 257 320 368
#     4  10  19  34  58  91 126 155 207 270 307 371
#     4  10  22  37  59  93 125 159 213 265 312 374
#     4  10  21  38  61  91 121 155 205 257 314 380
#     4  12  21  38  63  88 124 175 212 248 326 381
#
# _framework density 19.993065999999999
#
# number of rings (size 3 to 8) (size 9 to 14) (size 15 to 20)
#    0.545    1.273    1.818    2.182    3.818    0.727 
#    0.000    1.818    0.000    2.182    0.000    0.000 
#    0.000    0.000    0.000    0.000    0.000    0.000 
#
# Total GULP energy -245095.475419 kJ/mol
# GULP energy per Si atom -5570.351714 kJ/mol
# Density = 1.994756 g / cm^3
# Si number density = 19.993066 Si / 1000 Ang^3
#
#
#
# Elastic Constant Matrix: (Units=GPa)
#
#
# Indices 1 2 3 4 5 6 
#
# 1 47.6479 -7.6779 -9.4292 0.0000 0.0000 0.0000
# 2 -7.6779 90.8546 49.2310 0.0000 0.0000 0.0000
# 3 -9.4292 49.2310 88.2345 0.0000 0.0000 0.0000
# 4 0.0000 0.0000 0.0000 -4.3708 0.0000 0.0000
# 5 0.0000 0.0000 0.0000 0.0000 -18.4806 0.0000
# 6 0.0000 0.0000 0.0000 0.0000 0.0000 28.7205
#
#
#
# Elastic Compliance Matrix: (Units=1/GPa)
#
#
# Indices 1 2 3 4 5 6 
#
# 1 0.021483 0.000819 0.001839 0.000000 0.000000 0.000000
# 2 0.000819 0.015808 -0.008732 0.000000 0.000000 0.000000
# 3 0.001839 -0.008732 0.016402 0.000000 0.000000 0.000000
# 4 0.000000 0.000000 0.000000 -0.228789 0.000000 0.000000
# 5 0.000000 0.000000 0.000000 0.000000 -0.054111 0.000000
# 6 0.000000 0.000000 0.000000 0.000000 0.000000 0.034818
#
#
# Mechanical properties :
#
#
# Convention : Reuss Voigt Hill
#
# Bulk Modulus (GPa) = 24.07091 32.33165 28.20128
# Shear Modulus (GPa) = -29.69271 14.14800 -7.77236
#
# Velocity S-wave (km/s) = -3.85795 2.66305 -1.97382
# Velocity P-wave (km/s) = 2.78913 5.06580 2.99024
#
# Compressibility (1/GPa) = 0.04154392
#
# Stress axis : x y z
#
# Youngs Moduli (GPa) = 46.54812 63.26062 60.96730
#
# Poissons Ratio (x) = -0.05182 -0.11210
# Poissons Ratio (y) = -0.03813 0.53239
# Poissons Ratio (z) = -0.08559 0.55242
#
# Static dielectric constant tensor:
#      x y z
#    x 1.762100 0.000000 0.000000 
#    y 0.000000 1.729480 0.000000 
#    z 0.000000 0.000000 1.731320 
# 
# From -- ./inp_files/10717.got.cif
#   From: 2010.05.17/outbox.cif.g08.bks.cpg/sg58_6_cif.got.tgz:10717.got - 2010.06.03 14:20:14.
