data_PCOD9442839
_publ_section_title
;
Structure prediction by ZEFSAII (Michael W. Deem and Ramdas Pophale) SiO2 
 PCOD9442839
Probable space group: P N N M
;
_chemical_formula_sum "Si O2"
_cell_formula_units_Z 58
_cell_length_a 13.452363
_cell_length_b 27.012821
_cell_length_c 7.463467
_cell_angle_alpha 90.000000
_cell_angle_beta 90.000000
_cell_angle_gamma 90.000000
_cell_volume 2712.121462
_symmetry_space_group_name_H-M "P N N M"
_symmetry_group_IT_number 58
_symmetry_cell_setting 'orthorhombic'
loop_
_space_group_symop_operation_xyz
x,y,z
-x,-y,z
1/2+x,1/2-y,1/2-z
1/2-x,1/2+y,1/2-z
-x,-y,-z
x,y,-z
1/2-x,1/2+y,1/2+z
1/2+x,1/2-y,1/2+z
loop_
_atom_site_type_symbol
_atom_site_label
_atom_site_fract_x
_atom_site_fract_y
_atom_site_fract_z
Si Si1 0.454848 0.076593 0.283351
Si Si2 0.745508 0.662121 0.783036
Si Si3 0.663914 0.557915 0.208294
Si Si4 0.230806 0.048209 0.715167
Si Si5 0.041898 0.789221 0.210502
Si Si6 0.500000 0.000000 0.000000
Si Si7 0.464255 0.606783 0.710714
Si Si8 0.032240 0.315863 0.217935
O O1 0.469109 0.069665 0.500000
O O2 0.342178 0.061796 0.229571
O O3 0.473897 0.133930 0.238770
O O4 0.521597 0.041561 0.160029
O O5 0.715049 0.607372 0.716531
O O6 0.658318 0.699332 0.729236
O O7 0.854054 0.677885 0.723160
O O8 0.745581 0.660459 0.000000
O O9 0.696530 0.505444 0.286273
O O10 0.545852 0.568328 0.215274
O O11 0.693087 0.556102 0.000000
O O12 0.232423 0.046531 0.500000
O O13 0.146844 0.087982 0.762793
O O14 0.987099 0.838327 0.285179
O O15 0.012407 0.735837 0.284647
O O16 0.016702 0.787695 0.000000
O O17 0.484835 0.608359 0.500000
O O18 0.032128 0.314333 0.000000
#
# Coordination Sequence:
#
# PCOD9442839 Si02
#       8
#     8   8   8   8   8   2   8   8
#     4  10  24  44  64  90 123 162 201 248 304 362
#     4   9  18  34  57  83 106 146 199 246 296 356
#     4   9  18  33  53  78 109 148 199 244 289 361
#     4  10  21  36  57  83 114 156 198 242 301 361
#     4   9  19  37  56  82 116 155 194 244 306 358
#     4  12  26  44  64  94 126 160 202 252 298 362
#     4  10  20  33  52  81 118 154 193 247 305 354
#     4   9  19  39  63  82 114 157 197 240 297 362
#
# _framework density 21.385472
#
# number of rings (size 3 to 8) (size 9 to 14) (size 15 to 20)
#    0.000    2.483    0.000    1.034    2.897    3.862 
#    2.483    0.000    0.000    0.000    0.000    0.000 
#    0.000    0.000    0.000    0.000    0.000    0.000 
#
# Total GULP energy -323282.190608 kJ/mol
# GULP energy per Si atom -5573.830873 kJ/mol
# Density = 2.133680 g / cm^3
# Si number density = 21.385472 Si / 1000 Ang^3
#
#
#
# Elastic Constant Matrix: (Units=GPa)
#
#
# Indices 1 2 3 4 5 6 
#
# 1 68.2937 43.1478 -2.6430 0.0000 0.0000 0.0000
# 2 43.1478 107.7650 22.5572 0.0000 0.0000 0.0000
# 3 -2.6430 22.5572 73.1325 0.0000 0.0000 0.0000
# 4 0.0000 0.0000 0.0000 15.4184 0.0000 0.0000
# 5 0.0000 0.0000 0.0000 0.0000 0.2295 0.0000
# 6 0.0000 0.0000 0.0000 0.0000 0.0000 18.4021
#
#
#
# Elastic Compliance Matrix: (Units=1/GPa)
#
#
# Indices 1 2 3 4 5 6 
#
# 1 0.020398 -0.008896 0.003481 0.000000 0.000000 0.000000
# 2 -0.008896 0.013799 -0.004578 0.000000 0.000000 0.000000
# 3 0.003481 -0.004578 0.015212 0.000000 0.000000 0.000000
# 4 0.000000 0.000000 0.000000 0.064857 0.000000 0.000000
# 5 0.000000 0.000000 0.000000 0.000000 4.356815 0.000000
# 6 0.000000 0.000000 0.000000 0.000000 0.000000 0.054342
#
#
# Mechanical properties :
#
#
# Convention : Reuss Voigt Hill
#
# Bulk Modulus (GPa) = 33.98628 41.70169 37.84399
# Shear Modulus (GPa) = 1.09764 19.21862 10.15813
#
# Velocity S-wave (km/s) = 0.71720 3.00105 2.18182
# Velocity P-wave (km/s) = 4.07585 5.61700 4.90730
#
# Compressibility (1/GPa) = 0.02942364
#
# Stress axis : x y z
#
# Youngs Moduli (GPa) = 49.02561 72.46732 65.73934
#
# Poissons Ratio (x) = 0.64463 -0.22883
# Poissons Ratio (y) = 0.43611 0.30094
# Poissons Ratio (z) = -0.17065 0.33174
#
# Static dielectric constant tensor:
#      x y z
#    x 1.770750 0.000000 0.000000 
#    y 0.000000 1.780650 0.000000 
#    z 0.000000 0.000000 1.849860 
# 
# From -- ./inp_files/4434.got.cif
#   From: 2010.05.17/outbox.cif.g08.bks.cpg/sg58_3_cif.got.tgz:4434.got - 2010.06.03 14:20:14.
