data_PCOD9442285
_publ_section_title
;
Structure prediction by ZEFSAII (Michael W. Deem and Ramdas Pophale) SiO2 
 PCOD9442285
Probable space group: P N N M
;
_chemical_formula_sum "Si O2"
_cell_formula_units_Z 64
_cell_length_a 24.937322
_cell_length_b 15.198601
_cell_length_c 7.688448
_cell_angle_alpha 90.000000
_cell_angle_beta 90.000000
_cell_angle_gamma 90.000000
_cell_volume 2914.017183
_symmetry_space_group_name_H-M "P N N M"
_symmetry_group_IT_number 58
_symmetry_cell_setting 'orthorhombic'
loop_
_space_group_symop_operation_xyz
x,y,z
-x,-y,z
1/2+x,1/2-y,1/2-z
1/2-x,1/2+y,1/2-z
-x,-y,-z
x,y,-z
1/2-x,1/2+y,1/2+z
1/2+x,1/2-y,1/2+z
loop_
_atom_site_type_symbol
_atom_site_label
_atom_site_fract_x
_atom_site_fract_y
_atom_site_fract_z
Si Si1 0.509531 0.401552 0.201955
Si Si2 0.546180 0.937973 0.296890
Si Si3 0.875184 0.931257 0.790705
Si Si4 0.164515 0.516228 0.297582
Si Si5 0.655088 0.620954 0.288593
Si Si6 0.739994 0.354559 0.287131
Si Si7 0.727227 0.154187 0.300241
Si Si8 0.930273 0.249540 0.797708
O O1 0.500000 0.500000 0.275529
O O2 0.572878 0.383480 0.217359
O O3 0.474915 0.325971 0.289860
O O4 0.493813 0.402756 0.000000
O O5 0.531349 0.926094 0.500000
O O6 0.606184 0.976506 0.287381
O O7 0.550267 0.840368 0.217576
O O8 0.500000 0.000000 0.219991
O O9 0.816822 0.897374 0.736609
O O10 0.877947 0.034000 0.742174
O O11 0.877608 0.924497 0.000000
O O12 0.156851 0.536970 0.500000
O O13 0.209148 0.586416 0.228453
O O14 0.188167 0.417618 0.283065
O O15 0.659479 0.622579 0.500000
O O16 0.713758 0.613263 0.212639
O O17 0.623877 0.706743 0.223645
O O18 0.742469 0.355037 0.500000
O O19 0.736047 0.252948 0.228149
O O20 0.709987 0.163903 0.500000
O O21 0.917701 0.266938 0.000000
#
# Coordination Sequence:
#
# PCOD9442285 Si02
#       8
#     8   8   8   8   8   8   8   8
#     4  11  23  36  53  84 122 152 189 241 296 351
#     4  10  23  43  64  88 119 154 198 248 298 352
#     4  10  19  36  59  79 111 154 194 234 286 349
#     4  11  22  41  65  89 120 156 199 245 294 349
#     4  10  19  34  58  85 113 147 196 245 286 341
#     4   9  20  38  58  84 117 154 191 232 288 351
#     4  11  22  36  59  88 119 155 193 234 290 351
#     4  10  21  38  62  87 113 156 205 246 293 355
#
# _framework density 21.962807999999999
#
# number of rings (size 3 to 8) (size 9 to 14) (size 15 to 20)
#    0.000    1.750    2.500    1.875    0.000    3.250 
#    0.000    8.125    0.000    0.000    0.000    0.000 
#    0.000    0.000    0.000    0.000    0.000    0.000 
#
# Total GULP energy -357414.000170 kJ/mol
# GULP energy per Si atom -5584.593753 kJ/mol
# Density = 2.191282 g / cm^3
# Si number density = 21.962808 Si / 1000 Ang^3
#
#
#
# Elastic Constant Matrix: (Units=GPa)
#
#
# Indices 1 2 3 4 5 6 
#
# 1 106.4039 40.9480 -18.2299 0.0000 0.0000 0.0000
# 2 40.9480 113.1619 -4.6751 0.0000 0.0000 0.0000
# 3 -18.2299 -4.6751 33.9112 0.0000 0.0000 0.0000
# 4 0.0000 0.0000 0.0000 11.3293 0.0000 0.0000
# 5 0.0000 0.0000 0.0000 0.0000 14.8447 0.0000
# 6 0.0000 0.0000 0.0000 0.0000 0.0000 31.8664
#
#
#
# Elastic Compliance Matrix: (Units=1/GPa)
#
#
# Indices 1 2 3 4 5 6 
#
# 1 0.011980 -0.004092 0.005876 0.000000 0.000000 0.000000
# 2 -0.004092 0.010285 -0.000782 0.000000 0.000000 0.000000
# 3 0.005876 -0.000782 0.032540 0.000000 0.000000 0.000000
# 4 0.000000 0.000000 0.000000 0.088267 0.000000 0.000000
# 5 0.000000 0.000000 0.000000 0.000000 0.067364 0.000000
# 6 0.000000 0.000000 0.000000 0.000000 0.000000 0.031381
#
#
# Mechanical properties :
#
#
# Convention : Reuss Voigt Hill
#
# Bulk Modulus (GPa) = 17.60304 32.17366 24.88835
# Shear Modulus (GPa) = 19.32374 27.30368 23.31371
#
# Velocity S-wave (km/s) = 2.96943 3.52970 3.26161
# Velocity P-wave (km/s) = 4.44848 5.59398 5.05379
#
# Compressibility (1/GPa) = 0.05680837
#
# Stress axis : x y z
#
# Youngs Moduli (GPa) = 83.47495 97.22572 30.73171
#
# Poissons Ratio (x) = 0.39786 -0.18057
# Poissons Ratio (y) = 0.34159 0.02403
# Poissons Ratio (z) = -0.49049 0.07602
#
# Static dielectric constant tensor:
#      x y z
#    x 1.781720 0.000000 0.000000 
#    y 0.000000 1.852620 0.000000 
#    z 0.000000 0.000000 1.837700 
# 
# From -- ./inp_files/9940.got.cif
#   From: 2010.05.17/outbox.cif.g08.bks.cpg/sg58_5_cif.got.tgz:9940.got - 2010.06.03 14:20:14.
