data_PCOD9442880
_publ_section_title
;
Structure prediction by ZEFSAII (Michael W. Deem and Ramdas Pophale) SiO2 
 PCOD9442880
Probable space group: P N N M
;
_chemical_formula_sum "Si O2"
_cell_formula_units_Z 56
_cell_length_a 19.382190
_cell_length_b 18.592829
_cell_length_c 8.971625
_cell_angle_alpha 90.000000
_cell_angle_beta 90.000000
_cell_angle_gamma 90.000000
_cell_volume 3233.102207
_symmetry_space_group_name_H-M "P N N M"
_symmetry_group_IT_number 58
_symmetry_cell_setting 'orthorhombic'
loop_
_space_group_symop_operation_xyz
x,y,z
-x,-y,z
1/2+x,1/2-y,1/2-z
1/2-x,1/2+y,1/2-z
-x,-y,-z
x,y,-z
1/2-x,1/2+y,1/2+z
1/2+x,1/2-y,1/2+z
loop_
_atom_site_type_symbol
_atom_site_label
_atom_site_fract_x
_atom_site_fract_y
_atom_site_fract_z
Si Si1 0.575382 0.528698 0.320021
Si Si2 0.547751 0.838436 0.679851
Si Si3 0.113662 0.809974 0.821533
Si Si4 0.748759 0.158854 0.670938
Si Si5 0.786822 0.988441 0.327903
Si Si6 0.146745 0.543283 0.321960
Si Si7 0.105350 0.391536 0.180171
O O1 0.500000 0.500000 0.278896
O O2 0.581957 0.525033 0.500000
O O3 0.584603 0.612246 0.273428
O O4 0.638313 0.484721 0.247478
O O5 0.555830 0.844772 0.500000
O O6 0.567758 0.757578 0.725144
O O7 0.599252 0.893601 0.758468
O O8 0.468966 0.858887 0.714612
O O9 0.191903 0.802947 0.763922
O O10 0.115015 0.811116 0.000000
O O11 0.752489 0.183336 0.500000
O O12 0.767224 0.073598 0.674701
O O13 0.669490 0.160004 0.722775
O O14 0.788180 0.965599 0.500000
O O15 0.724848 0.950668 0.239744
O O16 0.146912 0.542200 0.500000
O O17 0.116458 0.468024 0.258955
O O18 0.110379 0.402377 0.000000
#
# Coordination Sequence:
#
# PCOD9442880 Si02
#       7
#     8   8   8   8   8   8   8
#     4   9  17  31  52  78 106 132 164 211 259 295
#     4  10  20  34  50  69  99 136 169 201 244 301
#     4   9  18  32  50  71  97 133 169 200 243 298
#     4   8  15  29  49  70  91 120 160 203 242 283
#     4   9  17  31  51  73  97 127 165 202 240 294
#     4  11  21  32  49  74 101 128 163 208 256 300
#     4   9  18  33  52  72  96 131 171 206 243 293
#
# _framework density 17.320826
#
# number of rings (size 3 to 8) (size 9 to 14) (size 15 to 20)
#    0.000    2.714    0.000    3.000    0.000    6.571 
#    0.000    1.429    0.000    3.429    0.000    0.000 
#    0.000    0.000    0.000    0.000    0.000    0.000 
#
# Total GULP energy -312124.311380 kJ/mol
# GULP energy per Si atom -5573.648417 kJ/mol
# Density = 1.728140 g / cm^3
# Si number density = 17.320826 Si / 1000 Ang^3
#
#
#
# Elastic Constant Matrix: (Units=GPa)
#
#
# Indices 1 2 3 4 5 6 
#
# 1 189.5533 66.7469 56.1946 0.0000 0.0000 0.0000
# 2 66.7469 60.8420 28.8792 0.0000 0.0000 0.0000
# 3 56.1946 28.8792 41.3093 0.0000 0.0000 0.0000
# 4 0.0000 0.0000 0.0000 12.6719 0.0000 0.0000
# 5 0.0000 0.0000 0.0000 0.0000 30.4001 0.0000
# 6 0.0000 0.0000 0.0000 0.0000 0.0000 16.1429
#
#
#
# Elastic Compliance Matrix: (Units=1/GPa)
#
#
# Indices 1 2 3 4 5 6 
#
# 1 0.010575 -0.007144 -0.009392 0.000000 0.000000 0.000000
# 2 -0.007144 0.029424 -0.010853 0.000000 0.000000 0.000000
# 3 -0.009392 -0.010853 0.044571 0.000000 0.000000 0.000000
# 4 0.000000 0.000000 0.000000 0.078915 0.000000 0.000000
# 5 0.000000 0.000000 0.000000 0.000000 0.032895 0.000000
# 6 0.000000 0.000000 0.000000 0.000000 0.000000 0.061947
#
#
# Mechanical properties :
#
#
# Convention : Reuss Voigt Hill
#
# Bulk Modulus (GPa) = 33.56371 66.14957 49.85664
# Shear Modulus (GPa) = 15.47820 21.16856 18.32338
#
# Velocity S-wave (km/s) = 2.99259 3.49971 3.25604
# Velocity P-wave (km/s) = 5.60005 7.38947 6.55610
#
# Compressibility (1/GPa) = 0.02979408
#
# Stress axis : x y z
#
# Youngs Moduli (GPa) = 94.55914 33.98537 22.43625
#
# Poissons Ratio (x) = 0.24279 0.21072
# Poissons Ratio (y) = 0.67551 0.24349
# Poissons Ratio (z) = 0.88809 0.36883
#
# Static dielectric constant tensor:
#      x y z
#    x 1.593000 0.000000 0.000000 
#    y 0.000000 1.574660 0.000000 
#    z 0.000000 0.000000 1.587230 
# 
# From -- ./inp_files/8169.got.cif
#   From: 2010.05.17/outbox.cif.g08.bks.cpg/sg58_5_cif.got.tgz:8169.got - 2010.06.03 14:20:14.
