data_PCOD9442810
_publ_section_title
;
Structure prediction by ZEFSAII (Michael W. Deem and Ramdas Pophale) SiO2 
 PCOD9442810
Probable space group: P N N M
;
_chemical_formula_sum "Si O2"
_cell_formula_units_Z 56
_cell_length_a 14.857031
_cell_length_b 21.698261
_cell_length_c 8.486178
_cell_angle_alpha 90.000000
_cell_angle_beta 90.000000
_cell_angle_gamma 90.000000
_cell_volume 2735.703937
_symmetry_space_group_name_H-M "P N N M"
_symmetry_group_IT_number 58
_symmetry_cell_setting 'orthorhombic'
loop_
_space_group_symop_operation_xyz
x,y,z
-x,-y,z
1/2+x,1/2-y,1/2-z
1/2-x,1/2+y,1/2-z
-x,-y,-z
x,y,-z
1/2-x,1/2+y,1/2+z
1/2+x,1/2-y,1/2+z
loop_
_atom_site_type_symbol
_atom_site_label
_atom_site_fract_x
_atom_site_fract_y
_atom_site_fract_z
Si Si1 0.500728 0.732009 0.681790
Si Si2 0.734547 0.105292 0.691194
Si Si3 0.417817 0.044248 0.185169
Si Si4 0.555205 0.147569 0.181724
Si Si5 0.158940 0.156152 0.688715
Si Si6 0.276391 0.525549 0.814834
Si Si7 0.699694 0.742055 0.812334
O O1 0.516004 0.718538 0.500000
O O2 0.443355 0.794467 0.704028
O O3 0.438695 0.679993 0.758671
O O4 0.595501 0.745859 0.763831
O O5 0.726472 0.103099 0.500000
O O6 0.636675 0.103068 0.771027
O O7 0.771762 0.172489 0.735679
O O8 0.790521 0.044778 0.743040
O O9 0.461310 0.111857 0.196114
O O10 0.329783 0.037014 0.288225
O O11 0.500000 0.000000 0.231305
O O12 0.396661 0.032312 0.000000
O O13 0.566097 0.167415 0.000000
O O14 0.162699 0.154874 0.500000
O O15 0.177031 0.086913 0.752192
O O16 0.235779 0.204826 0.743006
O O17 0.297769 0.524398 0.000000
O O18 0.707381 0.746570 0.000000
#
# Coordination Sequence:
#
# PCOD9442810 Si02
#       7
#     8   8   8   8   8   8   8
#     4  12  25  41  62  89 121 159 206 258 310 366
#     4  10  21  38  60  87 120 157 200 244 300 362
#     4  10  20  33  50  81 119 156 193 236 293 360
#     4  11  21  35  58  85 118 156 197 246 303 362
#     4  11  23  41  64  92 126 162 205 254 308 367
#     4  10  22  38  58  86 120 161 201 248 302 363
#     4  11  23  41  65  92 122 161 207 256 309 367
#
# _framework density 20.470051000000002
#
# number of rings (size 3 to 8) (size 9 to 14) (size 15 to 20)
#    0.000    1.286    2.857    3.429    0.000    5.429 
#    0.000    0.714    0.000    4.286    0.000    0.000 
#    0.000    0.000    0.000    0.000    0.000    0.000 
#
# Total GULP energy -312668.485945 kJ/mol
# GULP energy per Si atom -5583.365820 kJ/mol
# Density = 2.042346 g / cm^3
# Si number density = 20.470051 Si / 1000 Ang^3
#
#
#
# Elastic Constant Matrix: (Units=GPa)
#
#
# Indices 1 2 3 4 5 6 
#
# 1 27.8565 -1.4462 -6.2081 0.0000 0.0000 0.0000
# 2 -1.4462 93.6645 13.5972 0.0000 0.0000 0.0000
# 3 -6.2081 13.5972 24.5567 0.0000 0.0000 0.0000
# 4 0.0000 0.0000 0.0000 30.7631 0.0000 0.0000
# 5 0.0000 0.0000 0.0000 0.0000 21.1407 0.0000
# 6 0.0000 0.0000 0.0000 0.0000 0.0000 28.4144
#
#
#
# Elastic Compliance Matrix: (Units=1/GPa)
#
#
# Indices 1 2 3 4 5 6 
#
# 1 0.038108 -0.000881 0.010122 0.000000 0.000000 0.000000
# 2 -0.000881 0.011630 -0.006662 0.000000 0.000000 0.000000
# 3 0.010122 -0.006662 0.046970 0.000000 0.000000 0.000000
# 4 0.000000 0.000000 0.000000 0.032506 0.000000 0.000000
# 5 0.000000 0.000000 0.000000 0.000000 0.047302 0.000000
# 6 0.000000 0.000000 0.000000 0.000000 0.000000 0.035193
#
#
# Mechanical properties :
#
#
# Convention : Reuss Voigt Hill
#
# Bulk Modulus (GPa) = 9.81689 17.55150 13.68419
# Shear Modulus (GPa) = 20.78931 25.40597 23.09764
#
# Velocity S-wave (km/s) = 3.19030 3.52679 3.36276
# Velocity P-wave (km/s) = 4.28682 5.01768 4.66658
#
# Compressibility (1/GPa) = 0.10186528
#
# Stress axis : x y z
#
# Youngs Moduli (GPa) = 26.24104 85.98484 21.29019
#
# Poissons Ratio (x) = 0.07575 -0.21550
# Poissons Ratio (y) = 0.02312 0.14184
# Poissons Ratio (z) = -0.26561 0.57286
#
# Static dielectric constant tensor:
#      x y z
#    x 1.720500 0.000000 0.000000 
#    y 0.000000 1.817260 0.000000 
#    z 0.000000 0.000000 1.696540 
# 
# From -- ./inp_files/6357.got.cif
#   From: 2010.05.17/outbox.cif.g08.bks.cpg/sg58_4_cif.got.tgz:6357.got - 2010.06.03 14:20:14.
