data_PCOD9442924
_publ_section_title
;
Structure prediction by ZEFSAII (Michael W. Deem and Ramdas Pophale) SiO2 
 PCOD9442924
Probable space group: P N N M
;
_chemical_formula_sum "Si O2"
_cell_formula_units_Z 48
_cell_length_a 30.571702
_cell_length_b 10.534291
_cell_length_c 7.566512
_cell_angle_alpha 90.000000
_cell_angle_beta 90.000000
_cell_angle_gamma 90.000000
_cell_volume 2436.804309
_symmetry_space_group_name_H-M "P N N M"
_symmetry_group_IT_number 58
_symmetry_cell_setting 'orthorhombic'
loop_
_space_group_symop_operation_xyz
x,y,z
-x,-y,z
1/2+x,1/2-y,1/2-z
1/2-x,1/2+y,1/2-z
-x,-y,-z
x,y,-z
1/2-x,1/2+y,1/2+z
1/2+x,1/2-y,1/2+z
loop_
_atom_site_type_symbol
_atom_site_label
_atom_site_fract_x
_atom_site_fract_y
_atom_site_fract_z
Si Si1 0.882156 0.016416 0.287459
Si Si2 0.476487 0.872467 0.216321
Si Si3 0.782157 0.004142 0.208437
Si Si4 0.615407 0.224751 0.784014
Si Si5 0.528129 0.622750 0.784045
Si Si6 0.713014 0.208425 0.209629
O O1 0.883618 0.016363 0.500000
O O2 0.921749 0.104773 0.225296
O O3 0.832345 0.045899 0.238915
O O4 0.891477 0.871441 0.230791
O O5 0.426153 0.856733 0.272557
O O6 0.504139 0.750078 0.273411
O O7 0.500000 0.000000 0.274998
O O8 0.476266 0.872516 0.000000
O O9 0.776605 0.858526 0.271175
O O10 0.748566 0.109219 0.282181
O O11 0.775679 0.997429 0.000000
O O12 0.663711 0.186779 0.721080
O O13 0.616119 0.223392 0.000000
O O14 0.500000 0.500000 0.731296
O O15 0.528097 0.624279 0.000000
O O16 0.710985 0.186511 0.000000
#
# Coordination Sequence:
#
# PCOD9442924 Si02
#       6
#     8   8   8   8   8   8
#     4   9  16  28  48  70  94 126 163 200 240 291
#     4   9  15  22  35  62  95 118 143 191 245 285
#     4  10  20  34  52  75 102 130 166 207 250 301
#     4   8  13  25  43  61  88 123 152 186 238 289
#     4   9  14  23  41  65  89 119 158 195 236 284
#     4   9  19  35  53  73  98 130 166 207 250 292
#
# _framework density 19.697928000000001
#
# number of rings (size 3 to 8) (size 9 to 14) (size 15 to 20)
#    0.000    3.000    1.667    1.500    0.000    1.333 
#    3.000    0.000    0.000    0.500    0.000    0.000 
#    0.000   11.333    0.000    0.000    0.000    0.000 
#
# Total GULP energy -267583.474247 kJ/mol
# GULP energy per Si atom -5574.655713 kJ/mol
# Density = 1.965309 g / cm^3
# Si number density = 19.697928 Si / 1000 Ang^3
#
#
#
# Elastic Constant Matrix: (Units=GPa)
#
#
# Indices 1 2 3 4 5 6 
#
# 1 200.6107 119.0669 4.7347 0.0000 0.0000 0.0000
# 2 119.0669 136.4439 1.2808 0.0000 0.0000 0.0000
# 3 4.7347 1.2808 42.4993 0.0000 0.0000 0.0000
# 4 0.0000 0.0000 0.0000 7.6412 0.0000 0.0000
# 5 0.0000 0.0000 0.0000 0.0000 16.7696 0.0000
# 6 0.0000 0.0000 0.0000 0.0000 0.0000 40.4672
#
#
#
# Elastic Compliance Matrix: (Units=1/GPa)
#
#
# Indices 1 2 3 4 5 6 
#
# 1 0.010373 -0.009044 -0.000883 0.000000 0.000000 0.000000
# 2 -0.009044 0.015216 0.000549 0.000000 0.000000 0.000000
# 3 -0.000883 0.000549 0.023612 0.000000 0.000000 0.000000
# 4 0.000000 0.000000 0.000000 0.130870 0.000000 0.000000
# 5 0.000000 0.000000 0.000000 0.000000 0.059632 0.000000
# 6 0.000000 0.000000 0.000000 0.000000 0.000000 0.024711
#
#
# Mechanical properties :
#
#
# Convention : Reuss Voigt Hill
#
# Bulk Modulus (GPa) = 32.84621 69.96873 51.40747
# Shear Modulus (GPa) = 17.04630 29.94036 23.49333
#
# Velocity S-wave (km/s) = 2.94494 3.90292 3.45727
# Velocity P-wave (km/s) = 5.31739 7.47719 6.48780
#
# Compressibility (1/GPa) = 0.03044492
#
# Stress axis : x y z
#
# Youngs Moduli (GPa) = 96.39974 65.71981 42.35196
#
# Poissons Ratio (x) = 0.59437 0.03740
# Poissons Ratio (y) = 0.87185 -0.02325
# Poissons Ratio (z) = 0.08513 -0.03608
#
# Static dielectric constant tensor:
#      x y z
#    x 1.717310 0.000000 0.000000 
#    y 0.000000 1.663260 0.000000 
#    z 0.000000 0.000000 1.753980 
# 
# From -- ./inp_files/10336.got.cif
#   From: 2010.05.17/outbox.cif.g08.bks.cpg/sg58_6_cif.got.tgz:10336.got - 2010.06.03 14:20:14.
