data_PCOD9442083
_publ_section_title
;
Structure prediction by ZEFSAII (Michael W. Deem and Ramdas Pophale) SiO2 
 PCOD9442083
Probable space group: P N N M
;
_chemical_formula_sum "Si O2"
_cell_formula_units_Z 48
_cell_length_a 8.934981
_cell_length_b 8.928945
_cell_length_c 28.943369
_cell_angle_alpha 90.000000
_cell_angle_beta 90.000000
_cell_angle_gamma 90.000000
_cell_volume 2309.100645
_symmetry_space_group_name_H-M "P N N M"
_symmetry_group_IT_number 58
_symmetry_cell_setting 'orthorhombic'
loop_
_space_group_symop_operation_xyz
x,y,z
-x,-y,z
1/2+x,1/2-y,1/2-z
1/2-x,1/2+y,1/2-z
-x,-y,-z
x,y,-z
1/2-x,1/2+y,1/2+z
1/2+x,1/2-y,1/2+z
loop_
_atom_site_type_symbol
_atom_site_label
_atom_site_fract_x
_atom_site_fract_y
_atom_site_fract_z
Si Si1 0.668830 0.068332 0.449584
Si Si2 0.534686 0.672994 0.549501
Si Si3 0.753585 0.616642 0.851158
Si Si4 0.938462 0.337719 0.303462
Si Si5 0.270470 0.662711 0.217225
Si Si6 0.048286 0.825267 0.150954
O O1 0.734643 0.032560 0.500000
O O2 0.624968 0.243298 0.448718
O O3 0.749410 0.039539 0.401493
O O4 0.500000 0.000000 0.447540
O O5 0.500000 0.500000 0.548316
O O6 0.606485 0.715669 0.500000
O O7 0.611203 0.700287 0.598732
O O8 0.626129 0.740890 0.845331
O O9 0.733390 0.492065 0.811554
O O10 0.910363 0.707024 0.845257
O O11 0.805623 0.359819 0.266584
O O12 0.000000 0.500000 0.316397
O O13 0.066952 0.236539 0.279935
O O14 0.169241 0.779082 0.188377
O O15 0.000000 0.000000 0.155234
#
# Coordination Sequence:
#
# PCOD9442083 Si02
#       6
#     8   8   8   8   8   8
#     4   9  17  31  56  88 118 150 190 237 287 340
#     4   8  14  25  44  74 109 143 179 221 269 322
#     4  11  22  39  61  87 120 154 193 243 292 345
#     4  12  26  42  61  83 113 151 194 240 292 353
#     4  12  24  40  60  84 113 148 192 239 292 347
#     4  10  19  33  56  84 116 150 188 235 285 338
#
# _framework density 20.787313000000001
#
# number of rings (size 3 to 8) (size 9 to 14) (size 15 to 20)
#    0.000    1.667    0.000    7.000    0.000    1.333 
#    0.000    0.000    0.000    3.500    0.000    0.000 
#    0.000    0.000    0.000    0.000    0.000    0.000 
#
# Total GULP energy -267840.764364 kJ/mol
# GULP energy per Si atom -5580.015924 kJ/mol
# Density = 2.074000 g / cm^3
# Si number density = 20.787313 Si / 1000 Ang^3
#
#
#
# Elastic Constant Matrix: (Units=GPa)
#
#
# Indices 1 2 3 4 5 6 
#
# 1 55.0969 16.9011 13.9588 0.0000 0.0000 0.0000
# 2 16.9011 120.7244 15.3287 0.0000 0.0000 0.0000
# 3 13.9588 15.3287 102.5349 0.0000 0.0000 0.0000
# 4 0.0000 0.0000 0.0000 24.3494 0.0000 0.0000
# 5 0.0000 0.0000 0.0000 0.0000 15.0138 0.0000
# 6 0.0000 0.0000 0.0000 0.0000 0.0000 28.7259
#
#
#
# Elastic Compliance Matrix: (Units=1/GPa)
#
#
# Indices 1 2 3 4 5 6 
#
# 1 0.019477 -0.002436 -0.002287 0.000000 0.000000 0.000000
# 2 -0.002436 0.008748 -0.000976 0.000000 0.000000 0.000000
# 3 -0.002287 -0.000976 0.010210 0.000000 0.000000 0.000000
# 4 0.000000 0.000000 0.000000 0.041069 0.000000 0.000000
# 5 0.000000 0.000000 0.000000 0.000000 0.066606 0.000000
# 6 0.000000 0.000000 0.000000 0.000000 0.000000 0.034812
#
#
# Mechanical properties :
#
#
# Convention : Reuss Voigt Hill
#
# Bulk Modulus (GPa) = 36.98823 41.19261 39.09042
# Shear Modulus (GPa) = 24.83453 29.09565 26.96509
#
# Velocity S-wave (km/s) = 3.46019 3.74529 3.60556
# Velocity P-wave (km/s) = 5.81345 6.20985 6.01491
#
# Compressibility (1/GPa) = 0.02703562
#
# Stress axis : x y z
#
# Youngs Moduli (GPa) = 51.34356 114.30729 97.94226
#
# Poissons Ratio (x) = 0.27848 0.22402
# Poissons Ratio (y) = 0.12509 0.09561
# Poissons Ratio (z) = 0.11744 0.11159
#
# Static dielectric constant tensor:
#      x y z
#    x 1.727180 0.000000 0.000000 
#    y 0.000000 1.829020 0.000000 
#    z 0.000000 0.000000 1.821350 
# 
# From -- ./inp_files/34568.got.cif
#   From: 2010.05.17/outbox.cif.g08.bks.cpg/sg58_18_cif.got.tgz:34568.got - 2010.06.03 14:20:14.
