data_PCOD9442769
_publ_section_title
;
Structure prediction by ZEFSAII (Michael W. Deem and Ramdas Pophale) SiO2 
 PCOD9442769
Probable space group: P N N M
;
_chemical_formula_sum "Si O2"
_cell_formula_units_Z 64
_cell_length_a 12.675089
_cell_length_b 29.377824
_cell_length_c 7.406326
_cell_angle_alpha 90.000000
_cell_angle_beta 90.000000
_cell_angle_gamma 90.000000
_cell_volume 2757.867941
_symmetry_space_group_name_H-M "P N N M"
_symmetry_group_IT_number 58
_symmetry_cell_setting 'orthorhombic'
loop_
_space_group_symop_operation_xyz
x,y,z
-x,-y,z
1/2+x,1/2-y,1/2-z
1/2-x,1/2+y,1/2-z
-x,-y,-z
x,y,-z
1/2-x,1/2+y,1/2+z
1/2+x,1/2-y,1/2+z
loop_
_atom_site_type_symbol
_atom_site_label
_atom_site_fract_x
_atom_site_fract_y
_atom_site_fract_z
Si Si1 0.098837 0.709485 0.788372
Si Si2 0.803311 0.385063 0.211927
Si Si3 0.347381 0.309396 0.278976
Si Si4 0.518209 0.068435 0.782406
Si Si5 0.114019 0.335151 0.716944
Si Si6 0.377063 0.552193 0.705515
Si Si7 0.727096 0.026908 0.220171
Si Si8 0.910397 0.094184 0.780301
O O1 0.154909 0.663580 0.715101
O O2 0.124500 0.759107 0.713622
O O3 0.974887 0.700523 0.770291
O O4 0.126449 0.710539 0.000000
O O5 0.696139 0.403126 0.297282
O O6 0.896767 0.422633 0.232842
O O7 0.783941 0.380268 0.000000
O O8 0.351405 0.308626 0.500000
O O9 0.228744 0.321109 0.222144
O O10 0.415321 0.353273 0.222359
O O11 0.573281 0.115691 0.722413
O O12 0.604918 0.031230 0.720372
O O13 0.516214 0.065091 0.000000
O O14 0.117655 0.337940 0.500000
O O15 0.397485 0.536752 0.500000
O O16 0.300235 0.514187 0.787820
O O17 0.490576 0.564434 0.785223
O O18 0.797917 0.071343 0.263613
O O19 0.721747 0.023509 0.000000
O O20 0.915736 0.093972 0.000000
#
# Coordination Sequence:
#
# PCOD9442769 Si02
#       8
#     8   8   8   8   8   8   8   8
#     4   9  19  33  49  70  97 131 166 202 247 295
#     4  10  21  36  49  66 101 141 171 204 250 297
#     4   9  16  29  50  75  99 126 162 202 249 298
#     4   9  16  30  54  76  95 123 165 211 247 288
#     4   9  16  29  50  72  94 123 160 203 245 288
#     4  10  20  32  51  78 106 133 163 202 250 304
#     4   9  16  29  51  80 105 126 158 207 259 299
#     4   9  16  29  51  79 105 127 159 205 254 302
#
# _framework density 23.206330999999999
#
# number of rings (size 3 to 8) (size 9 to 14) (size 15 to 20)
#    0.000    2.750    1.250    0.750    0.000    3.500 
#    0.000    3.750    0.000    3.000    0.000    0.000 
#    0.000    0.000    0.000    0.000    0.000    0.000 
#
# Total GULP energy -357181.934001 kJ/mol
# GULP energy per Si atom -5580.967719 kJ/mol
# Density = 2.315351 g / cm^3
# Si number density = 23.206331 Si / 1000 Ang^3
#
#
#
# Elastic Constant Matrix: (Units=GPa)
#
#
# Indices 1 2 3 4 5 6 
#
# 1 91.6681 10.6941 -5.9943 0.0000 0.0000 0.0000
# 2 10.6941 72.3561 -8.0569 0.0000 0.0000 0.0000
# 3 -5.9943 -8.0569 76.5399 0.0000 0.0000 0.0000
# 4 0.0000 0.0000 0.0000 1.7471 0.0000 0.0000
# 5 0.0000 0.0000 0.0000 0.0000 0.6311 0.0000
# 6 0.0000 0.0000 0.0000 0.0000 0.0000 32.2716
#
#
#
# Elastic Compliance Matrix: (Units=1/GPa)
#
#
# Indices 1 2 3 4 5 6 
#
# 1 0.011138 -0.001567 0.000707 0.000000 0.000000 0.000000
# 2 -0.001567 0.014205 0.001373 0.000000 0.000000 0.000000
# 3 0.000707 0.001373 0.013265 0.000000 0.000000 0.000000
# 4 0.000000 0.000000 0.000000 0.572361 0.000000 0.000000
# 5 0.000000 0.000000 0.000000 0.000000 1.584546 0.000000
# 6 0.000000 0.000000 0.000000 0.000000 0.000000 0.030987
#
#
# Mechanical properties :
#
#
# Convention : Reuss Voigt Hill
#
# Bulk Modulus (GPa) = 25.23163 25.98332 25.60747
# Shear Modulus (GPa) = 2.23345 23.19138 12.71241
#
# Velocity S-wave (km/s) = 0.98210 3.16469 2.34305
# Velocity P-wave (km/s) = 3.49032 4.95728 4.28701
#
# Compressibility (1/GPa) = 0.03963280
#
# Stress axis : x y z
#
# Youngs Moduli (GPa) = 89.78248 70.39763 75.38662
#
# Poissons Ratio (x) = 0.11034 -0.05332
# Poissons Ratio (y) = 0.14073 -0.10347
# Poissons Ratio (z) = -0.06350 -0.09662
#
# Static dielectric constant tensor:
#      x y z
#    x 1.825330 0.000000 0.000000 
#    y 0.000000 1.904060 0.000000 
#    z 0.000000 0.000000 1.929020 
# 
# From -- ./inp_files/4794.got.cif
#   From: 2010.05.17/outbox.cif.g08.bks.cpg/sg58_3_cif.got.tgz:4794.got - 2010.06.03 14:20:14.
