data_PCOD9442740
_publ_section_title
;
Structure prediction by ZEFSAII (Michael W. Deem and Ramdas Pophale) SiO2 
 PCOD9442740
Probable space group: P N N M
;
_chemical_formula_sum "Si O2"
_cell_formula_units_Z 58
_cell_length_a 12.179197
_cell_length_b 30.451323
_cell_length_c 7.451459
_cell_angle_alpha 90.000000
_cell_angle_beta 90.000000
_cell_angle_gamma 90.000000
_cell_volume 2763.542433
_symmetry_space_group_name_H-M "P N N M"
_symmetry_group_IT_number 58
_symmetry_cell_setting 'orthorhombic'
loop_
_space_group_symop_operation_xyz
x,y,z
-x,-y,z
1/2+x,1/2-y,1/2-z
1/2-x,1/2+y,1/2-z
-x,-y,-z
x,y,-z
1/2-x,1/2+y,1/2+z
1/2+x,1/2-y,1/2+z
loop_
_atom_site_type_symbol
_atom_site_label
_atom_site_fract_x
_atom_site_fract_y
_atom_site_fract_z
Si Si1 0.255553 0.388062 0.704469
Si Si2 0.500000 0.500000 0.000000
Si Si3 0.861225 0.341785 0.288379
Si Si4 0.400694 0.811818 0.779331
Si Si5 0.502105 0.367162 0.209250
Si Si6 0.351003 0.713304 0.783429
Si Si7 0.814576 0.019834 0.218500
Si Si8 0.783661 0.921056 0.215253
O O1 0.216663 0.390187 0.500000
O O2 0.188108 0.347628 0.783781
O O3 0.385858 0.378341 0.705426
O O4 0.243401 0.437757 0.772060
O O5 0.578150 0.521427 0.841323
O O6 0.877101 0.349210 0.500000
O O7 0.769107 0.304414 0.266129
O O8 0.805615 0.386307 0.214755
O O9 0.978776 0.326971 0.218677
O O10 0.373874 0.762389 0.720349
O O11 0.399435 0.809921 0.000000
O O12 0.560654 0.322942 0.280841
O O13 0.596281 0.404395 0.223922
O O14 0.478331 0.360887 0.000000
O O15 0.356772 0.712595 0.000000
O O16 0.765553 0.971739 0.260683
O O17 0.835136 0.021717 0.000000
O O18 0.785233 0.917880 0.000000
#
# Coordination Sequence:
#
# PCOD9442740 Si02
#       8
#     8   2   8   8   8   8   8   8
#     4  10  21  36  52  76 112 150 181 231 283 338
#     4  12  22  32  60  86 114 164 186 240 296 348
#     4   9  18  35  59  80 103 141 190 230 276 337
#     4   9  19  36  57  77 106 146 186 227 283 340
#     4  10  20  31  50  79 109 139 178 222 273 335
#     4   9  19  35  53  78 109 140 177 229 283 334
#     4  10  22  36  53  84 120 152 197 238 290 352
#     4   9  18  34  54  79 109 141 180 233 275 328
#
# _framework density 20.987556999999999
#
# number of rings (size 3 to 8) (size 9 to 14) (size 15 to 20)
#    0.000    2.483    0.000    1.448    5.793    2.759 
#    0.000    2.069    0.000    4.138    0.000    0.966 
#    0.000    0.000    0.000    0.000    0.000    0.276 
#
# Total GULP energy -323081.214047 kJ/mol
# GULP energy per Si atom -5570.365759 kJ/mol
# Density = 2.093979 g / cm^3
# Si number density = 20.987557 Si / 1000 Ang^3
#
#
#
# Elastic Constant Matrix: (Units=GPa)
#
#
# Indices 1 2 3 4 5 6 
#
# 1 77.9262 68.4411 -11.3682 0.0000 0.0000 0.0000
# 2 68.4411 186.6135 3.5998 0.0000 0.0000 0.0000
# 3 -11.3682 3.5998 71.3577 0.0000 0.0000 0.0000
# 4 0.0000 0.0000 0.0000 3.3470 0.0000 0.0000
# 5 0.0000 0.0000 0.0000 0.0000 8.7924 0.0000
# 6 0.0000 0.0000 0.0000 0.0000 0.0000 21.7135
#
#
#
# Elastic Compliance Matrix: (Units=1/GPa)
#
#
# Indices 1 2 3 4 5 6 
#
# 1 0.019776 -0.007321 0.003520 0.000000 0.000000 0.000000
# 2 -0.007321 0.008074 -0.001574 0.000000 0.000000 0.000000
# 3 0.003520 -0.001574 0.014654 0.000000 0.000000 0.000000
# 4 0.000000 0.000000 0.000000 0.298779 0.000000 0.000000
# 5 0.000000 0.000000 0.000000 0.000000 0.113734 0.000000
# 6 0.000000 0.000000 0.000000 0.000000 0.000000 0.046054
#
#
# Mechanical properties :
#
#
# Convention : Reuss Voigt Hill
#
# Bulk Modulus (GPa) = 31.49125 50.80475 41.14800
# Shear Modulus (GPa) = 9.57112 25.11890 17.34501
#
# Velocity S-wave (km/s) = 2.13782 3.46330 2.87791
# Velocity P-wave (km/s) = 4.59685 6.34447 5.54000
#
# Compressibility (1/GPa) = 0.03175485
#
# Stress axis : x y z
#
# Youngs Moduli (GPa) = 50.56676 123.85537 68.24052
#
# Poissons Ratio (x) = 0.90671 -0.24020
# Poissons Ratio (y) = 0.37019 0.10738
# Poissons Ratio (z) = -0.17799 0.19490
#
# Static dielectric constant tensor:
#      x y z
#    x 1.713590 0.000000 0.000000 
#    y 0.000000 1.799780 0.000000 
#    z 0.000000 0.000000 1.698140 
# 
# From -- ./inp_files/4562.got.cif
#   From: 2010.05.17/outbox.cif.g08.bks.cpg/sg58_3_cif.got.tgz:4562.got - 2010.06.03 14:20:14.
