data_PCOD9442832
_publ_section_title
;
Structure prediction by ZEFSAII (Michael W. Deem and Ramdas Pophale) SiO2 
 PCOD9442832
Probable space group: P N N M
;
_chemical_formula_sum "Si O2"
_cell_formula_units_Z 48
_cell_length_a 11.891091
_cell_length_b 18.669689
_cell_length_c 10.336840
_cell_angle_alpha 90.000000
_cell_angle_beta 90.000000
_cell_angle_gamma 90.000000
_cell_volume 2294.809189
_symmetry_space_group_name_H-M "P N N M"
_symmetry_group_IT_number 58
_symmetry_cell_setting 'orthorhombic'
loop_
_space_group_symop_operation_xyz
x,y,z
-x,-y,z
1/2+x,1/2-y,1/2-z
1/2-x,1/2+y,1/2-z
-x,-y,-z
x,y,-z
1/2-x,1/2+y,1/2+z
1/2+x,1/2-y,1/2+z
loop_
_atom_site_type_symbol
_atom_site_label
_atom_site_fract_x
_atom_site_fract_y
_atom_site_fract_z
Si Si1 0.398094 0.056269 0.637647
Si Si2 0.091493 0.185087 0.649759
Si Si3 0.995265 0.656461 0.696680
Si Si4 0.303002 0.957874 0.849760
Si Si5 0.660553 0.634567 0.849895
Si Si6 0.261787 0.201034 0.138745
O O1 0.336311 0.056061 0.500000
O O2 0.461497 0.131199 0.662826
O O3 0.500000 0.000000 0.628387
O O4 0.332018 0.027196 0.762860
O O5 0.124424 0.179986 0.500000
O O6 0.190216 0.166149 0.747419
O O7 0.065297 0.268130 0.682741
O O8 0.973784 0.143520 0.666286
O O9 0.114632 0.667807 0.629673
O O10 0.913743 0.593666 0.648147
O O11 0.213706 0.914671 0.761015
O O12 0.272076 0.971750 0.000000
O O13 0.714081 0.714275 0.838070
O O14 0.682379 0.611161 0.000000
O O15 0.203181 0.193609 0.000000
#
# Coordination Sequence:
#
# PCOD9442832 Si02
#       6
#     8   8   8   8   8   8
#     4   9  20  35  52  76 106 140 176 214 261 314
#     4  10  20  35  53  76 107 142 177 215 259 311
#     4  10  20  34  53  78 109 139 174 214 260 310
#     4  11  20  32  55  81 108 139 175 217 260 309
#     4   9  19  34  51  72 105 143 174 211 261 310
#     4  10  20  33  52  76 105 141 174 214 261 308
#
# _framework density 20.916771000000001
#
# number of rings (size 3 to 8) (size 9 to 14) (size 15 to 20)
#    0.000    2.167    1.667    3.000    0.000    7.000 
#    0.000    3.333    0.000    1.000    0.000    5.833 
#    0.000    0.000    0.000    0.000    0.000    0.000 
#
# Total GULP energy -267501.668644 kJ/mol
# GULP energy per Si atom -5572.951430 kJ/mol
# Density = 2.086916 g / cm^3
# Si number density = 20.916771 Si / 1000 Ang^3
#
#
#
# Elastic Constant Matrix: (Units=GPa)
#
#
# Indices 1 2 3 4 5 6 
#
# 1 93.1859 12.9650 64.6443 0.0000 0.0000 0.0000
# 2 12.9650 48.0006 29.1578 0.0000 0.0000 0.0000
# 3 64.6443 29.1578 133.9079 0.0000 0.0000 0.0000
# 4 0.0000 0.0000 0.0000 3.7574 0.0000 0.0000
# 5 0.0000 0.0000 0.0000 0.0000 53.3925 0.0000
# 6 0.0000 0.0000 0.0000 0.0000 0.0000 22.8044
#
#
#
# Elastic Compliance Matrix: (Units=1/GPa)
#
#
# Indices 1 2 3 4 5 6 
#
# 1 0.016142 0.000431 -0.007886 0.000000 0.000000 0.000000
# 2 0.000431 0.024020 -0.005438 0.000000 0.000000 0.000000
# 3 -0.007886 -0.005438 0.012459 0.000000 0.000000 0.000000
# 4 0.000000 0.000000 0.000000 0.266144 0.000000 0.000000
# 5 0.000000 0.000000 0.000000 0.000000 0.018729 0.000000
# 6 0.000000 0.000000 0.000000 0.000000 0.000000 0.043851
#
#
# Mechanical properties :
#
#
# Convention : Reuss Voigt Hill
#
# Bulk Modulus (GPa) = 37.26684 54.29206 45.77945
# Shear Modulus (GPa) = 12.01697 27.21267 19.61482
#
# Velocity S-wave (km/s) = 2.39950 3.61085 3.06560
# Velocity P-wave (km/s) = 5.05294 6.58763 5.87065
#
# Compressibility (1/GPa) = 0.02683351
#
# Stress axis : x y z
#
# Youngs Moduli (GPa) = 61.94916 41.63173 80.26233
#
# Poissons Ratio (x) = -0.01792 0.63299
# Poissons Ratio (y) = -0.02667 0.43648
# Poissons Ratio (z) = 0.48856 0.22640
#
# Static dielectric constant tensor:
#      x y z
#    x 1.757910 0.000000 0.000000 
#    y 0.000000 1.792680 0.000000 
#    z 0.000000 0.000000 1.796060 
# 
# From -- ./inp_files/4236.got.cif
#   From: 2010.05.17/outbox.cif.g08.bks.cpg/sg58_3_cif.got.tgz:4236.got - 2010.06.03 14:20:14.
