data_PCOD9442873
_publ_section_title
;
Structure prediction by ZEFSAII (Michael W. Deem and Ramdas Pophale) SiO2 
 PCOD9442873
Probable space group: P N N M
;
_chemical_formula_sum "Si O2"
_cell_formula_units_Z 48
_cell_length_a 17.154739
_cell_length_b 19.418237
_cell_length_c 7.560063
_cell_angle_alpha 90.000000
_cell_angle_beta 90.000000
_cell_angle_gamma 90.000000
_cell_volume 2518.368780
_symmetry_space_group_name_H-M "P N N M"
_symmetry_group_IT_number 58
_symmetry_cell_setting 'orthorhombic'
loop_
_space_group_symop_operation_xyz
x,y,z
-x,-y,z
1/2+x,1/2-y,1/2-z
1/2-x,1/2+y,1/2-z
-x,-y,-z
x,y,-z
1/2-x,1/2+y,1/2+z
1/2+x,1/2-y,1/2+z
loop_
_atom_site_type_symbol
_atom_site_label
_atom_site_fract_x
_atom_site_fract_y
_atom_site_fract_z
Si Si1 0.839416 0.180058 0.786523
Si Si2 0.366756 0.161288 0.285604
Si Si3 0.807253 0.591602 0.288165
Si Si4 0.563585 0.599886 0.000000
Si Si5 0.233700 0.053487 0.796433
Si Si6 0.985874 0.577090 0.790803
Si Si7 0.609705 0.439207 0.000000
O O1 0.851479 0.259693 0.738559
O O2 0.753381 0.151375 0.738792
O O3 0.899775 0.135345 0.673167
O O4 0.849404 0.172024 0.000000
O O5 0.363227 0.158215 0.500000
O O6 0.300264 0.110950 0.214634
O O7 0.450073 0.131206 0.224051
O O8 0.809098 0.588760 0.500000
O O9 0.771419 0.518339 0.228620
O O10 0.896394 0.598627 0.231102
O O11 0.587852 0.519954 0.000000
O O12 0.470257 0.602773 0.000000
O O13 0.162606 0.073811 0.671424
O O14 0.209299 0.043652 0.000000
O O15 0.000000 0.500000 0.716339
O O16 0.000592 0.572228 0.000000
#
# Coordination Sequence:
#
# PCOD9442873 Si02
#       7
#     8   8   8   4   8   8   4
#     4  10  23  43  62  88 128 167 207 256 317 376
#     4  10  21  40  61  89 130 169 204 257 312 372
#     4  10  21  37  59  87 120 162 202 252 310 370
#     4  11  24  42  70  89 115 171 208 258 328 368
#     4  11  22  38  64  93 126 161 205 259 315 371
#     4  10  20  33  58  89 120 157 199 252 306 359
#     4  11  24  42  66  96 119 152 221 272 304 375
#
# _framework density 19.059956
#
# number of rings (size 3 to 8) (size 9 to 14) (size 15 to 20)
#    0.000    1.667    4.167    0.000    3.500    1.667 
#    3.000    1.667    0.000    0.000    0.000    0.000 
#    0.000    0.000    0.000    0.000    0.000    0.000 
#
# Total GULP energy -268052.817209 kJ/mol
# GULP energy per Si atom -5584.433692 kJ/mol
# Density = 1.901658 g / cm^3
# Si number density = 19.059956 Si / 1000 Ang^3
#
#
#
# Elastic Constant Matrix: (Units=GPa)
#
#
# Indices 1 2 3 4 5 6 
#
# 1 180.4182 75.8689 35.7079 0.0000 0.0000 0.0000
# 2 75.8689 124.5129 23.3185 0.0000 0.0000 0.0000
# 3 35.7079 23.3185 62.6101 0.0000 0.0000 0.0000
# 4 0.0000 0.0000 0.0000 1.2566 0.0000 0.0000
# 5 0.0000 0.0000 0.0000 0.0000 -30.6664 0.0000
# 6 0.0000 0.0000 0.0000 0.0000 0.0000 28.3351
#
#
#
# Elastic Compliance Matrix: (Units=1/GPa)
#
#
# Indices 1 2 3 4 5 6 
#
# 1 0.007921 -0.004279 -0.002924 0.000000 0.000000 0.000000
# 2 -0.004279 0.010945 -0.001636 0.000000 0.000000 0.000000
# 3 -0.002924 -0.001636 0.018249 0.000000 0.000000 0.000000
# 4 0.000000 0.000000 0.000000 0.795807 0.000000 0.000000
# 5 0.000000 0.000000 0.000000 0.000000 -0.032609 0.000000
# 6 0.000000 0.000000 0.000000 0.000000 0.000000 0.035292
#
#
# Mechanical properties :
#
#
# Convention : Reuss Voigt Hill
#
# Bulk Modulus (GPa) = 51.44797 70.81466 61.13132
# Shear Modulus (GPa) = 5.81558 15.29478 10.55518
#
# Velocity S-wave (km/s) = 1.74866 2.83584 2.35582
# Velocity P-wave (km/s) = 5.57928 6.92509 6.28830
#
# Compressibility (1/GPa) = 0.01943711
#
# Stress axis : x y z
#
# Youngs Moduli (GPa) = 126.25316 91.36754 54.79851
#
# Poissons Ratio (x) = 0.39093 0.16022
# Poissons Ratio (y) = 0.54020 0.08965
# Poissons Ratio (z) = 0.36913 0.14948
#
# Static dielectric constant tensor:
#      x y z
#    x 1.640390 0.000000 0.000000 
#    y 0.000000 1.650980 0.000000 
#    z 0.000000 0.000000 1.690100 
# 
# From -- ./inp_files/5932.got.cif
#   From: 2010.05.17/outbox.cif.g08.bks.cpg/sg58_3_cif.got.tgz:5932.got - 2010.06.03 14:20:14.
