data_PCOD9442252
_publ_section_title
;
Structure prediction by ZEFSAII (Michael W. Deem and Ramdas Pophale) SiO2 
 PCOD9442252
Probable space group: P N N M
;
_chemical_formula_sum "Si O2"
_cell_formula_units_Z 64
_cell_length_a 8.701582
_cell_length_b 30.207697
_cell_length_c 12.417169
_cell_angle_alpha 90.000000
_cell_angle_beta 90.000000
_cell_angle_gamma 90.000000
_cell_volume 3263.911884
_symmetry_space_group_name_H-M "P N N M"
_symmetry_group_IT_number 58
_symmetry_cell_setting 'orthorhombic'
loop_
_space_group_symop_operation_xyz
x,y,z
-x,-y,z
1/2+x,1/2-y,1/2-z
1/2-x,1/2+y,1/2-z
-x,-y,-z
x,y,-z
1/2-x,1/2+y,1/2+z
1/2+x,1/2-y,1/2+z
loop_
_atom_site_type_symbol
_atom_site_label
_atom_site_fract_x
_atom_site_fract_y
_atom_site_fract_z
Si Si1 0.227351 0.691403 0.122910
Si Si2 0.058191 0.419950 0.615007
Si Si3 0.334031 0.409041 0.119093
Si Si4 0.817759 0.511535 0.239179
Si Si5 0.547068 0.358849 0.714421
Si Si6 0.719394 0.703590 0.625077
Si Si7 0.795362 0.941815 0.882310
Si Si8 0.586313 0.153225 0.704175
O O1 0.345578 0.671382 0.209572
O O2 0.198153 0.743802 0.135309
O O3 0.064624 0.668353 0.143979
O O4 0.280870 0.683422 0.000000
O O5 0.105770 0.401446 0.500000
O O6 0.888698 0.439243 0.607118
O O7 0.170030 0.458509 0.653086
O O8 0.050927 0.384531 0.708478
O O9 0.254009 0.455461 0.151316
O O10 0.451552 0.392237 0.209157
O O11 0.206210 0.370139 0.124898
O O12 0.401180 0.411756 0.000000
O O13 0.701285 0.472634 0.275363
O O14 0.000000 0.500000 0.213165
O O15 0.429613 0.326815 0.650775
O O16 0.642412 0.392511 0.639944
O O17 0.766812 0.695865 0.500000
O O18 0.838170 0.690395 0.719571
O O19 0.856043 0.957004 0.000000
#
# Coordination Sequence:
#
# PCOD9442252 Si02
#       8
#     8   8   8   8   8   8   8   8
#     4  11  22  38  59  84 114 152 196 241 290 345
#     4   9  16  30  55  83 111 141 181 231 280 333
#     4  10  22  39  58  80 112 155 197 240 285 336
#     4   9  19  35  56  84 115 147 189 237 281 337
#     4  11  22  39  59  85 120 151 189 239 294 349
#     4  10  22  38  58  85 118 151 187 237 297 356
#     4  10  19  34  57  84 115 148 185 228 285 345
#     4  10  19  36  58  83 110 146 195 238 284 343
#
# _framework density 19.608371999999999
#
# number of rings (size 3 to 8) (size 9 to 14) (size 15 to 20)
#    0.000    2.000    1.250    2.625    0.000    2.250 
#    0.000    4.375    0.000    6.000    0.000    0.000 
#    0.000    0.000    0.000    0.000    0.000    0.000 
#
# Total GULP energy -356504.404897 kJ/mol
# GULP energy per Si atom -5570.381327 kJ/mol
# Density = 1.956374 g / cm^3
# Si number density = 19.608372 Si / 1000 Ang^3
#
#
#
# Elastic Constant Matrix: (Units=GPa)
#
#
# Indices 1 2 3 4 5 6 
#
# 1 24.4940 5.0630 -1.8884 0.0000 0.0000 0.0000
# 2 5.0630 78.9069 12.6858 0.0000 0.0000 0.0000
# 3 -1.8884 12.6858 70.7574 0.0000 0.0000 0.0000
# 4 0.0000 0.0000 0.0000 -5.6502 0.0000 0.0000
# 5 0.0000 0.0000 0.0000 0.0000 102.2622 0.0000
# 6 0.0000 0.0000 0.0000 0.0000 0.0000 26.9622
#
#
#
# Elastic Compliance Matrix: (Units=1/GPa)
#
#
# Indices 1 2 3 4 5 6 
#
# 1 0.041558 -0.002929 0.001634 0.000000 0.000000 0.000000
# 2 -0.002929 0.013256 -0.002455 0.000000 0.000000 0.000000
# 3 0.001634 -0.002455 0.014617 0.000000 0.000000 0.000000
# 4 0.000000 0.000000 0.000000 -0.176986 0.000000 0.000000
# 5 0.000000 0.000000 0.000000 0.000000 0.009779 0.000000
# 6 0.000000 0.000000 0.000000 0.000000 0.000000 0.037089
#
#
# Mechanical properties :
#
#
# Convention : Reuss Voigt Hill
#
# Bulk Modulus (GPa) = 16.14711 22.87547 19.51129
# Shear Modulus (GPa) = -153.63427 35.26805 -59.18311
#
# Velocity S-wave (km/s) = -8.86123 4.24562 -5.49983
# Velocity P-wave (km/s) = 9.82052 5.97706 5.50987
#
# Compressibility (1/GPa) = 0.06193058
#
# Stress axis : x y z
#
# Youngs Moduli (GPa) = 24.06286 75.43890 68.41578
#
# Poissons Ratio (x) = 0.22098 -0.11181
# Poissons Ratio (y) = 0.07049 0.16794
# Poissons Ratio (z) = -0.03932 0.18518
#
# Static dielectric constant tensor:
#      x y z
#    x 1.702880 0.000000 0.000000 
#    y 0.000000 1.731340 0.000000 
#    z 0.000000 0.000000 1.722050 
# 
# From -- ./inp_files/13419.got.cif
#   From: 2010.05.17/outbox.cif.g08.bks.cpg/sg58_7_cif.got.tgz:13419.got - 2010.06.03 14:20:14.
