data_PCOD9442520
_publ_section_title
;
Structure prediction by ZEFSAII (Michael W. Deem and Ramdas Pophale) SiO2 
 PCOD9442520
Probable space group: P N N M
;
_chemical_formula_sum "Si O2"
_cell_formula_units_Z 48
_cell_length_a 15.410814
_cell_length_b 19.762488
_cell_length_c 8.805847
_cell_angle_alpha 90.000000
_cell_angle_beta 90.000000
_cell_angle_gamma 90.000000
_cell_volume 2681.873774
_symmetry_space_group_name_H-M "P N N M"
_symmetry_group_IT_number 58
_symmetry_cell_setting 'orthorhombic'
loop_
_space_group_symop_operation_xyz
x,y,z
-x,-y,z
1/2+x,1/2-y,1/2-z
1/2-x,1/2+y,1/2-z
-x,-y,-z
x,y,-z
1/2-x,1/2+y,1/2+z
1/2+x,1/2-y,1/2+z
loop_
_atom_site_type_symbol
_atom_site_label
_atom_site_fract_x
_atom_site_fract_y
_atom_site_fract_z
Si Si1 0.911613 0.965128 0.817665
Si Si2 0.198122 0.670655 0.182423
Si Si3 0.270229 0.013927 0.317528
Si Si4 0.014728 0.700141 0.680455
Si Si5 0.062179 0.434931 0.180073
Si Si6 0.382456 0.691928 0.317953
O O1 0.909078 0.885409 0.780265
O O2 0.824719 0.997264 0.749384
O O3 0.907600 0.971082 0.000000
O O4 0.000000 0.000000 0.764146
O O5 0.200348 0.590413 0.224762
O O6 0.111147 0.702668 0.249447
O O7 0.286522 0.701858 0.248622
O O8 0.197585 0.675145 0.000000
O O9 0.266242 0.012643 0.500000
O O10 0.342687 0.959958 0.270708
O O11 0.019101 0.706361 0.500000
O O12 0.974471 0.627875 0.728133
O O13 0.952010 0.756945 0.749590
O O14 0.000000 0.500000 0.195039
O O15 0.063668 0.417224 0.000000
O O16 0.378855 0.698725 0.500000
#
# Coordination Sequence:
#
# PCOD9442520 Si02
#       6
#     8   8   8   8   8   8
#     4   9  19  37  60  84 111 145 185 232 284 336
#     4  10  19  37  61  83 110 148 189 234 288 345
#     4   9  18  33  57  84 110 144 183 228 282 339
#     4  12  24  37  56  85 117 154 195 237 284 342
#     4  10  19  36  58  83 115 150 186 231 291 344
#     4  10  21  39  60  83 113 151 191 237 289 345
#
# _framework density 17.897933999999999
#
# number of rings (size 3 to 8) (size 9 to 14) (size 15 to 20)
#    0.000    2.000    1.667    2.500    0.000    2.667 
#    3.000    0.000    0.000    0.000    0.000    0.000 
#    0.000    0.000    0.000    0.000    0.000    0.000 
#
# Total GULP energy -268015.103154 kJ/mol
# GULP energy per Si atom -5583.647982 kJ/mol
# Density = 1.785720 g / cm^3
# Si number density = 17.897934 Si / 1000 Ang^3
#
#
#
# Elastic Constant Matrix: (Units=GPa)
#
#
# Indices 1 2 3 4 5 6 
#
# 1 200.2489 69.0164 62.4845 0.0000 0.0000 0.0000
# 2 69.0164 48.8615 36.5683 0.0000 0.0000 0.0000
# 3 62.4845 36.5683 65.1201 0.0000 0.0000 0.0000
# 4 0.0000 0.0000 0.0000 15.7731 0.0000 0.0000
# 5 0.0000 0.0000 0.0000 0.0000 35.4539 0.0000
# 6 0.0000 0.0000 0.0000 0.0000 0.0000 34.7759
#
#
#
# Elastic Compliance Matrix: (Units=1/GPa)
#
#
# Indices 1 2 3 4 5 6 
#
# 1 0.010035 -0.012019 -0.002879 0.000000 0.000000 0.000000
# 2 -0.012019 0.049698 -0.016376 0.000000 0.000000 0.000000
# 3 -0.002879 -0.016376 0.027315 0.000000 0.000000 0.000000
# 4 0.000000 0.000000 0.000000 0.063399 0.000000 0.000000
# 5 0.000000 0.000000 0.000000 0.000000 0.028206 0.000000
# 6 0.000000 0.000000 0.000000 0.000000 0.000000 0.028756
#
#
# Mechanical properties :
#
#
# Convention : Reuss Voigt Hill
#
# Bulk Modulus (GPa) = 40.81636 72.26323 56.53979
# Shear Modulus (GPa) = 17.97773 26.94465 22.46119
#
# Velocity S-wave (km/s) = 3.17276 3.88424 3.54638
# Velocity P-wave (km/s) = 6.02299 7.78327 6.95901
#
# Compressibility (1/GPa) = 0.02449998
#
# Stress axis : x y z
#
# Youngs Moduli (GPa) = 99.65573 20.12146 36.61039
#
# Poissons Ratio (x) = 0.24184 0.10541
# Poissons Ratio (y) = 1.19775 0.59952
# Poissons Ratio (z) = 0.28693 0.32950
#
# Static dielectric constant tensor:
#      x y z
#    x 1.602710 0.000000 0.000000 
#    y 0.000000 1.596090 0.000000 
#    z 0.000000 0.000000 1.597740 
# 
# From -- ./inp_files/5897.got.cif
#   From: 2010.05.17/outbox.cif.g08.bks.cpg/sg58_3_cif.got.tgz:5897.got - 2010.06.03 14:20:14.
