data_PCOD9442344
_publ_section_title
;
Structure prediction by ZEFSAII (Michael W. Deem and Ramdas Pophale) SiO2 
 PCOD9442344
Probable space group: P N N M
;
_chemical_formula_sum "Si O2"
_cell_formula_units_Z 64
_cell_length_a 8.441546
_cell_length_b 21.815047
_cell_length_c 20.270658
_cell_angle_alpha 90.000000
_cell_angle_beta 90.000000
_cell_angle_gamma 90.000000
_cell_volume 3732.896862
_symmetry_space_group_name_H-M "P N N M"
_symmetry_group_IT_number 58
_symmetry_cell_setting 'orthorhombic'
loop_
_space_group_symop_operation_xyz
x,y,z
-x,-y,z
1/2+x,1/2-y,1/2-z
1/2-x,1/2+y,1/2-z
-x,-y,-z
x,y,-z
1/2-x,1/2+y,1/2+z
1/2+x,1/2-y,1/2+z
loop_
_atom_site_type_symbol
_atom_site_label
_atom_site_fract_x
_atom_site_fract_y
_atom_site_fract_z
Si Si1 0.470981 0.436225 0.711530
Si Si2 0.667090 0.447663 0.572527
Si Si3 0.270191 0.919487 0.113944
Si Si4 0.406206 0.152223 0.887049
Si Si5 0.904174 0.772622 0.426804
Si Si6 0.075524 0.797253 0.075547
Si Si7 0.183931 0.232650 0.811224
Si Si8 0.975432 0.182891 0.298056
O O1 0.500000 0.500000 0.746994
O O2 0.569189 0.440634 0.641576
O O3 0.291678 0.431740 0.687225
O O4 0.498729 0.378168 0.756172
O O5 0.587525 0.445376 0.500000
O O6 0.750219 0.514871 0.577943
O O7 0.782591 0.389646 0.574103
O O8 0.444134 0.892364 0.118729
O O9 0.156474 0.864489 0.086581
O O10 0.477632 0.213905 0.919458
O O11 0.311819 0.177630 0.823066
O O12 0.918955 0.797455 0.500000
O O13 0.726436 0.747511 0.416918
O O14 0.950803 0.819189 0.370144
O O15 0.940078 0.778460 0.128070
O O16 0.017616 0.793975 0.000000
O O17 0.079733 0.230239 0.745326
O O18 0.296243 0.292360 0.806599
#
# Coordination Sequence:
#
# PCOD9442344 Si02
#       8
#     8   8   8   8   8   8   8   8
#     4  10  22  38  54  75 105 145 184 224 265 314
#     4  11  21  34  52  76 109 156 200 226 251 295
#     4  10  20  33  50  76 110 155 192 221 250 300
#     4  10  20  33  50  76 114 144 184 229 263 310
#     4   9  20  35  55  78 104 137 172 227 283 330
#     4  10  19  35  52  78 112 143 181 219 266 317
#     4  11  22  33  55  79 104 144 180 223 275 322
#     4  11  21  37  56  78 107 135 179 225 270 329
#
# _framework density 17.144863000000001
#
# number of rings (size 3 to 8) (size 9 to 14) (size 15 to 20)
#    0.000    1.750    2.500    1.875    3.500    8.250 
#    0.000    0.000    0.000    0.375    0.000    0.000 
#    0.000    2.000    0.000    0.000    0.000    0.000 
#
# Total GULP energy -356323.284061 kJ/mol
# GULP energy per Si atom -5567.551313 kJ/mol
# Density = 1.710584 g / cm^3
# Si number density = 17.144863 Si / 1000 Ang^3
#
#
#
# Elastic Constant Matrix: (Units=GPa)
#
#
# Indices 1 2 3 4 5 6 
#
# 1 78.4049 25.8563 42.6903 0.0000 0.0000 0.0000
# 2 25.8563 68.3768 35.6219 0.0000 0.0000 0.0000
# 3 42.6903 35.6219 93.4860 0.0000 0.0000 0.0000
# 4 0.0000 0.0000 0.0000 13.7084 0.0000 0.0000
# 5 0.0000 0.0000 0.0000 0.0000 15.2979 0.0000
# 6 0.0000 0.0000 0.0000 0.0000 0.0000 21.1892
#
#
#
# Elastic Compliance Matrix: (Units=1/GPa)
#
#
# Indices 1 2 3 4 5 6 
#
# 1 0.017473 -0.003057 -0.006814 0.000000 0.000000 0.000000
# 2 -0.003057 0.018782 -0.005761 0.000000 0.000000 0.000000
# 3 -0.006814 -0.005761 0.016003 0.000000 0.000000 0.000000
# 4 0.000000 0.000000 0.000000 0.072948 0.000000 0.000000
# 5 0.000000 0.000000 0.000000 0.000000 0.065368 0.000000
# 6 0.000000 0.000000 0.000000 0.000000 0.000000 0.047194
#
#
# Mechanical properties :
#
#
# Convention : Reuss Voigt Hill
#
# Bulk Modulus (GPa) = 47.63184 49.84498 48.73841
# Shear Modulus (GPa) = 18.11398 19.11238 18.61318
#
# Velocity S-wave (km/s) = 3.25395 3.34242 3.29848
# Velocity P-wave (km/s) = 6.47764 6.63564 6.55712
#
# Compressibility (1/GPa) = 0.02099436
#
# Stress axis : x y z
#
# Youngs Moduli (GPa) = 57.23233 53.24242 62.48699
#
# Poissons Ratio (x) = 0.16278 0.42578
# Poissons Ratio (y) = 0.17498 0.35996
# Poissons Ratio (z) = 0.38997 0.30670
#
# Static dielectric constant tensor:
#      x y z
#    x 1.647870 0.000000 0.000000 
#    y 0.000000 1.610470 0.000000 
#    z 0.000000 0.000000 1.589070 
# 
# From -- ./inp_files/29211.got.cif
#   From: 2010.05.17/outbox.cif.g08.bks.cpg/sg58_15_cif.got.tgz:29211.got - 2010.06.03 14:20:14.
