data_PCOD9442800
_publ_section_title
;
Structure prediction by ZEFSAII (Michael W. Deem and Ramdas Pophale) SiO2 
 PCOD9442800
Probable space group: P N N M
;
_chemical_formula_sum "Si O2"
_cell_formula_units_Z 64
_cell_length_a 11.391359
_cell_length_b 34.630140
_cell_length_c 7.698058
_cell_angle_alpha 90.000000
_cell_angle_beta 90.000000
_cell_angle_gamma 90.000000
_cell_volume 3036.763460
_symmetry_space_group_name_H-M "P N N M"
_symmetry_group_IT_number 58
_symmetry_cell_setting 'orthorhombic'
loop_
_space_group_symop_operation_xyz
x,y,z
-x,-y,z
1/2+x,1/2-y,1/2-z
1/2-x,1/2+y,1/2-z
-x,-y,-z
x,y,-z
1/2-x,1/2+y,1/2+z
1/2+x,1/2-y,1/2+z
loop_
_atom_site_type_symbol
_atom_site_label
_atom_site_fract_x
_atom_site_fract_y
_atom_site_fract_z
Si Si1 0.921622 0.255897 0.304347
Si Si2 0.759359 0.912228 0.705814
Si Si3 0.326727 0.781783 0.793278
Si Si4 0.880758 0.483361 0.205253
Si Si5 0.099399 0.366869 0.288421
Si Si6 0.749850 0.059962 0.790135
Si Si7 0.648934 0.839462 0.300097
Si Si8 0.504646 0.455437 0.290227
O O1 0.936269 0.241465 0.500000
O O2 0.805226 0.233866 0.235714
O O3 0.879588 0.300502 0.300282
O O4 0.055598 0.258564 0.225013
O O5 0.736240 0.908299 0.500000
O O6 0.668163 0.943617 0.781009
O O7 0.745922 0.868740 0.773470
O O8 0.884262 0.931987 0.726809
O O9 0.338969 0.826466 0.735960
O O10 0.344289 0.781933 0.000000
O O11 0.789397 0.518107 0.224875
O O12 0.000000 0.500000 0.283732
O O13 0.900040 0.476561 0.000000
O O14 0.091591 0.367540 0.500000
O O15 0.167723 0.405099 0.231343
O O16 0.969899 0.364537 0.210568
O O17 0.884416 0.065297 0.738937
O O18 0.744335 0.058666 0.000000
O O19 0.673741 0.828088 0.500000
O O20 0.500000 0.500000 0.230315
O O21 0.511199 0.456589 0.500000
#
# Coordination Sequence:
#
# PCOD9442800 Si02
#       8
#     8   8   8   8   8   8   8   8
#     4  10  21  38  61  89 118 150 188 228 277 336
#     4  10  21  35  52  75 104 139 178 221 269 319
#     4   9  19  37  59  84 117 150 184 231 279 333
#     4  10  20  33  50  74 103 134 173 220 265 316
#     4   9  19  36  57  81 111 142 179 225 273 323
#     4  10  20  35  53  75 104 139 178 222 269 315
#     4  10  20  36  58  82 111 143 179 224 274 324
#     4  10  20  35  53  73 103 142 183 224 268 320
#
# _framework density 21.075071000000001
#
# number of rings (size 3 to 8) (size 9 to 14) (size 15 to 20)
#    0.000    2.250    1.250    2.250    0.000    6.000 
#    2.250    0.000    0.000    0.000    0.000    0.000 
#    0.000    0.000    0.000    0.000    0.000    0.000 
#
# Total GULP energy -356824.888780 kJ/mol
# GULP energy per Si atom -5575.388887 kJ/mol
# Density = 2.102710 g / cm^3
# Si number density = 21.075071 Si / 1000 Ang^3
#
#
#
# Elastic Constant Matrix: (Units=GPa)
#
#
# Indices 1 2 3 4 5 6 
#
# 1 24.6575 -14.5831 -4.2289 0.0000 0.0000 0.0000
# 2 -14.5831 33.2515 -4.4181 0.0000 0.0000 0.0000
# 3 -4.2289 -4.4181 34.4097 0.0000 0.0000 0.0000
# 4 0.0000 0.0000 0.0000 17.4188 0.0000 0.0000
# 5 0.0000 0.0000 0.0000 0.0000 26.1230 0.0000
# 6 0.0000 0.0000 0.0000 0.0000 0.0000 41.2923
#
#
#
# Elastic Compliance Matrix: (Units=1/GPa)
#
#
# Indices 1 2 3 4 5 6 
#
# 1 0.058351 0.027005 0.010639 0.000000 0.000000 0.000000
# 2 0.027005 0.043093 0.008852 0.000000 0.000000 0.000000
# 3 0.010639 0.008852 0.031506 0.000000 0.000000 0.000000
# 4 0.000000 0.000000 0.000000 0.057409 0.000000 0.000000
# 5 0.000000 0.000000 0.000000 0.000000 0.038280 0.000000
# 6 0.000000 0.000000 0.000000 0.000000 0.000000 0.024218
#
#
# Mechanical properties :
#
#
# Convention : Reuss Voigt Hill
#
# Bulk Modulus (GPa) = 4.42593 5.09539 4.76066
# Shear Modulus (GPa) = 21.26024 24.67008 22.96516
#
# Velocity S-wave (km/s) = 3.17959 3.42509 3.30462
# Velocity P-wave (km/s) = 3.94770 4.25025 4.10176
#
# Compressibility (1/GPa) = 0.22594107
#
# Stress axis : x y z
#
# Youngs Moduli (GPa) = 17.13754 23.20538 31.74039
#
# Poissons Ratio (x) = -0.62666 -0.33767
# Poissons Ratio (y) = -0.46279 -0.28096
# Poissons Ratio (z) = -0.18232 -0.20541
#
# Static dielectric constant tensor:
#      x y z
#    x 1.792990 0.000000 0.000000 
#    y 0.000000 1.757740 0.000000 
#    z 0.000000 0.000000 1.812030 
# 
# From -- ./inp_files/4745.got.cif
#   From: 2010.05.17/outbox.cif.g08.bks.cpg/sg58_3_cif.got.tgz:4745.got - 2010.06.03 14:20:14.
