data_PCOD9442196
_publ_section_title
;
Structure prediction by ZEFSAII (Michael W. Deem and Ramdas Pophale) SiO2 
 PCOD9442196
Probable space group: P N N M
;
_chemical_formula_sum "Si O2"
_cell_formula_units_Z 48
_cell_length_a 19.399830
_cell_length_b 15.268652
_cell_length_c 7.445051
_cell_angle_alpha 90.000000
_cell_angle_beta 90.000000
_cell_angle_gamma 90.000000
_cell_volume 2205.292996
_symmetry_space_group_name_H-M "P N N M"
_symmetry_group_IT_number 58
_symmetry_cell_setting 'orthorhombic'
loop_
_space_group_symop_operation_xyz
x,y,z
-x,-y,z
1/2+x,1/2-y,1/2-z
1/2-x,1/2+y,1/2-z
-x,-y,-z
x,y,-z
1/2-x,1/2+y,1/2+z
1/2+x,1/2-y,1/2+z
loop_
_atom_site_type_symbol
_atom_site_label
_atom_site_fract_x
_atom_site_fract_y
_atom_site_fract_z
Si Si1 0.671827 0.642086 0.785834
Si Si2 0.912375 0.751668 0.716930
Si Si3 0.717874 0.998929 0.720562
Si Si4 0.433735 0.949123 0.288170
Si Si5 0.518551 0.598587 0.780264
Si Si6 0.261474 0.693309 0.785519
O O1 0.728286 0.572710 0.718562
O O2 0.595028 0.624479 0.718569
O O3 0.700857 0.738391 0.751375
O O4 0.668590 0.630000 0.000000
O O5 0.911175 0.753488 0.500000
O O6 0.938122 0.655442 0.768600
O O7 0.834427 0.769238 0.782706
O O8 0.962759 0.829392 0.777263
O O9 0.717409 0.000378 0.500000
O O10 0.743163 0.903493 0.779408
O O11 0.640657 0.020515 0.783259
O O12 0.431697 0.969409 0.500000
O O13 0.500000 0.000000 0.212860
O O14 0.500000 0.500000 0.724955
O O15 0.517991 0.599106 0.000000
O O16 0.268747 0.686361 0.000000
#
# Coordination Sequence:
#
# PCOD9442196 Si02
#       6
#     8   8   8   8   8   8
#     4  10  19  34  56  80 104 133 175 222 259 305
#     4  10  20  35  55  81 110 138 172 220 271 314
#     4   9  18  34  54  75 102 137 176 213 255 311
#     4  10  21  36  54  76 105 145 184 214 255 318
#     4   9  18  33  55  81 106 136 175 216 263 317
#     4  10  20  34  54  78 105 139 174 213 264 316
#
# _framework density 21.765815
#
# number of rings (size 3 to 8) (size 9 to 14) (size 15 to 20)
#    0.000    2.333    1.667    1.000    2.333    4.333 
#    0.000    1.667    0.000    4.000    0.000    0.000 
#    0.000    0.000    0.000    0.000    0.000    0.000 
#
# Total GULP energy -268259.800295 kJ/mol
# GULP energy per Si atom -5588.745839 kJ/mol
# Density = 2.171628 g / cm^3
# Si number density = 21.765815 Si / 1000 Ang^3
#
#
#
# Elastic Constant Matrix: (Units=GPa)
#
#
# Indices 1 2 3 4 5 6 
#
# 1 94.6333 18.6182 0.0229 0.0000 0.0000 0.0000
# 2 18.6182 101.4985 -17.3827 0.0000 0.0000 0.0000
# 3 0.0229 -17.3827 63.3429 0.0000 0.0000 0.0000
# 4 0.0000 0.0000 0.0000 12.5108 0.0000 0.0000
# 5 0.0000 0.0000 0.0000 0.0000 -2.7085 0.0000
# 6 0.0000 0.0000 0.0000 0.0000 0.0000 42.5510
#
#
#
# Elastic Compliance Matrix: (Units=1/GPa)
#
#
# Indices 1 2 3 4 5 6 
#
# 1 0.010983 -0.002115 -0.000584 0.000000 0.000000 0.000000
# 2 -0.002115 0.010745 0.002950 0.000000 0.000000 0.000000
# 3 -0.000584 0.002950 0.016597 0.000000 0.000000 0.000000
# 4 0.000000 0.000000 0.000000 0.079931 0.000000 0.000000
# 5 0.000000 0.000000 0.000000 0.000000 -0.369202 0.000000
# 6 0.000000 0.000000 0.000000 0.000000 0.000000 0.023501
#
#
# Mechanical properties :
#
#
# Convention : Reuss Voigt Hill
#
# Bulk Modulus (GPa) = 25.75568 29.11015 27.43292
# Shear Modulus (GPa) = -23.25547 27.68508 2.21480
#
# Velocity S-wave (km/s) = -3.27225 3.57031 1.00984
# Velocity P-wave (km/s) = 1.55500 5.51357 3.74042
#
# Compressibility (1/GPa) = 0.03882639
#
# Stress axis : x y z
#
# Youngs Moduli (GPa) = 91.04730 93.06286 60.25287
#
# Poissons Ratio (x) = 0.19681 0.03521
# Poissons Ratio (y) = 0.19254 -0.17772
# Poissons Ratio (z) = 0.05320 -0.27449
#
# Static dielectric constant tensor:
#      x y z
#    x 1.771870 0.000000 0.000000 
#    y 0.000000 1.718050 0.000000 
#    z 0.000000 0.000000 1.842660 
# 
# From -- ./inp_files/5805.got.cif
#   From: 2010.05.17/outbox.cif.g08.bks.cpg/sg58_3_cif.got.tgz:5805.got - 2010.06.03 14:20:14.
