data_PCOD9442057
_publ_section_title
;
Structure prediction by ZEFSAII (Michael W. Deem and Ramdas Pophale) SiO2 
 PCOD9442057
Probable space group: P N N M
;
_chemical_formula_sum "Si O2"
_cell_formula_units_Z 56
_cell_length_a 20.489732
_cell_length_b 7.361256
_cell_length_c 15.134599
_cell_angle_alpha 90.000000
_cell_angle_beta 90.000000
_cell_angle_gamma 90.000000
_cell_volume 2282.754028
_symmetry_space_group_name_H-M "P N N M"
_symmetry_group_IT_number 58
_symmetry_cell_setting 'orthorhombic'
loop_
_space_group_symop_operation_xyz
x,y,z
-x,-y,z
1/2+x,1/2-y,1/2-z
1/2-x,1/2+y,1/2-z
-x,-y,-z
x,y,-z
1/2-x,1/2+y,1/2+z
1/2+x,1/2-y,1/2+z
loop_
_atom_site_type_symbol
_atom_site_label
_atom_site_fract_x
_atom_site_fract_y
_atom_site_fract_z
Si Si1 0.524555 0.705113 0.851372
Si Si2 0.314350 0.324014 0.704419
Si Si3 0.949503 0.270999 0.152030
Si Si4 0.819270 0.574423 0.751949
Si Si5 0.607801 0.155980 0.092893
Si Si6 0.591588 0.180646 0.600089
Si Si7 0.158171 0.929844 0.405087
O O1 0.500000 0.500000 0.832445
O O2 0.534920 0.789411 0.755493
O O3 0.468549 0.805419 0.903493
O O4 0.589926 0.676539 0.905205
O O5 0.383755 0.357140 0.655358
O O6 0.242701 0.398693 0.686566
O O7 0.315125 0.371080 0.809711
O O8 0.306212 0.108479 0.695737
O O9 0.927953 0.465662 0.111716
O O10 0.020803 0.221331 0.112887
O O11 0.874942 0.548357 0.679707
O O12 0.852432 0.711607 0.824011
O O13 0.641296 0.355589 0.100791
O O14 0.627940 0.074102 0.000000
O O15 0.614756 0.212338 0.500000
O O16 0.192506 0.899621 0.500000
#
# Coordination Sequence:
#
# PCOD9442057 Si02
#       7
#     8   8   8   8   8   8   8
#     4   9  16  29  53  85 115 148 179 226 283 346
#     4  10  22  36  58  80 117 155 192 246 298 355
#     4   9  17  34  56  87 113 141 190 241 292 342
#     4  11  22  39  57  87 115 154 200 243 305 356
#     4  10  19  33  55  83 116 149 187 230 282 350
#     4  10  20  36  63  86 111 151 199 251 293 350
#     4   9  18  33  54  82 112 150 191 228 282 350
#
# _framework density 24.531770000000002
#
# number of rings (size 3 to 8) (size 9 to 14) (size 15 to 20)
#    0.000    2.286    1.429    2.143    0.000    2.857 
#    0.000    5.000    0.000    5.143    0.000    0.000 
#    0.000    0.000    0.000    0.000    0.000    0.000 
#
# Total GULP energy -312036.764466 kJ/mol
# GULP energy per Si atom -5572.085080 kJ/mol
# Density = 2.447593 g / cm^3
# Si number density = 24.531770 Si / 1000 Ang^3
#
#
#
# Elastic Constant Matrix: (Units=GPa)
#
#
# Indices 1 2 3 4 5 6 
#
# 1 76.3071 15.7225 2.1486 0.0000 0.0000 0.0000
# 2 15.7225 44.1815 -6.1350 0.0000 0.0000 0.0000
# 3 2.1486 -6.1350 109.6343 0.0000 0.0000 0.0000
# 4 0.0000 0.0000 0.0000 16.3873 0.0000 0.0000
# 5 0.0000 0.0000 0.0000 0.0000 4.0129 0.0000
# 6 0.0000 0.0000 0.0000 0.0000 0.0000 31.1953
#
#
#
# Elastic Compliance Matrix: (Units=1/GPa)
#
#
# Indices 1 2 3 4 5 6 
#
# 1 0.014176 -0.005123 -0.000565 0.000000 0.000000 0.000000
# 2 -0.005123 0.024663 0.001481 0.000000 0.000000 0.000000
# 3 -0.000565 0.001481 0.009215 0.000000 0.000000 0.000000
# 4 0.000000 0.000000 0.000000 0.061023 0.000000 0.000000
# 5 0.000000 0.000000 0.000000 0.000000 0.249197 0.000000
# 6 0.000000 0.000000 0.000000 0.000000 0.000000 0.032056
#
#
# Mechanical properties :
#
#
# Convention : Reuss Voigt Hill
#
# Bulk Modulus (GPa) = 25.22721 28.17723 26.70222
# Shear Modulus (GPa) = 12.13717 24.87822 18.50769
#
# Velocity S-wave (km/s) = 2.22672 3.18798 2.74968
# Velocity P-wave (km/s) = 4.11301 5.00619 4.58142
#
# Compressibility (1/GPa) = 0.03963974
#
# Stress axis : x y z
#
# Youngs Moduli (GPa) = 70.53953 40.54709 108.51706
#
# Poissons Ratio (x) = 0.20773 0.06126
# Poissons Ratio (y) = 0.36139 -0.16066
# Poissons Ratio (z) = 0.03982 -0.06003
#
# Static dielectric constant tensor:
#      x y z
#    x 2.042010 0.000000 0.000000 
#    y 0.000000 2.029270 0.000000 
#    z 0.000000 0.000000 1.924960 
# 
# From -- ./inp_files/23269.got.cif
#   From: 2010.05.17/outbox.cif.g08.bks.cpg/sg58_12_cif.got.tgz:23269.got - 2010.06.03 14:20:14.
