data_PCOD9442709
_publ_section_title
;
Structure prediction by ZEFSAII (Michael W. Deem and Ramdas Pophale) SiO2 
 PCOD9442709
Probable space group: P N N M
;
_chemical_formula_sum "Si O2"
_cell_formula_units_Z 48
_cell_length_a 19.155228
_cell_length_b 8.379275
_cell_length_c 15.112116
_cell_angle_alpha 90.000000
_cell_angle_beta 90.000000
_cell_angle_gamma 90.000000
_cell_volume 2425.599241
_symmetry_space_group_name_H-M "P N N M"
_symmetry_group_IT_number 58
_symmetry_cell_setting 'orthorhombic'
loop_
_space_group_symop_operation_xyz
x,y,z
-x,-y,z
1/2+x,1/2-y,1/2-z
1/2-x,1/2+y,1/2-z
-x,-y,-z
x,y,-z
1/2-x,1/2+y,1/2+z
1/2+x,1/2-y,1/2+z
loop_
_atom_site_type_symbol
_atom_site_label
_atom_site_fract_x
_atom_site_fract_y
_atom_site_fract_z
Si Si1 0.773949 0.035940 0.500000
Si Si2 0.807071 0.518128 0.826286
Si Si3 0.311914 0.635252 0.500000
Si Si4 0.075808 0.919578 0.500000
Si Si5 0.523497 0.313134 0.500000
Si Si6 0.425298 0.411215 0.198378
Si Si7 0.803888 0.898471 0.802256
Si Si8 0.951435 0.362717 0.835277
O O1 0.742875 0.980521 0.591821
O O2 0.747836 0.224998 0.500000
O O3 0.853698 0.978055 0.500000
O O4 0.813055 0.707344 0.808142
O O5 0.770684 0.438836 0.741241
O O6 0.880177 0.450079 0.858761
O O7 0.392253 0.699747 0.500000
O O8 0.306712 0.545688 0.594632
O O9 0.084599 0.846044 0.401965
O O10 0.000000 0.000000 0.500000
O O11 0.500000 0.500000 0.500000
O O12 0.490995 0.224348 0.584671
O O13 0.500000 0.500000 0.199643
O O14 0.363921 0.521485 0.240660
O O15 0.431894 0.265473 0.263446
O O16 0.000000 0.500000 0.796830
#
# Coordination Sequence:
#
# PCOD9442709 Si02
#       8
#     4   8   4   4   4   8   8   8
#     4  10  19  40  60  88 120 165 210 266 319 378
#     4  11  23  38  64  90 129 167 213 267 326 395
#     4  10  22  36  64  89 129 163 201 267 323 394
#     4  10  22  39  63  89 115 170 221 266 323 379
#     4  12  24  43  67 100 135 173 218 263 329 402
#     4  11  22  41  66  90 124 163 217 271 324 391
#     4  11  22  41  60  94 124 168 214 260 329 387
#     4  12  24  40  64  98 132 171 211 265 329 398
#
# _framework density 19.788926
#
# number of rings (size 3 to 8) (size 9 to 14) (size 15 to 20)
#    0.000    1.000    1.667    7.250    2.333    0.000 
#    0.000    3.750    0.000    0.000    0.000    0.000 
#    0.000    0.000    0.000    0.000    0.000    0.000 
#
# Total GULP energy -267559.017749 kJ/mol
# GULP energy per Si atom -5574.146203 kJ/mol
# Density = 1.974389 g / cm^3
# Si number density = 19.788926 Si / 1000 Ang^3
#
#
#
# Elastic Constant Matrix: (Units=GPa)
#
#
# Indices 1 2 3 4 5 6 
#
# 1 102.9892 3.7037 14.3739 0.0000 0.0000 0.0000
# 2 3.7037 62.2116 5.6976 0.0000 0.0000 0.0000
# 3 14.3739 5.6976 130.0225 0.0000 0.0000 0.0000
# 4 0.0000 0.0000 0.0000 13.9130 0.0000 0.0000
# 5 0.0000 0.0000 0.0000 0.0000 39.3492 0.0000
# 6 0.0000 0.0000 0.0000 0.0000 0.0000 26.7510
#
#
#
# Elastic Compliance Matrix: (Units=1/GPa)
#
#
# Indices 1 2 3 4 5 6 
#
# 1 0.009877 -0.000490 -0.001070 0.000000 0.000000 0.000000
# 2 -0.000490 0.016163 -0.000654 0.000000 0.000000 0.000000
# 3 -0.001070 -0.000654 0.007838 0.000000 0.000000 0.000000
# 4 0.000000 0.000000 0.000000 0.071875 0.000000 0.000000
# 5 0.000000 0.000000 0.000000 0.000000 0.025413 0.000000
# 6 0.000000 0.000000 0.000000 0.000000 0.000000 0.037382
#
#
# Mechanical properties :
#
#
# Convention : Reuss Voigt Hill
#
# Bulk Modulus (GPa) = 33.95698 38.08596 36.02147
# Shear Modulus (GPa) = 27.35322 34.09919 30.72620
#
# Velocity S-wave (km/s) = 3.72189 4.15558 3.94470
# Velocity P-wave (km/s) = 5.97217 6.50485 6.24419
#
# Compressibility (1/GPa) = 0.02944903
#
# Stress axis : x y z
#
# Youngs Moduli (GPa) = 101.24772 61.86881 127.58406
#
# Poissons Ratio (x) = 0.03031 0.13657
# Poissons Ratio (y) = 0.04961 0.08345
# Poissons Ratio (z) = 0.10838 0.04047
#
# Static dielectric constant tensor:
#      x y z
#    x 1.833520 0.000000 0.000000 
#    y 0.000000 1.685520 0.000000 
#    z 0.000000 0.000000 1.731710 
# 
# From -- ./inp_files/22810.got.cif
#   From: 2010.05.17/outbox.cif.g08.bks.cpg/sg58_12_cif.got.tgz:22810.got - 2010.06.03 14:20:14.
