data_PCOD9442197
_publ_section_title
;
Structure prediction by ZEFSAII (Michael W. Deem and Ramdas Pophale) SiO2 
 PCOD9442197
Probable space group: P N N M
;
_chemical_formula_sum "Si O2"
_cell_formula_units_Z 64
_cell_length_a 34.468424
_cell_length_b 10.994974
_cell_length_c 7.345638
_cell_angle_alpha 90.000000
_cell_angle_beta 90.000000
_cell_angle_gamma 90.000000
_cell_volume 2783.845671
_symmetry_space_group_name_H-M "P N N M"
_symmetry_group_IT_number 58
_symmetry_cell_setting 'orthorhombic'
loop_
_space_group_symop_operation_xyz
x,y,z
-x,-y,z
1/2+x,1/2-y,1/2-z
1/2-x,1/2+y,1/2-z
-x,-y,-z
x,y,-z
1/2-x,1/2+y,1/2+z
1/2+x,1/2-y,1/2+z
loop_
_atom_site_type_symbol
_atom_site_label
_atom_site_fract_x
_atom_site_fract_y
_atom_site_fract_z
Si Si1 0.665659 0.262741 0.223303
Si Si2 0.665672 0.737542 0.223305
Si Si3 0.421258 0.259314 0.208366
Si Si4 0.578725 0.259319 0.208385
Si Si5 0.499989 0.357034 0.208628
Si Si6 0.786119 0.000136 0.280008
Si Si7 0.304871 0.999857 0.789091
Si Si8 0.545756 0.999992 0.280517
O O1 0.621295 0.281825 0.283946
O O2 0.692271 0.376379 0.279430
O O3 0.679988 0.129392 0.285594
O O4 0.666100 0.261228 0.000000
O O5 0.621315 0.718318 0.283952
O O6 0.692303 0.623948 0.279423
O O7 0.679971 0.870917 0.285606
O O8 0.666112 0.739071 0.000000
O O9 0.459704 0.316265 0.295048
O O10 0.431414 0.117211 0.211730
O O11 0.419611 0.305580 0.000000
O O12 0.540267 0.316209 0.295050
O O13 0.568597 0.117196 0.211793
O O14 0.580357 0.305548 0.000000
O O15 0.500000 0.500000 0.197973
O O16 0.499984 0.305406 0.000000
O O17 0.786690 0.000133 0.500000
O O18 0.741578 0.000097 0.221415
O O19 0.317181 0.999847 0.000000
O O20 0.546313 0.999970 0.500000
O O21 0.500000 0.000000 0.225915
#
# Coordination Sequence:
#
# PCOD9442197 Si02
#       8
#     8   8   8   8   8   8   8   8
#     4   9  19  33  54  80 108 136 172 219 268 313
#     4   9  19  33  54  80 108 136 172 219 268 313
#     4  10  19  34  56  80 106 139 178 219 263 316
#     4  10  19  34  56  80 106 139 178 219 263 316
#     4   9  18  29  49  82 110 133 172 223 264 303
#     4  10  20  35  55  81 106 137 173 215 267 321
#     4  10  19  35  53  74 104 141 175 214 263 316
#     4  11  22  35  51  74 107 141 177 222 265 306
#
# _framework density 22.989778999999999
#
# number of rings (size 3 to 8) (size 9 to 14) (size 15 to 20)
#    0.000    2.250    1.250    1.875    1.750    2.500 
#    0.000    3.750    0.000    1.500    0.000    0.000 
#    0.000    0.000    0.000    0.000    0.000    0.000 
#
# Total GULP energy -357491.451587 kJ/mol
# GULP energy per Si atom -5585.803931 kJ/mol
# Density = 2.293745 g / cm^3
# Si number density = 22.989779 Si / 1000 Ang^3
#
#
#
# Elastic Constant Matrix: (Units=GPa)
#
#
# Indices 1 2 3 4 5 6 
#
# 1 186.9473 61.2658 -0.7606 0.0000 0.0000 0.0000
# 2 61.2658 127.6570 1.5448 0.0000 0.0000 0.0000
# 3 -0.7606 1.5448 93.1469 0.0000 0.0000 0.0000
# 4 0.0000 0.0000 0.0000 -134.1212 0.0000 0.0000
# 5 0.0000 0.0000 0.0000 0.0000 23.2132 0.0000
# 6 0.0000 0.0000 0.0000 0.0000 0.0000 -123.7343
#
#
#
# Elastic Compliance Matrix: (Units=1/GPa)
#
#
# Indices 1 2 3 4 5 6 
#
# 1 0.006348 -0.003048 0.000102 0.000000 0.000000 0.000000
# 2 -0.003048 0.009298 -0.000179 0.000000 0.000000 0.000000
# 3 0.000102 -0.000179 0.010740 0.000000 0.000000 0.000000
# 4 0.000000 0.000000 0.000000 -0.007456 0.000000 0.000000
# 5 0.000000 0.000000 0.000000 0.000000 0.043079 0.000000
# 6 0.000000 0.000000 0.000000 0.000000 0.000000 -0.008082
#
#
# Mechanical properties :
#
#
# Convention : Reuss Voigt Hill
#
# Bulk Modulus (GPa) = 49.65986 59.09458 54.37722
# Shear Modulus (GPa) = 74.75037 -23.88172 25.43433
#
# Velocity S-wave (km/s) = 5.70834 -3.22653 3.32977
# Velocity P-wave (km/s) = 8.06813 3.44671 6.20381
#
# Compressibility (1/GPa) = 0.02013699
#
# Stress axis : x y z
#
# Youngs Moduli (GPa) = 157.52007 107.54456 93.11390
#
# Poissons Ratio (x) = 0.32780 -0.00953
# Poissons Ratio (y) = 0.48012 0.01668
# Poissons Ratio (z) = -0.01613 0.01926
#
# Static dielectric constant tensor:
#      x y z
#    x 1.836010 0.000000 0.000000 
#    y 0.000000 1.912920 0.000000 
#    z 0.000000 0.000000 2.013150 
# 
# From -- ./inp_files/11032.got.cif
#   From: 2010.05.17/outbox.cif.g08.bks.cpg/sg58_6_cif.got.tgz:11032.got - 2010.06.03 14:20:14.
