data_PCOD9442464
_publ_section_title
;
Structure prediction by ZEFSAII (Michael W. Deem and Ramdas Pophale) SiO2 
 PCOD9442464
Probable space group: P N N M
;
_chemical_formula_sum "Si O2"
_cell_formula_units_Z 64
_cell_length_a 23.010532
_cell_length_b 9.220105
_cell_length_c 14.714779
_cell_angle_alpha 90.000000
_cell_angle_beta 90.000000
_cell_angle_gamma 90.000000
_cell_volume 3121.880466
_symmetry_space_group_name_H-M "P N N M"
_symmetry_group_IT_number 58
_symmetry_cell_setting 'orthorhombic'
loop_
_space_group_symop_operation_xyz
x,y,z
-x,-y,z
1/2+x,1/2-y,1/2-z
1/2-x,1/2+y,1/2-z
-x,-y,-z
x,y,-z
1/2-x,1/2+y,1/2+z
1/2+x,1/2-y,1/2+z
loop_
_atom_site_type_symbol
_atom_site_label
_atom_site_fract_x
_atom_site_fract_y
_atom_site_fract_z
Si Si1 0.069691 0.009217 0.100698
Si Si2 0.887333 0.144597 0.278472
Si Si3 0.681482 0.125562 0.100095
Si Si4 0.323278 0.947509 0.709591
Si Si5 0.915540 0.866589 0.603476
Si Si6 0.503069 0.838387 0.784725
Si Si7 0.734977 0.755610 0.723714
Si Si8 0.568702 0.152483 0.603928
O O1 0.086444 0.178018 0.103169
O O2 0.100233 0.924150 0.180054
O O3 0.081480 0.950268 0.000000
O O4 0.000000 0.000000 0.115099
O O5 0.821639 0.197509 0.274237
O O6 0.933047 0.273467 0.289843
O O7 0.901671 0.019933 0.351070
O O8 0.656584 0.035916 0.185073
O O9 0.643333 0.271750 0.100454
O O10 0.746376 0.167560 0.132886
O O11 0.679110 0.060551 0.000000
O O12 0.289663 0.792159 0.713329
O O13 0.377197 0.940557 0.642203
O O14 0.278057 0.078788 0.697351
O O15 0.936879 0.881619 0.500000
O O16 0.960599 0.774654 0.664332
O O17 0.481431 0.851086 0.680070
O O18 0.500000 0.000000 0.824670
O O19 0.553179 0.114351 0.500000
#
# Coordination Sequence:
#
# PCOD9442464 Si02
#       8
#     8   8   8   8   8   8   8   8
#     4  10  19  35  60  91 123 164 209 248 298 368
#     4  12  22  38  64  92 127 165 206 261 310 377
#     4   9  20  39  68  90 120 162 205 258 316 366
#     4  10  21  42  62  87 127 165 206 259 312 365
#     4  11  23  44  70  92 120 166 219 266 314 371
#     4  12  24  40  64  94 131 169 203 255 325 372
#     4  10  23  38  65  91 127 162 209 255 313 380
#     4  11  22  39  64  94 128 166 209 256 311 374
#
# _framework density 20.500463
#
# number of rings (size 3 to 8) (size 9 to 14) (size 15 to 20)
#    0.750    0.625    3.750    1.875    1.750    2.500 
#    0.000    3.125    0.000    0.000    0.000    0.000 
#    0.000    0.000    0.000    0.000    0.000    0.000 
#
# Total GULP energy -356874.046829 kJ/mol
# GULP energy per Si atom -5576.156982 kJ/mol
# Density = 2.045380 g / cm^3
# Si number density = 20.500463 Si / 1000 Ang^3
#
#
#
# Elastic Constant Matrix: (Units=GPa)
#
#
# Indices 1 2 3 4 5 6 
#
# 1 80.3853 20.0642 32.9404 0.0000 0.0000 0.0000
# 2 20.0642 66.3270 17.2751 0.0000 0.0000 0.0000
# 3 32.9404 17.2751 111.4909 0.0000 0.0000 0.0000
# 4 0.0000 0.0000 0.0000 -3.8941 0.0000 0.0000
# 5 0.0000 0.0000 0.0000 0.0000 10.8396 0.0000
# 6 0.0000 0.0000 0.0000 0.0000 0.0000 32.5559
#
#
#
# Elastic Compliance Matrix: (Units=1/GPa)
#
#
# Indices 1 2 3 4 5 6 
#
# 1 0.014895 -0.003501 -0.003858 0.000000 0.000000 0.000000
# 2 -0.003501 0.016534 -0.001527 0.000000 0.000000 0.000000
# 3 -0.003858 -0.001527 0.010346 0.000000 0.000000 0.000000
# 4 0.000000 0.000000 0.000000 -0.256798 0.000000 0.000000
# 5 0.000000 0.000000 0.000000 0.000000 0.092254 0.000000
# 6 0.000000 0.000000 0.000000 0.000000 0.000000 0.030716
#
#
# Mechanical properties :
#
#
# Convention : Reuss Voigt Hill
#
# Bulk Modulus (GPa) = 41.66452 44.30698 42.98575
# Shear Modulus (GPa) = -75.43931 20.42850 -27.50540
#
# Velocity S-wave (km/s) = -6.07278 3.16015 -3.66689
# Velocity P-wave (km/s) = 5.36692 5.91396 1.75658
#
# Compressibility (1/GPa) = 0.02400124
#
# Stress axis : x y z
#
# Youngs Moduli (GPa) = 67.13674 60.48258 96.65592
#
# Poissons Ratio (x) = 0.21174 0.37293
# Poissons Ratio (y) = 0.23504 0.14764
# Poissons Ratio (z) = 0.25904 0.09239
#
# Static dielectric constant tensor:
#      x y z
#    x 1.759860 0.000000 0.000000 
#    y 0.000000 1.767420 0.000000 
#    z 0.000000 0.000000 1.738290 
# 
# From -- ./inp_files/23537.got.cif
#   From: 2010.05.17/outbox.cif.g08.bks.cpg/sg58_12_cif.got.tgz:23537.got - 2010.06.03 14:20:14.
