data_PCOD9442931
_publ_section_title
;
Structure prediction by ZEFSAII (Michael W. Deem and Ramdas Pophale) SiO2 
 PCOD9442931
Probable space group: P N N M
;
_chemical_formula_sum "Si O2"
_cell_formula_units_Z 64
_cell_length_a 23.786072
_cell_length_b 7.046172
_cell_length_c 16.063503
_cell_angle_alpha 90.000000
_cell_angle_beta 90.000000
_cell_angle_gamma 90.000000
_cell_volume 2692.255223
_symmetry_space_group_name_H-M "P N N M"
_symmetry_group_IT_number 58
_symmetry_cell_setting 'orthorhombic'
loop_
_space_group_symop_operation_xyz
x,y,z
-x,-y,z
1/2+x,1/2-y,1/2-z
1/2-x,1/2+y,1/2-z
-x,-y,-z
x,y,-z
1/2-x,1/2+y,1/2+z
1/2+x,1/2-y,1/2+z
loop_
_atom_site_type_symbol
_atom_site_label
_atom_site_fract_x
_atom_site_fract_y
_atom_site_fract_z
Si Si1 0.605153 0.355710 0.089501
Si Si2 0.853868 0.436308 0.593227
Si Si3 0.848719 0.372387 0.907597
Si Si4 0.580462 0.832794 0.247982
Si Si5 0.454312 0.719435 0.253053
Si Si6 0.380017 0.676189 0.591944
Si Si7 0.237112 0.104249 0.842553
Si Si8 0.228178 0.039876 0.646272
O O1 0.568656 0.386046 0.171474
O O2 0.668961 0.422079 0.103927
O O3 0.609778 0.126698 0.085137
O O4 0.583727 0.426479 0.000000
O O5 0.847215 0.355790 0.500000
O O6 0.884257 0.307787 0.662732
O O7 0.793349 0.502893 0.629251
O O8 0.881395 0.290805 0.828253
O O9 0.863963 0.598616 0.905936
O O10 0.782101 0.355810 0.892629
O O11 0.864353 0.304252 0.000000
O O12 0.521265 0.727993 0.253889
O O13 0.565909 0.058973 0.249936
O O14 0.424748 0.641798 0.335819
O O15 0.401476 0.633725 0.500000
O O16 0.320925 0.571675 0.609715
O O17 0.225752 0.084783 0.744616
O O18 0.256407 0.319044 0.860687
#
# Coordination Sequence:
#
# PCOD9442931 Si02
#       8
#     8   8   8   8   8   8   8   8
#     4  10  20  34  52  77 108 139 174 215 260 311
#     4  10  20  34  52  77 108 139 174 215 260 311
#     4   9  17  29  47  73 103 131 162 206 259 312
#     4   9  17  30  48  72 103 137 174 215 258 305
#     4   9  17  30  48  72 103 137 174 215 258 305
#     4   9  17  29  47  73 103 131 162 206 259 312
#     4  11  20  33  54  78 107 138 171 212 263 319
#     4  11  20  33  54  78 107 138 171 212 263 319
#
# _framework density 23.771889999999999
#
# number of rings (size 3 to 8) (size 9 to 14) (size 15 to 20)
#    0.000    2.250    2.500    1.500    0.000    2.500 
#    0.000    5.000    0.000    0.750    0.000    1.750 
#    0.000    2.000    0.000    0.000    0.000    0.000 
#
# Total GULP energy -358164.285704 kJ/mol
# GULP energy per Si atom -5596.316964 kJ/mol
# Density = 2.371778 g / cm^3
# Si number density = 23.771890 Si / 1000 Ang^3
#
#
#
# Elastic Constant Matrix: (Units=GPa)
#
#
# Indices 1 2 3 4 5 6 
#
# 1 115.4573 14.1998 74.5162 0.0000 0.0000 0.0000
# 2 14.1998 68.1230 4.5642 0.0000 0.0000 0.0000
# 3 74.5162 4.5642 221.6482 0.0000 0.0000 0.0000
# 4 0.0000 0.0000 0.0000 4.2022 0.0000 0.0000
# 5 0.0000 0.0000 0.0000 0.0000 -5.3972 0.0000
# 6 0.0000 0.0000 0.0000 0.0000 0.0000 46.1047
#
#
#
# Elastic Compliance Matrix: (Units=1/GPa)
#
#
# Indices 1 2 3 4 5 6 
#
# 1 0.011357 -0.002114 -0.003775 0.000000 0.000000 0.000000
# 2 -0.002114 0.015093 0.000400 0.000000 0.000000 0.000000
# 3 -0.003775 0.000400 0.005772 0.000000 0.000000 0.000000
# 4 0.000000 0.000000 0.000000 0.237970 0.000000 0.000000
# 5 0.000000 0.000000 0.000000 0.000000 -0.185283 0.000000
# 6 0.000000 0.000000 0.000000 0.000000 0.000000 0.021690
#
#
# Mechanical properties :
#
#
# Convention : Reuss Voigt Hill
#
# Bulk Modulus (GPa) = 47.07012 65.75431 56.41221
# Shear Modulus (GPa) = 40.10910 29.77850 34.94380
#
# Velocity S-wave (km/s) = 4.11207 3.54316 3.83817
# Velocity P-wave (km/s) = 6.51070 6.66777 6.58970
#
# Compressibility (1/GPa) = 0.02124490
#
# Stress axis : x y z
#
# Youngs Moduli (GPa) = 88.04758 66.25464 173.23651
#
# Poissons Ratio (x) = 0.14009 0.65392
# Poissons Ratio (y) = 0.18618 -0.06931
# Poissons Ratio (z) = 0.33236 -0.02651
#
# Static dielectric constant tensor:
#      x y z
#    x 1.800720 0.000000 0.000000 
#    y 0.000000 2.006020 0.000000 
#    z 0.000000 0.000000 1.859790 
# 
# From -- ./inp_files/9970.got.cif
#   From: 2010.05.17/outbox.cif.g08.bks.cpg/sg58_5_cif.got.tgz:9970.got - 2010.06.03 14:20:14.
