data_PCOD9442987
_publ_section_title
;
Structure prediction by ZEFSAII (Michael W. Deem and Ramdas Pophale) SiO2 
 PCOD9442987
Probable space group: P N N M
;
_chemical_formula_sum "Si O2"
_cell_formula_units_Z 48
_cell_length_a 13.841987
_cell_length_b 5.175665
_cell_length_c 30.619194
_cell_angle_alpha 90.000000
_cell_angle_beta 90.000000
_cell_angle_gamma 90.000000
_cell_volume 2193.604609
_symmetry_space_group_name_H-M "P N N M"
_symmetry_group_IT_number 58
_symmetry_cell_setting 'orthorhombic'
loop_
_space_group_symop_operation_xyz
x,y,z
-x,-y,z
1/2+x,1/2-y,1/2-z
1/2-x,1/2+y,1/2-z
-x,-y,-z
x,y,-z
1/2-x,1/2+y,1/2+z
1/2+x,1/2-y,1/2+z
loop_
_atom_site_type_symbol
_atom_site_label
_atom_site_fract_x
_atom_site_fract_y
_atom_site_fract_z
Si Si1 0.221235 0.705466 0.951117
Si Si2 0.114972 0.491250 0.344930
Si Si3 0.567290 0.258212 0.075680
Si Si4 0.383583 0.502013 0.306388
Si Si5 0.287119 0.700980 0.394993
Si Si6 0.617776 0.003355 0.745976
O O1 0.337948 0.724054 0.953282
O O2 0.194602 0.477140 0.917071
O O3 0.193624 0.982739 0.931396
O O4 0.183722 0.658781 0.000000
O O5 0.114678 0.236948 0.375227
O O6 0.176569 0.676148 0.376819
O O7 0.152320 0.521479 0.295958
O O8 0.000000 0.500000 0.339305
O O9 0.500000 0.500000 0.068502
O O10 0.500000 0.000000 0.070404
O O11 0.500000 0.500000 0.308636
O O12 0.345981 0.604839 0.352683
O O13 0.354272 0.716571 0.271129
O O14 0.352780 0.222038 0.287811
O O15 0.500000 0.000000 0.746345
#
# Coordination Sequence:
#
# PCOD9442987 Si02
#       6
#     8   8   8   8   8   8
#     4  11  23  39  58  82 110 142 186 236 287 343
#     4   9  19  34  53  80 117 152 187 221 260 319
#     4  10  20  34  54  81 115 156 193 226 270 324
#     4  10  21  38  57  82 111 144 188 233 284 337
#     4  11  23  38  60  82 109 150 185 231 291 336
#     4   9  19  33  54  81 113 150 185 226 269 321
#
# _framework density 21.881789999999999
#
# number of rings (size 3 to 8) (size 9 to 14) (size 15 to 20)
#    0.000    2.000    0.000    4.500    0.000    9.333 
#    0.000    0.000    0.000    3.500    0.000    0.000 
#    0.000    0.000    0.000    0.000    0.000    0.000 
#
# Total GULP energy -267412.323579 kJ/mol
# GULP energy per Si atom -5571.090075 kJ/mol
# Density = 2.183199 g / cm^3
# Si number density = 21.881790 Si / 1000 Ang^3
#
#
#
# Elastic Constant Matrix: (Units=GPa)
#
#
# Indices 1 2 3 4 5 6 
#
# 1 37.4631 4.4232 9.6828 0.0000 0.0000 0.0000
# 2 4.4232 117.5375 11.7659 0.0000 0.0000 0.0000
# 3 9.6828 11.7659 123.7070 0.0000 0.0000 0.0000
# 4 0.0000 0.0000 0.0000 11.8622 0.0000 0.0000
# 5 0.0000 0.0000 0.0000 0.0000 28.9155 0.0000
# 6 0.0000 0.0000 0.0000 0.0000 0.0000 14.0574
#
#
#
# Elastic Compliance Matrix: (Units=1/GPa)
#
#
# Indices 1 2 3 4 5 6 
#
# 1 0.027323 -0.000822 -0.002060 0.000000 0.000000 0.000000
# 2 -0.000822 0.008614 -0.000755 0.000000 0.000000 0.000000
# 3 -0.002060 -0.000755 0.008317 0.000000 0.000000 0.000000
# 4 0.000000 0.000000 0.000000 0.084301 0.000000 0.000000
# 5 0.000000 0.000000 0.000000 0.000000 0.034584 0.000000
# 6 0.000000 0.000000 0.000000 0.000000 0.000000 0.071137
#
#
# Mechanical properties :
#
#
# Convention : Reuss Voigt Hill
#
# Bulk Modulus (GPa) = 27.04245 36.71684 31.87964
# Shear Modulus (GPa) = 19.69460 27.82272 23.75866
#
# Velocity S-wave (km/s) = 3.00333 3.56968 3.29868
# Velocity P-wave (km/s) = 4.94084 5.81431 5.39528
#
# Compressibility (1/GPa) = 0.03697890
#
# Stress axis : x y z
#
# Youngs Moduli (GPa) = 36.59986 116.08425 120.23998
#
# Poissons Ratio (x) = 0.09542 0.24774
# Poissons Ratio (y) = 0.03008 0.09078
# Poissons Ratio (z) = 0.07541 0.08764
#
# Static dielectric constant tensor:
#      x y z
#    x 2.042480 0.000000 0.000000 
#    y 0.000000 1.787790 0.000000 
#    z 0.000000 0.000000 1.872340 
# 
# From -- ./inp_files/34999.got.cif
#   From: 2010.05.17/outbox.cif.g08.bks.cpg/sg58_18_cif.got.tgz:34999.got - 2010.06.03 14:20:14.
