data_PCOD9442055
_publ_section_title
;
Structure prediction by ZEFSAII (Michael W. Deem and Ramdas Pophale) SiO2 
 PCOD9442055
Probable space group: P N N M
;
_chemical_formula_sum "Si O2"
_cell_formula_units_Z 64
_cell_length_a 34.468861
_cell_length_b 12.130943
_cell_length_c 8.763176
_cell_angle_alpha 90.000000
_cell_angle_beta 90.000000
_cell_angle_gamma 90.000000
_cell_volume 3664.232555
_symmetry_space_group_name_H-M "P N N M"
_symmetry_group_IT_number 58
_symmetry_cell_setting 'orthorhombic'
loop_
_space_group_symop_operation_xyz
x,y,z
-x,-y,z
1/2+x,1/2-y,1/2-z
1/2-x,1/2+y,1/2-z
-x,-y,-z
x,y,-z
1/2-x,1/2+y,1/2+z
1/2+x,1/2-y,1/2+z
loop_
_atom_site_type_symbol
_atom_site_label
_atom_site_fract_x
_atom_site_fract_y
_atom_site_fract_z
Si Si1 0.034026 0.861223 0.181871
Si Si2 0.546831 0.395506 0.182107
Si Si3 0.607457 0.741241 0.180185
Si Si4 0.812266 0.639720 0.816450
Si Si5 0.769832 0.191431 0.817597
Si Si6 0.627083 0.325068 0.681795
Si Si7 0.166602 0.962357 0.319430
Si Si8 0.827222 0.388386 0.183858
O O1 0.067199 0.776974 0.233378
O O2 0.991984 0.838288 0.254283
O O3 0.046241 0.981417 0.246719
O O4 0.031134 0.867215 0.000000
O O5 0.586069 0.336799 0.234366
O O6 0.545138 0.404980 0.000000
O O7 0.633592 0.631127 0.204104
O O8 0.633745 0.840203 0.242595
O O9 0.600709 0.752212 0.000000
O O10 0.773886 0.688712 0.740279
O O11 0.849417 0.714529 0.779990
O O12 0.818147 0.512936 0.769568
O O13 0.807087 0.642248 0.000000
O O14 0.793978 0.091269 0.743005
O O15 0.792581 0.303796 0.774870
O O16 0.771216 0.181126 0.000000
O O17 0.620851 0.329940 0.500000
O O18 0.653389 0.428427 0.733103
O O19 0.169701 0.983808 0.500000
O O20 0.831249 0.385505 0.000000
#
# Coordination Sequence:
#
# PCOD9442055 Si02
#       8
#     8   8   8   8   8   8   8   8
#     4  11  20  32  54  83 114 149 184 224 274 331
#     4  11  21  34  52  79 117 151 184 228 277 330
#     4  10  19  33  55  83 111 143 180 225 274 325
#     4  10  23  40  57  79 110 147 187 231 281 330
#     4  10  21  36  57  82 107 139 184 231 277 330
#     4  11  22  36  55  81 113 150 189 228 276 334
#     4  10  20  34  54  78 110 145 180 223 276 329
#     4   9  20  39  57  77 107 145 185 229 276 329
#
# _framework density 17.466139999999999
#
# number of rings (size 3 to 8) (size 9 to 14) (size 15 to 20)
#    0.000    1.750    1.250    4.500    1.750    3.000 
#    0.000    0.000    0.000    0.750    0.000    5.250 
#    0.000    0.000    0.000    0.000    0.000    0.000 
#
# Total GULP energy -357507.478109 kJ/mol
# GULP energy per Si atom -5586.054345 kJ/mol
# Density = 1.742639 g / cm^3
# Si number density = 17.466140 Si / 1000 Ang^3
#
#
#
# Elastic Constant Matrix: (Units=GPa)
#
#
# Indices 1 2 3 4 5 6 
#
# 1 132.2711 50.3492 52.8497 0.0000 0.0000 0.0000
# 2 50.3492 82.4919 37.7070 0.0000 0.0000 0.0000
# 3 52.8497 37.7070 75.5466 0.0000 0.0000 0.0000
# 4 0.0000 0.0000 0.0000 6.5672 0.0000 0.0000
# 5 0.0000 0.0000 0.0000 0.0000 34.9097 0.0000
# 6 0.0000 0.0000 0.0000 0.0000 0.0000 18.7123
#
#
#
# Elastic Compliance Matrix: (Units=1/GPa)
#
#
# Indices 1 2 3 4 5 6 
#
# 1 0.011591 -0.004364 -0.005931 0.000000 0.000000 0.000000
# 2 -0.004364 0.017348 -0.005606 0.000000 0.000000 0.000000
# 3 -0.005931 -0.005606 0.020184 0.000000 0.000000 0.000000
# 4 0.000000 0.000000 0.000000 0.152272 0.000000 0.000000
# 5 0.000000 0.000000 0.000000 0.000000 0.028645 0.000000
# 6 0.000000 0.000000 0.000000 0.000000 0.000000 0.053441
#
#
# Mechanical properties :
#
#
# Convention : Reuss Voigt Hill
#
# Bulk Modulus (GPa) = 57.72969 63.56905 60.64937
# Shear Modulus (GPa) = 15.57360 21.99809 18.78585
#
# Velocity S-wave (km/s) = 2.98928 3.55275 3.28313
# Velocity P-wave (km/s) = 6.71107 7.30096 7.01222
#
# Compressibility (1/GPa) = 0.01732211
#
# Stress axis : x y z
#
# Youngs Moduli (GPa) = 86.27500 57.64214 49.54447
#
# Poissons Ratio (x) = 0.25153 0.29383
# Poissons Ratio (y) = 0.37647 0.27776
# Poissons Ratio (z) = 0.51166 0.32316
#
# Static dielectric constant tensor:
#      x y z
#    x 1.589230 0.000000 0.000000 
#    y 0.000000 1.576030 0.000000 
#    z 0.000000 0.000000 1.583700 
# 
# From -- ./inp_files/10965.got.cif
#   From: 2010.05.17/outbox.cif.g08.bks.cpg/sg58_6_cif.got.tgz:10965.got - 2010.06.03 14:20:14.
