data_PCOD9442202
_publ_section_title
;
Structure prediction by ZEFSAII (Michael W. Deem and Ramdas Pophale) SiO2 
 PCOD9442202
Probable space group: P N N M
;
_chemical_formula_sum "Si O2"
_cell_formula_units_Z 56
_cell_length_a 14.770030
_cell_length_b 19.423869
_cell_length_c 7.950634
_cell_angle_alpha 90.000000
_cell_angle_beta 90.000000
_cell_angle_gamma 90.000000
_cell_volume 2280.966355
_symmetry_space_group_name_H-M "P N N M"
_symmetry_group_IT_number 58
_symmetry_cell_setting 'orthorhombic'
loop_
_space_group_symop_operation_xyz
x,y,z
-x,-y,z
1/2+x,1/2-y,1/2-z
1/2-x,1/2+y,1/2-z
-x,-y,-z
x,y,-z
1/2-x,1/2+y,1/2+z
1/2+x,1/2-y,1/2+z
loop_
_atom_site_type_symbol
_atom_site_label
_atom_site_fract_x
_atom_site_fract_y
_atom_site_fract_z
Si Si1 0.267232 0.212757 0.194942
Si Si2 0.544606 0.142400 0.203906
Si Si3 0.399319 0.637746 0.198168
Si Si4 0.439094 0.281491 0.206105
Si Si5 0.103501 0.990744 0.701546
Si Si6 0.632237 0.925477 0.698310
Si Si7 0.717856 0.071437 0.801845
O O1 0.171649 0.198785 0.279318
O O2 0.337346 0.268635 0.267268
O O3 0.321263 0.140132 0.211686
O O4 0.250942 0.226926 0.000000
O O5 0.498729 0.214452 0.253162
O O6 0.474569 0.084594 0.268445
O O7 0.646491 0.127865 0.266261
O O8 0.544196 0.140528 0.000000
O O9 0.498535 0.656040 0.266522
O O10 0.358919 0.565707 0.259092
O O11 0.411991 0.628467 0.000000
O O12 0.434188 0.283565 0.000000
O O13 0.098438 0.985239 0.500000
O O14 0.177886 0.934252 0.747064
O O15 0.000000 0.000000 0.761245
O O16 0.651859 0.918829 0.500000
O O17 0.670564 0.998262 0.758265
O O18 0.719814 0.079662 0.000000
#
# Coordination Sequence:
#
# PCOD9442202 Si02
#       7
#     8   8   8   8   8   8   8
#     4  10  19  34  56  81 110 145 185 231 276 334
#     4   9  19  35  53  78 113 148 180 222 276 335
#     4  10  19  36  61  81 105 147 188 229 278 331
#     4   8  17  35  56  78 108 145 185 223 273 332
#     4  10  22  39  57  80 110 146 190 234 280 333
#     4  11  20  31  52  82 112 143 180 223 274 333
#     4  11  21  34  55  80 109 146 184 225 278 331
#
# _framework density 24.550996999999999
#
# number of rings (size 3 to 8) (size 9 to 14) (size 15 to 20)
#    0.000    2.143    1.429    3.429    0.000    3.143 
#    2.571    3.571    0.000    0.000    0.000    0.000 
#    0.000    0.000    0.000    0.000    0.000    0.000 
#
# Total GULP energy -312758.369562 kJ/mol
# GULP energy per Si atom -5584.970885 kJ/mol
# Density = 2.449512 g / cm^3
# Si number density = 24.550997 Si / 1000 Ang^3
#
#
#
# Elastic Constant Matrix: (Units=GPa)
#
#
# Indices 1 2 3 4 5 6 
#
# 1 146.8608 18.1239 4.7424 0.0000 0.0000 0.0000
# 2 18.1239 42.3566 -8.2811 0.0000 0.0000 0.0000
# 3 4.7424 -8.2811 31.7773 0.0000 0.0000 0.0000
# 4 0.0000 0.0000 0.0000 6.0971 0.0000 0.0000
# 5 0.0000 0.0000 0.0000 0.0000 15.9664 0.0000
# 6 0.0000 0.0000 0.0000 0.0000 0.0000 38.5898
#
#
#
# Elastic Compliance Matrix: (Units=1/GPa)
#
#
# Indices 1 2 3 4 5 6 
#
# 1 0.007308 -0.003520 -0.002008 0.000000 0.000000 0.000000
# 2 -0.003520 0.026572 0.007450 0.000000 0.000000 0.000000
# 3 -0.002008 0.007450 0.033710 0.000000 0.000000 0.000000
# 4 0.000000 0.000000 0.000000 0.164012 0.000000 0.000000
# 5 0.000000 0.000000 0.000000 0.000000 0.062631 0.000000
# 6 0.000000 0.000000 0.000000 0.000000 0.000000 0.025914
#
#
# Mechanical properties :
#
#
# Convention : Reuss Voigt Hill
#
# Bulk Modulus (GPa) = 13.99888 27.79613 20.89751
# Shear Modulus (GPa) = 14.70094 25.89129 20.29612
#
# Velocity S-wave (km/s) = 2.44968 3.25097 2.87834
# Velocity P-wave (km/s) = 3.70345 5.04362 4.42457
#
# Compressibility (1/GPa) = 0.07143426
#
# Stress axis : x y z
#
# Youngs Moduli (GPa) = 136.82929 37.63414 29.66474
#
# Poissons Ratio (x) = 0.13246 0.05956
# Poissons Ratio (y) = 0.48160 -0.22100
# Poissons Ratio (z) = 0.27474 -0.28037
#
# Static dielectric constant tensor:
#      x y z
#    x 2.020090 0.000000 0.000000 
#    y 0.000000 2.033760 0.000000 
#    z 0.000000 0.000000 1.869060 
# 
# From -- ./inp_files/6315.got.cif
#   From: 2010.05.17/outbox.cif.g08.bks.cpg/sg58_4_cif.got.tgz:6315.got - 2010.06.03 14:20:14.
