data_PCOD9442751
_publ_section_title
;
Structure prediction by ZEFSAII (Michael W. Deem and Ramdas Pophale) SiO2 
 PCOD9442751
Probable space group: P N N M
;
_chemical_formula_sum "Si O2"
_cell_formula_units_Z 64
_cell_length_a 14.558611
_cell_length_b 29.529680
_cell_length_c 7.534594
_cell_angle_alpha 90.000000
_cell_angle_beta 90.000000
_cell_angle_gamma 90.000000
_cell_volume 3239.205776
_symmetry_space_group_name_H-M "P N N M"
_symmetry_group_IT_number 58
_symmetry_cell_setting 'orthorhombic'
loop_
_space_group_symop_operation_xyz
x,y,z
-x,-y,z
1/2+x,1/2-y,1/2-z
1/2-x,1/2+y,1/2-z
-x,-y,-z
x,y,-z
1/2-x,1/2+y,1/2+z
1/2+x,1/2-y,1/2+z
loop_
_atom_site_type_symbol
_atom_site_label
_atom_site_fract_x
_atom_site_fract_y
_atom_site_fract_z
Si Si1 0.257658 0.950064 0.706368
Si Si2 0.604739 0.874889 0.283880
Si Si3 0.886533 0.121961 0.791290
Si Si4 0.246409 0.800463 0.210176
Si Si5 0.747249 0.448151 0.217094
Si Si6 0.746575 0.301832 0.782971
Si Si7 0.399482 0.624935 0.786152
Si Si8 0.895455 0.626590 0.214939
O O1 0.282121 0.956161 0.500000
O O2 0.162350 0.922524 0.714454
O O3 0.334757 0.915955 0.781144
O O4 0.250083 0.000389 0.782075
O O5 0.602974 0.874809 0.500000
O O6 0.663296 0.919026 0.231288
O O7 0.664453 0.831200 0.230379
O O8 0.500093 0.874431 0.222304
O O9 0.833407 0.166294 0.718369
O O10 0.994874 0.124250 0.766244
O O11 0.866898 0.120018 0.000000
O O12 0.250499 0.749613 0.281802
O O13 0.340567 0.828066 0.235606
O O14 0.229750 0.795742 0.000000
O O15 0.658644 0.418940 0.273861
O O16 0.744684 0.448696 0.000000
O O17 0.657435 0.330771 0.726646
O O18 0.744924 0.301329 0.000000
O O19 0.396869 0.624902 0.000000
O O20 0.896101 0.624792 0.000000
#
# Coordination Sequence:
#
# PCOD9442751 Si02
#       8
#     8   8   8   8   8   8   8   8
#     4   9  17  30  47  68  93 119 150 185 222 265
#     4   8  14  26  45  70  94 113 142 184 227 267
#     4  10  20  32  46  66  93 123 152 185 225 265
#     4   9  18  32  47  63  88 122 153 179 216 269
#     4   8  15  28  47  69  91 117 148 183 223 269
#     4   8  15  29  48  67  88 117 150 182 219 267
#     4   9  17  31  50  68  87 115 152 189 222 261
#     4   9  17  28  46  71  94 116 144 185 227 261
#
# _framework density 19.757930000000002
#
# number of rings (size 3 to 8) (size 9 to 14) (size 15 to 20)
#    0.000    3.250    0.000    1.875    0.000    2.500 
#    0.000    7.500    0.000    4.500    0.000    3.500 
#    0.000    0.000    0.000    0.000    0.000    0.000 
#
# Total GULP energy -356819.518354 kJ/mol
# GULP energy per Si atom -5575.304974 kJ/mol
# Density = 1.971296 g / cm^3
# Si number density = 19.757930 Si / 1000 Ang^3
#
#
#
# Elastic Constant Matrix: (Units=GPa)
#
#
# Indices 1 2 3 4 5 6 
#
# 1 171.6952 97.2920 -11.0804 0.0000 0.0000 0.0000
# 2 97.2920 216.4291 3.0776 0.0000 0.0000 0.0000
# 3 -11.0804 3.0776 44.2529 0.0000 0.0000 0.0000
# 4 0.0000 0.0000 0.0000 6.3727 0.0000 0.0000
# 5 0.0000 0.0000 0.0000 0.0000 12.3209 0.0000
# 6 0.0000 0.0000 0.0000 0.0000 0.0000 6.8299
#
#
#
# Elastic Compliance Matrix: (Units=1/GPa)
#
#
# Indices 1 2 3 4 5 6 
#
# 1 0.008036 -0.003645 0.002265 0.000000 0.000000 0.000000
# 2 -0.003645 0.006278 -0.001349 0.000000 0.000000 0.000000
# 3 0.002265 -0.001349 0.023258 0.000000 0.000000 0.000000
# 4 0.000000 0.000000 0.000000 0.156920 0.000000 0.000000
# 5 0.000000 0.000000 0.000000 0.000000 0.081163 0.000000
# 6 0.000000 0.000000 0.000000 0.000000 0.000000 0.146416
#
#
# Mechanical properties :
#
#
# Convention : Reuss Voigt Hill
#
# Bulk Modulus (GPa) = 31.13733 67.88395 49.51064
# Shear Modulus (GPa) = 11.40946 27.97721 19.69334
#
# Velocity S-wave (km/s) = 2.40565 3.76706 3.16053
# Velocity P-wave (km/s) = 4.84869 7.30434 6.19932
#
# Compressibility (1/GPa) = 0.03211579
#
# Stress axis : x y z
#
# Youngs Moduli (GPa) = 124.44527 159.28732 42.99506
#
# Poissons Ratio (x) = 0.58052 -0.09741
# Poissons Ratio (y) = 0.45354 0.05801
# Poissons Ratio (z) = -0.28193 0.21490
#
# Static dielectric constant tensor:
#      x y z
#    x 1.660800 0.000000 0.000000 
#    y 0.000000 1.688510 0.000000 
#    z 0.000000 0.000000 1.757710 
# 
# From -- ./inp_files/7174.got.cif
#   From: 2010.05.17/outbox.cif.g08.bks.cpg/sg58_4_cif.got.tgz:7174.got - 2010.06.03 14:20:14.
