data_PCOD9442184
_publ_section_title
;
Structure prediction by ZEFSAII (Michael W. Deem and Ramdas Pophale) SiO2 
 PCOD9442184
Probable space group: P N N M
;
_chemical_formula_sum "Si O2"
_cell_formula_units_Z 48
_cell_length_a 12.522311
_cell_length_b 7.546299
_cell_length_c 24.156379
_cell_angle_alpha 90.000000
_cell_angle_beta 90.000000
_cell_angle_gamma 90.000000
_cell_volume 2282.707834
_symmetry_space_group_name_H-M "P N N M"
_symmetry_group_IT_number 58
_symmetry_cell_setting 'orthorhombic'
loop_
_space_group_symop_operation_xyz
x,y,z
-x,-y,z
1/2+x,1/2-y,1/2-z
1/2-x,1/2+y,1/2-z
-x,-y,-z
x,y,-z
1/2-x,1/2+y,1/2+z
1/2+x,1/2-y,1/2+z
loop_
_atom_site_type_symbol
_atom_site_label
_atom_site_fract_x
_atom_site_fract_y
_atom_site_fract_z
Si Si1 0.936903 0.833400 0.667358
Si Si2 0.324052 0.493521 0.061775
Si Si3 0.786665 0.276485 0.218886
Si Si4 0.280623 0.587612 0.331423
Si Si5 0.088437 0.619978 0.404155
Si Si6 0.120115 0.443525 0.867142
O O1 0.840007 0.773922 0.705040
O O2 0.020466 0.687866 0.648756
O O3 0.885553 0.899482 0.609232
O O4 0.000000 0.000000 0.691940
O O5 0.373363 0.295790 0.064416
O O6 0.202322 0.482496 0.082927
O O7 0.334540 0.565164 0.000000
O O8 0.788480 0.313383 0.283770
O O9 0.839464 0.436116 0.184523
O O10 0.827905 0.088385 0.196507
O O11 0.197698 0.535233 0.380445
O O12 0.362797 0.736414 0.352427
O O13 0.000000 0.500000 0.434029
O O14 0.000000 0.500000 0.879415
#
# Coordination Sequence:
#
# PCOD9442184 Si02
#       6
#     8   8   8   8   8   8
#     4   9  19  34  55  80 115 146 184 231 289 348
#     4   9  20  38  60  84 110 142 191 245 294 350
#     4  11  21  37  56  83 119 158 194 242 281 340
#     4  11  22  36  57  84 121 156 198 237 284 341
#     4  10  19  34  55  82 115 148 178 231 294 355
#     4  10  23  41  58  84 115 156 202 240 289 343
#
# _framework density 21.027659
#
# number of rings (size 3 to 8) (size 9 to 14) (size 15 to 20)
#    0.000    2.000    3.333    1.000    0.000    6.333 
#    0.000    0.000    0.000    0.000    0.000    4.667 
#    0.000    0.000    0.000    0.000    0.000    0.000 
#
# Total GULP energy -267966.714447 kJ/mol
# GULP energy per Si atom -5582.639884 kJ/mol
# Density = 2.097980 g / cm^3
# Si number density = 21.027659 Si / 1000 Ang^3
#
#
#
# Elastic Constant Matrix: (Units=GPa)
#
#
# Indices 1 2 3 4 5 6 
#
# 1 119.9621 21.5522 22.4895 0.0000 0.0000 0.0000
# 2 21.5522 91.6842 0.9691 0.0000 0.0000 0.0000
# 3 22.4895 0.9691 71.2076 0.0000 0.0000 0.0000
# 4 0.0000 0.0000 0.0000 8.7004 0.0000 0.0000
# 5 0.0000 0.0000 0.0000 0.0000 4.9021 0.0000
# 6 0.0000 0.0000 0.0000 0.0000 0.0000 23.9506
#
#
#
# Elastic Compliance Matrix: (Units=1/GPa)
#
#
# Indices 1 2 3 4 5 6 
#
# 1 0.009265 -0.002147 -0.002897 0.000000 0.000000 0.000000
# 2 -0.002147 0.011406 0.000523 0.000000 0.000000 0.000000
# 3 -0.002897 0.000523 0.014951 0.000000 0.000000 0.000000
# 4 0.000000 0.000000 0.000000 0.114938 0.000000 0.000000
# 5 0.000000 0.000000 0.000000 0.000000 0.203993 0.000000
# 6 0.000000 0.000000 0.000000 0.000000 0.000000 0.041753
#
#
# Mechanical properties :
#
#
# Convention : Reuss Voigt Hill
#
# Bulk Modulus (GPa) = 37.62242 41.43059 39.52651
# Shear Modulus (GPa) = 12.07121 23.36682 17.71902
#
# Velocity S-wave (km/s) = 2.39856 3.33715 2.90600
# Velocity P-wave (km/s) = 5.05979 5.88170 5.48616
#
# Compressibility (1/GPa) = 0.02657990
#
# Stress axis : x y z
#
# Youngs Moduli (GPa) = 107.93511 87.67132 66.88403
#
# Poissons Ratio (x) = 0.18825 0.19376
# Poissons Ratio (y) = 0.23176 -0.03498
# Poissons Ratio (z) = 0.31268 -0.04585
#
# Static dielectric constant tensor:
#      x y z
#    x 1.763240 0.000000 0.000000 
#    y 0.000000 1.841820 0.000000 
#    z 0.000000 0.000000 1.734020 
# 
# From -- ./inp_files/31901.got.cif
#   From: 2010.05.17/outbox.cif.g08.bks.cpg/sg58_16_cif.got.tgz:31901.got - 2010.06.03 14:20:14.
