data_PCOD9442077
_publ_section_title
;
Structure prediction by ZEFSAII (Michael W. Deem and Ramdas Pophale) SiO2 
 PCOD9442077
Probable space group: P N N M
;
_chemical_formula_sum "Si O2"
_cell_formula_units_Z 40
_cell_length_a 24.152788
_cell_length_b 8.078803
_cell_length_c 7.777728
_cell_angle_alpha 90.000000
_cell_angle_beta 90.000000
_cell_angle_gamma 90.000000
_cell_volume 1517.633968
_symmetry_space_group_name_H-M "P N N M"
_symmetry_group_IT_number 58
_symmetry_cell_setting 'orthorhombic'
loop_
_space_group_symop_operation_xyz
x,y,z
-x,-y,z
1/2+x,1/2-y,1/2-z
1/2-x,1/2+y,1/2-z
-x,-y,-z
x,y,-z
1/2-x,1/2+y,1/2+z
1/2+x,1/2-y,1/2+z
loop_
_atom_site_type_symbol
_atom_site_label
_atom_site_fract_x
_atom_site_fract_y
_atom_site_fract_z
Si Si1 0.864143 0.525439 0.796144
Si Si2 0.430858 0.643111 0.795554
Si Si3 0.260965 0.138235 0.801486
Si Si4 0.336700 0.427867 0.199826
Si Si5 0.466644 0.164967 0.706360
O O1 0.897800 0.693546 0.765550
O O2 0.805228 0.512018 0.706736
O O3 0.904605 0.375637 0.733539
O O4 0.855566 0.510353 0.000000
O O5 0.395157 0.488869 0.723041
O O6 0.495063 0.681581 0.757863
O O7 0.426216 0.631882 0.000000
O O8 0.298772 0.283596 0.721225
O O9 0.205031 0.084551 0.710466
O O10 0.247321 0.178229 0.000000
O O11 0.344648 0.384435 0.000000
O O12 0.465339 0.162541 0.500000
O O13 0.500000 0.000000 0.764480
#
# Coordination Sequence:
#
# PCOD9442077 Si02
#       5
#     8   8   8   8   8
#     4  10  20  35  55  80 111 143 177 220 265 312
#     4  10  19  33  56  83 110 142 180 220 262 312
#     4  11  23  38  57  79 104 138 178 219 265 317
#     4  10  23  40  55  78 110 139 173 219 269 319
#     4   8  16  31  51  77 109 143 178 217 261 308
#
# _framework density 26.356816999999999
#
# number of rings (size 3 to 8) (size 9 to 14) (size 15 to 20)
#    0.000    2.200    0.000    4.200    0.000   10.800 
#    0.000    1.000    0.000    6.000    0.000    0.000 
#    0.000    0.000    0.000    0.000    0.000    0.000 
#
# Total GULP energy -223709.295947 kJ/mol
# GULP energy per Si atom -5592.732399 kJ/mol
# Density = 2.629683 g / cm^3
# Si number density = 26.356817 Si / 1000 Ang^3
#
#
#
# Elastic Constant Matrix: (Units=GPa)
#
#
# Indices 1 2 3 4 5 6 
#
# 1 159.8753 15.2001 7.7795 0.0000 0.0000 0.0000
# 2 15.2001 82.1482 -10.2353 0.0000 0.0000 0.0000
# 3 7.7795 -10.2353 73.4035 0.0000 0.0000 0.0000
# 4 0.0000 0.0000 0.0000 94.6141 0.0000 0.0000
# 5 0.0000 0.0000 0.0000 0.0000 -313.9446 0.0000
# 6 0.0000 0.0000 0.0000 0.0000 0.0000 50.9642
#
#
#
# Elastic Compliance Matrix: (Units=1/GPa)
#
#
# Indices 1 2 3 4 5 6 
#
# 1 0.006420 -0.001295 -0.000861 0.000000 0.000000 0.000000
# 2 -0.001295 0.012650 0.001901 0.000000 0.000000 0.000000
# 3 -0.000861 0.001901 0.013980 0.000000 0.000000 0.000000
# 4 0.000000 0.000000 0.000000 0.010569 0.000000 0.000000
# 5 0.000000 0.000000 0.000000 0.000000 -0.003185 0.000000
# 6 0.000000 0.000000 0.000000 0.000000 0.000000 0.019622
#
#
# Mechanical properties :
#
#
# Convention : Reuss Voigt Hill
#
# Bulk Modulus (GPa) = 30.73223 37.87951 34.30587
# Shear Modulus (GPa) = 70.01697 -13.49441 28.26128
#
# Velocity S-wave (km/s) = 5.15972 -2.26517 3.27809
# Velocity P-wave (km/s) = 6.86894 2.74985 5.23182
#
# Compressibility (1/GPa) = 0.03253913
#
# Stress axis : x y z
#
# Youngs Moduli (GPa) = 155.76547 79.05362 71.53248
#
# Poissons Ratio (x) = 0.10239 0.06159
# Poissons Ratio (y) = 0.20174 -0.13599
# Poissons Ratio (z) = 0.13411 -0.15029
#
# Static dielectric constant tensor:
#      x y z
#    x 2.058630 0.000000 0.000000 
#    y 0.000000 2.225820 0.000000 
#    z 0.000000 0.000000 1.923150 
# 
# From -- ./inp_files/2436.got.cif
#   From: 2010.05.17/outbox.cif.g08.bks.cpg/sg58_2_cif.got.tgz:2436.got - 2010.06.03 14:20:14.
