data_PCOD9442512
_publ_section_title
;
Structure prediction by ZEFSAII (Michael W. Deem and Ramdas Pophale) SiO2 
 PCOD9442512
Probable space group: P N N M
;
_chemical_formula_sum "Si O2"
_cell_formula_units_Z 48
_cell_length_a 20.442122
_cell_length_b 15.339458
_cell_length_c 8.589232
_cell_angle_alpha 90.000000
_cell_angle_beta 90.000000
_cell_angle_gamma 90.000000
_cell_volume 2693.334685
_symmetry_space_group_name_H-M "P N N M"
_symmetry_group_IT_number 58
_symmetry_cell_setting 'orthorhombic'
loop_
_space_group_symop_operation_xyz
x,y,z
-x,-y,z
1/2+x,1/2-y,1/2-z
1/2-x,1/2+y,1/2-z
-x,-y,-z
x,y,-z
1/2-x,1/2+y,1/2+z
1/2+x,1/2-y,1/2+z
loop_
_atom_site_type_symbol
_atom_site_label
_atom_site_fract_x
_atom_site_fract_y
_atom_site_fract_z
Si Si1 0.441808 0.566594 0.686688
Si Si2 0.461705 0.087079 0.688373
Si Si3 0.482478 0.274627 0.185436
Si Si4 0.687567 0.885881 0.311010
Si Si5 0.162541 0.808108 0.187012
Si Si6 0.194216 0.992203 0.686936
O O1 0.500000 0.500000 0.732472
O O2 0.438317 0.567655 0.500000
O O3 0.462588 0.660890 0.749340
O O4 0.373625 0.533111 0.754055
O O5 0.463991 0.095069 0.500000
O O6 0.491018 0.175114 0.760125
O O7 0.385247 0.083920 0.735178
O O8 0.500000 0.000000 0.733295
O O9 0.412485 0.305386 0.254481
O O10 0.480070 0.279875 0.000000
O O11 0.688899 0.887020 0.500000
O O12 0.693907 0.784442 0.264452
O O13 0.745162 0.948805 0.256749
O O14 0.197188 0.893272 0.253131
O O15 0.161349 0.812388 0.000000
O O16 0.194041 0.991562 0.500000
#
# Coordination Sequence:
#
# PCOD9442512 Si02
#       6
#     8   8   8   8   8   8
#     4  11  22  36  56  81 111 146 187 227 276 340
#     4   9  18  37  63  84 111 151 190 224 270 331
#     4  11  21  34  56  84 113 142 181 233 282 325
#     4   8  18  36  56  79 111 146 182 224 273 327
#     4  10  19  36  58  78 106 148 188 220 271 336
#     4  11  21  35  56  82 113 144 182 234 284 325
#
# _framework density 17.821774000000001
#
# number of rings (size 3 to 8) (size 9 to 14) (size 15 to 20)
#    0.000    2.000    1.667    4.000    0.000    1.000 
#    3.000    8.333    0.000    0.000    0.000    0.000 
#    0.000    0.000    0.000    0.000    0.000    0.000 
#
# Total GULP energy -267962.072127 kJ/mol
# GULP energy per Si atom -5582.543169 kJ/mol
# Density = 1.778121 g / cm^3
# Si number density = 17.821774 Si / 1000 Ang^3
#
#
#
# Elastic Constant Matrix: (Units=GPa)
#
#
# Indices 1 2 3 4 5 6 
#
# 1 99.0527 99.9910 29.6007 0.0000 0.0000 0.0000
# 2 99.9910 184.1103 41.2239 0.0000 0.0000 0.0000
# 3 29.6007 41.2239 54.7758 0.0000 0.0000 0.0000
# 4 0.0000 0.0000 0.0000 28.0888 0.0000 0.0000
# 5 0.0000 0.0000 0.0000 0.0000 9.5965 0.0000
# 6 0.0000 0.0000 0.0000 0.0000 0.0000 35.7270
#
#
#
# Elastic Compliance Matrix: (Units=1/GPa)
#
#
# Indices 1 2 3 4 5 6 
#
# 1 0.022933 -0.011642 -0.003631 0.000000 0.000000 0.000000
# 2 -0.011642 0.012442 -0.003073 0.000000 0.000000 0.000000
# 3 -0.003631 -0.003073 0.022531 0.000000 0.000000 0.000000
# 4 0.000000 0.000000 0.000000 0.035601 0.000000 0.000000
# 5 0.000000 0.000000 0.000000 0.000000 0.104205 0.000000
# 6 0.000000 0.000000 0.000000 0.000000 0.000000 0.027990
#
#
# Mechanical properties :
#
#
# Convention : Reuss Voigt Hill
#
# Bulk Modulus (GPa) = 47.13760 75.50780 61.32270
# Shear Modulus (GPa) = 18.55521 25.82400 22.18960
#
# Velocity S-wave (km/s) = 3.23019 3.81072 3.53240
# Velocity P-wave (km/s) = 6.35760 7.86272 7.14988
#
# Compressibility (1/GPa) = 0.02121449
#
# Stress axis : x y z
#
# Youngs Moduli (GPa) = 43.60530 80.37097 44.38312
#
# Poissons Ratio (x) = 0.93567 0.16117
# Poissons Ratio (y) = 0.50765 0.13638
# Poissons Ratio (z) = 0.15834 0.24696
#
# Static dielectric constant tensor:
#      x y z
#    x 1.584230 0.000000 0.000000 
#    y 0.000000 1.612200 0.000000 
#    z 0.000000 0.000000 1.599960 
# 
# From -- ./inp_files/5843.got.cif
#   From: 2010.05.17/outbox.cif.g08.bks.cpg/sg58_3_cif.got.tgz:5843.got - 2010.06.03 14:20:14.
