data_PCOD9442833
_publ_section_title
;
Structure prediction by ZEFSAII (Michael W. Deem and Ramdas Pophale) SiO2 
 PCOD9442833
Probable space group: P N N M
;
_chemical_formula_sum "Si O2"
_cell_formula_units_Z 56
_cell_length_a 19.725676
_cell_length_b 18.469842
_cell_length_c 8.146165
_cell_angle_alpha 90.000000
_cell_angle_beta 90.000000
_cell_angle_gamma 90.000000
_cell_volume 2967.893264
_symmetry_space_group_name_H-M "P N N M"
_symmetry_group_IT_number 58
_symmetry_cell_setting 'orthorhombic'
loop_
_space_group_symop_operation_xyz
x,y,z
-x,-y,z
1/2+x,1/2-y,1/2-z
1/2-x,1/2+y,1/2-z
-x,-y,-z
x,y,-z
1/2-x,1/2+y,1/2+z
1/2+x,1/2-y,1/2+z
loop_
_atom_site_type_symbol
_atom_site_label
_atom_site_fract_x
_atom_site_fract_y
_atom_site_fract_z
Si Si1 0.117025 0.311521 0.306814
Si Si2 0.251471 0.357602 0.806958
Si Si3 0.043889 0.171150 0.192782
Si Si4 0.399259 0.377903 0.194554
Si Si5 0.139195 0.039976 0.200086
Si Si6 0.785530 0.484933 0.690476
Si Si7 0.927108 0.528609 0.701309
O O1 0.128800 0.318215 0.500000
O O2 0.190702 0.302163 0.223740
O O3 0.067768 0.245106 0.274482
O O4 0.085642 0.388102 0.248320
O O5 0.328394 0.338116 0.761972
O O6 0.231984 0.429464 0.705448
O O7 0.252218 0.377226 0.000000
O O8 0.089495 0.103845 0.253651
O O9 0.965529 0.152766 0.220040
O O10 0.057174 0.178421 0.000000
O O11 0.387145 0.462195 0.238841
O O12 0.409555 0.371730 0.000000
O O13 0.217077 0.051191 0.258844
O O14 0.139761 0.037014 0.000000
O O15 0.789727 0.463570 0.500000
O O16 0.861878 0.481703 0.759183
O O17 0.926347 0.526985 0.500000
O O18 0.000000 0.500000 0.755315
#
# Coordination Sequence:
#
# PCOD9442833 Si02
#       7
#     8   8   8   8   8   8   8
#     4  10  20  34  52  73  99 133 171 209 254 307
#     4   9  17  31  51  72  94 122 159 201 245 297
#     4  11  22  34  49  71 104 140 171 209 256 306
#     4  10  20  33  52  77 101 129 169 214 256 302
#     4   9  18  32  49  71  99 134 173 208 249 302
#     4   8  14  27  48  71  94 121 156 197 241 292
#     4   8  14  27  50  76  96 119 158 208 254 295
#
# _framework density 18.868603
#
# number of rings (size 3 to 8) (size 9 to 14) (size 15 to 20)
#    0.000    2.714    0.000    3.000    0.000    4.571 
#    0.000    1.429    0.000   15.857    0.000    0.000 
#    0.000    0.000    0.000    0.000    0.000    0.000 
#
# Total GULP energy -311964.014915 kJ/mol
# GULP energy per Si atom -5570.785981 kJ/mol
# Density = 1.882566 g / cm^3
# Si number density = 18.868603 Si / 1000 Ang^3
#
#
#
# Elastic Constant Matrix: (Units=GPa)
#
#
# Indices 1 2 3 4 5 6 
#
# 1 170.0390 48.3258 4.4627 0.0000 0.0000 0.0000
# 2 48.3258 47.5857 3.1675 0.0000 0.0000 0.0000
# 3 4.4627 3.1675 19.1074 0.0000 0.0000 0.0000
# 4 0.0000 0.0000 0.0000 18.4446 0.0000 0.0000
# 5 0.0000 0.0000 0.0000 0.0000 21.8435 0.0000
# 6 0.0000 0.0000 0.0000 0.0000 0.0000 16.9065
#
#
#
# Elastic Compliance Matrix: (Units=1/GPa)
#
#
# Indices 1 2 3 4 5 6 
#
# 1 0.008273 -0.008365 -0.000545 0.000000 0.000000 0.000000
# 2 -0.008365 0.029708 -0.002971 0.000000 0.000000 0.000000
# 3 -0.000545 -0.002971 0.052956 0.000000 0.000000 0.000000
# 4 0.000000 0.000000 0.000000 0.054217 0.000000 0.000000
# 5 0.000000 0.000000 0.000000 0.000000 0.045780 0.000000
# 6 0.000000 0.000000 0.000000 0.000000 0.000000 0.059149
#
#
# Mechanical properties :
#
#
# Convention : Reuss Voigt Hill
#
# Bulk Modulus (GPa) = 14.88694 38.73824 26.81259
# Shear Modulus (GPa) = 16.87847 23.49067 20.18457
#
# Velocity S-wave (km/s) = 2.99411 3.53223 3.27424
# Velocity P-wave (km/s) = 4.45644 6.10005 5.34184
#
# Compressibility (1/GPa) = 0.06717298
#
# Stress axis : x y z
#
# Youngs Moduli (GPa) = 120.87937 33.66132 18.88374
#
# Poissons Ratio (x) = 0.28158 0.01030
# Poissons Ratio (y) = 1.01117 0.05610
# Poissons Ratio (z) = 0.06594 0.10001
#
# Static dielectric constant tensor:
#      x y z
#    x 1.702240 0.000000 0.000000 
#    y 0.000000 1.623980 0.000000 
#    z 0.000000 0.000000 1.670060 
# 
# From -- ./inp_files/8146.got.cif
#   From: 2010.05.17/outbox.cif.g08.bks.cpg/sg58_5_cif.got.tgz:8146.got - 2010.06.03 14:20:14.
