data_PCOD9442042
_publ_section_title
;
Structure prediction by ZEFSAII (Michael W. Deem and Ramdas Pophale) SiO2 
 PCOD9442042
Probable space group: P N N M
;
_chemical_formula_sum "Si O2"
_cell_formula_units_Z 48
_cell_length_a 14.918686
_cell_length_b 21.083093
_cell_length_c 7.861402
_cell_angle_alpha 90.000000
_cell_angle_beta 90.000000
_cell_angle_gamma 90.000000
_cell_volume 2472.662843
_symmetry_space_group_name_H-M "P N N M"
_symmetry_group_IT_number 58
_symmetry_cell_setting 'orthorhombic'
loop_
_space_group_symop_operation_xyz
x,y,z
-x,-y,z
1/2+x,1/2-y,1/2-z
1/2-x,1/2+y,1/2-z
-x,-y,-z
x,y,-z
1/2-x,1/2+y,1/2+z
1/2+x,1/2-y,1/2+z
loop_
_atom_site_type_symbol
_atom_site_label
_atom_site_fract_x
_atom_site_fract_y
_atom_site_fract_z
Si Si1 0.308616 0.932944 0.798969
Si Si2 0.999418 0.622002 0.793461
Si Si3 0.178452 0.185846 0.705208
Si Si4 0.988774 0.232647 0.796487
Si Si5 0.307187 0.075407 0.702028
Si Si6 0.207160 0.808321 0.791436
O O1 0.412088 0.915693 0.764235
O O2 0.248953 0.874574 0.731543
O O3 0.286204 0.002076 0.729437
O O4 0.295187 0.935621 0.000000
O O5 0.995769 0.695237 0.734367
O O6 0.093144 0.592050 0.732737
O O7 0.998454 0.621125 0.000000
O O8 0.180767 0.185670 0.500000
O O9 0.233125 0.124658 0.768773
O O10 0.230377 0.249487 0.762042
O O11 0.075341 0.190941 0.756636
O O12 0.894325 0.204905 0.734489
O O13 0.980674 0.237451 0.000000
O O14 0.311726 0.086628 0.500000
O O15 0.207955 0.808946 0.000000
#
# Coordination Sequence:
#
# PCOD9442042 Si02
#       6
#     8   8   8   8   8   8
#     4  11  22  35  54  80 112 144 176 222 272 317
#     4  10  19  33  55  81 108 140 176 217 267 325
#     4  10  19  36  58  79 106 142 180 222 268 311
#     4  10  19  34  57  83 106 135 180 224 263 318
#     4  10  21  37  56  77 109 149 182 214 264 328
#     4   9  18  35  56  77 106 143 178 214 266 322
#
# _framework density 19.412272000000002
#
# number of rings (size 3 to 8) (size 9 to 14) (size 15 to 20)
#    0.000    2.000    3.333    1.000    0.000    3.333 
#    0.000    3.333    0.000    5.000    0.000    0.000 
#    0.000    0.000    0.000    0.000    0.000    0.000 
#
# Total GULP energy -268023.059277 kJ/mol
# GULP energy per Si atom -5583.813735 kJ/mol
# Density = 1.936809 g / cm^3
# Si number density = 19.412272 Si / 1000 Ang^3
#
#
#
# Elastic Constant Matrix: (Units=GPa)
#
#
# Indices 1 2 3 4 5 6 
#
# 1 113.9993 37.5654 -8.6120 0.0000 0.0000 0.0000
# 2 37.5654 105.1699 -11.2109 0.0000 0.0000 0.0000
# 3 -8.6120 -11.2109 4.3460 0.0000 0.0000 0.0000
# 4 0.0000 0.0000 0.0000 22.9829 0.0000 0.0000
# 5 0.0000 0.0000 0.0000 0.0000 22.0567 0.0000
# 6 0.0000 0.0000 0.0000 0.0000 0.0000 29.3392
#
#
#
# Elastic Compliance Matrix: (Units=1/GPa)
#
#
# Indices 1 2 3 4 5 6 
#
# 1 0.010656 -0.002145 0.015582 0.000000 0.000000 0.000000
# 2 -0.002145 0.013547 0.030694 0.000000 0.000000 0.000000
# 3 0.015582 0.030694 0.340155 0.000000 0.000000 0.000000
# 4 0.000000 0.000000 0.000000 0.043511 0.000000 0.000000
# 5 0.000000 0.000000 0.000000 0.000000 0.045338 0.000000
# 6 0.000000 0.000000 0.000000 0.000000 0.000000 0.034084
#
#
# Mechanical properties :
#
#
# Convention : Reuss Voigt Hill
#
# Bulk Modulus (GPa) = 2.20936 28.77781 15.49359
# Shear Modulus (GPa) = 9.09256 28.59394 18.84325
#
# Velocity S-wave (km/s) = 2.16659 3.84211 3.11897
# Velocity P-wave (km/s) = 2.72018 5.87700 4.57922
#
# Compressibility (1/GPa) = 0.45261942
#
# Stress axis : x y z
#
# Youngs Moduli (GPa) = 93.84359 73.81959 2.93984
#
# Poissons Ratio (x) = 0.15835 -0.04581
# Poissons Ratio (y) = 0.20131 -0.09024
# Poissons Ratio (z) = -1.46232 -2.26581
#
# Static dielectric constant tensor:
#      x y z
#    x 1.658390 0.000000 0.000000 
#    y 0.000000 1.672070 0.000000 
#    z 0.000000 0.000000 1.713910 
# 
# From -- ./inp_files/5753.got.cif
#   From: 2010.05.17/outbox.cif.g08.bks.cpg/sg58_3_cif.got.tgz:5753.got - 2010.06.03 14:20:14.
