data_PCOD9442266
_publ_section_title
;
Structure prediction by ZEFSAII (Michael W. Deem and Ramdas Pophale) SiO2 
 PCOD9442266
Probable space group: P N N M
;
_chemical_formula_sum "Si O2"
_cell_formula_units_Z 64
_cell_length_a 11.778010
_cell_length_b 16.509959
_cell_length_c 16.075688
_cell_angle_alpha 90.000000
_cell_angle_beta 90.000000
_cell_angle_gamma 90.000000
_cell_volume 3125.989265
_symmetry_space_group_name_H-M "P N N M"
_symmetry_group_IT_number 58
_symmetry_cell_setting 'orthorhombic'
loop_
_space_group_symop_operation_xyz
x,y,z
-x,-y,z
1/2+x,1/2-y,1/2-z
1/2-x,1/2+y,1/2-z
-x,-y,-z
x,y,-z
1/2-x,1/2+y,1/2+z
1/2+x,1/2-y,1/2+z
loop_
_atom_site_type_symbol
_atom_site_label
_atom_site_fract_x
_atom_site_fract_y
_atom_site_fract_z
Si Si1 0.100286 0.689171 0.166053
Si Si2 0.274089 0.467927 0.818774
Si Si3 0.537618 0.660633 0.769305
Si Si4 0.609082 0.948508 0.790889
Si Si5 0.034440 0.093387 0.910196
Si Si6 0.642830 0.171586 0.402538
Si Si7 0.776012 0.328434 0.592349
Si Si8 0.837553 0.860849 0.599121
O O1 0.093565 0.754994 0.240015
O O2 0.087799 0.600368 0.206028
O O3 0.220731 0.687985 0.119122
O O4 0.986635 0.698123 0.112211
O O5 0.377747 0.406763 0.805297
O O6 0.220680 0.499274 0.731865
O O7 0.177073 0.412441 0.860335
O O8 0.312645 0.545643 0.872827
O O9 0.500273 0.627695 0.678975
O O10 0.436155 0.669220 0.836986
O O11 0.634386 0.879547 0.857214
O O12 0.500000 0.000000 0.813424
O O13 0.167609 0.112298 0.913449
O O14 0.988821 0.126908 0.000000
O O15 0.000000 0.000000 0.909447
O O16 0.662223 0.163221 0.500000
O O17 0.723707 0.245054 0.372211
O O18 0.818938 0.310029 0.500000
O O19 0.863982 0.856518 0.500000
#
# Coordination Sequence:
#
# PCOD9442266 Si02
#       8
#     8   8   8   8   8   8   8   8
#     4  11  24  40  65  95 131 174 221 281 334 403
#     4  11  24  40  66  99 131 180 222 279 341 406
#     4  12  24  41  70  94 137 177 227 278 348 408
#     4  11  22  40  61  91 131 170 225 270 333 399
#     4  10  19  34  57  89 122 163 223 285 335 393
#     4  11  22  40  65  94 127 170 224 274 333 403
#     4  10  21  37  59  87 123 168 219 274 329 398
#     4  11  26  45  68 101 141 179 227 285 346 412
#
# _framework density 20.473517999999999
#
# number of rings (size 3 to 8) (size 9 to 14) (size 15 to 20)
#    0.000    1.125    2.500    4.875    1.750    2.250 
#    0.000    2.500    0.000    1.500    0.000    0.000 
#    0.000    0.000    0.000    0.000    0.000    0.000 
#
# Total GULP energy -356918.724608 kJ/mol
# GULP energy per Si atom -5576.855072 kJ/mol
# Density = 2.042692 g / cm^3
# Si number density = 20.473518 Si / 1000 Ang^3
#
#
#
# Elastic Constant Matrix: (Units=GPa)
#
#
# Indices 1 2 3 4 5 6 
#
# 1 60.4441 9.4435 54.2587 0.0000 0.0000 0.0000
# 2 9.4435 74.6485 35.5693 0.0000 0.0000 0.0000
# 3 54.2587 35.5693 107.7339 0.0000 0.0000 0.0000
# 4 0.0000 0.0000 0.0000 7.1555 0.0000 0.0000
# 5 0.0000 0.0000 0.0000 0.0000 -8.6989 0.0000
# 6 0.0000 0.0000 0.0000 0.0000 0.0000 37.9359
#
#
#
# Elastic Compliance Matrix: (Units=1/GPa)
#
#
# Indices 1 2 3 4 5 6 
#
# 1 0.031273 0.004211 -0.017140 0.000000 0.000000 0.000000
# 2 0.004211 0.016464 -0.007557 0.000000 0.000000 0.000000
# 3 -0.017140 -0.007557 0.020409 0.000000 0.000000 0.000000
# 4 0.000000 0.000000 0.000000 0.139753 0.000000 0.000000
# 5 0.000000 0.000000 0.000000 0.000000 -0.114957 0.000000
# 6 0.000000 0.000000 0.000000 0.000000 0.000000 0.026360
#
#
# Mechanical properties :
#
#
# Convention : Reuss Voigt Hill
#
# Bulk Modulus (GPa) = 36.79942 49.04106 42.92024
# Shear Modulus (GPa) = 29.52779 16.84883 23.18831
#
# Velocity S-wave (km/s) = 3.80181 2.87184 3.36906
# Velocity P-wave (km/s) = 6.10613 5.91625 6.01194
#
# Compressibility (1/GPa) = 0.02717434
#
# Stress axis : x y z
#
# Youngs Moduli (GPa) = 31.97690 60.73859 48.99691
#
# Poissons Ratio (x) = -0.25577 0.83982
# Poissons Ratio (y) = -0.13465 0.37025
# Poissons Ratio (z) = 0.54809 0.45897
#
# Static dielectric constant tensor:
#      x y z
#    x 1.762350 0.000000 0.000000 
#    y 0.000000 1.752600 0.000000 
#    z 0.000000 0.000000 1.780300 
# 
# From -- ./inp_files/21535.got.cif
#   From: 2010.05.17/outbox.cif.g08.bks.cpg/sg58_11_cif.got.tgz:21535.got - 2010.06.03 14:20:14.
