data_PCOD9442275
_publ_section_title
;
Structure prediction by ZEFSAII (Michael W. Deem and Ramdas Pophale) SiO2 
 PCOD9442275
Probable space group: P N N M
;
_chemical_formula_sum "Si O2"
_cell_formula_units_Z 64
_cell_length_a 27.027082
_cell_length_b 13.019329
_cell_length_c 9.477135
_cell_angle_alpha 90.000000
_cell_angle_beta 90.000000
_cell_angle_gamma 90.000000
_cell_volume 3334.761879
_symmetry_space_group_name_H-M "P N N M"
_symmetry_group_IT_number 58
_symmetry_cell_setting 'orthorhombic'
loop_
_space_group_symop_operation_xyz
x,y,z
-x,-y,z
1/2+x,1/2-y,1/2-z
1/2-x,1/2+y,1/2-z
-x,-y,-z
x,y,-z
1/2-x,1/2+y,1/2+z
1/2+x,1/2-y,1/2+z
loop_
_atom_site_type_symbol
_atom_site_label
_atom_site_fract_x
_atom_site_fract_y
_atom_site_fract_z
Si Si1 0.848905 0.419860 0.330121
Si Si2 0.714722 0.125104 0.169926
Si Si3 0.831345 0.811713 0.842159
Si Si4 0.941516 0.733897 0.155152
Si Si5 0.058627 0.497571 0.831071
Si Si6 0.530493 0.407909 0.839030
Si Si7 0.688575 0.693041 0.832871
Si Si8 0.142862 0.011153 0.341779
O O1 0.855814 0.420437 0.500000
O O2 0.813230 0.517481 0.295204
O O3 0.901871 0.434636 0.253490
O O4 0.824770 0.309619 0.291557
O O5 0.686252 0.221958 0.238655
O O6 0.767921 0.141272 0.242342
O O7 0.717128 0.132531 0.000000
O O8 0.889770 0.792558 0.857527
O O9 0.826059 0.922296 0.769666
O O10 0.809175 0.806684 0.000000
O O11 0.928287 0.620335 0.203261
O O12 0.973943 0.801117 0.258829
O O13 0.964837 0.724843 0.000000
O O14 0.000000 0.500000 0.797651
O O15 0.064171 0.514890 0.000000
O O16 0.500000 0.500000 0.770536
O O17 0.587183 0.446023 0.841754
O O18 0.513560 0.394340 0.000000
O O19 0.644283 0.610602 0.816702
O O20 0.701426 0.695310 0.000000
O O21 0.163055 0.029204 0.500000
#
# Coordination Sequence:
#
# PCOD9442275 Si02
#       8
#     8   8   8   8   8   8   8   8
#     4  10  23  42  62  88 123 158 202 254 300 358
#     4  11  23  38  59  87 115 148 195 245 295 352
#     4  10  19  34  58  82 108 145 188 237 289 343
#     4   9  18  33  52  78 108 144 188 235 288 342
#     4  10  21  38  60  87 120 159 203 248 299 360
#     4   9  18  32  53  81 111 148 191 237 286 340
#     4  10  23  41  59  84 120 161 196 241 302 359
#     4   9  19  36  56  81 116 151 189 235 288 347
#
# _framework density 19.191776000000001
#
# number of rings (size 3 to 8) (size 9 to 14) (size 15 to 20)
#    0.000    2.250    1.250    0.750    1.750    4.000 
#    0.000    1.250    0.000    0.000    0.000    0.000 
#    0.000    0.000    0.000    0.000    0.000    0.000 
#
# Total GULP energy -356459.241896 kJ/mol
# GULP energy per Si atom -5569.675655 kJ/mol
# Density = 1.914809 g / cm^3
# Si number density = 19.191776 Si / 1000 Ang^3
#
#
#
# Elastic Constant Matrix: (Units=GPa)
#
#
# Indices 1 2 3 4 5 6 
#
# 1 49.1214 27.2672 25.3107 0.0000 0.0000 0.0000
# 2 27.2672 126.0751 46.2225 0.0000 0.0000 0.0000
# 3 25.3107 46.2225 55.0743 0.0000 0.0000 0.0000
# 4 0.0000 0.0000 0.0000 24.8888 0.0000 0.0000
# 5 0.0000 0.0000 0.0000 0.0000 28.7189 0.0000
# 6 0.0000 0.0000 0.0000 0.0000 0.0000 23.7453
#
#
#
# Elastic Compliance Matrix: (Units=1/GPa)
#
#
# Indices 1 2 3 4 5 6 
#
# 1 0.026973 -0.001862 -0.010834 0.000000 0.000000 0.000000
# 2 -0.001862 0.011586 -0.008868 0.000000 0.000000 0.000000
# 3 -0.010834 -0.008868 0.030579 0.000000 0.000000 0.000000
# 4 0.000000 0.000000 0.000000 0.040179 0.000000 0.000000
# 5 0.000000 0.000000 0.000000 0.000000 0.034820 0.000000
# 6 0.000000 0.000000 0.000000 0.000000 0.000000 0.042114
#
#
# Mechanical properties :
#
#
# Convention : Reuss Voigt Hill
#
# Bulk Modulus (GPa) = 38.44523 47.54129 42.99326
# Shear Modulus (GPa) = 21.00418 24.23529 22.61974
#
# Velocity S-wave (km/s) = 3.31182 3.55744 3.43682
# Velocity P-wave (km/s) = 5.89065 6.45750 6.18058
#
# Compressibility (1/GPa) = 0.02601103
#
# Stress axis : x y z
#
# Youngs Moduli (GPa) = 37.07347 86.31356 32.70241
#
# Poissons Ratio (x) = 0.16070 0.35429
# Poissons Ratio (y) = 0.06902 0.29000
# Poissons Ratio (z) = 0.40164 0.76542
#
# Static dielectric constant tensor:
#      x y z
#    x 1.730990 0.000000 0.000000 
#    y 0.000000 1.690680 0.000000 
#    z 0.000000 0.000000 1.683950 
# 
# From -- ./inp_files/11019.got.cif
#   From: 2010.05.17/outbox.cif.g08.bks.cpg/sg58_6_cif.got.tgz:11019.got - 2010.06.03 14:20:14.
