data_PCOD9442470
_publ_section_title
;
Structure prediction by ZEFSAII (Michael W. Deem and Ramdas Pophale) SiO2 
 PCOD9442470
Probable space group: P N N M
;
_chemical_formula_sum "Si O2"
_cell_formula_units_Z 64
_cell_length_a 15.729783
_cell_length_b 20.268883
_cell_length_c 7.745068
_cell_angle_alpha 90.000000
_cell_angle_beta 90.000000
_cell_angle_gamma 90.000000
_cell_volume 2469.322322
_symmetry_space_group_name_H-M "P N N M"
_symmetry_group_IT_number 58
_symmetry_cell_setting 'orthorhombic'
loop_
_space_group_symop_operation_xyz
x,y,z
-x,-y,z
1/2+x,1/2-y,1/2-z
1/2-x,1/2+y,1/2-z
-x,-y,-z
x,y,-z
1/2-x,1/2+y,1/2+z
1/2+x,1/2-y,1/2+z
loop_
_atom_site_type_symbol
_atom_site_label
_atom_site_fract_x
_atom_site_fract_y
_atom_site_fract_z
Si Si1 0.056980 0.439787 0.800040
Si Si2 0.774617 0.387530 0.200234
Si Si3 0.243836 0.467854 0.307290
Si Si4 0.094240 0.017168 0.211995
Si Si5 0.625930 0.695499 0.207855
Si Si6 0.944414 0.838538 0.206419
Si Si7 0.698537 0.247850 0.699871
Si Si8 0.941003 0.336543 0.298718
O O1 0.157474 0.448922 0.782610
O O2 0.000000 0.500000 0.722434
O O3 0.032046 0.369446 0.721467
O O4 0.036590 0.436489 0.000000
O O5 0.756167 0.452300 0.309611
O O6 0.746025 0.319098 0.287157
O O7 0.877044 0.384829 0.201737
O O8 0.749024 0.391827 0.000000
O O9 0.242725 0.440611 0.500000
O O10 0.336772 0.463165 0.223338
O O11 0.102318 0.094271 0.265554
O O12 0.096797 0.013887 0.000000
O O13 0.000000 0.000000 0.267294
O O14 0.544538 0.651658 0.258168
O O15 0.725733 0.698596 0.268842
O O16 0.582217 0.764681 0.268410
O O17 0.631600 0.694414 0.000000
O O18 0.893068 0.773428 0.275325
O O19 0.935181 0.835373 0.000000
O O20 0.684332 0.228257 0.500000
O O21 0.919854 0.336766 0.500000
#
# Coordination Sequence:
#
# PCOD9442470 Si02
#       8
#     8   8   8   8   8   8   8   8
#     4  11  22  33  49  80 116 148 186 235 282 329
#     4  11  19  28  48  79 110 139 179 231 276 319
#     4  11  20  33  54  78 108 148 188 225 280 341
#     4   9  19  37  61  87 111 140 187 243 283 329
#     4   9  20  36  55  82 114 144 184 234 278 330
#     4  10  19  35  61  87 110 145 189 228 281 340
#     4   9  18  35  55  79 109 145 188 228 271 339
#     4  10  20  35  53  74 109 154 192 225 273 337
#
# _framework density 25.918043999999998
#
# number of rings (size 3 to 8) (size 9 to 14) (size 15 to 20)
#    0.000    2.000    2.500    3.000    0.000    3.500 
#    0.000    1.250    0.000    7.875    0.000    0.000 
#    0.000    0.000    0.000    0.000    0.000    0.000 
#
# Total GULP energy -356807.245678 kJ/mol
# GULP energy per Si atom -5575.113214 kJ/mol
# Density = 2.585905 g / cm^3
# Si number density = 25.918044 Si / 1000 Ang^3
#
#
#
# Elastic Constant Matrix: (Units=GPa)
#
#
# Indices 1 2 3 4 5 6 
#
# 1 140.2526 24.6329 -1.8377 0.0000 0.0000 0.0000
# 2 24.6329 37.4745 6.9321 0.0000 0.0000 0.0000
# 3 -1.8377 6.9321 69.5839 0.0000 0.0000 0.0000
# 4 0.0000 0.0000 0.0000 3.9864 0.0000 0.0000
# 5 0.0000 0.0000 0.0000 0.0000 48.7328 0.0000
# 6 0.0000 0.0000 0.0000 0.0000 0.0000 51.1149
#
#
#
# Elastic Compliance Matrix: (Units=1/GPa)
#
#
# Indices 1 2 3 4 5 6 
#
# 1 0.008100 -0.005464 0.000758 0.000000 0.000000 0.000000
# 2 -0.005464 0.030872 -0.003220 0.000000 0.000000 0.000000
# 3 0.000758 -0.003220 0.014712 0.000000 0.000000 0.000000
# 4 0.000000 0.000000 0.000000 0.250853 0.000000 0.000000
# 5 0.000000 0.000000 0.000000 0.000000 0.020520 0.000000
# 6 0.000000 0.000000 0.000000 0.000000 0.000000 0.019564
#
#
# Mechanical properties :
#
#
# Convention : Reuss Voigt Hill
#
# Bulk Modulus (GPa) = 26.43270 34.08507 30.25888
# Shear Modulus (GPa) = 13.40183 35.27240 24.33712
#
# Velocity S-wave (km/s) = 2.27642 3.69307 3.06764
# Velocity P-wave (km/s) = 4.13886 5.60041 4.92416
#
# Compressibility (1/GPa) = 0.03783193
#
# Stress axis : x y z
#
# Youngs Moduli (GPa) = 123.46211 32.39153 67.97195
#
# Poissons Ratio (x) = 0.17700 -0.05154
# Poissons Ratio (y) = 0.67464 0.21886
# Poissons Ratio (z) = -0.09362 0.10430
#
# Static dielectric constant tensor:
#      x y z
#    x 2.372080 0.000000 0.000000 
#    y 0.000000 2.147250 0.000000 
#    z 0.000000 0.000000 1.912890 
# 
# From -- ./inp_files/6954.got.cif
#   From: 2010.05.17/outbox.cif.g08.bks.cpg/sg58_4_cif.got.tgz:6954.got - 2010.06.03 14:20:14.
