data_PCOD9442569
_publ_section_title
;
Structure prediction by ZEFSAII (Michael W. Deem and Ramdas Pophale) SiO2 
 PCOD9442569
Probable space group: P N N M
;
_chemical_formula_sum "Si O2"
_cell_formula_units_Z 48
_cell_length_a 14.512963
_cell_length_b 8.111791
_cell_length_c 18.820768
_cell_angle_alpha 90.000000
_cell_angle_beta 90.000000
_cell_angle_gamma 90.000000
_cell_volume 2215.696042
_symmetry_space_group_name_H-M "P N N M"
_symmetry_group_IT_number 58
_symmetry_cell_setting 'orthorhombic'
loop_
_space_group_symop_operation_xyz
x,y,z
-x,-y,z
1/2+x,1/2-y,1/2-z
1/2-x,1/2+y,1/2-z
-x,-y,-z
x,y,-z
1/2-x,1/2+y,1/2+z
1/2+x,1/2-y,1/2+z
loop_
_atom_site_type_symbol
_atom_site_label
_atom_site_fract_x
_atom_site_fract_y
_atom_site_fract_z
Si Si1 0.556132 0.796931 0.716567
Si Si2 0.134030 0.336938 0.825201
Si Si3 0.538911 0.754858 0.883974
Si Si4 0.710491 0.529816 0.915762
Si Si5 0.251099 0.780573 0.812250
Si Si6 0.860492 0.582532 0.575948
O O1 0.466315 0.753165 0.670315
O O2 0.530485 0.784897 0.799508
O O3 0.645116 0.686443 0.703340
O O4 0.597797 0.979093 0.698954
O O5 0.204492 0.351304 0.890694
O O6 0.193065 0.263789 0.760363
O O7 0.609801 0.606791 0.898277
O O8 0.435441 0.770513 0.913879
O O9 0.586516 0.911189 0.920585
O O10 0.731190 0.373402 0.865042
O O11 0.716156 0.499176 0.000000
O O12 0.294013 0.926718 0.857453
O O13 0.813993 0.602426 0.500000
#
# Coordination Sequence:
#
# PCOD9442569 Si02
#       6
#     8   8   8   8   8   8
#     4  10  19  36  61  88 104 147 207 239 269 340
#     4  10  19  39  61  81 114 154 197 236 276 348
#     4  11  19  36  60  81 117 150 194 232 282 353
#     4  11  24  38  57  91 125 153 187 244 307 343
#     4  11  21  36  59  85 116 148 190 243 287 339
#     4  11  21  35  57  85 114 151 190 230 282 348
#
# _framework density 21.663622
#
# number of rings (size 3 to 8) (size 9 to 14) (size 15 to 20)
#    0.000    1.333    5.000    3.500    0.000    0.667 
#    0.000    9.167    0.000    0.000    0.000    2.333 
#    0.000    0.000    0.000    0.000    0.000    0.000 
#
# Total GULP energy -267825.973706 kJ/mol
# GULP energy per Si atom -5579.707786 kJ/mol
# Density = 2.161432 g / cm^3
# Si number density = 21.663622 Si / 1000 Ang^3
#
#
#
# Elastic Constant Matrix: (Units=GPa)
#
#
# Indices 1 2 3 4 5 6 
#
# 1 89.6857 -8.9261 0.3104 0.0000 0.0000 0.0000
# 2 -8.9261 26.8672 3.2166 0.0000 0.0000 0.0000
# 3 0.3104 3.2166 63.9507 0.0000 0.0000 0.0000
# 4 0.0000 0.0000 0.0000 -19.3962 0.0000 0.0000
# 5 0.0000 0.0000 0.0000 0.0000 19.2840 0.0000
# 6 0.0000 0.0000 0.0000 0.0000 0.0000 25.0641
#
#
#
# Elastic Compliance Matrix: (Units=1/GPa)
#
#
# Indices 1 2 3 4 5 6 
#
# 1 0.011535 0.003862 -0.000250 0.000000 0.000000 0.000000
# 2 0.003862 0.038739 -0.001967 0.000000 0.000000 0.000000
# 3 -0.000250 -0.001967 0.015737 0.000000 0.000000 0.000000
# 4 0.000000 0.000000 0.000000 -0.051556 0.000000 0.000000
# 5 0.000000 0.000000 0.000000 0.000000 0.051856 0.000000
# 6 0.000000 0.000000 0.000000 0.000000 0.000000 0.039898
#
#
# Mechanical properties :
#
#
# Convention : Reuss Voigt Hill
#
# Bulk Modulus (GPa) = 14.42979 18.85616 16.64297
# Shear Modulus (GPa) = 39.67636 17.38390 28.53013
#
# Velocity S-wave (km/s) = 4.28422 2.83582 3.63293
# Velocity P-wave (km/s) = 5.58104 4.40970 5.02958
#
# Compressibility (1/GPa) = 0.06930109
#
# Stress axis : x y z
#
# Youngs Moduli (GPa) = 86.69020 25.81388 63.54369
#
# Poissons Ratio (x) = -0.09970 0.01590
# Poissons Ratio (y) = -0.33483 0.12501
# Poissons Ratio (z) = 0.02170 0.05078
#
# Static dielectric constant tensor:
#      x y z
#    x 1.877690 0.000000 0.000000 
#    y 0.000000 1.960790 0.000000 
#    z 0.000000 0.000000 1.771650 
# 
# From -- ./inp_files/26804.got.cif
#   From: 2010.05.17/outbox.cif.g08.bks.cpg/sg58_14_cif.got.tgz:26804.got - 2010.06.03 14:20:14.
