data_PCOD9442307
_publ_section_title
;
Structure prediction by ZEFSAII (Michael W. Deem and Ramdas Pophale) SiO2 
 PCOD9442307
Probable space group: P N N M
;
_chemical_formula_sum "Si O2"
_cell_formula_units_Z 56
_cell_length_a 19.793104
_cell_length_b 13.978870
_cell_length_c 7.970989
_cell_angle_alpha 90.000000
_cell_angle_beta 90.000000
_cell_angle_gamma 90.000000
_cell_volume 2205.454907
_symmetry_space_group_name_H-M "P N N M"
_symmetry_group_IT_number 58
_symmetry_cell_setting 'orthorhombic'
loop_
_space_group_symop_operation_xyz
x,y,z
-x,-y,z
1/2+x,1/2-y,1/2-z
1/2-x,1/2+y,1/2-z
-x,-y,-z
x,y,-z
1/2-x,1/2+y,1/2+z
1/2+x,1/2-y,1/2+z
loop_
_atom_site_type_symbol
_atom_site_label
_atom_site_fract_x
_atom_site_fract_y
_atom_site_fract_z
Si Si1 0.145222 0.206085 0.193761
Si Si2 0.291371 0.421826 0.304130
Si Si3 0.930153 0.037122 0.696103
Si Si4 0.358318 0.918199 0.806531
Si Si5 0.573108 0.899022 0.694087
Si Si6 0.206259 0.706506 0.303880
Si Si7 0.999993 0.782121 0.204934
O O1 0.138353 0.322307 0.198280
O O2 0.218702 0.182519 0.266171
O O3 0.072435 0.178771 0.267996
O O4 0.146527 0.175411 0.000000
O O5 0.295148 0.397207 0.500000
O O6 0.356441 0.486287 0.266064
O O7 0.216606 0.462609 0.272906
O O8 0.296003 0.321919 0.205690
O O9 0.929965 0.015529 0.500000
O O10 0.941818 0.150129 0.725656
O O11 0.000000 0.000000 0.777633
O O12 0.413316 0.999412 0.777248
O O13 0.359533 0.887239 0.000000
O O14 0.558573 0.916670 0.500000
O O15 0.643525 0.840463 0.710637
O O16 0.516806 0.825642 0.760849
O O17 0.202215 0.677568 0.500000
O O18 0.000777 0.783977 0.000000
#
# Coordination Sequence:
#
# PCOD9442307 Si02
#       7
#     8   8   8   8   8   8   8
#     4   9  20  39  60  84 117 155 196 242 294 348
#     4  10  20  37  59  82 110 148 193 236 289 352
#     4  11  24  39  58  87 120 154 193 243 301 351
#     4  10  22  38  58  86 117 152 196 245 295 345
#     4  11  22  36  58  86 117 155 200 242 290 352
#     4  10  19  34  59  85 112 148 192 244 294 344
#     4  10  22  40  61  85 116 158 200 238 290 356
#
# _framework density 25.391587999999999
#
# number of rings (size 3 to 8) (size 9 to 14) (size 15 to 20)
#    0.000    1.857    1.429    2.143    0.000    6.286 
#    0.000    7.143    0.000    0.000    0.000    0.000 
#    0.000    0.000    0.000    0.000    0.000    0.000 
#
# Total GULP energy -313194.306820 kJ/mol
# GULP energy per Si atom -5592.755479 kJ/mol
# Density = 2.533380 g / cm^3
# Si number density = 25.391588 Si / 1000 Ang^3
#
#
#
# Elastic Constant Matrix: (Units=GPa)
#
#
# Indices 1 2 3 4 5 6 
#
# 1 133.0242 6.9367 -0.0898 0.0000 0.0000 0.0000
# 2 6.9367 62.5446 -0.0990 0.0000 0.0000 0.0000
# 3 -0.0898 -0.0990 53.2072 0.0000 0.0000 0.0000
# 4 0.0000 0.0000 0.0000 0.7063 0.0000 0.0000
# 5 0.0000 0.0000 0.0000 0.0000 20.6130 0.0000
# 6 0.0000 0.0000 0.0000 0.0000 0.0000 52.8444
#
#
#
# Elastic Compliance Matrix: (Units=1/GPa)
#
#
# Indices 1 2 3 4 5 6 
#
# 1 0.007561 -0.000839 0.000011 0.000000 0.000000 0.000000
# 2 -0.000839 0.016082 0.000028 0.000000 0.000000 0.000000
# 3 0.000011 0.000028 0.018795 0.000000 0.000000 0.000000
# 4 0.000000 0.000000 0.000000 1.415920 0.000000 0.000000
# 5 0.000000 0.000000 0.000000 0.000000 0.048513 0.000000
# 6 0.000000 0.000000 0.000000 0.000000 0.000000 0.018923
#
#
# Mechanical properties :
#
#
# Convention : Reuss Voigt Hill
#
# Bulk Modulus (GPa) = 24.48605 29.14130 26.81367
# Shear Modulus (GPa) = 3.24464 30.96794 17.10629
#
# Velocity S-wave (km/s) = 1.13164 3.49609 2.59839
# Velocity P-wave (km/s) = 3.37221 5.27243 4.42551
#
# Compressibility (1/GPa) = 0.04083958
#
# Stress axis : x y z
#
# Youngs Moduli (GPa) = 132.25472 62.18269 53.20700
#
# Poissons Ratio (x) = 0.05214 -0.00060
# Poissons Ratio (y) = 0.11091 -0.00152
# Poissons Ratio (z) = -0.00148 -0.00177
#
# Static dielectric constant tensor:
#      x y z
#    x 2.038190 0.000000 0.000000 
#    y 0.000000 2.096440 0.000000 
#    z 0.000000 0.000000 1.881610 
# 
# From -- ./inp_files/8987.got.cif
#   From: 2010.05.17/outbox.cif.g08.bks.cpg/sg58_5_cif.got.tgz:8987.got - 2010.06.03 14:20:14.
