data_PCOD9442033
_publ_section_title
;
Structure prediction by ZEFSAII (Michael W. Deem and Ramdas Pophale) SiO2 
 PCOD9442033
Probable space group: P N N M
;
_chemical_formula_sum "Si O2"
_cell_formula_units_Z 64
_cell_length_a 21.606516
_cell_length_b 17.495201
_cell_length_c 7.754577
_cell_angle_alpha 90.000000
_cell_angle_beta 90.000000
_cell_angle_gamma 90.000000
_cell_volume 2931.310291
_symmetry_space_group_name_H-M "P N N M"
_symmetry_group_IT_number 58
_symmetry_cell_setting 'orthorhombic'
loop_
_space_group_symop_operation_xyz
x,y,z
-x,-y,z
1/2+x,1/2-y,1/2-z
1/2-x,1/2+y,1/2-z
-x,-y,-z
x,y,-z
1/2-x,1/2+y,1/2+z
1/2+x,1/2-y,1/2+z
loop_
_atom_site_type_symbol
_atom_site_label
_atom_site_fract_x
_atom_site_fract_y
_atom_site_fract_z
Si Si1 0.226477 0.086684 0.197169
Si Si2 0.869693 0.608212 0.800030
Si Si3 0.495850 0.116286 0.703513
Si Si4 0.632085 0.690037 0.790710
Si Si5 0.998855 0.795130 0.291562
Si Si6 0.736456 0.577265 0.799337
Si Si7 0.361749 0.130773 0.294836
Si Si8 0.634738 0.282557 0.796478
O O1 0.299822 0.098414 0.214130
O O2 0.191441 0.161388 0.264454
O O3 0.210425 0.008121 0.291530
O O4 0.209036 0.077101 0.000000
O O5 0.937767 0.589278 0.724242
O O6 0.805613 0.578251 0.721150
O O7 0.861869 0.700467 0.794556
O O8 0.872606 0.582570 0.000000
O O9 0.495275 0.097653 0.500000
O O10 0.498487 0.208208 0.723820
O O11 0.427345 0.097305 0.771823
O O12 0.562647 0.665519 0.734894
O O13 0.687626 0.637373 0.724302
O O14 0.639201 0.778077 0.737069
O O15 0.633781 0.687386 0.000000
O O16 0.001117 0.792289 0.500000
O O17 0.930271 0.822728 0.243823
O O18 0.744935 0.598780 0.000000
O O19 0.358984 0.117191 0.500000
O O20 0.631609 0.265536 0.000000
#
# Coordination Sequence:
#
# PCOD9442033 Si02
#       8
#     8   8   8   8   8   8   8   8
#     4  12  25  38  51  69  99 137 175 218 263 306
#     4   9  17  32  55  82 109 136 168 205 250 302
#     4   8  15  28  49  78 107 133 163 203 248 296
#     4   9  17  32  55  82 109 136 168 205 250 302
#     4   8  15  28  49  78 107 133 163 203 248 296
#     4  10  21  36  53  73 101 137 173 210 251 300
#     4  10  19  33  55  80 105 134 170 210 252 302
#     4  10  19  33  55  80 105 134 170 210 252 302
#
# _framework density 21.83324
#
# number of rings (size 3 to 8) (size 9 to 14) (size 15 to 20)
#    0.000    2.500    0.000    2.625    0.000    3.000 
#    0.000    1.250    0.000    7.500    0.000    0.000 
#    0.000    0.000    0.000    0.000    0.000    0.000 
#
# Total GULP energy -356880.905239 kJ/mol
# GULP energy per Si atom -5576.264144 kJ/mol
# Density = 2.178355 g / cm^3
# Si number density = 21.833240 Si / 1000 Ang^3
#
#
#
# Elastic Constant Matrix: (Units=GPa)
#
#
# Indices 1 2 3 4 5 6 
#
# 1 100.3127 31.6155 4.1970 0.0000 0.0000 0.0000
# 2 31.6155 55.6853 -18.0546 0.0000 0.0000 0.0000
# 3 4.1970 -18.0546 32.7261 0.0000 0.0000 0.0000
# 4 0.0000 0.0000 0.0000 5.1567 0.0000 0.0000
# 5 0.0000 0.0000 0.0000 0.0000 8.6317 0.0000
# 6 0.0000 0.0000 0.0000 0.0000 0.0000 -27.1999
#
#
#
# Elastic Compliance Matrix: (Units=1/GPa)
#
#
# Indices 1 2 3 4 5 6 
#
# 1 0.013406 -0.009948 -0.007207 0.000000 0.000000 0.000000
# 2 -0.009948 0.029252 0.017414 0.000000 0.000000 0.000000
# 3 -0.007207 0.017414 0.041088 0.000000 0.000000 0.000000
# 4 0.000000 0.000000 0.000000 0.193921 0.000000 0.000000
# 5 0.000000 0.000000 0.000000 0.000000 0.115852 0.000000
# 6 0.000000 0.000000 0.000000 0.000000 0.000000 -0.036765
#
#
# Mechanical properties :
#
#
# Convention : Reuss Voigt Hill
#
# Bulk Modulus (GPa) = 11.86765 24.91553 18.39159
# Shear Modulus (GPa) = 13.00986 8.71547 10.86266
#
# Velocity S-wave (km/s) = 2.44370 2.00013 2.23295
# Velocity P-wave (km/s) = 3.66192 4.09518 3.88459
#
# Compressibility (1/GPa) = 0.08426265
#
# Stress axis : x y z
#
# Youngs Moduli (GPa) = 74.59536 34.18567 24.33803
#
# Poissons Ratio (x) = 0.34008 0.17541
# Poissons Ratio (y) = 0.74207 -0.42382
# Poissons Ratio (z) = 0.53764 -0.59530
#
# Static dielectric constant tensor:
#      x y z
#    x 1.879340 0.000000 0.000000 
#    y 0.000000 1.753200 0.000000 
#    z 0.000000 0.000000 1.784550 
# 
# From -- ./inp_files/9244.got.cif
#   From: 2010.05.17/outbox.cif.g08.bks.cpg/sg58_5_cif.got.tgz:9244.got - 2010.06.03 14:20:14.
