data_PCOD9442754
_publ_section_title
;
Structure prediction by ZEFSAII (Michael W. Deem and Ramdas Pophale) SiO2 
 PCOD9442754
Probable space group: P N N M
;
_chemical_formula_sum "Si O2"
_cell_formula_units_Z 40
_cell_length_a 9.999106
_cell_length_b 26.540736
_cell_length_c 8.629949
_cell_angle_alpha 90.000000
_cell_angle_beta 90.000000
_cell_angle_gamma 90.000000
_cell_volume 2290.247215
_symmetry_space_group_name_H-M "P N N M"
_symmetry_group_IT_number 58
_symmetry_cell_setting 'orthorhombic'
loop_
_space_group_symop_operation_xyz
x,y,z
-x,-y,z
1/2+x,1/2-y,1/2-z
1/2-x,1/2+y,1/2-z
-x,-y,-z
x,y,-z
1/2-x,1/2+y,1/2+z
1/2+x,1/2-y,1/2+z
loop_
_atom_site_type_symbol
_atom_site_label
_atom_site_fract_x
_atom_site_fract_y
_atom_site_fract_z
Si Si1 0.005904 0.557827 0.312680
Si Si2 0.211261 0.636759 0.185857
Si Si3 0.493567 0.217193 0.812631
Si Si4 0.215634 0.362317 0.313785
Si Si5 0.996306 0.166469 0.313255
O O1 0.011964 0.558951 0.500000
O O2 0.132844 0.588406 0.249711
O O3 0.000000 0.500000 0.261845
O O4 0.874710 0.589899 0.266229
O O5 0.129214 0.685519 0.244190
O O6 0.364883 0.641161 0.237639
O O7 0.207484 0.636149 0.000000
O O8 0.628561 0.187010 0.768529
O O9 0.494942 0.274998 0.761889
O O10 0.484617 0.215449 0.000000
O O11 0.225263 0.362574 0.500000
O O12 0.362562 0.360033 0.244901
O O13 0.995575 0.166663 0.500000
#
# Coordination Sequence:
#
# PCOD9442754 Si02
#       5
#     8   8   8   8   8
#     4   9  19  38  59  74  92 123 164 208 251 296
#     4  10  20  33  50  75 103 130 164 203 243 289
#     4   9  18  33  50  70 100 138 174 201 232 282
#     4   9  18  32  51  74  97 125 165 207 243 286
#     4  10  20  32  47  72 107 138 162 197 243 289
#
# _framework density 17.465361999999999
#
# number of rings (size 3 to 8) (size 9 to 14) (size 15 to 20)
#    0.000    2.600    0.000    3.000    0.000    7.600 
#    0.000    1.000    0.000    6.000    0.000    0.000 
#    0.000    0.000    0.000    0.000    0.000    0.000 
#
# Total GULP energy -223142.100513 kJ/mol
# GULP energy per Si atom -5578.552513 kJ/mol
# Density = 1.742561 g / cm^3
# Si number density = 17.465362 Si / 1000 Ang^3
#
#
#
# Elastic Constant Matrix: (Units=GPa)
#
#
# Indices 1 2 3 4 5 6 
#
# 1 190.6505 87.5321 28.4769 0.0000 0.0000 0.0000
# 2 87.5321 141.7854 25.3827 0.0000 0.0000 0.0000
# 3 28.4769 25.3827 7.7170 0.0000 0.0000 0.0000
# 4 0.0000 0.0000 0.0000 26.8395 0.0000 0.0000
# 5 0.0000 0.0000 0.0000 0.0000 26.6000 0.0000
# 6 0.0000 0.0000 0.0000 0.0000 0.0000 5.1218
#
#
#
# Elastic Compliance Matrix: (Units=1/GPa)
#
#
# Indices 1 2 3 4 5 6 
#
# 1 0.011776 0.001239 -0.047529 0.000000 0.000000 0.000000
# 2 0.001239 0.017284 -0.061422 0.000000 0.000000 0.000000
# 3 -0.047529 -0.061422 0.507002 0.000000 0.000000 0.000000
# 4 0.000000 0.000000 0.000000 0.037259 0.000000 0.000000
# 5 0.000000 0.000000 0.000000 0.000000 0.037594 0.000000
# 6 0.000000 0.000000 0.000000 0.000000 0.000000 0.195242
#
#
# Mechanical properties :
#
#
# Convention : Reuss Voigt Hill
#
# Bulk Modulus (GPa) = 3.11879 69.21513 36.16696
# Shear Modulus (GPa) = 4.43082 24.96301 14.69692
#
# Velocity S-wave (km/s) = 1.59450 3.78469 2.90399
# Velocity P-wave (km/s) = 2.27585 7.66906 5.65659
#
# Compressibility (1/GPa) = 0.32063713
#
# Stress axis : x y z
#
# Youngs Moduli (GPa) = 84.92101 57.85743 1.97238
#
# Poissons Ratio (x) = -0.07168 0.09375
# Poissons Ratio (y) = -0.10522 0.12115
# Poissons Ratio (z) = 4.03623 3.55371
#
# Static dielectric constant tensor:
#      x y z
#    x 1.582210 0.000000 0.000000 
#    y 0.000000 1.582160 0.000000 
#    z 0.000000 0.000000 1.595310 
# 
# From -- ./inp_files/2402.got.cif
#   From: 2010.05.17/outbox.cif.g08.bks.cpg/sg58_2_cif.got.tgz:2402.got - 2010.06.03 14:20:14.
