data_PCOD9442669
_publ_section_title
;
Structure prediction by ZEFSAII (Michael W. Deem and Ramdas Pophale) SiO2 
 PCOD9442669
Probable space group: P N N M
;
_chemical_formula_sum "Si O2"
_cell_formula_units_Z 28
_cell_length_a 6.165666
_cell_length_b 17.365432
_cell_length_c 12.973421
_cell_angle_alpha 90.000000
_cell_angle_beta 90.000000
_cell_angle_gamma 90.000000
_cell_volume 1389.057099
_symmetry_space_group_name_H-M "P N N M"
_symmetry_group_IT_number 58
_symmetry_cell_setting 'orthorhombic'
loop_
_space_group_symop_operation_xyz
x,y,z
-x,-y,z
1/2+x,1/2-y,1/2-z
1/2-x,1/2+y,1/2-z
-x,-y,-z
x,y,-z
1/2-x,1/2+y,1/2+z
1/2+x,1/2-y,1/2+z
loop_
_atom_site_type_symbol
_atom_site_label
_atom_site_fract_x
_atom_site_fract_y
_atom_site_fract_z
Si Si1 0.000000 0.500000 0.814631
Si Si2 0.766179 0.352607 0.197245
Si Si3 0.879254 0.070918 0.824963
Si Si4 0.430883 0.799765 0.111642
O O1 0.104131 0.578349 0.861192
O O2 0.193583 0.468139 0.744266
O O3 0.554223 0.388491 0.251347
O O4 0.684518 0.281966 0.129245
O O5 0.914717 0.319314 0.291094
O O6 0.755411 0.135471 0.888011
O O7 0.000000 0.000000 0.879924
O O8 0.544740 0.801284 0.000000
#
# Coordination Sequence:
#
# PCOD9442669 Si02
#       4
#     4   8   8   8
#     4   8  18  34  62  82 110 160 188 230 292 332
#     4  10  19  38  56  84 119 150 190 244 279 337
#     4   9  18  36  59  82 118 155 184 232 289 337
#     4  11  22  35  58  88 115 152 195 233 286 343
#
# _framework density 20.157558999999999
#
# number of rings (size 3 to 8) (size 9 to 14) (size 15 to 20)
#    0.000    2.286    2.857    0.000    0.000    1.714 
#    0.000   25.000    0.000    7.714    0.000    0.000 
#    0.000    0.000    0.000    0.000    0.000    0.000 
#
# Total GULP energy -155888.026794 kJ/mol
# GULP energy per Si atom -5567.429528 kJ/mol
# Density = 2.011168 g / cm^3
# Si number density = 20.157559 Si / 1000 Ang^3
#
#
#
# Elastic Constant Matrix: (Units=GPa)
#
#
# Indices 1 2 3 4 5 6 
#
# 1 85.1630 33.0195 6.7597 0.0000 0.0000 0.0000
# 2 33.0195 139.2636 16.9439 0.0000 0.0000 0.0000
# 3 6.7597 16.9439 43.2110 0.0000 0.0000 0.0000
# 4 0.0000 0.0000 0.0000 -30.7318 0.0000 0.0000
# 5 0.0000 0.0000 0.0000 0.0000 8.4417 0.0000
# 6 0.0000 0.0000 0.0000 0.0000 0.0000 42.0955
#
#
#
# Elastic Compliance Matrix: (Units=1/GPa)
#
#
# Indices 1 2 3 4 5 6 
#
# 1 0.012962 -0.002968 -0.000864 0.000000 0.000000 0.000000
# 2 -0.002968 0.008220 -0.002759 0.000000 0.000000 0.000000
# 3 -0.000864 -0.002759 0.024359 0.000000 0.000000 0.000000
# 4 0.000000 0.000000 0.000000 -0.032540 0.000000 0.000000
# 5 0.000000 0.000000 0.000000 0.000000 0.118460 0.000000
# 6 0.000000 0.000000 0.000000 0.000000 0.000000 0.023756
#
#
# Mechanical properties :
#
#
# Convention : Reuss Voigt Hill
#
# Bulk Modulus (GPa) = 30.90312 42.34263 36.62288
# Shear Modulus (GPa) = 27.90422 18.02205 22.96313
#
# Velocity S-wave (km/s) = 3.72466 2.99333 3.37884
# Velocity P-wave (km/s) = 5.81907 5.74440 5.78185
#
# Compressibility (1/GPa) = 0.03235919
#
# Stress axis : x y z
#
# Youngs Moduli (GPa) = 77.15132 121.65396 41.05225
#
# Poissons Ratio (x) = 0.36108 0.03546
# Poissons Ratio (y) = 0.22899 0.11326
# Poissons Ratio (z) = 0.06664 0.33563
#
# Static dielectric constant tensor:
#      x y z
#    x 1.695060 0.000000 0.000000 
#    y 0.000000 1.768440 0.000000 
#    z 0.000000 0.000000 1.669830 
# 
# From -- ./inp_files/11479.got.cif
#   From: 2010.05.17/outbox.cif.g08.bks.cpg/sg58_6_cif.got.tgz:11479.got - 2010.06.03 14:20:14.
