data_PCOD9442070
_publ_section_title
;
Structure prediction by ZEFSAII (Michael W. Deem and Ramdas Pophale) SiO2 
 PCOD9442070
Probable space group: P N N M
;
_chemical_formula_sum "Si O2"
_cell_formula_units_Z 64
_cell_length_a 21.853460
_cell_length_b 16.480266
_cell_length_c 9.766490
_cell_angle_alpha 90.000000
_cell_angle_beta 90.000000
_cell_angle_gamma 90.000000
_cell_volume 3517.409517
_symmetry_space_group_name_H-M "P N N M"
_symmetry_group_IT_number 58
_symmetry_cell_setting 'orthorhombic'
loop_
_space_group_symop_operation_xyz
x,y,z
-x,-y,z
1/2+x,1/2-y,1/2-z
1/2-x,1/2+y,1/2-z
-x,-y,-z
x,y,-z
1/2-x,1/2+y,1/2+z
1/2+x,1/2-y,1/2+z
loop_
_atom_site_type_symbol
_atom_site_label
_atom_site_fract_x
_atom_site_fract_y
_atom_site_fract_z
Si Si1 0.490502 0.856220 0.654192
Si Si2 0.857038 0.611348 0.161492
Si Si3 0.052687 0.069272 0.348889
Si Si4 0.872701 0.039571 0.845316
Si Si5 0.260823 0.346307 0.335157
Si Si6 0.455938 0.309991 0.739716
Si Si7 0.160910 0.721735 0.341544
Si Si8 0.615434 0.922355 0.338664
O O1 0.479190 0.885506 0.500000
O O2 0.422846 0.856316 0.714548
O O3 0.519678 0.766477 0.654696
O O4 0.544419 0.913736 0.707739
O O5 0.803262 0.639133 0.261052
O O6 0.862165 0.513916 0.166106
O O7 0.846599 0.634805 0.000000
O O8 0.078478 0.079192 0.500000
O O9 0.015427 0.148785 0.305778
O O10 0.103550 0.032270 0.250119
O O11 0.000000 0.000000 0.352612
O O12 0.806341 0.076689 0.813419
O O13 0.919572 0.116522 0.833649
O O14 0.873677 0.010277 0.000000
O O15 0.257397 0.332915 0.500000
O O16 0.293697 0.273714 0.253230
O O17 0.404250 0.270158 0.836851
O O18 0.179741 0.713821 0.500000
O O19 0.151300 0.637203 0.262444
O O20 0.618355 0.895466 0.500000
#
# Coordination Sequence:
#
# PCOD9442070 Si02
#       8
#     8   8   8   8   8   8   8   8
#     4   9  17  31  53  80 106 134 170 212 259 311
#     4  10  20  35  56  80 106 138 174 212 257 311
#     4   9  17  28  44  69 101 132 162 202 251 299
#     4   9  18  31  49  72  97 131 172 209 249 301
#     4  10  21  37  54  74 103 137 174 217 263 308
#     4   9  17  29  49  76 108 135 163 207 259 307
#     4  10  19  33  56  81 104 135 177 217 253 304
#     4   9  18  34  56  81 108 136 169 212 260 308
#
# _framework density 18.195207
#
# number of rings (size 3 to 8) (size 9 to 14) (size 15 to 20)
#    0.000    2.625    0.000    1.875    0.000   11.250 
#    0.000    4.375    0.000    5.250    0.000    0.000 
#    0.000    0.000    0.000    0.000    0.000    0.000 
#
# Total GULP energy -356318.072069 kJ/mol
# GULP energy per Si atom -5567.469876 kJ/mol
# Density = 1.815379 g / cm^3
# Si number density = 18.195207 Si / 1000 Ang^3
#
#
#
# Elastic Constant Matrix: (Units=GPa)
#
#
# Indices 1 2 3 4 5 6 
#
# 1 104.6381 19.5977 48.3378 0.0000 0.0000 0.0000
# 2 19.5977 45.0956 17.7500 0.0000 0.0000 0.0000
# 3 48.3378 17.7500 85.9191 0.0000 0.0000 0.0000
# 4 0.0000 0.0000 0.0000 10.7747 0.0000 0.0000
# 5 0.0000 0.0000 0.0000 0.0000 20.9889 0.0000
# 6 0.0000 0.0000 0.0000 0.0000 0.0000 17.2608
#
#
#
# Elastic Compliance Matrix: (Units=1/GPa)
#
#
# Indices 1 2 3 4 5 6 
#
# 1 0.013295 -0.003085 -0.006843 0.000000 0.000000 0.000000
# 2 -0.003085 0.024854 -0.003399 0.000000 0.000000 0.000000
# 3 -0.006843 -0.003399 0.016191 0.000000 0.000000 0.000000
# 4 0.000000 0.000000 0.000000 0.092810 0.000000 0.000000
# 5 0.000000 0.000000 0.000000 0.000000 0.047644 0.000000
# 6 0.000000 0.000000 0.000000 0.000000 0.000000 0.057935
#
#
# Mechanical properties :
#
#
# Convention : Reuss Voigt Hill
#
# Bulk Modulus (GPa) = 36.11816 45.22487 40.67152
# Shear Modulus (GPa) = 17.32439 19.80270 18.56354
#
# Velocity S-wave (km/s) = 3.08902 3.30259 3.19759
# Velocity P-wave (km/s) = 5.71106 6.28109 6.00285
#
# Compressibility (1/GPa) = 0.02768690
#
# Stress axis : x y z
#
# Youngs Moduli (GPa) = 75.21348 40.23571 61.76349
#
# Poissons Ratio (x) = 0.12411 0.42263
# Poissons Ratio (y) = 0.23200 0.20994
# Poissons Ratio (z) = 0.51467 0.13677
#
# Static dielectric constant tensor:
#      x y z
#    x 1.650230 0.000000 0.000000 
#    y 0.000000 1.624550 0.000000 
#    z 0.000000 0.000000 1.624460 
# 
# From -- ./inp_files/9292.got.cif
#   From: 2010.05.17/outbox.cif.g08.bks.cpg/sg58_5_cif.got.tgz:9292.got - 2010.06.03 14:20:14.
