data_PCOD9442274
_publ_section_title
;
Structure prediction by ZEFSAII (Michael W. Deem and Ramdas Pophale) SiO2 
 PCOD9442274
Probable space group: P N N M
;
_chemical_formula_sum "Si O2"
_cell_formula_units_Z 40
_cell_length_a 4.928085
_cell_length_b 14.256060
_cell_length_c 24.284525
_cell_angle_alpha 90.000000
_cell_angle_beta 90.000000
_cell_angle_gamma 90.000000
_cell_volume 1706.111136
_symmetry_space_group_name_H-M "P N N M"
_symmetry_group_IT_number 58
_symmetry_cell_setting 'orthorhombic'
loop_
_space_group_symop_operation_xyz
x,y,z
-x,-y,z
1/2+x,1/2-y,1/2-z
1/2-x,1/2+y,1/2-z
-x,-y,-z
x,y,-z
1/2-x,1/2+y,1/2+z
1/2+x,1/2-y,1/2+z
loop_
_atom_site_type_symbol
_atom_site_label
_atom_site_fract_x
_atom_site_fract_y
_atom_site_fract_z
Si Si1 0.405943 0.335213 0.438877
Si Si2 0.501349 0.115069 0.742586
Si Si3 0.095934 0.790149 0.438313
Si Si4 0.494536 0.612784 0.175438
Si Si5 0.237950 0.060907 0.154892
O O1 0.419112 0.378491 0.500000
O O2 0.100020 0.300602 0.429269
O O3 0.555069 0.396640 0.393342
O O4 0.593749 0.242776 0.439760
O O5 0.296753 0.146962 0.695385
O O6 0.374560 0.134150 0.802545
O O7 0.793649 0.145756 0.722220
O O8 0.500000 0.000000 0.743008
O O9 0.026713 0.826143 0.500000
O O10 0.056395 0.854885 0.385975
O O11 0.500000 0.500000 0.175389
O O12 0.500000 0.000000 0.135889
O O13 0.000000 0.000000 0.185428
#
# Coordination Sequence:
#
# PCOD9442274 Si02
#       5
#     8   8   8   8   8
#     4  10  22  39  57  81 117 154 186 231 291 341
#     4   9  18  33  53  80 110 141 177 228 287 327
#     4  10  21  38  57  80 115 153 186 230 290 341
#     4  10  19  34  58  82 108 144 187 229 273 334
#     4  11  21  36  60  85 111 147 193 238 283 343
#
# _framework density 23.445132000000001
#
# number of rings (size 3 to 8) (size 9 to 14) (size 15 to 20)
#    0.000    2.000    0.000    5.400    0.000    1.200 
#    0.000    4.000    0.000    7.200    0.000    0.000 
#    0.000    0.000    0.000    0.000    0.000    0.000 
#
# Total GULP energy -223388.031717 kJ/mol
# GULP energy per Si atom -5584.700793 kJ/mol
# Density = 2.339177 g / cm^3
# Si number density = 23.445132 Si / 1000 Ang^3
#
#
#
# Elastic Constant Matrix: (Units=GPa)
#
#
# Indices 1 2 3 4 5 6 
#
# 1 97.0588 0.5089 3.6959 0.0000 0.0000 0.0000
# 2 0.5089 33.0157 25.2666 0.0000 0.0000 0.0000
# 3 3.6959 25.2666 132.3722 0.0000 0.0000 0.0000
# 4 0.0000 0.0000 0.0000 40.8107 0.0000 0.0000
# 5 0.0000 0.0000 0.0000 0.0000 34.7287 0.0000
# 6 0.0000 0.0000 0.0000 0.0000 0.0000 20.5036
#
#
#
# Elastic Compliance Matrix: (Units=1/GPa)
#
#
# Indices 1 2 3 4 5 6 
#
# 1 0.010314 0.000072 -0.000302 0.000000 0.000000 0.000000
# 2 0.000072 0.035470 -0.006772 0.000000 0.000000 0.000000
# 3 -0.000302 -0.006772 0.008856 0.000000 0.000000 0.000000
# 4 0.000000 0.000000 0.000000 0.024503 0.000000 0.000000
# 5 0.000000 0.000000 0.000000 0.000000 0.028795 0.000000
# 6 0.000000 0.000000 0.000000 0.000000 0.000000 0.048772
#
#
# Mechanical properties :
#
#
# Convention : Reuss Voigt Hill
#
# Bulk Modulus (GPa) = 24.60892 35.70994 30.15943
# Shear Modulus (GPa) = 27.13561 34.74029 30.93795
#
# Velocity S-wave (km/s) = 3.40576 3.85355 3.63656
# Velocity P-wave (km/s) = 5.09753 5.92150 5.52490
#
# Compressibility (1/GPa) = 0.04063567
#
# Stress axis : x y z
#
# Youngs Moduli (GPa) = 96.95424 28.19249 112.92325
#
# Poissons Ratio (x) = -0.00203 0.03407
# Poissons Ratio (y) = -0.00697 0.76477
# Poissons Ratio (z) = 0.02925 0.19093
#
# Static dielectric constant tensor:
#      x y z
#    x 1.851430 0.000000 0.000000 
#    y 0.000000 1.957770 0.000000 
#    z 0.000000 0.000000 1.928130 
# 
# From -- ./inp_files/24176.got.cif
#   From: 2010.05.17/outbox.cif.g08.bks.cpg/sg58_13_cif.got.tgz:24176.got - 2010.06.03 14:20:14.
