data_PCOD9442608
_publ_section_title
;
Structure prediction by ZEFSAII (Michael W. Deem and Ramdas Pophale) SiO2 
 PCOD9442608
Probable space group: P N N M
;
_chemical_formula_sum "Si O2"
_cell_formula_units_Z 64
_cell_length_a 8.379008
_cell_length_b 12.678064
_cell_length_c 28.654785
_cell_angle_alpha 90.000000
_cell_angle_beta 90.000000
_cell_angle_gamma 90.000000
_cell_volume 3043.986339
_symmetry_space_group_name_H-M "P N N M"
_symmetry_group_IT_number 58
_symmetry_cell_setting 'orthorhombic'
loop_
_space_group_symop_operation_xyz
x,y,z
-x,-y,z
1/2+x,1/2-y,1/2-z
1/2-x,1/2+y,1/2-z
-x,-y,-z
x,y,-z
1/2-x,1/2+y,1/2+z
1/2+x,1/2-y,1/2+z
loop_
_atom_site_type_symbol
_atom_site_label
_atom_site_fract_x
_atom_site_fract_y
_atom_site_fract_z
Si Si1 0.275503 0.320613 0.309494
Si Si2 0.220764 0.429951 0.445608
Si Si3 0.153584 0.546093 0.303075
Si Si4 0.189270 0.019430 0.553321
Si Si5 0.311114 0.837099 0.618287
Si Si6 0.865517 0.757976 0.782506
Si Si7 0.330206 0.226732 0.594391
Si Si8 0.884519 0.366145 0.597253
O O1 0.260479 0.445711 0.317334
O O2 0.156768 0.293245 0.267667
O O3 0.453781 0.290574 0.293419
O O4 0.245646 0.254453 0.356386
O O5 0.224378 0.448006 0.500000
O O6 0.342156 0.339378 0.430910
O O7 0.234066 0.542506 0.420805
O O8 0.047311 0.381724 0.431164
O O9 0.260351 0.635531 0.280395
O O10 0.083345 0.601965 0.349287
O O11 0.000000 0.500000 0.276131
O O12 0.244866 0.994254 0.500000
O O13 0.234369 0.139874 0.565276
O O14 0.263034 0.946741 0.594282
O O15 0.000000 0.000000 0.554240
O O16 0.305733 0.816610 0.674493
O O17 0.493590 0.815124 0.604560
O O18 0.196032 0.747344 0.596423
#
# Coordination Sequence:
#
# PCOD9442608 Si02
#       8
#     8   8   8   8   8   8   8   8
#     4  11  22  41  61  89 126 159 208 253 316 371
#     4  11  21  36  59  91 125 160 204 249 296 363
#     4  11  19  36  62  87 119 159 200 245 308 365
#     4  11  25  44  66  90 121 167 217 263 314 377
#     4  10  24  41  63  89 125 158 208 259 313 369
#     4  10  24  39  62  93 121 163 204 259 309 376
#     4  11  23  41  62  90 123 163 203 260 313 373
#     4  10  19  37  59  89 120 161 199 246 298 358
#
# _framework density 21.025062999999999
#
# number of rings (size 3 to 8) (size 9 to 14) (size 15 to 20)
#    0.000    1.375    2.500    3.375    0.000    8.000 
#    0.000    1.875    0.000    0.000    0.000    0.000 
#    0.000    0.000    0.000    0.000    0.000    0.000 
#
# Total GULP energy -357536.522967 kJ/mol
# GULP energy per Si atom -5586.508171 kJ/mol
# Density = 2.097721 g / cm^3
# Si number density = 21.025063 Si / 1000 Ang^3
#
#
#
# Elastic Constant Matrix: (Units=GPa)
#
#
# Indices 1 2 3 4 5 6 
#
# 1 36.4694 1.7873 4.7783 0.0000 0.0000 0.0000
# 2 1.7873 69.6810 15.0170 0.0000 0.0000 0.0000
# 3 4.7783 15.0170 65.2454 0.0000 0.0000 0.0000
# 4 0.0000 0.0000 0.0000 25.7891 0.0000 0.0000
# 5 0.0000 0.0000 0.0000 0.0000 18.6300 0.0000
# 6 0.0000 0.0000 0.0000 0.0000 0.0000 38.0700
#
#
#
# Elastic Compliance Matrix: (Units=1/GPa)
#
#
# Indices 1 2 3 4 5 6 
#
# 1 0.027691 -0.000287 -0.001962 0.000000 0.000000 0.000000
# 2 -0.000287 0.015103 -0.003455 0.000000 0.000000 0.000000
# 3 -0.001962 -0.003455 0.016266 0.000000 0.000000 0.000000
# 4 0.000000 0.000000 0.000000 0.038776 0.000000 0.000000
# 5 0.000000 0.000000 0.000000 0.000000 0.053677 0.000000
# 6 0.000000 0.000000 0.000000 0.000000 0.000000 0.026267
#
#
# Mechanical properties :
#
#
# Convention : Reuss Voigt Hill
#
# Bulk Modulus (GPa) = 20.98580 23.84011 22.41295
# Shear Modulus (GPa) = 24.38156 26.48538 25.43347
#
# Velocity S-wave (km/s) = 3.40905 3.55308 3.48181
# Velocity P-wave (km/s) = 5.04960 5.30999 5.18143
#
# Compressibility (1/GPa) = 0.04765128
#
# Stress axis : x y z
#
# Youngs Moduli (GPa) = 36.11236 66.21161 61.47919
#
# Poissons Ratio (x) = 0.01904 0.12061
# Poissons Ratio (y) = 0.01038 0.21242
# Poissons Ratio (z) = 0.07085 0.22877
#
# Static dielectric constant tensor:
#      x y z
#    x 1.778690 0.000000 0.000000 
#    y 0.000000 1.767810 0.000000 
#    z 0.000000 0.000000 1.749870 
# 
# From -- ./inp_files/34740.got.cif
#   From: 2010.05.17/outbox.cif.g08.bks.cpg/sg58_18_cif.got.tgz:34740.got - 2010.06.03 14:20:14.
