data_PCOD9442329
_publ_section_title
;
Structure prediction by ZEFSAII (Michael W. Deem and Ramdas Pophale) SiO2 
 PCOD9442329
Probable space group: P N N M
;
_chemical_formula_sum "Si O2"
_cell_formula_units_Z 48
_cell_length_a 7.873948
_cell_length_b 8.207729
_cell_length_c 29.351990
_cell_angle_alpha 90.000000
_cell_angle_beta 90.000000
_cell_angle_gamma 90.000000
_cell_volume 1896.937848
_symmetry_space_group_name_H-M "P N N M"
_symmetry_group_IT_number 58
_symmetry_cell_setting 'orthorhombic'
loop_
_space_group_symop_operation_xyz
x,y,z
-x,-y,z
1/2+x,1/2-y,1/2-z
1/2-x,1/2+y,1/2-z
-x,-y,-z
x,y,-z
1/2-x,1/2+y,1/2+z
1/2+x,1/2-y,1/2+z
loop_
_atom_site_type_symbol
_atom_site_label
_atom_site_fract_x
_atom_site_fract_y
_atom_site_fract_z
Si Si1 0.951638 0.185420 0.407063
Si Si2 0.802655 0.380176 0.807150
Si Si3 0.667372 0.716942 0.398023
Si Si4 0.998772 0.303698 0.500000
Si Si5 0.162768 0.285921 0.232046
Si Si6 0.806070 0.433584 0.341778
Si Si7 0.093682 0.822403 0.000000
O O1 0.131729 0.276905 0.408377
O O2 0.898048 0.222108 0.458252
O O3 0.826713 0.271479 0.372640
O O4 0.000000 0.000000 0.397217
O O5 0.849829 0.358559 0.859942
O O6 0.745613 0.557041 0.790177
O O7 0.673099 0.249109 0.785934
O O8 0.970923 0.324645 0.780720
O O9 0.674585 0.551064 0.368290
O O10 0.564166 0.728883 0.445596
O O11 0.203063 0.277275 0.500000
O O12 0.000000 0.500000 0.500000
O O13 0.227898 0.127259 0.205437
O O14 0.000000 0.500000 0.338234
O O15 0.000000 0.000000 0.000000
#
# Coordination Sequence:
#
# PCOD9442329 Si02
#       7
#     8   8   8   4   8   8   4
#     4  10  19  34  60  89 125 167 215 273 338 392
#     4  11  26  45  67 101 137 177 230 278 351 414
#     4  10  22  40  63  95 132 176 225 282 334 410
#     4  10  19  37  56  91 122 161 220 279 328 398
#     4  11  26  44  70  98 139 178 225 285 344 422
#     4  10  22  38  64  95 133 172 221 277 337 405
#     4  10  22  37  64  92 129 171 225 275 332 394
#
# _framework density 25.303939
#
# number of rings (size 3 to 8) (size 9 to 14) (size 15 to 20)
#    0.000    1.667    0.000    4.750    9.333    2.000 
#    0.000    0.000    0.000    3.000    0.000    0.000 
#    0.000    0.000    0.000    0.000    0.000    0.000 
#
# Total GULP energy -267454.440406 kJ/mol
# GULP energy per Si atom -5571.967508 kJ/mol
# Density = 2.524635 g / cm^3
# Si number density = 25.303939 Si / 1000 Ang^3
#
#
#
# Elastic Constant Matrix: (Units=GPa)
#
#
# Indices 1 2 3 4 5 6 
#
# 1 32.2177 -18.2052 3.4903 0.0000 0.0000 0.0000
# 2 -18.2052 85.7487 18.1719 0.0000 0.0000 0.0000
# 3 3.4903 18.1719 148.9435 0.0000 0.0000 0.0000
# 4 0.0000 0.0000 0.0000 19.1115 0.0000 0.0000
# 5 0.0000 0.0000 0.0000 0.0000 13.1384 0.0000
# 6 0.0000 0.0000 0.0000 0.0000 0.0000 31.7741
#
#
#
# Elastic Compliance Matrix: (Units=1/GPa)
#
#
# Indices 1 2 3 4 5 6 
#
# 1 0.035739 0.007971 -0.001810 0.000000 0.000000 0.000000
# 2 0.007971 0.013749 -0.001864 0.000000 0.000000 0.000000
# 3 -0.001810 -0.001864 0.006984 0.000000 0.000000 0.000000
# 4 0.000000 0.000000 0.000000 0.052324 0.000000 0.000000
# 5 0.000000 0.000000 0.000000 0.000000 0.076112 0.000000
# 6 0.000000 0.000000 0.000000 0.000000 0.000000 0.031472
#
#
# Mechanical properties :
#
#
# Convention : Reuss Voigt Hill
#
# Bulk Modulus (GPa) = 15.36889 30.42489 22.89689
# Shear Modulus (GPa) = 21.78872 30.36834 26.07853
#
# Velocity S-wave (km/s) = 2.93760 3.46807 3.21380
# Velocity P-wave (km/s) = 4.19439 5.29967 4.77909
#
# Compressibility (1/GPa) = 0.06506651
#
# Stress axis : x y z
#
# Youngs Moduli (GPa) = 27.98041 72.73018 143.18795
#
# Poissons Ratio (x) = -0.57976 0.25918
# Poissons Ratio (y) = -0.22304 0.26695
# Poissons Ratio (z) = 0.05065 0.13559
#
# Static dielectric constant tensor:
#      x y z
#    x 2.017620 0.000000 0.000000 
#    y 0.000000 2.106490 0.000000 
#    z 0.000000 0.000000 2.132250 
# 
# From -- ./inp_files/34621.got.cif
#   From: 2010.05.17/outbox.cif.g08.bks.cpg/sg58_18_cif.got.tgz:34621.got - 2010.06.03 14:20:14.
