data_PCOD9442844
_publ_section_title
;
Structure prediction by ZEFSAII (Michael W. Deem and Ramdas Pophale) SiO2 
 PCOD9442844
Probable space group: P N N M
;
_chemical_formula_sum "Si O2"
_cell_formula_units_Z 56
_cell_length_a 22.420490
_cell_length_b 15.046758
_cell_length_c 7.691670
_cell_angle_alpha 90.000000
_cell_angle_beta 90.000000
_cell_angle_gamma 90.000000
_cell_volume 2594.828619
_symmetry_space_group_name_H-M "P N N M"
_symmetry_group_IT_number 58
_symmetry_cell_setting 'orthorhombic'
loop_
_space_group_symop_operation_xyz
x,y,z
-x,-y,z
1/2+x,1/2-y,1/2-z
1/2-x,1/2+y,1/2-z
-x,-y,-z
x,y,-z
1/2-x,1/2+y,1/2+z
1/2+x,1/2-y,1/2+z
loop_
_atom_site_type_symbol
_atom_site_label
_atom_site_fract_x
_atom_site_fract_y
_atom_site_fract_z
Si Si1 0.567775 0.502046 0.293241
Si Si2 0.456247 0.133104 0.795657
Si Si3 0.858575 0.832789 0.786585
Si Si4 0.346819 0.022409 0.302622
Si Si5 0.274869 0.190742 0.799002
Si Si6 0.114615 0.804008 0.709779
Si Si7 0.408524 0.855014 0.289884
O O1 0.500000 0.500000 0.222433
O O2 0.562891 0.487132 0.500000
O O3 0.608971 0.422106 0.224881
O O4 0.598014 0.597714 0.267404
O O5 0.412686 0.066178 0.697966
O O6 0.436531 0.232615 0.741119
O O7 0.525612 0.118509 0.768279
O O8 0.442317 0.123235 0.000000
O O9 0.790923 0.819016 0.723267
O O10 0.895170 0.745301 0.736438
O O11 0.856576 0.836371 0.000000
O O12 0.324445 0.015431 0.500000
O O13 0.305859 0.093978 0.208021
O O14 0.358338 0.924644 0.227939
O O15 0.323052 0.260842 0.724707
O O16 0.267041 0.216998 0.000000
O O17 0.117169 0.804993 0.500000
O O18 0.407120 0.858932 0.500000
#
# Coordination Sequence:
#
# PCOD9442844 Si02
#       7
#     8   8   8   8   8   8   8
#     4  10  20  34  55  81 105 136 178 219 263 314
#     4  10  20  34  53  78 108 140 171 206 255 315
#     4   9  19  36  55  75 104 141 178 218 264 315
#     4  10  20  33  53  80 106 134 170 213 259 306
#     4   9  19  37  56  74 102 141 179 213 260 319
#     4   9  19  34  53  76 102 136 174 213 260 310
#     4  10  20  34  53  77 105 137 172 213 261 309
#
# _framework density 21.581386999999999
#
# number of rings (size 3 to 8) (size 9 to 14) (size 15 to 20)
#    0.000    2.429    0.000    3.000    0.000    8.286 
#    0.000    3.571    0.000    0.000    0.000    0.000 
#    0.000    0.000    0.000    0.000    0.000    0.000 
#
# Total GULP energy -312596.933737 kJ/mol
# GULP energy per Si atom -5582.088102 kJ/mol
# Density = 2.153227 g / cm^3
# Si number density = 21.581387 Si / 1000 Ang^3
#
#
#
# Elastic Constant Matrix: (Units=GPa)
#
#
# Indices 1 2 3 4 5 6 
#
# 1 84.7321 7.3673 1.4987 0.0000 0.0000 0.0000
# 2 7.3673 105.6283 -2.7440 0.0000 0.0000 0.0000
# 3 1.4987 -2.7440 35.6138 0.0000 0.0000 0.0000
# 4 0.0000 0.0000 0.0000 26.0001 0.0000 0.0000
# 5 0.0000 0.0000 0.0000 0.0000 6.5261 0.0000
# 6 0.0000 0.0000 0.0000 0.0000 0.0000 11.4994
#
#
#
# Elastic Compliance Matrix: (Units=1/GPa)
#
#
# Indices 1 2 3 4 5 6 
#
# 1 0.011885 -0.000844 -0.000565 0.000000 0.000000 0.000000
# 2 -0.000844 0.009546 0.000771 0.000000 0.000000 0.000000
# 3 -0.000565 0.000771 0.028162 0.000000 0.000000 0.000000
# 4 0.000000 0.000000 0.000000 0.038461 0.000000 0.000000
# 5 0.000000 0.000000 0.000000 0.000000 0.153231 0.000000
# 6 0.000000 0.000000 0.000000 0.000000 0.000000 0.086961
#
#
# Mechanical properties :
#
#
# Convention : Reuss Voigt Hill
#
# Bulk Modulus (GPa) = 20.69627 26.46870 23.58248
# Shear Modulus (GPa) = 14.46638 23.46192 18.96415
#
# Velocity S-wave (km/s) = 2.59186 3.30075 2.96755
# Velocity P-wave (km/s) = 4.30902 5.17860 4.76369
#
# Compressibility (1/GPa) = 0.04831788
#
# Stress axis : x y z
#
# Youngs Moduli (GPa) = 84.13789 104.75555 35.50862
#
# Poissons Ratio (x) = 0.08838 0.02007
# Poissons Ratio (y) = 0.07098 -0.02738
# Poissons Ratio (z) = 0.04755 -0.08077
#
# Static dielectric constant tensor:
#      x y z
#    x 1.765460 0.000000 0.000000 
#    y 0.000000 1.779260 0.000000 
#    z 0.000000 0.000000 1.809310 
# 
# From -- ./inp_files/9063.got.cif
#   From: 2010.05.17/outbox.cif.g08.bks.cpg/sg58_5_cif.got.tgz:9063.got - 2010.06.03 14:20:14.
