data_PCOD9442208
_publ_section_title
;
Structure prediction by ZEFSAII (Michael W. Deem and Ramdas Pophale) SiO2 
 PCOD9442208
Probable space group: P N N M
;
_chemical_formula_sum "Si O2"
_cell_formula_units_Z 64
_cell_length_a 23.436792
_cell_length_b 15.669577
_cell_length_c 9.371049
_cell_angle_alpha 90.000000
_cell_angle_beta 90.000000
_cell_angle_gamma 90.000000
_cell_volume 3441.467300
_symmetry_space_group_name_H-M "P N N M"
_symmetry_group_IT_number 58
_symmetry_cell_setting 'orthorhombic'
loop_
_space_group_symop_operation_xyz
x,y,z
-x,-y,z
1/2+x,1/2-y,1/2-z
1/2-x,1/2+y,1/2-z
-x,-y,-z
x,y,-z
1/2-x,1/2+y,1/2+z
1/2+x,1/2-y,1/2+z
loop_
_atom_site_type_symbol
_atom_site_label
_atom_site_fract_x
_atom_site_fract_y
_atom_site_fract_z
Si Si1 0.454617 0.427130 0.830510
Si Si2 0.309144 0.686607 0.663720
Si Si3 0.859236 0.622795 0.835457
Si Si4 0.744687 0.064097 0.835486
Si Si5 0.430341 0.253094 0.672710
Si Si6 0.159810 0.034171 0.332336
Si Si7 0.796744 0.255604 0.165034
Si Si8 0.989523 0.596600 0.173169
O O1 0.500000 0.500000 0.786694
O O2 0.455101 0.338721 0.744716
O O3 0.392672 0.470103 0.811121
O O4 0.463265 0.410730 0.000000
O O5 0.305225 0.658730 0.500000
O O6 0.335855 0.780831 0.666376
O O7 0.348770 0.623709 0.753906
O O8 0.246784 0.692402 0.736125
O O9 0.817622 0.570378 0.733410
O O10 0.924807 0.621094 0.790447
O O11 0.855370 0.591661 0.000000
O O12 0.773710 0.158222 0.830564
O O13 0.784550 0.004974 0.740655
O O14 0.742868 0.037530 0.000000
O O15 0.433846 0.261545 0.500000
O O16 0.363062 0.243254 0.708400
O O17 0.465773 0.169301 0.718405
O O18 0.167708 0.046746 0.500000
O O19 0.792593 0.284789 0.000000
O O20 0.000000 0.500000 0.223922
O O21 0.993278 0.595070 0.000000
#
# Coordination Sequence:
#
# PCOD9442208 Si02
#       8
#     8   8   8   8   8   8   8   8
#     4  10  23  40  57  83 118 156 196 239 294 358
#     4  10  21  34  53  83 116 148 186 234 284 341
#     4   9  19  36  57  82 112 150 190 230 286 343
#     4  10  19  34  56  82 112 145 184 236 284 333
#     4  10  20  36  61  88 116 155 199 244 288 339
#     4  11  22  36  56  82 115 151 190 232 287 351
#     4   9  18  34  54  80 111 145 189 232 282 342
#     4   9  19  36  58  85 115 148 193 242 285 339
#
# _framework density 18.596717999999999
#
# number of rings (size 3 to 8) (size 9 to 14) (size 15 to 20)
#    0.000    2.250    1.250    1.125    1.750    3.250 
#    0.000    3.125    0.000    1.500    0.000    0.000 
#    0.000    0.000    0.000    0.000    0.000    0.000 
#
# Total GULP energy -357096.248498 kJ/mol
# GULP energy per Si atom -5579.628883 kJ/mol
# Density = 1.855439 g / cm^3
# Si number density = 18.596718 Si / 1000 Ang^3
#
#
#
# Elastic Constant Matrix: (Units=GPa)
#
#
# Indices 1 2 3 4 5 6 
#
# 1 117.1675 43.2769 38.3361 0.0000 0.0000 0.0000
# 2 43.2769 81.1542 42.4614 0.0000 0.0000 0.0000
# 3 38.3361 42.4614 68.9220 0.0000 0.0000 0.0000
# 4 0.0000 0.0000 0.0000 24.9000 0.0000 0.0000
# 5 0.0000 0.0000 0.0000 0.0000 16.2048 0.0000
# 6 0.0000 0.0000 0.0000 0.0000 0.0000 21.6446
#
#
#
# Elastic Compliance Matrix: (Units=1/GPa)
#
#
# Indices 1 2 3 4 5 6 
#
# 1 0.011259 -0.004025 -0.003783 0.000000 0.000000 0.000000
# 2 -0.004025 0.019622 -0.009850 0.000000 0.000000 0.000000
# 3 -0.003783 -0.009850 0.022682 0.000000 0.000000 0.000000
# 4 0.000000 0.000000 0.000000 0.040161 0.000000 0.000000
# 5 0.000000 0.000000 0.000000 0.000000 0.061710 0.000000
# 6 0.000000 0.000000 0.000000 0.000000 0.000000 0.046201
#
#
# Mechanical properties :
#
#
# Convention : Reuss Voigt Hill
#
# Bulk Modulus (GPa) = 54.80264 57.26583 56.03424
# Shear Modulus (GPa) = 20.57329 22.09448 21.33389
#
# Velocity S-wave (km/s) = 3.32970 3.45060 3.39069
# Velocity P-wave (km/s) = 6.65699 6.83637 6.74727
#
# Compressibility (1/GPa) = 0.01824729
#
# Stress axis : x y z
#
# Youngs Moduli (GPa) = 88.81652 50.96235 44.08806
#
# Poissons Ratio (x) = 0.20511 0.16679
# Poissons Ratio (y) = 0.35747 0.43428
# Poissons Ratio (z) = 0.33600 0.50199
#
# Static dielectric constant tensor:
#      x y z
#    x 1.625220 0.000000 0.000000 
#    y 0.000000 1.660010 0.000000 
#    z 0.000000 0.000000 1.625120 
# 
# From -- ./inp_files/9936.got.cif
#   From: 2010.05.17/outbox.cif.g08.bks.cpg/sg58_5_cif.got.tgz:9936.got - 2010.06.03 14:20:14.
