data_PCOD9442757
_publ_section_title
;
Structure prediction by ZEFSAII (Michael W. Deem and Ramdas Pophale) SiO2 
 PCOD9442757
Probable space group: P N N M
;
_chemical_formula_sum "Si O2"
_cell_formula_units_Z 56
_cell_length_a 16.936547
_cell_length_b 9.043955
_cell_length_c 19.446606
_cell_angle_alpha 90.000000
_cell_angle_beta 90.000000
_cell_angle_gamma 90.000000
_cell_volume 2978.702155
_symmetry_space_group_name_H-M "P N N M"
_symmetry_group_IT_number 58
_symmetry_cell_setting 'orthorhombic'
loop_
_space_group_symop_operation_xyz
x,y,z
-x,-y,z
1/2+x,1/2-y,1/2-z
1/2-x,1/2+y,1/2-z
-x,-y,-z
x,y,-z
1/2-x,1/2+y,1/2+z
1/2+x,1/2-y,1/2+z
loop_
_atom_site_type_symbol
_atom_site_label
_atom_site_fract_x
_atom_site_fract_y
_atom_site_fract_z
Si Si1 0.074028 0.892743 0.829302
Si Si2 0.737490 0.402988 0.182118
Si Si3 0.818354 0.614326 0.080125
Si Si4 0.165160 0.674808 0.420088
Si Si5 0.510369 0.175427 0.422066
Si Si6 0.079654 0.911977 0.332270
Si Si7 0.751669 0.551929 0.670974
O O1 0.052371 0.749412 0.872651
O O2 0.076337 0.862569 0.747574
O O3 0.159042 0.958078 0.849482
O O4 0.000000 0.000000 0.841968
O O5 0.797071 0.474802 0.127096
O O6 0.652307 0.472873 0.164423
O O7 0.760176 0.463855 0.257362
O O8 0.734676 0.226472 0.181432
O O9 0.745031 0.726136 0.084401
O O10 0.899086 0.694443 0.101878
O O11 0.828625 0.570791 0.000000
O O12 0.145042 0.655054 0.500000
O O13 0.100241 0.772200 0.379897
O O14 0.189196 0.523033 0.382853
O O15 0.502072 0.233547 0.500000
O O16 0.500000 0.000000 0.423554
O O17 0.000000 0.000000 0.349703
#
# Coordination Sequence:
#
# PCOD9442757 Si02
#       7
#     8   8   8   8   8   8   8
#     4  10  20  33  52  77 109 146 181 218 259 310
#     4  10  20  34  56  80 108 144 182 226 272 319
#     4   9  18  34  54  78 110 146 182 218 263 323
#     4  10  21  37  58  81 106 139 179 224 275 330
#     4  10  20  32  48  76 113 148 180 214 255 306
#     4   9  20  39  58  81 106 136 179 225 280 336
#     4  11  21  35  54  80 110 142 185 229 268 319
#
# _framework density 18.800134
#
# number of rings (size 3 to 8) (size 9 to 14) (size 15 to 20)
#    0.000    2.143    0.000    4.286    0.000    4.000 
#    0.000    0.714    0.000    0.857    0.000    0.000 
#    0.000    0.000    0.000    0.000    0.000    0.000 
#
# Total GULP energy -312575.485996 kJ/mol
# GULP energy per Si atom -5581.705107 kJ/mol
# Density = 1.875734 g / cm^3
# Si number density = 18.800134 Si / 1000 Ang^3
#
#
#
# Elastic Constant Matrix: (Units=GPa)
#
#
# Indices 1 2 3 4 5 6 
#
# 1 71.6615 21.4846 41.9722 0.0000 0.0000 0.0000
# 2 21.4846 123.0200 66.0219 0.0000 0.0000 0.0000
# 3 41.9722 66.0219 63.8375 0.0000 0.0000 0.0000
# 4 0.0000 0.0000 0.0000 22.2320 0.0000 0.0000
# 5 0.0000 0.0000 0.0000 0.0000 21.4521 0.0000
# 6 0.0000 0.0000 0.0000 0.0000 0.0000 20.8972
#
#
#
# Elastic Compliance Matrix: (Units=1/GPa)
#
#
# Indices 1 2 3 4 5 6 
#
# 1 0.028341 0.011351 -0.030373 0.000000 0.000000 0.000000
# 2 0.011351 0.022815 -0.031059 0.000000 0.000000 0.000000
# 3 -0.030373 -0.031059 0.067756 0.000000 0.000000 0.000000
# 4 0.000000 0.000000 0.000000 0.044980 0.000000 0.000000
# 5 0.000000 0.000000 0.000000 0.000000 0.046615 0.000000
# 6 0.000000 0.000000 0.000000 0.000000 0.000000 0.047853
#
#
# Mechanical properties :
#
#
# Convention : Reuss Voigt Hill
#
# Bulk Modulus (GPa) = 53.33252 57.49737 55.41494
# Shear Modulus (GPa) = 13.70719 21.51896 17.61307
#
# Velocity S-wave (km/s) = 2.70312 3.38689 3.06414
# Velocity P-wave (km/s) = 6.17836 6.77824 6.48524
#
# Compressibility (1/GPa) = 0.01875029
#
# Stress axis : x y z
#
# Youngs Moduli (GPa) = 35.28460 43.83123 14.75885
#
# Poissons Ratio (x) = -0.49753 0.44827
# Poissons Ratio (y) = -0.40052 0.45839
# Poissons Ratio (z) = 1.07170 1.36133
#
# Static dielectric constant tensor:
#      x y z
#    x 1.667440 0.000000 0.000000 
#    y 0.000000 1.644670 0.000000 
#    z 0.000000 0.000000 1.640730 
# 
# From -- ./inp_files/30013.got.cif
#   From: 2010.05.17/outbox.cif.g08.bks.cpg/sg58_16_cif.got.tgz:30013.got - 2010.06.03 14:20:14.
