data_PCOD9442609
_publ_section_title
;
Structure prediction by ZEFSAII (Michael W. Deem and Ramdas Pophale) SiO2 
 PCOD9442609
Probable space group: P N N M
;
_chemical_formula_sum "Si O2"
_cell_formula_units_Z 44
_cell_length_a 5.106076
_cell_length_b 13.189464
_cell_length_c 25.863229
_cell_angle_alpha 90.000000
_cell_angle_beta 90.000000
_cell_angle_gamma 90.000000
_cell_volume 1741.795510
_symmetry_space_group_name_H-M "P N N M"
_symmetry_group_IT_number 58
_symmetry_cell_setting 'orthorhombic'
loop_
_space_group_symop_operation_xyz
x,y,z
-x,-y,z
1/2+x,1/2-y,1/2-z
1/2-x,1/2+y,1/2-z
-x,-y,-z
x,y,-z
1/2-x,1/2+y,1/2+z
1/2+x,1/2-y,1/2+z
loop_
_atom_site_type_symbol
_atom_site_label
_atom_site_fract_x
_atom_site_fract_y
_atom_site_fract_z
Si Si1 0.653854 0.796824 0.939036
Si Si2 0.802679 0.908257 0.662456
Si Si3 0.311547 0.596562 0.055280
Si Si4 0.835985 0.717639 0.719370
Si Si5 0.849991 0.101741 0.062998
Si Si6 0.500000 0.000000 0.241670
O O1 0.512604 0.689554 0.938202
O O2 0.946938 0.811052 0.919037
O O3 0.440682 0.876363 0.917504
O O4 0.683395 0.821611 0.000000
O O5 0.646726 0.905135 0.608264
O O6 0.904543 0.794615 0.673001
O O7 0.686153 0.943688 0.717008
O O8 0.000000 0.000000 0.652914
O O9 0.500000 0.500000 0.051020
O O10 0.167381 0.608994 0.000000
O O11 0.538192 0.742223 0.736379
O O12 0.874340 0.596576 0.712396
O O13 0.824689 0.100485 0.000000
O O14 0.000000 0.000000 0.078076
#
# Coordination Sequence:
#
# PCOD9442609 Si02
#       6
#     8   8   8   8   8   4
#     4   9  17  31  48  74 104 140 186 239 289 340
#     4  10  19  37  59  92 123 165 206 260 308 385
#     4   9  19  37  58  84 123 167 214 259 306 361
#     4  10  20  35  61  94 126 161 198 253 317 382
#     4   9  16  28  50  74  96 129 183 243 296 341
#     4  10  20  36  61  94 129 158 202 256 326 386
#
# _framework density 25.261288
#
# number of rings (size 3 to 8) (size 9 to 14) (size 15 to 20)
#    0.000    2.545    1.818    0.545    0.000    2.182 
#    6.545    0.455    4.000    0.000    0.000    0.000 
#    0.000    0.000    0.000    0.000    0.000    0.000 
#
# Total GULP energy -245200.128566 kJ/mol
# GULP energy per Si atom -5572.730195 kJ/mol
# Density = 2.520379 g / cm^3
# Si number density = 25.261288 Si / 1000 Ang^3
#
#
#
# Elastic Constant Matrix: (Units=GPa)
#
#
# Indices 1 2 3 4 5 6 
#
# 1 48.5907 7.4064 -9.6226 0.0000 0.0000 0.0000
# 2 7.4064 176.6031 34.9044 0.0000 0.0000 0.0000
# 3 -9.6226 34.9044 91.0302 0.0000 0.0000 0.0000
# 4 0.0000 0.0000 0.0000 -0.5320 0.0000 0.0000
# 5 0.0000 0.0000 0.0000 0.0000 5.7599 0.0000
# 6 0.0000 0.0000 0.0000 0.0000 0.0000 37.0369
#
#
#
# Elastic Compliance Matrix: (Units=1/GPa)
#
#
# Indices 1 2 3 4 5 6 
#
# 1 0.021359 -0.001452 0.002815 0.000000 0.000000 0.000000
# 2 -0.001452 0.006225 -0.002541 0.000000 0.000000 0.000000
# 3 0.002815 -0.002541 0.012257 0.000000 0.000000 0.000000
# 4 0.000000 0.000000 0.000000 -1.879631 0.000000 0.000000
# 5 0.000000 0.000000 0.000000 0.000000 0.173615 0.000000
# 6 0.000000 0.000000 0.000000 0.000000 0.000000 0.027000
#
#
# Mechanical properties :
#
#
# Convention : Reuss Voigt Hill
#
# Bulk Modulus (GPa) = 26.67723 42.40005 34.53864
# Shear Modulus (GPa) = -3.07820 27.35534 12.13857
#
# Velocity S-wave (km/s) = -1.10508 3.29431 2.19446
# Velocity P-wave (km/s) = 2.99252 5.59383 4.48588
#
# Compressibility (1/GPa) = 0.03748515
#
# Stress axis : x y z
#
# Youngs Moduli (GPa) = 46.81918 160.63137 81.58587
#
# Poissons Ratio (x) = 0.23324 -0.22963
# Poissons Ratio (y) = 0.06798 0.20727
# Poissons Ratio (z) = -0.13177 0.40809
#
# Static dielectric constant tensor:
#      x y z
#    x 2.123670 0.000000 0.000000 
#    y 0.000000 2.184780 0.000000 
#    z 0.000000 0.000000 2.048980 
# 
# From -- ./inp_files/32766.got.cif
#   From: 2010.05.17/outbox.cif.g08.bks.cpg/sg58_17_cif.got.tgz:32766.got - 2010.06.03 14:20:14.
