data_PCOD9442062
_publ_section_title
;
Structure prediction by ZEFSAII (Michael W. Deem and Ramdas Pophale) SiO2 
 PCOD9442062
Probable space group: P N N M
;
_chemical_formula_sum "Si O2"
_cell_formula_units_Z 58
_cell_length_a 11.281307
_cell_length_b 27.462047
_cell_length_c 10.214292
_cell_angle_alpha 90.000000
_cell_angle_beta 90.000000
_cell_angle_gamma 90.000000
_cell_volume 3164.467160
_symmetry_space_group_name_H-M "P N N M"
_symmetry_group_IT_number 58
_symmetry_cell_setting 'orthorhombic'
loop_
_space_group_symop_operation_xyz
x,y,z
-x,-y,z
1/2+x,1/2-y,1/2-z
1/2-x,1/2+y,1/2-z
-x,-y,-z
x,y,-z
1/2-x,1/2+y,1/2+z
1/2+x,1/2-y,1/2+z
loop_
_atom_site_type_symbol
_atom_site_label
_atom_site_fract_x
_atom_site_fract_y
_atom_site_fract_z
Si Si1 0.396524 0.713873 0.348106
Si Si2 0.727158 0.836621 0.650428
Si Si3 0.247416 0.391582 0.152234
Si Si4 0.962688 0.676941 0.842663
Si Si5 0.345615 0.561547 0.212230
Si Si6 0.363234 0.998767 0.347167
Si Si7 0.540998 0.614785 0.353951
Si Si8 0.000000 0.000000 0.500000
O O1 0.355480 0.716518 0.500000
O O2 0.292748 0.699955 0.248326
O O3 0.451956 0.765956 0.313107
O O4 0.490177 0.669670 0.341842
O O5 0.725752 0.818696 0.500000
O O6 0.591159 0.843270 0.695746
O O7 0.797937 0.887351 0.654305
O O8 0.151961 0.352577 0.203977
O O9 0.183987 0.443821 0.152503
O O10 0.362409 0.393208 0.242124
O O11 0.280667 0.381302 0.000000
O O12 0.957859 0.671205 0.000000
O O13 0.227063 0.530616 0.237554
O O14 0.431114 0.578353 0.329173
O O15 0.423917 0.529702 0.113020
O O16 0.357537 0.016532 0.500000
O O17 0.500000 0.000000 0.307149
O O18 0.589261 0.608171 0.500000
#
# Coordination Sequence:
#
# PCOD9442062 Si02
#       8
#     8   8   8   8   8   8   8   2
#     4   9  20  37  55  78 111 153 188 232 291 347
#     4  10  19  35  58  84 111 148 194 240 284 348
#     4  10  21  35  58  86 113 149 190 243 287 341
#     4   9  19  36  57  82 116 150 189 243 296 342
#     4  11  21  34  58  84 119 151 189 237 296 342
#     4  10  19  33  55  86 117 147 185 236 295 344
#     4  10  23  39  57  82 119 158 194 238 296 356
#     4  12  20  32  56  92 120 144 190 250 292 336
#
# _framework density 18.328520999999999
#
# number of rings (size 3 to 8) (size 9 to 14) (size 15 to 20)
#    0.000    2.069    1.379    1.655    4.828    2.759 
#    0.000    4.483    0.000    3.310    0.000    0.000 
#    0.000    0.000    0.000    0.000    0.000    0.000 
#
# Total GULP energy -322899.014931 kJ/mol
# GULP energy per Si atom -5567.224395 kJ/mol
# Density = 1.828680 g / cm^3
# Si number density = 18.328521 Si / 1000 Ang^3
#
#
#
# Elastic Constant Matrix: (Units=GPa)
#
#
# Indices 1 2 3 4 5 6 
#
# 1 120.7767 35.1779 50.8201 0.0000 0.0000 0.0000
# 2 35.1779 55.0352 20.8285 0.0000 0.0000 0.0000
# 3 50.8201 20.8285 66.6707 0.0000 0.0000 0.0000
# 4 0.0000 0.0000 0.0000 10.5831 0.0000 0.0000
# 5 0.0000 0.0000 0.0000 0.0000 15.4758 0.0000
# 6 0.0000 0.0000 0.0000 0.0000 0.0000 26.0615
#
#
#
# Elastic Compliance Matrix: (Units=1/GPa)
#
#
# Indices 1 2 3 4 5 6 
#
# 1 0.013448 -0.005349 -0.008580 0.000000 0.000000 0.000000
# 2 -0.005349 0.022734 -0.003025 0.000000 0.000000 0.000000
# 3 -0.008580 -0.003025 0.022484 0.000000 0.000000 0.000000
# 4 0.000000 0.000000 0.000000 0.094491 0.000000 0.000000
# 5 0.000000 0.000000 0.000000 0.000000 0.064617 0.000000
# 6 0.000000 0.000000 0.000000 0.000000 0.000000 0.038371
#
#
# Mechanical properties :
#
#
# Convention : Reuss Voigt Hill
#
# Bulk Modulus (GPa) = 40.38985 50.68171 45.53578
# Shear Modulus (GPa) = 16.76144 19.46783 18.11463
#
# Velocity S-wave (km/s) = 3.02735 3.26262 3.14718
# Velocity P-wave (km/s) = 5.85698 6.47339 6.17288
#
# Compressibility (1/GPa) = 0.02475869
#
# Stress axis : x y z
#
# Youngs Moduli (GPa) = 74.36208 43.98717 44.47589
#
# Poissons Ratio (x) = 0.23527 0.38159
# Poissons Ratio (y) = 0.39773 0.13455
# Poissons Ratio (z) = 0.63800 0.13307
#
# Static dielectric constant tensor:
#      x y z
#    x 1.639870 0.000000 0.000000 
#    y 0.000000 1.645740 0.000000 
#    z 0.000000 0.000000 1.613230 
# 
# From -- ./inp_files/4436.got.cif
#   From: 2010.05.17/outbox.cif.g08.bks.cpg/sg58_3_cif.got.tgz:4436.got - 2010.06.03 14:20:14.
