data_PCOD9442107
_publ_section_title
;
Structure prediction by ZEFSAII (Michael W. Deem and Ramdas Pophale) SiO2 
 PCOD9442107
Probable space group: P N N M
;
_chemical_formula_sum "Si O2"
_cell_formula_units_Z 64
_cell_length_a 21.184807
_cell_length_b 17.549401
_cell_length_c 9.139796
_cell_angle_alpha 90.000000
_cell_angle_beta 90.000000
_cell_angle_gamma 90.000000
_cell_volume 3397.999509
_symmetry_space_group_name_H-M "P N N M"
_symmetry_group_IT_number 58
_symmetry_cell_setting 'orthorhombic'
loop_
_space_group_symop_operation_xyz
x,y,z
-x,-y,z
1/2+x,1/2-y,1/2-z
1/2-x,1/2+y,1/2-z
-x,-y,-z
x,y,-z
1/2-x,1/2+y,1/2+z
1/2+x,1/2-y,1/2+z
loop_
_atom_site_type_symbol
_atom_site_label
_atom_site_fract_x
_atom_site_fract_y
_atom_site_fract_z
Si Si1 0.269971 0.091472 0.171285
Si Si2 0.867667 0.689608 0.672198
Si Si3 0.507007 0.200680 0.673314
Si Si4 0.634081 0.630803 0.825673
Si Si5 0.995082 0.864966 0.325267
Si Si6 0.757115 0.579796 0.673248
Si Si7 0.366539 0.203208 0.325255
Si Si8 0.642916 0.373121 0.828921
O O1 0.313272 0.147648 0.264598
O O2 0.198097 0.098479 0.225788
O O3 0.287886 0.003098 0.191247
O O4 0.274735 0.110756 0.000000
O O5 0.874672 0.673838 0.500000
O O6 0.931719 0.664667 0.752193
O O7 0.805627 0.645011 0.723838
O O8 0.859543 0.780819 0.687155
O O9 0.515737 0.201683 0.500000
O O10 0.504808 0.286695 0.735216
O O11 0.436787 0.169888 0.704958
O O12 0.563381 0.598571 0.796695
O O13 0.691429 0.584229 0.758192
O O14 0.637830 0.714948 0.753835
O O15 0.641151 0.636659 0.000000
O O16 0.993085 0.847081 0.500000
O O17 0.927652 0.903227 0.294190
O O18 0.744546 0.591100 0.500000
O O19 0.360281 0.213991 0.500000
O O20 0.656665 0.390160 0.000000
#
# Coordination Sequence:
#
# PCOD9442107 Si02
#       8
#     8   8   8   8   8   8   8   8
#     4  11  23  36  51  74 104 139 181 221 252 297
#     4   9  18  34  55  75  99 134 170 206 255 312
#     4   9  17  29  50  80 105 126 161 210 258 303
#     4  10  19  33  57  84 104 129 171 216 255 304
#     4   8  16  31  51  77 105 131 163 205 254 308
#     4  10  22  38  52  72 106 143 176 213 260 307
#     4  10  20  35  55  78 106 138 168 206 261 313
#     4   9  17  32  55  78 101 132 168 209 261 314
#
# _framework density 18.834612
#
# number of rings (size 3 to 8) (size 9 to 14) (size 15 to 20)
#    0.000    2.500    0.000    3.000    0.000    6.500 
#    0.000    1.250    0.000    7.500    0.000    0.000 
#    0.000    0.000    0.000    0.000    0.000    0.000 
#
# Total GULP energy -356856.942079 kJ/mol
# GULP energy per Si atom -5575.889720 kJ/mol
# Density = 1.879174 g / cm^3
# Si number density = 18.834612 Si / 1000 Ang^3
#
#
#
# Elastic Constant Matrix: (Units=GPa)
#
#
# Indices 1 2 3 4 5 6 
#
# 1 94.5544 17.4729 33.7809 0.0000 0.0000 0.0000
# 2 17.4729 28.1213 15.1996 0.0000 0.0000 0.0000
# 3 33.7809 15.1996 41.8845 0.0000 0.0000 0.0000
# 4 0.0000 0.0000 0.0000 14.3487 0.0000 0.0000
# 5 0.0000 0.0000 0.0000 0.0000 35.4840 0.0000
# 6 0.0000 0.0000 0.0000 0.0000 0.0000 -18.0112
#
#
#
# Elastic Compliance Matrix: (Units=1/GPa)
#
#
# Indices 1 2 3 4 5 6 
#
# 1 0.015127 -0.003489 -0.010934 0.000000 0.000000 0.000000
# 2 -0.003489 0.045042 -0.013531 0.000000 0.000000 0.000000
# 3 -0.010934 -0.013531 0.037604 0.000000 0.000000 0.000000
# 4 0.000000 0.000000 0.000000 0.069693 0.000000 0.000000
# 5 0.000000 0.000000 0.000000 0.000000 0.028182 0.000000
# 6 0.000000 0.000000 0.000000 0.000000 0.000000 -0.055521
#
#
# Mechanical properties :
#
#
# Convention : Reuss Voigt Hill
#
# Bulk Modulus (GPa) = 23.88685 33.05188 28.46937
# Shear Modulus (GPa) = 23.81057 12.90474 18.35765
#
# Velocity S-wave (km/s) = 3.55941 2.62040 3.12537
# Velocity P-wave (km/s) = 5.44081 5.17126 5.30775
#
# Compressibility (1/GPa) = 0.04186403
#
# Stress axis : x y z
#
# Youngs Moduli (GPa) = 66.10651 22.20153 26.59268
#
# Poissons Ratio (x) = 0.07746 0.29077
# Poissons Ratio (y) = 0.23066 0.35983
# Poissons Ratio (z) = 0.72282 0.30042
#
# Static dielectric constant tensor:
#      x y z
#    x 1.690550 0.000000 0.000000 
#    y 0.000000 1.634210 0.000000 
#    z 0.000000 0.000000 1.623450 
# 
# From -- ./inp_files/8394.got.cif
#   From: 2010.05.17/outbox.cif.g08.bks.cpg/sg58_5_cif.got.tgz:8394.got - 2010.06.03 14:20:14.
