data_PCOD9442696
_publ_section_title
;
Structure prediction by ZEFSAII (Michael W. Deem and Ramdas Pophale) SiO2 
 PCOD9442696
Probable space group: P N N M
;
_chemical_formula_sum "Si O2"
_cell_formula_units_Z 48
_cell_length_a 9.577573
_cell_length_b 8.913599
_cell_length_c 27.311106
_cell_angle_alpha 90.000000
_cell_angle_beta 90.000000
_cell_angle_gamma 90.000000
_cell_volume 2331.566738
_symmetry_space_group_name_H-M "P N N M"
_symmetry_group_IT_number 58
_symmetry_cell_setting 'orthorhombic'
loop_
_space_group_symop_operation_xyz
x,y,z
-x,-y,z
1/2+x,1/2-y,1/2-z
1/2-x,1/2+y,1/2-z
-x,-y,-z
x,y,-z
1/2-x,1/2+y,1/2+z
1/2+x,1/2-y,1/2+z
loop_
_atom_site_type_symbol
_atom_site_label
_atom_site_fract_x
_atom_site_fract_y
_atom_site_fract_z
Si Si1 0.857763 0.563693 0.265849
Si Si2 0.065939 0.771759 0.851760
Si Si3 0.726037 0.691035 0.944118
Si Si4 0.500000 0.000000 0.421523
Si Si5 0.500000 0.500000 0.886671
Si Si6 0.287245 0.572985 0.640705
Si Si7 0.186934 0.126505 0.300259
O O1 0.822739 0.476619 0.317394
O O2 0.889345 0.738661 0.273135
O O3 0.728385 0.519719 0.230685
O O4 0.000000 0.500000 0.244500
O O5 0.168606 0.713384 0.810595
O O6 0.057304 0.634826 0.888731
O O7 0.912693 0.826764 0.836491
O O8 0.141766 0.916448 0.874948
O O9 0.864308 0.582445 0.944988
O O10 0.596885 0.600791 0.921079
O O11 0.743716 0.829917 0.906299
O O12 0.700961 0.738757 0.000000
O O13 0.395449 0.586030 0.849446
#
# Coordination Sequence:
#
# PCOD9442696 Si02
#       7
#     8   8   8   4   4   8   8
#     4  11  26  40  63  95 131 174 226 270 331 399
#     4   9  19  39  63  93 125 172 210 268 327 392
#     4  11  23  41  69  98 131 176 223 279 339 398
#     4  10  19  38  68  98 126 166 218 274 331 390
#     4  12  25  44  68  96 138 172 227 280 338 398
#     4   9  21  41  64  89 133 170 217 271 328 396
#     4  11  26  39  65  94 128 180 216 270 334 399
#
# _framework density 20.587015000000001
#
# number of rings (size 3 to 8) (size 9 to 14) (size 15 to 20)
#    0.000    1.667    1.667    1.500    8.167    1.333 
#    0.000    7.500    0.000    4.500    0.000    0.000 
#    0.000    0.000    0.000    0.000    0.000    0.000 
#
# Total GULP energy -267554.236412 kJ/mol
# GULP energy per Si atom -5574.046592 kJ/mol
# Density = 2.054016 g / cm^3
# Si number density = 20.587015 Si / 1000 Ang^3
#
#
#
# Elastic Constant Matrix: (Units=GPa)
#
#
# Indices 1 2 3 4 5 6 
#
# 1 63.3245 19.4908 26.5955 0.0000 0.0000 0.0000
# 2 19.4908 79.4368 31.1733 0.0000 0.0000 0.0000
# 3 26.5955 31.1733 84.5201 0.0000 0.0000 0.0000
# 4 0.0000 0.0000 0.0000 19.3857 0.0000 0.0000
# 5 0.0000 0.0000 0.0000 0.0000 0.4295 0.0000
# 6 0.0000 0.0000 0.0000 0.0000 0.0000 27.2981
#
#
#
# Elastic Compliance Matrix: (Units=1/GPa)
#
#
# Indices 1 2 3 4 5 6 
#
# 1 0.018665 -0.002660 -0.004892 0.000000 0.000000 0.000000
# 2 -0.002660 0.015098 -0.004732 0.000000 0.000000 0.000000
# 3 -0.004892 -0.004732 0.015116 0.000000 0.000000 0.000000
# 4 0.000000 0.000000 0.000000 0.051584 0.000000 0.000000
# 5 0.000000 0.000000 0.000000 0.000000 2.328557 0.000000
# 6 0.000000 0.000000 0.000000 0.000000 0.000000 0.036633
#
#
# Mechanical properties :
#
#
# Convention : Reuss Voigt Hill
#
# Bulk Modulus (GPa) = 41.13226 42.42228 41.77727
# Shear Modulus (GPa) = 2.00134 19.42411 10.71273
#
# Velocity S-wave (km/s) = 0.98704 3.07500 2.28362
# Velocity P-wave (km/s) = 4.61758 5.76702 5.22401
#
# Compressibility (1/GPa) = 0.02431182
#
# Stress axis : x y z
#
# Youngs Moduli (GPa) = 53.57623 66.23356 66.15479
#
# Poissons Ratio (x) = 0.17617 0.32364
# Poissons Ratio (y) = 0.14250 0.31302
# Poissons Ratio (z) = 0.26210 0.31339
#
# Static dielectric constant tensor:
#      x y z
#    x 1.803570 0.000000 0.000000 
#    y 0.000000 2.065360 0.000000 
#    z 0.000000 0.000000 1.709470 
# 
# From -- ./inp_files/34647.got.cif
#   From: 2010.05.17/outbox.cif.g08.bks.cpg/sg58_18_cif.got.tgz:34647.got - 2010.06.03 14:20:14.
