data_PCOD9442872
_publ_section_title
;
Structure prediction by ZEFSAII (Michael W. Deem and Ramdas Pophale) SiO2 
 PCOD9442872
Probable space group: P N N M
;
_chemical_formula_sum "Si O2"
_cell_formula_units_Z 56
_cell_length_a 24.596015
_cell_length_b 13.594777
_cell_length_c 8.751928
_cell_angle_alpha 90.000000
_cell_angle_beta 90.000000
_cell_angle_gamma 90.000000
_cell_volume 2926.446396
_symmetry_space_group_name_H-M "P N N M"
_symmetry_group_IT_number 58
_symmetry_cell_setting 'orthorhombic'
loop_
_space_group_symop_operation_xyz
x,y,z
-x,-y,z
1/2+x,1/2-y,1/2-z
1/2-x,1/2+y,1/2-z
-x,-y,-z
x,y,-z
1/2-x,1/2+y,1/2+z
1/2+x,1/2-y,1/2+z
loop_
_atom_site_type_symbol
_atom_site_label
_atom_site_fract_x
_atom_site_fract_y
_atom_site_fract_z
Si Si1 0.551492 0.721614 0.182969
Si Si2 0.129687 0.385252 0.818376
Si Si3 0.943113 0.450551 0.316068
Si Si4 0.271805 0.769506 0.183692
Si Si5 0.935638 0.813407 0.817594
Si Si6 0.160841 0.863811 0.817452
Si Si7 0.664510 0.425598 0.817121
O O1 0.557582 0.836450 0.228582
O O2 0.496884 0.680273 0.259060
O O3 0.604851 0.665160 0.237334
O O4 0.546080 0.716929 0.000000
O O5 0.105800 0.484940 0.749869
O O6 0.187212 0.349889 0.752765
O O7 0.087768 0.295906 0.781481
O O8 0.133283 0.393453 0.000000
O O9 0.941097 0.455680 0.500000
O O10 0.000000 0.500000 0.265620
O O11 0.210037 0.791385 0.227899
O O12 0.294427 0.662343 0.228000
O O13 0.275537 0.776004 0.000000
O O14 0.895001 0.888364 0.734671
O O15 0.932660 0.827401 0.000000
O O16 0.177080 0.972983 0.765784
O O17 0.154046 0.859883 0.000000
O O18 0.666208 0.437709 0.000000
#
# Coordination Sequence:
#
# PCOD9442872 Si02
#       7
#     8   8   8   8   8   8   8
#     4  11  23  38  58  85 118 158 199 243 292 348
#     4  10  20  33  57  89 119 153 196 244 292 344
#     4  10  20  35  56  84 121 160 196 236 289 351
#     4   9  21  41  63  84 114 155 197 239 289 348
#     4  10  20  36  58  87 119 153 194 241 293 348
#     4  11  24  42  61  87 121 154 191 243 297 344
#     4  10  21  40  65  89 115 152 196 240 287 349
#
# _framework density 19.135838
#
# number of rings (size 3 to 8) (size 9 to 14) (size 15 to 20)
#    0.000    1.857    1.429    2.143    0.000    6.000 
#    0.000    5.714    0.000    0.000    0.000    0.000 
#    0.000    0.000    0.000    0.000    0.000    0.000 
#
# Total GULP energy -312917.403919 kJ/mol
# GULP energy per Si atom -5587.810784 kJ/mol
# Density = 1.909228 g / cm^3
# Si number density = 19.135838 Si / 1000 Ang^3
#
#
#
# Elastic Constant Matrix: (Units=GPa)
#
#
# Indices 1 2 3 4 5 6 
#
# 1 90.4027 10.8395 11.7812 0.0000 0.0000 0.0000
# 2 10.8395 56.8963 6.3191 0.0000 0.0000 0.0000
# 3 11.7812 6.3191 19.1210 0.0000 0.0000 0.0000
# 4 0.0000 0.0000 0.0000 27.8623 0.0000 0.0000
# 5 0.0000 0.0000 0.0000 0.0000 23.4255 0.0000
# 6 0.0000 0.0000 0.0000 0.0000 0.0000 19.7382
#
#
#
# Elastic Compliance Matrix: (Units=1/GPa)
#
#
# Indices 1 2 3 4 5 6 
#
# 1 0.012156 -0.001541 -0.006981 0.000000 0.000000 0.000000
# 2 -0.001541 0.018441 -0.005145 0.000000 0.000000 0.000000
# 3 -0.006981 -0.005145 0.058300 0.000000 0.000000 0.000000
# 4 0.000000 0.000000 0.000000 0.035891 0.000000 0.000000
# 5 0.000000 0.000000 0.000000 0.000000 0.042688 0.000000
# 6 0.000000 0.000000 0.000000 0.000000 0.000000 0.050663
#
#
# Mechanical properties :
#
#
# Convention : Reuss Voigt Hill
#
# Bulk Modulus (GPa) = 16.24324 24.92219 20.58272
# Shear Modulus (GPa) = 18.79747 23.37056 21.08401
#
# Velocity S-wave (km/s) = 3.13759 3.49850 3.32295
# Velocity P-wave (km/s) = 4.65111 5.41954 5.04996
#
# Compressibility (1/GPa) = 0.06156406
#
# Stress axis : x y z
#
# Youngs Moduli (GPa) = 82.26354 54.22769 17.15265
#
# Poissons Ratio (x) = 0.08354 0.11974
# Poissons Ratio (y) = 0.12673 0.08825
# Poissons Ratio (z) = 0.57425 0.27901
#
# Static dielectric constant tensor:
#      x y z
#    x 1.645790 0.000000 0.000000 
#    y 0.000000 1.658560 0.000000 
#    z 0.000000 0.000000 1.631730 
# 
# From -- ./inp_files/8964.got.cif
#   From: 2010.05.17/outbox.cif.g08.bks.cpg/sg58_5_cif.got.tgz:8964.got - 2010.06.03 14:20:14.
