data_PCOD9442518
_publ_section_title
;
Structure prediction by ZEFSAII (Michael W. Deem and Ramdas Pophale) SiO2 
 PCOD9442518
Probable space group: P N N M
;
_chemical_formula_sum "Si O2"
_cell_formula_units_Z 48
_cell_length_a 12.451601
_cell_length_b 22.463025
_cell_length_c 7.560779
_cell_angle_alpha 90.000000
_cell_angle_beta 90.000000
_cell_angle_gamma 90.000000
_cell_volume 2114.754608
_symmetry_space_group_name_H-M "P N N M"
_symmetry_group_IT_number 58
_symmetry_cell_setting 'orthorhombic'
loop_
_space_group_symop_operation_xyz
x,y,z
-x,-y,z
1/2+x,1/2-y,1/2-z
1/2-x,1/2+y,1/2-z
-x,-y,-z
x,y,-z
1/2-x,1/2+y,1/2+z
1/2+x,1/2-y,1/2+z
loop_
_atom_site_type_symbol
_atom_site_label
_atom_site_fract_x
_atom_site_fract_y
_atom_site_fract_z
Si Si1 0.867643 0.630932 0.792072
Si Si2 0.755692 0.885143 0.799202
Si Si3 0.015416 0.068347 0.216514
Si Si4 0.429882 0.201236 0.294530
Si Si5 0.859128 0.172634 0.214213
Si Si6 0.628223 0.001010 0.289829
O O1 0.764069 0.671513 0.772249
O O2 0.838241 0.565734 0.719811
O O3 0.974350 0.661283 0.715885
O O4 0.889673 0.619451 0.000000
O O5 0.871624 0.902978 0.724015
O O6 0.681113 0.835272 0.712196
O O7 0.686958 0.945914 0.797835
O O8 0.773213 0.864718 0.000000
O O9 0.920749 0.112964 0.271522
O O10 0.017999 0.067014 0.000000
O O11 0.000000 0.000000 0.274556
O O12 0.459196 0.209764 0.500000
O O13 0.415190 0.267113 0.219684
O O14 0.860250 0.173346 0.000000
O O15 0.650826 0.994789 0.500000
O O16 0.500000 0.000000 0.267196
#
# Coordination Sequence:
#
# PCOD9442518 Si02
#       6
#     8   8   8   8   8   8
#     4  10  21  38  61  84 113 152 192 237 288 344
#     4  11  22  35  60  91 117 149 194 248 288 335
#     4   9  19  37  59  85 117 150 186 236 299 350
#     4  10  22  40  58  81 117 161 194 230 293 357
#     4  10  22  39  61  84 113 156 198 238 289 347
#     4  10  19  36  58  81 115 157 189 226 291 355
#
# _framework density 22.697669000000001
#
# number of rings (size 3 to 8) (size 9 to 14) (size 15 to 20)
#    0.000    2.000    1.667    1.500    2.333    3.667 
#    0.000    1.667    0.000    4.500    0.000    0.000 
#    0.000    0.000    0.000    0.000    0.000    0.000 
#
# Total GULP energy -268190.095173 kJ/mol
# GULP energy per Si atom -5587.293649 kJ/mol
# Density = 2.264601 g / cm^3
# Si number density = 22.697669 Si / 1000 Ang^3
#
#
#
# Elastic Constant Matrix: (Units=GPa)
#
#
# Indices 1 2 3 4 5 6 
#
# 1 99.1166 30.1134 -7.5620 0.0000 0.0000 0.0000
# 2 30.1134 133.0299 -5.2651 0.0000 0.0000 0.0000
# 3 -7.5620 -5.2651 49.1838 0.0000 0.0000 0.0000
# 4 0.0000 0.0000 0.0000 -6.9256 0.0000 0.0000
# 5 0.0000 0.0000 0.0000 0.0000 22.9105 0.0000
# 6 0.0000 0.0000 0.0000 0.0000 0.0000 23.8830
#
#
#
# Elastic Compliance Matrix: (Units=1/GPa)
#
#
# Indices 1 2 3 4 5 6 
#
# 1 0.010932 -0.002418 0.001422 0.000000 0.000000 0.000000
# 2 -0.002418 0.008084 0.000494 0.000000 0.000000 0.000000
# 3 0.001422 0.000494 0.020603 0.000000 0.000000 0.000000
# 4 0.000000 0.000000 0.000000 -0.144392 0.000000 0.000000
# 5 0.000000 0.000000 0.000000 0.000000 0.043648 0.000000
# 6 0.000000 0.000000 0.000000 0.000000 0.000000 0.041871
#
#
# Mechanical properties :
#
#
# Convention : Reuss Voigt Hill
#
# Bulk Modulus (GPa) = 25.89734 35.10032 30.49883
# Shear Modulus (GPa) = -930.06306 25.57652 -452.24327
#
# Velocity S-wave (km/s) = -20.26453 3.36048 -14.13079
# Velocity P-wave (km/s) = 23.15384 5.52765 15.89883
#
# Compressibility (1/GPa) = 0.03861401
#
# Stress axis : x y z
#
# Youngs Moduli (GPa) = 91.47135 123.69971 48.53578
#
# Poissons Ratio (x) = 0.29916 -0.06902
# Poissons Ratio (y) = 0.22122 -0.02396
# Poissons Ratio (z) = -0.13007 -0.06105
#
# Static dielectric constant tensor:
#      x y z
#    x 1.815370 0.000000 0.000000 
#    y 0.000000 1.841160 0.000000 
#    z 0.000000 0.000000 1.876440 
# 
# From -- ./inp_files/4242.got.cif
#   From: 2010.05.17/outbox.cif.g08.bks.cpg/sg58_3_cif.got.tgz:4242.got - 2010.06.03 14:20:14.
