data_PCOD9442102
_publ_section_title
;
Structure prediction by ZEFSAII (Michael W. Deem and Ramdas Pophale) SiO2 
 PCOD9442102
Probable space group: P N N M
;
_chemical_formula_sum "Si O2"
_cell_formula_units_Z 48
_cell_length_a 12.369781
_cell_length_b 10.101287
_cell_length_c 23.554075
_cell_angle_alpha 90.000000
_cell_angle_beta 90.000000
_cell_angle_gamma 90.000000
_cell_volume 2943.098348
_symmetry_space_group_name_H-M "P N N M"
_symmetry_group_IT_number 58
_symmetry_cell_setting 'orthorhombic'
loop_
_space_group_symop_operation_xyz
x,y,z
-x,-y,z
1/2+x,1/2-y,1/2-z
1/2-x,1/2+y,1/2-z
-x,-y,-z
x,y,-z
1/2-x,1/2+y,1/2+z
1/2+x,1/2-y,1/2+z
loop_
_atom_site_type_symbol
_atom_site_label
_atom_site_fract_x
_atom_site_fract_y
_atom_site_fract_z
Si Si1 0.284644 0.222437 0.341117
Si Si2 0.231738 0.037741 0.828049
Si Si3 0.947414 0.363567 0.933529
Si Si4 0.405495 0.607893 0.434516
Si Si5 0.435973 0.134187 0.761785
Si Si6 0.085484 0.114227 0.281108
O O1 0.261130 0.378587 0.333893
O O2 0.342884 0.184766 0.399431
O O3 0.370314 0.183523 0.292678
O O4 0.178098 0.137821 0.327646
O O5 0.185889 0.090274 0.887548
O O6 0.345971 0.100479 0.809472
O O7 0.146644 0.076091 0.777894
O O8 0.000000 0.500000 0.911935
O O9 0.037270 0.249396 0.928722
O O10 0.921192 0.380664 0.000000
O O11 0.500000 0.500000 0.423607
O O12 0.369462 0.590266 0.500000
O O13 0.519857 0.249394 0.776221
O O14 0.500000 0.000000 0.749447
O O15 0.000000 0.000000 0.294381
#
# Coordination Sequence:
#
# PCOD9442102 Si02
#       6
#     8   8   8   8   8   8
#     4  11  21  34  57  80 105 146 179 216 271 322
#     4  11  21  34  56  80 109 141 180 222 262 323
#     4  10  21  36  55  84 113 137 174 226 274 321
#     4  10  19  33  57  82 106 137 174 220 274 320
#     4  11  22  35  51  77 109 141 176 221 267 313
#     4  11  22  36  53  78 111 143 178 220 266 315
#
# _framework density 16.309343999999999
#
# number of rings (size 3 to 8) (size 9 to 14) (size 15 to 20)
#    0.000    1.333    5.000    2.000    0.000    1.333 
#    0.000    0.000    0.000    2.000    0.000    0.000 
#    0.000    0.000    0.000    0.000    0.000    0.000 
#
# Total GULP energy -267919.344160 kJ/mol
# GULP energy per Si atom -5581.653003 kJ/mol
# Density = 1.627222 g / cm^3
# Si number density = 16.309344 Si / 1000 Ang^3
#
#
#
# Elastic Constant Matrix: (Units=GPa)
#
#
# Indices 1 2 3 4 5 6 
#
# 1 52.4339 3.0157 17.3209 0.0000 0.0000 0.0000
# 2 3.0157 84.7123 3.9308 0.0000 0.0000 0.0000
# 3 17.3209 3.9308 58.5194 0.0000 0.0000 0.0000
# 4 0.0000 0.0000 0.0000 14.3148 0.0000 0.0000
# 5 0.0000 0.0000 0.0000 0.0000 11.0346 0.0000
# 6 0.0000 0.0000 0.0000 0.0000 0.0000 32.0295
#
#
#
# Elastic Compliance Matrix: (Units=1/GPa)
#
#
# Indices 1 2 3 4 5 6 
#
# 1 0.021157 -0.000464 -0.006231 0.000000 0.000000 0.000000
# 2 -0.000464 0.011852 -0.000659 0.000000 0.000000 0.000000
# 3 -0.006231 -0.000659 0.018977 0.000000 0.000000 0.000000
# 4 0.000000 0.000000 0.000000 0.069858 0.000000 0.000000
# 5 0.000000 0.000000 0.000000 0.000000 0.090624 0.000000
# 6 0.000000 0.000000 0.000000 0.000000 0.000000 0.031221
#
#
# Mechanical properties :
#
#
# Convention : Reuss Voigt Hill
#
# Bulk Modulus (GPa) = 26.82556 27.13338 26.97947
# Shear Modulus (GPa) = 18.46233 22.90232 20.68232
#
# Velocity S-wave (km/s) = 3.36819 3.75139 3.56494
# Velocity P-wave (km/s) = 5.62227 5.95288 5.78993
#
# Compressibility (1/GPa) = 0.03727788
#
# Stress axis : x y z
#
# Youngs Moduli (GPa) = 47.26656 84.37573 52.69575
#
# Poissons Ratio (x) = 0.03915 0.32834
# Poissons Ratio (y) = 0.02193 0.03471
# Poissons Ratio (z) = 0.29451 0.05558
#
# Static dielectric constant tensor:
#      x y z
#    x 1.530740 0.000000 0.000000 
#    y 0.000000 1.562580 0.000000 
#    z 0.000000 0.000000 1.541250 
# 
# From -- ./inp_files/29519.got.cif
#   From: 2010.05.17/outbox.cif.g08.bks.cpg/sg58_15_cif.got.tgz:29519.got - 2010.06.03 14:20:14.
