data_PCOD9442128
_publ_section_title
;
Structure prediction by ZEFSAII (Michael W. Deem and Ramdas Pophale) SiO2 
 PCOD9442128
Probable space group: P N N M
;
_chemical_formula_sum "Si O2"
_cell_formula_units_Z 32
_cell_length_a 7.479170
_cell_length_b 18.492986
_cell_length_c 13.367985
_cell_angle_alpha 90.000000
_cell_angle_beta 90.000000
_cell_angle_gamma 90.000000
_cell_volume 1848.955229
_symmetry_space_group_name_H-M "P N N M"
_symmetry_group_IT_number 58
_symmetry_cell_setting 'orthorhombic'
loop_
_space_group_symop_operation_xyz
x,y,z
-x,-y,z
1/2+x,1/2-y,1/2-z
1/2-x,1/2+y,1/2-z
-x,-y,-z
x,y,-z
1/2-x,1/2+y,1/2+z
1/2+x,1/2-y,1/2+z
loop_
_atom_site_type_symbol
_atom_site_label
_atom_site_fract_x
_atom_site_fract_y
_atom_site_fract_z
Si Si1 0.517513 0.244989 0.119614
Si Si2 0.316284 0.369204 0.381118
Si Si3 0.292506 0.023510 0.882488
Si Si4 0.179099 0.172501 0.209847
O O1 0.636380 0.173880 0.143748
O O2 0.322194 0.229132 0.165296
O O3 0.623907 0.308370 0.176880
O O4 0.508556 0.253945 0.000000
O O5 0.318907 0.374544 0.500000
O O6 0.312617 0.452216 0.346167
O O7 0.489285 0.326135 0.346521
O O8 0.255082 0.093166 0.815475
O O9 0.500000 0.000000 0.881846
O O10 0.247378 0.040426 0.000000
#
# Coordination Sequence:
#
# PCOD9442128 Si02
#       4
#     8   8   8   8
#     4  11  23  37  56  86 117 149 194 234 276 347
#     4  10  20  35  57  87 115 144 188 239 290 340
#     4  10  19  33  58  89 117 144 186 245 297 343
#     4  12  21  37  58  83 116 155 186 231 296 340
#
# _framework density 17.307072000000002
#
# number of rings (size 3 to 8) (size 9 to 14) (size 15 to 20)
#    0.000    1.250    5.000    3.000    0.000    2.000 
#    0.000    0.000    0.000    3.750    0.000    0.000 
#    0.000    0.000    0.000    0.000    0.000    0.000 
#
# Total GULP energy -178424.920507 kJ/mol
# GULP energy per Si atom -5575.778766 kJ/mol
# Density = 1.726768 g / cm^3
# Si number density = 17.307072 Si / 1000 Ang^3
#
#
#
# Elastic Constant Matrix: (Units=GPa)
#
#
# Indices 1 2 3 4 5 6 
#
# 1 103.5474 23.3593 36.3526 0.0000 0.0000 0.0000
# 2 23.3593 76.1726 51.8152 0.0000 0.0000 0.0000
# 3 36.3526 51.8152 65.2523 0.0000 0.0000 0.0000
# 4 0.0000 0.0000 0.0000 27.7056 0.0000 0.0000
# 5 0.0000 0.0000 0.0000 0.0000 23.2954 0.0000
# 6 0.0000 0.0000 0.0000 0.0000 0.0000 30.0260
#
#
#
# Elastic Compliance Matrix: (Units=1/GPa)
#
#
# Indices 1 2 3 4 5 6 
#
# 1 0.012132 0.001907 -0.008273 0.000000 0.000000 0.000000
# 2 0.001907 0.028849 -0.023971 0.000000 0.000000 0.000000
# 3 -0.008273 -0.023971 0.038969 0.000000 0.000000 0.000000
# 4 0.000000 0.000000 0.000000 0.036094 0.000000 0.000000
# 5 0.000000 0.000000 0.000000 0.000000 0.042927 0.000000
# 6 0.000000 0.000000 0.000000 0.000000 0.000000 0.033304
#
#
# Mechanical properties :
#
#
# Convention : Reuss Voigt Hill
#
# Bulk Modulus (GPa) = 51.87780 52.00293 51.94036
# Shear Modulus (GPa) = 19.27724 25.10176 22.18950
#
# Velocity S-wave (km/s) = 3.34104 3.81251 3.58453
# Velocity P-wave (km/s) = 6.70249 7.03511 6.87081
#
# Compressibility (1/GPa) = 0.01927607
#
# Stress axis : x y z
#
# Youngs Moduli (GPa) = 82.42916 34.66334 25.66149
#
# Poissons Ratio (x) = -0.06612 0.21231
# Poissons Ratio (y) = -0.15723 0.61513
# Poissons Ratio (z) = 0.68196 0.83091
#
# Static dielectric constant tensor:
#      x y z
#    x 1.634010 0.000000 0.000000 
#    y 0.000000 1.636240 0.000000 
#    z 0.000000 0.000000 1.567200 
# 
# From -- ./inp_files/3596.got.cif
#   From: 2010.05.17/outbox.cif.g08.bks.cpg/sg58_2_cif.got.tgz:3596.got - 2010.06.03 14:20:14.
