data_PCOD9442140
_publ_section_title
;
Structure prediction by ZEFSAII (Michael W. Deem and Ramdas Pophale) SiO2 
 PCOD9442140
Probable space group: P N N M
;
_chemical_formula_sum "Si O2"
_cell_formula_units_Z 40
_cell_length_a 19.718298
_cell_length_b 8.857371
_cell_length_c 10.965740
_cell_angle_alpha 90.000000
_cell_angle_beta 90.000000
_cell_angle_gamma 90.000000
_cell_volume 1915.191502
_symmetry_space_group_name_H-M "P N N M"
_symmetry_group_IT_number 58
_symmetry_cell_setting 'orthorhombic'
loop_
_space_group_symop_operation_xyz
x,y,z
-x,-y,z
1/2+x,1/2-y,1/2-z
1/2-x,1/2+y,1/2-z
-x,-y,-z
x,y,-z
1/2-x,1/2+y,1/2+z
1/2+x,1/2-y,1/2+z
loop_
_atom_site_type_symbol
_atom_site_label
_atom_site_fract_x
_atom_site_fract_y
_atom_site_fract_z
Si Si1 0.096771 0.494968 0.000000
Si Si2 0.308539 0.442953 0.500000
Si Si3 0.448987 0.354468 0.138899
Si Si4 0.450111 0.769986 0.295959
Si Si5 0.254560 0.099826 0.500000
Si Si6 0.958079 0.165102 0.000000
Si Si7 0.667391 0.456818 0.241786
O O1 0.069992 0.409795 0.879997
O O2 0.177472 0.500689 0.000000
O O3 0.070335 0.664373 0.000000
O O4 0.276742 0.275987 0.500000
O O5 0.391005 0.433972 0.500000
O O6 0.293578 0.521492 0.370031
O O7 0.500000 0.500000 0.138974
O O8 0.494895 0.217266 0.188527
O O9 0.383164 0.400562 0.217431
O O10 0.427562 0.329839 0.000000
O O11 0.492265 0.658887 0.385387
O O12 0.382315 0.687050 0.252851
O O13 0.213067 0.064414 0.377269
#
# Coordination Sequence:
#
# PCOD9442140 Si02
#       7
#     4   4   8   8   4   4   8
#     4  10  23  40  59  86 126 173 206 245 311 393
#     4  11  23  40  64  91 122 160 215 266 296 371
#     4   9  17  31  55  92 122 144 184 255 323 358
#     4  10  19  33  64  91 116 151 203 260 316 353
#     4  11  27  43  58  86 131 182 203 243 320 386
#     4  10  19  37  61  93 119 151 198 262 316 364
#     4  11  22  39  62  91 126 160 210 264 309 375
#
# _framework density 20.885639999999999
#
# number of rings (size 3 to 8) (size 9 to 14) (size 15 to 20)
#    0.000    1.800    3.000    2.400    4.200    0.800 
#    0.000    0.000    0.000    2.400    0.000    0.000 
#    0.000    0.000    0.000    0.000    0.000    0.000 
#
# Total GULP energy -223284.612736 kJ/mol
# GULP energy per Si atom -5582.115318 kJ/mol
# Density = 2.083810 g / cm^3
# Si number density = 20.885640 Si / 1000 Ang^3
#
#
#
# Elastic Constant Matrix: (Units=GPa)
#
#
# Indices 1 2 3 4 5 6 
#
# 1 96.8323 23.8552 47.0245 0.0000 0.0000 0.0000
# 2 23.8552 57.9741 21.6643 0.0000 0.0000 0.0000
# 3 47.0245 21.6643 158.5932 0.0000 0.0000 0.0000
# 4 0.0000 0.0000 0.0000 6.0949 0.0000 0.0000
# 5 0.0000 0.0000 0.0000 0.0000 13.9860 0.0000
# 6 0.0000 0.0000 0.0000 0.0000 0.0000 26.2625
#
#
#
# Elastic Compliance Matrix: (Units=1/GPa)
#
#
# Indices 1 2 3 4 5 6 
#
# 1 0.012926 -0.004096 -0.003273 0.000000 0.000000 0.000000
# 2 -0.004096 0.019475 -0.001446 0.000000 0.000000 0.000000
# 3 -0.003273 -0.001446 0.007473 0.000000 0.000000 0.000000
# 4 0.000000 0.000000 0.000000 0.164071 0.000000 0.000000
# 5 0.000000 0.000000 0.000000 0.000000 0.071500 0.000000
# 6 0.000000 0.000000 0.000000 0.000000 0.000000 0.038077
#
#
# Mechanical properties :
#
#
# Convention : Reuss Voigt Hill
#
# Bulk Modulus (GPa) = 44.95471 55.38750 50.17111
# Shear Modulus (GPa) = 14.76819 23.99238 19.38029
#
# Velocity S-wave (km/s) = 2.66202 3.39300 3.04949
# Velocity P-wave (km/s) = 5.56950 6.47510 6.03930
#
# Compressibility (1/GPa) = 0.02224461
#
# Stress axis : x y z
#
# Youngs Moduli (GPa) = 77.36581 51.34880 133.80657
#
# Poissons Ratio (x) = 0.21030 0.43796
# Poissons Ratio (y) = 0.31685 0.19348
# Poissons Ratio (z) = 0.25323 0.07425
#
# Static dielectric constant tensor:
#      x y z
#    x 1.732050 0.000000 0.000000 
#    y 0.000000 1.768820 0.000000 
#    z 0.000000 0.000000 1.844180 
# 
# From -- ./inp_files/16919.got.cif
#   From: 2010.05.17/outbox.cif.g08.bks.cpg/sg58_9_cif.got.tgz:16919.got - 2010.06.03 14:20:14.
