data_PCOD9442582
_publ_section_title
;
Structure prediction by ZEFSAII (Michael W. Deem and Ramdas Pophale) SiO2 
 PCOD9442582
Probable space group: P N N M
;
_chemical_formula_sum "Si O2"
_cell_formula_units_Z 64
_cell_length_a 11.474460
_cell_length_b 29.488360
_cell_length_c 8.607395
_cell_angle_alpha 90.000000
_cell_angle_beta 90.000000
_cell_angle_gamma 90.000000
_cell_volume 2912.424057
_symmetry_space_group_name_H-M "P N N M"
_symmetry_group_IT_number 58
_symmetry_cell_setting 'orthorhombic'
loop_
_space_group_symop_operation_xyz
x,y,z
-x,-y,z
1/2+x,1/2-y,1/2-z
1/2-x,1/2+y,1/2-z
-x,-y,-z
x,y,-z
1/2-x,1/2+y,1/2+z
1/2+x,1/2-y,1/2+z
loop_
_atom_site_type_symbol
_atom_site_label
_atom_site_fract_x
_atom_site_fract_y
_atom_site_fract_z
Si Si1 0.457278 0.065870 0.319951
Si Si2 0.608900 0.404046 0.817719
Si Si3 0.384750 0.773907 0.317388
Si Si4 0.629617 0.130745 0.177712
Si Si5 0.371463 0.246749 0.821166
Si Si6 0.244560 0.511896 0.314139
Si Si7 0.636423 0.582361 0.681237
Si Si8 0.198205 0.642347 0.677039
O O1 0.486107 0.060846 0.500000
O O2 0.566553 0.083619 0.221821
O O3 0.380431 0.023789 0.260650
O O4 0.371328 0.109002 0.290694
O O5 0.668416 0.448375 0.741058
O O6 0.473296 0.406203 0.784246
O O7 0.669090 0.361653 0.732260
O O8 0.633193 0.403411 0.000000
O O9 0.379298 0.764048 0.500000
O O10 0.404091 0.827426 0.285599
O O11 0.499438 0.747986 0.252310
O O12 0.252717 0.764842 0.252914
O O13 0.766030 0.120882 0.188638
O O14 0.598312 0.142343 0.000000
O O15 0.348511 0.192735 0.819951
O O16 0.378923 0.262755 0.000000
O O17 0.232067 0.512327 0.500000
O O18 0.303288 0.464630 0.268823
O O19 0.600387 0.577089 0.500000
O O20 0.187397 0.624904 0.500000
#
# Coordination Sequence:
#
# PCOD9442582 Si02
#       8
#     8   8   8   8   8   8   8   8
#     4  11  21  35  58  88 118 150 193 245 297 353
#     4  11  22  35  56  87 122 156 195 249 308 360
#     4  11  24  42  66  97 129 163 206 258 314 374
#     4  11  23  41  62  84 116 159 201 247 302 362
#     4  10  23  42  65  94 127 164 206 254 309 374
#     4  10  20  37  60  84 113 155 204 251 296 357
#     4  10  23  40  58  81 114 159 207 248 297 360
#     4  10  19  36  62  86 114 155 201 240 285 357
#
# _framework density 21.974823000000001
#
# number of rings (size 3 to 8) (size 9 to 14) (size 15 to 20)
#    0.000    1.500    1.250    5.625    0.000    6.500 
#    0.000    6.250    0.000    0.000    0.000    0.000 
#    0.000    0.000    0.000    0.000    0.000    0.000 
#
# Total GULP energy -357511.798513 kJ/mol
# GULP energy per Si atom -5586.121852 kJ/mol
# Density = 2.192481 g / cm^3
# Si number density = 21.974823 Si / 1000 Ang^3
#
#
#
# Elastic Constant Matrix: (Units=GPa)
#
#
# Indices 1 2 3 4 5 6 
#
# 1 129.7391 6.6769 36.2277 0.0000 0.0000 0.0000
# 2 6.6769 20.5278 -6.4951 0.0000 0.0000 0.0000
# 3 36.2277 -6.4951 53.0491 0.0000 0.0000 0.0000
# 4 0.0000 0.0000 0.0000 8.3342 0.0000 0.0000
# 5 0.0000 0.0000 0.0000 0.0000 31.9844 0.0000
# 6 0.0000 0.0000 0.0000 0.0000 0.0000 22.5592
#
#
#
# Elastic Compliance Matrix: (Units=1/GPa)
#
#
# Indices 1 2 3 4 5 6 
#
# 1 0.010128 -0.005703 -0.007614 0.000000 0.000000 0.000000
# 2 -0.005703 0.053889 0.010493 0.000000 0.000000 0.000000
# 3 -0.007614 0.010493 0.025335 0.000000 0.000000 0.000000
# 4 0.000000 0.000000 0.000000 0.119987 0.000000 0.000000
# 5 0.000000 0.000000 0.000000 0.000000 0.031265 0.000000
# 6 0.000000 0.000000 0.000000 0.000000 0.000000 0.044328
#
#
# Mechanical properties :
#
#
# Convention : Reuss Voigt Hill
#
# Bulk Modulus (GPa) = 11.94712 30.68167 21.31440
# Shear Modulus (GPa) = 15.69943 23.70267 19.70105
#
# Velocity S-wave (km/s) = 2.67578 3.28781 2.99746
# Velocity P-wave (km/s) = 3.87233 5.32968 4.65835
#
# Compressibility (1/GPa) = 0.08370215
#
# Stress axis : x y z
#
# Youngs Moduli (GPa) = 98.74088 18.55650 39.47090
#
# Poissons Ratio (x) = 0.10583 0.30055
# Poissons Ratio (y) = 0.56315 -0.41416
# Poissons Ratio (z) = 0.75186 -0.19471
#
# Static dielectric constant tensor:
#      x y z
#    x 1.879880 0.000000 0.000000 
#    y 0.000000 1.805450 0.000000 
#    z 0.000000 0.000000 1.760300 
# 
# From -- ./inp_files/4647.got.cif
#   From: 2010.05.17/outbox.cif.g08.bks.cpg/sg58_3_cif.got.tgz:4647.got - 2010.06.03 14:20:14.
