data_PCOD9442162
_publ_section_title
;
Structure prediction by ZEFSAII (Michael W. Deem and Ramdas Pophale) SiO2 
 PCOD9442162
Probable space group: P N N M
;
_chemical_formula_sum "Si O2"
_cell_formula_units_Z 48
_cell_length_a 9.485233
_cell_length_b 17.930120
_cell_length_c 14.722180
_cell_angle_alpha 90.000000
_cell_angle_beta 90.000000
_cell_angle_gamma 90.000000
_cell_volume 2503.821262
_symmetry_space_group_name_H-M "P N N M"
_symmetry_group_IT_number 58
_symmetry_cell_setting 'orthorhombic'
loop_
_space_group_symop_operation_xyz
x,y,z
-x,-y,z
1/2+x,1/2-y,1/2-z
1/2-x,1/2+y,1/2-z
-x,-y,-z
x,y,-z
1/2-x,1/2+y,1/2+z
1/2+x,1/2-y,1/2+z
loop_
_atom_site_type_symbol
_atom_site_label
_atom_site_fract_x
_atom_site_fract_y
_atom_site_fract_z
Si Si1 0.664864 0.428656 0.099692
Si Si2 0.006481 0.084096 0.214160
Si Si3 0.195854 0.728005 0.896599
Si Si4 0.877599 0.560787 0.101826
Si Si5 0.226514 0.326474 0.760012
Si Si6 0.374802 0.716293 0.393439
O O1 0.564643 0.419980 0.184114
O O2 0.776339 0.360456 0.108055
O O3 0.738814 0.508919 0.103797
O O4 0.597880 0.420312 0.000000
O O5 0.106494 0.136035 0.153247
O O6 0.856384 0.124076 0.225231
O O7 0.000000 0.000000 0.177878
O O8 0.297025 0.772414 0.826709
O O9 0.031117 0.746532 0.879144
O O10 0.225279 0.751848 0.000000
O O11 0.875015 0.614787 0.188562
O O12 0.000000 0.500000 0.106727
O O13 0.885671 0.597113 0.000000
O O14 0.241010 0.265778 0.841107
O O15 0.348255 0.711378 0.500000
#
# Coordination Sequence:
#
# PCOD9442162 Si02
#       6
#     8   8   8   8   8   8
#     4  10  19  34  54  78 114 146 178 224 280 339
#     4  11  22  37  55  84 118 149 183 227 290 342
#     4   9  19  36  57  80 108 145 184 228 277 330
#     4  10  20  33  54  83 110 143 186 233 281 328
#     4  11  20  34  59  80 111 145 184 233 276 337
#     4  10  21  37  58  83 109 144 194 236 272 325
#
# _framework density 19.170697000000001
#
# number of rings (size 3 to 8) (size 9 to 14) (size 15 to 20)
#    0.000    1.833    3.333    1.500    0.000    4.667 
#    0.000    0.000    0.000    0.500    0.000    0.000 
#    0.000    0.000    0.000    0.000    0.000    0.000 
#
# Total GULP energy -267401.272381 kJ/mol
# GULP energy per Si atom -5570.859841 kJ/mol
# Density = 1.912706 g / cm^3
# Si number density = 19.170697 Si / 1000 Ang^3
#
#
#
# Elastic Constant Matrix: (Units=GPa)
#
#
# Indices 1 2 3 4 5 6 
#
# 1 9.6741 9.1531 3.5793 0.0000 0.0000 0.0000
# 2 9.1531 106.6200 38.8511 0.0000 0.0000 0.0000
# 3 3.5793 38.8511 94.9946 0.0000 0.0000 0.0000
# 4 0.0000 0.0000 0.0000 20.1871 0.0000 0.0000
# 5 0.0000 0.0000 0.0000 0.0000 17.0649 0.0000
# 6 0.0000 0.0000 0.0000 0.0000 0.0000 30.6449
#
#
#
# Elastic Compliance Matrix: (Units=1/GPa)
#
#
# Indices 1 2 3 4 5 6 
#
# 1 0.112516 -0.009535 -0.000340 0.000000 0.000000 0.000000
# 2 -0.009535 0.011830 -0.004479 0.000000 0.000000 0.000000
# 3 -0.000340 -0.004479 0.012371 0.000000 0.000000 0.000000
# 4 0.000000 0.000000 0.000000 0.049537 0.000000 0.000000
# 5 0.000000 0.000000 0.000000 0.000000 0.058600 0.000000
# 6 0.000000 0.000000 0.000000 0.000000 0.000000 0.032632
#
#
# Mechanical properties :
#
#
# Convention : Reuss Voigt Hill
#
# Bulk Modulus (GPa) = 9.25846 34.93952 22.09899
# Shear Modulus (GPa) = 14.61149 24.22640 19.41895
#
# Velocity S-wave (km/s) = 2.76375 3.55874 3.18614
# Velocity P-wave (km/s) = 3.87613 5.92885 5.00877
#
# Compressibility (1/GPa) = 0.10800935
#
# Stress axis : x y z
#
# Youngs Moduli (GPa) = 8.88762 84.53263 80.83103
#
# Poissons Ratio (x) = 0.80606 0.02745
# Poissons Ratio (y) = 0.08475 0.36203
# Poissons Ratio (z) = 0.00302 0.37861
#
# Static dielectric constant tensor:
#      x y z
#    x 1.724270 0.000000 0.000000 
#    y 0.000000 1.715230 0.000000 
#    z 0.000000 0.000000 1.653650 
# 
# From -- ./inp_files/14395.got.cif
#   From: 2010.05.17/outbox.cif.g08.bks.cpg/sg58_8_cif.got.tgz:14395.got - 2010.06.03 14:20:14.
