data_PCOD9442389
_publ_section_title
;
Structure prediction by ZEFSAII (Michael W. Deem and Ramdas Pophale) SiO2 
 PCOD9442389
Probable space group: P N N M
;
_chemical_formula_sum "Si O2"
_cell_formula_units_Z 48
_cell_length_a 29.171395
_cell_length_b 10.449363
_cell_length_c 7.558682
_cell_angle_alpha 90.000000
_cell_angle_beta 90.000000
_cell_angle_gamma 90.000000
_cell_volume 2304.056310
_symmetry_space_group_name_H-M "P N N M"
_symmetry_group_IT_number 58
_symmetry_cell_setting 'orthorhombic'
loop_
_space_group_symop_operation_xyz
x,y,z
-x,-y,z
1/2+x,1/2-y,1/2-z
1/2-x,1/2+y,1/2-z
-x,-y,-z
x,y,-z
1/2-x,1/2+y,1/2+z
1/2+x,1/2-y,1/2+z
loop_
_atom_site_type_symbol
_atom_site_label
_atom_site_fract_x
_atom_site_fract_y
_atom_site_fract_z
Si Si1 0.348980 0.267750 0.294497
Si Si2 0.696317 0.467144 0.715430
Si Si3 0.199978 0.511410 0.296425
Si Si4 0.139211 0.284418 0.293826
Si Si5 0.053496 0.857874 0.286433
Si Si6 0.549349 0.346345 0.783674
O O1 0.336402 0.258436 0.500000
O O2 0.328718 0.402361 0.227522
O O3 0.326654 0.144981 0.205968
O O4 0.403680 0.276154 0.277050
O O5 0.694709 0.459869 0.500000
O O6 0.748985 0.471479 0.777404
O O7 0.669938 0.342962 0.783470
O O8 0.207993 0.471213 0.500000
O O9 0.168041 0.401428 0.214219
O O10 0.130882 0.316821 0.500000
O O11 0.089555 0.245979 0.218808
O O12 0.054290 0.856727 0.500000
O O13 0.002658 0.815086 0.230110
O O14 0.059141 0.006480 0.230094
O O15 0.550207 0.346424 0.000000
#
# Coordination Sequence:
#
# PCOD9442389 Si02
#       6
#     8   8   8   8   8   8
#     4  11  22  36  54  80 111 141 175 216 265 319
#     4  10  21  36  53  77 106 137 176 219 261 312
#     4  10  22  37  53  75 106 141 177 216 261 314
#     4  10  19  35  58  81 104 137 179 222 265 309
#     4   9  16  31  55  81 106 135 175 222 265 310
#     4   8  15  29  54  83 105 131 176 225 263 306
#
# _framework density 20.832825
#
# number of rings (size 3 to 8) (size 9 to 14) (size 15 to 20)
#    0.000    2.333    1.667    2.500    0.000    3.333 
#    0.000    3.333    0.000    5.000    0.000    0.000 
#    0.000    0.000    0.000    0.000    0.000    0.000 
#
# Total GULP energy -267978.377718 kJ/mol
# GULP energy per Si atom -5582.882869 kJ/mol
# Density = 2.078541 g / cm^3
# Si number density = 20.832825 Si / 1000 Ang^3
#
#
#
# Elastic Constant Matrix: (Units=GPa)
#
#
# Indices 1 2 3 4 5 6 
#
# 1 156.9222 42.5119 -13.6657 0.0000 0.0000 0.0000
# 2 42.5119 80.9881 -13.6743 0.0000 0.0000 0.0000
# 3 -13.6657 -13.6743 47.5332 0.0000 0.0000 0.0000
# 4 0.0000 0.0000 0.0000 -402.8639 0.0000 0.0000
# 5 0.0000 0.0000 0.0000 0.0000 21.8515 0.0000
# 6 0.0000 0.0000 0.0000 0.0000 0.0000 -3.2333
#
#
#
# Elastic Compliance Matrix: (Units=1/GPa)
#
#
# Indices 1 2 3 4 5 6 
#
# 1 0.007481 -0.003746 0.001073 0.000000 0.000000 0.000000
# 2 -0.003746 0.014853 0.003196 0.000000 0.000000 0.000000
# 3 0.001073 0.003196 0.022266 0.000000 0.000000 0.000000
# 4 0.000000 0.000000 0.000000 -0.002482 0.000000 0.000000
# 5 0.000000 0.000000 0.000000 0.000000 0.045763 0.000000
# 6 0.000000 0.000000 0.000000 0.000000 0.000000 -0.309279
#
#
# Mechanical properties :
#
#
# Convention : Reuss Voigt Hill
#
# Bulk Modulus (GPa) = 21.90704 35.08746 28.49725
# Shear Modulus (GPa) = -24.12786 -58.83104 -41.47945
#
# Velocity S-wave (km/s) = -3.40688 -5.31986 -4.46697
# Velocity P-wave (km/s) = 2.22200 4.56679 3.59116
#
# Compressibility (1/GPa) = 0.04564743
#
# Stress axis : x y z
#
# Youngs Moduli (GPa) = 133.67638 67.32543 44.91165
#
# Poissons Ratio (x) = 0.25217 -0.04820
# Poissons Ratio (y) = 0.50069 -0.14354
# Poissons Ratio (z) = -0.14346 -0.21518
#
# Static dielectric constant tensor:
#      x y z
#    x 1.752990 0.000000 0.000000 
#    y 0.000000 1.699570 0.000000 
#    z 0.000000 0.000000 1.788040 
# 
# From -- ./inp_files/2926.got.cif
#   From: 2010.05.17/outbox.cif.g08.bks.cpg/sg58_2_cif.got.tgz:2926.got - 2010.06.03 14:20:14.
