data_PCOD9442745
_publ_section_title
;
Structure prediction by ZEFSAII (Michael W. Deem and Ramdas Pophale) SiO2 
 PCOD9442745
Probable space group: P N N M
;
_chemical_formula_sum "Si O2"
_cell_formula_units_Z 36
_cell_length_a 11.430021
_cell_length_b 5.041705
_cell_length_c 24.343245
_cell_angle_alpha 90.000000
_cell_angle_beta 90.000000
_cell_angle_gamma 90.000000
_cell_volume 1402.823166
_symmetry_space_group_name_H-M "P N N M"
_symmetry_group_IT_number 58
_symmetry_cell_setting 'orthorhombic'
loop_
_space_group_symop_operation_xyz
x,y,z
-x,-y,z
1/2+x,1/2-y,1/2-z
1/2-x,1/2+y,1/2-z
-x,-y,-z
x,y,-z
1/2-x,1/2+y,1/2+z
1/2+x,1/2-y,1/2+z
loop_
_atom_site_type_symbol
_atom_site_label
_atom_site_fract_x
_atom_site_fract_y
_atom_site_fract_z
Si Si1 0.572550 0.765029 0.153929
Si Si2 0.323688 0.976166 0.741012
Si Si3 0.587982 0.248261 0.000000
Si Si4 0.327782 0.254447 0.440148
Si Si5 0.160115 0.257726 0.875125
O O1 0.500000 0.500000 0.153030
O O2 0.599131 0.862630 0.215955
O O3 0.699021 0.731908 0.128480
O O4 0.500000 0.000000 0.126866
O O5 0.228636 0.212179 0.728750
O O6 0.376836 0.859613 0.685015
O O7 0.500000 0.500000 0.000000
O O8 0.500000 0.000000 0.000000
O O9 0.685778 0.249120 0.950623
O O10 0.373949 0.331914 0.500000
O O11 0.365535 0.460754 0.393539
O O12 0.369443 0.966887 0.421802
#
# Coordination Sequence:
#
# PCOD9442745 Si02
#       5
#     8   8   4   8   8
#     4  11  22  34  52  79 107 134 174 220 261 322
#     4  10  20  36  55  75 103 137 175 219 273 314
#     4  10  20  32  44  62  98 138 166 210 258 278
#     4  10  22  33  49  71 100 135 184 224 238 294
#     4  11  20  36  53  73 102 144 178 214 259 314
#
# _framework density 25.662537
#
# number of rings (size 3 to 8) (size 9 to 14) (size 15 to 20)
#    0.667    0.889    0.000    8.667    0.000    5.333 
#    0.000    0.000    0.000    0.000    0.000    0.000 
#    0.000   17.778    0.000    0.000    0.000    0.000 
#
# Total GULP energy -201334.827563 kJ/mol
# GULP energy per Si atom -5592.634099 kJ/mol
# Density = 2.560413 g / cm^3
# Si number density = 25.662537 Si / 1000 Ang^3
#
#
#
# Elastic Constant Matrix: (Units=GPa)
#
#
# Indices 1 2 3 4 5 6 
#
# 1 99.2936 2.3822 -7.7971 0.0000 0.0000 0.0000
# 2 2.3822 142.0646 10.9296 0.0000 0.0000 0.0000
# 3 -7.7971 10.9296 95.6405 0.0000 0.0000 0.0000
# 4 0.0000 0.0000 0.0000 40.5395 0.0000 0.0000
# 5 0.0000 0.0000 0.0000 0.0000 21.5172 0.0000
# 6 0.0000 0.0000 0.0000 0.0000 0.0000 -6.5293
#
#
#
# Elastic Compliance Matrix: (Units=1/GPa)
#
#
# Indices 1 2 3 4 5 6 
#
# 1 0.010144 -0.000236 0.000854 0.000000 0.000000 0.000000
# 2 -0.000236 0.007107 -0.000831 0.000000 0.000000 0.000000
# 3 0.000854 -0.000831 0.010620 0.000000 0.000000 0.000000
# 4 0.000000 0.000000 0.000000 0.024667 0.000000 0.000000
# 5 0.000000 0.000000 0.000000 0.000000 0.046474 0.000000
# 6 0.000000 0.000000 0.000000 0.000000 0.000000 -0.153155
#
#
# Mechanical properties :
#
#
# Convention : Reuss Voigt Hill
#
# Bulk Modulus (GPa) = 36.43685 38.66979 37.55332
# Shear Modulus (GPa) = -112.18940 33.20442 -39.49249
#
# Velocity S-wave (km/s) = -6.61907 3.60097 -3.92716
# Velocity P-wave (km/s) = 6.64732 5.69127 2.42861
#
# Compressibility (1/GPa) = 0.02744475
#
# Stress axis : x y z
#
# Youngs Moduli (GPa) = 98.58184 140.70696 94.15803
#
# Poissons Ratio (x) = 0.03318 -0.08040
# Poissons Ratio (y) = 0.02325 0.07828
# Poissons Ratio (z) = -0.08418 0.11698
#
# Static dielectric constant tensor:
#      x y z
#    x 2.323810 0.000000 0.000000 
#    y 0.000000 1.950420 0.000000 
#    z 0.000000 0.000000 2.039840 
# 
# From -- ./inp_files/31797.got.cif
#   From: 2010.05.17/outbox.cif.g08.bks.cpg/sg58_16_cif.got.tgz:31797.got - 2010.06.03 14:20:14.
