data_PCOD9442424
_publ_section_title
;
Structure prediction by ZEFSAII (Michael W. Deem and Ramdas Pophale) SiO2 
 PCOD9442424
Probable space group: P N N M
;
_chemical_formula_sum "Si O2"
_cell_formula_units_Z 64
_cell_length_a 14.485348
_cell_length_b 24.860148
_cell_length_c 8.501776
_cell_angle_alpha 90.000000
_cell_angle_beta 90.000000
_cell_angle_gamma 90.000000
_cell_volume 3061.556660
_symmetry_space_group_name_H-M "P N N M"
_symmetry_group_IT_number 58
_symmetry_cell_setting 'orthorhombic'
loop_
_space_group_symop_operation_xyz
x,y,z
-x,-y,z
1/2+x,1/2-y,1/2-z
1/2-x,1/2+y,1/2-z
-x,-y,-z
x,y,-z
1/2-x,1/2+y,1/2+z
1/2+x,1/2-y,1/2+z
loop_
_atom_site_type_symbol
_atom_site_label
_atom_site_fract_x
_atom_site_fract_y
_atom_site_fract_z
Si Si1 0.676812 0.102520 0.312799
Si Si2 0.320954 0.315408 0.179803
Si Si3 0.189117 0.988307 0.813601
Si Si4 0.962784 0.083144 0.321962
Si Si5 0.777099 0.399776 0.307449
Si Si6 0.025976 0.744706 0.813593
Si Si7 0.018478 0.626085 0.686239
Si Si8 0.606975 0.339401 0.686768
O O1 0.691281 0.096785 0.500000
O O2 0.722737 0.160357 0.268687
O O3 0.733659 0.056370 0.225352
O O4 0.569991 0.101240 0.270728
O O5 0.387036 0.368274 0.178723
O O6 0.374580 0.272295 0.283358
O O7 0.313772 0.295242 0.000000
O O8 0.093930 0.968059 0.737577
O O9 0.229123 0.044909 0.756915
O O10 0.175047 0.991030 0.000000
O O11 0.994601 0.075446 0.500000
O O12 0.045444 0.107443 0.219929
O O13 0.778223 0.399156 0.500000
O O14 0.882484 0.395361 0.256231
O O15 0.709903 0.351401 0.254546
O O16 0.018540 0.689468 0.721717
O O17 0.949672 0.787918 0.753766
O O18 0.013004 0.735480 0.000000
O O19 0.010661 0.616289 0.500000
O O20 0.611843 0.332351 0.500000
#
# Coordination Sequence:
#
# PCOD9442424 Si02
#       8
#     8   8   8   8   8   8   8   8
#     4  10  21  38  58  82 111 142 182 231 281 329
#     4   8  16  32  54  77 105 140 174 214 266 325
#     4  10  19  35  59  83 108 142 186 229 273 328
#     4   9  17  31  52  83 117 144 176 219 271 326
#     4   9  21  39  57  79 108 146 189 229 270 326
#     4  10  20  34  56  85 113 141 178 226 278 329
#     4  11  23  39  57  78 108 148 193 234 276 329
#     4   9  18  36  59  81 110 149 189 227 274 333
#
# _framework density 20.904396999999999
#
# number of rings (size 3 to 8) (size 9 to 14) (size 15 to 20)
#    0.000    2.500    0.000    2.625    0.000    6.000 
#    0.000   12.500    0.000    0.000    0.000    0.000 
#    0.000    0.000    0.000    0.000    0.000    0.000 
#
# Total GULP energy -357310.962512 kJ/mol
# GULP energy per Si atom -5582.983789 kJ/mol
# Density = 2.085682 g / cm^3
# Si number density = 20.904397 Si / 1000 Ang^3
#
#
#
# Elastic Constant Matrix: (Units=GPa)
#
#
# Indices 1 2 3 4 5 6 
#
# 1 69.7196 -3.7598 -17.3487 0.0000 0.0000 0.0000
# 2 -3.7598 39.9962 -8.0357 0.0000 0.0000 0.0000
# 3 -17.3487 -8.0357 13.2323 0.0000 0.0000 0.0000
# 4 0.0000 0.0000 0.0000 17.5463 0.0000 0.0000
# 5 0.0000 0.0000 0.0000 0.0000 5.0653 0.0000
# 6 0.0000 0.0000 0.0000 0.0000 0.0000 17.5565
#
#
#
# Elastic Compliance Matrix: (Units=1/GPa)
#
#
# Indices 1 2 3 4 5 6 
#
# 1 0.024299 0.009892 0.037865 0.000000 0.000000 0.000000
# 2 0.009892 0.032504 0.032708 0.000000 0.000000 0.000000
# 3 0.037865 0.032708 0.145080 0.000000 0.000000 0.000000
# 4 0.000000 0.000000 0.000000 0.056992 0.000000 0.000000
# 5 0.000000 0.000000 0.000000 0.000000 0.197421 0.000000
# 6 0.000000 0.000000 0.000000 0.000000 0.000000 0.056959
#
#
# Mechanical properties :
#
#
# Convention : Reuss Voigt Hill
#
# Bulk Modulus (GPa) = 2.75626 7.18439 4.97033
# Shear Modulus (GPa) = 10.56496 18.17312 14.36904
#
# Velocity S-wave (km/s) = 2.25054 2.95166 2.62462
# Velocity P-wave (km/s) = 2.84158 3.88081 3.40112
#
# Compressibility (1/GPa) = 0.36281072
#
# Stress axis : x y z
#
# Youngs Moduli (GPa) = 41.15440 30.76580 6.89276
#
# Poissons Ratio (x) = -0.30433 -0.26099
# Poissons Ratio (y) = -0.40709 -0.22545
# Poissons Ratio (z) = -1.55831 -1.00628
#
# Static dielectric constant tensor:
#      x y z
#    x 1.775530 0.000000 0.000000 
#    y 0.000000 1.764810 0.000000 
#    z 0.000000 0.000000 1.710380 
# 
# From -- ./inp_files/6741.got.cif
#   From: 2010.05.17/outbox.cif.g08.bks.cpg/sg58_4_cif.got.tgz:6741.got - 2010.06.03 14:20:14.
