data_PCOD9442835
_publ_section_title
;
Structure prediction by ZEFSAII (Michael W. Deem and Ramdas Pophale) SiO2 
 PCOD9442835
Probable space group: P N N M
;
_chemical_formula_sum "Si O2"
_cell_formula_units_Z 64
_cell_length_a 14.380215
_cell_length_b 17.719010
_cell_length_c 14.247926
_cell_angle_alpha 90.000000
_cell_angle_beta 90.000000
_cell_angle_gamma 90.000000
_cell_volume 3630.416759
_symmetry_space_group_name_H-M "P N N M"
_symmetry_group_IT_number 58
_symmetry_cell_setting 'orthorhombic'
loop_
_space_group_symop_operation_xyz
x,y,z
-x,-y,z
1/2+x,1/2-y,1/2-z
1/2-x,1/2+y,1/2-z
-x,-y,-z
x,y,-z
1/2-x,1/2+y,1/2+z
1/2+x,1/2-y,1/2+z
loop_
_atom_site_type_symbol
_atom_site_label
_atom_site_fract_x
_atom_site_fract_y
_atom_site_fract_z
Si Si1 0.534278 0.697247 0.391144
Si Si2 0.917100 0.939463 0.110282
Si Si3 0.724225 0.983640 0.201744
Si Si4 0.129022 0.361424 0.703264
Si Si5 0.548816 0.917430 0.891367
Si Si6 0.732488 0.746031 0.612426
Si Si7 0.535792 0.130604 0.394402
Si Si8 0.328677 0.079861 0.608806
O O1 0.545333 0.673349 0.500000
O O2 0.461410 0.638144 0.350590
O O3 0.638924 0.702716 0.353824
O O4 0.495450 0.781830 0.392127
O O5 0.825826 0.965618 0.164194
O O6 0.891641 0.930578 0.000000
O O7 0.000000 0.000000 0.116026
O O8 0.647392 0.925794 0.159479
O O9 0.716860 0.972613 0.313420
O O10 0.689833 0.066580 0.170395
O O11 0.182619 0.286817 0.671617
O O12 0.110486 0.375578 0.812986
O O13 0.026350 0.363875 0.657691
O O14 0.500000 0.000000 0.886174
O O15 0.561378 0.897917 0.000000
O O16 0.745776 0.732057 0.500000
O O17 0.710974 0.834960 0.621755
O O18 0.567286 0.112216 0.500000
O O19 0.440718 0.084096 0.375740
O O20 0.313780 0.059224 0.500000
#
# Coordination Sequence:
#
# PCOD9442835 Si02
#       8
#     8   8   8   8   8   8   8   8
#     4   8  16  32  51  72  97 128 169 212 252 296
#     4  10  20  33  52  77 104 134 169 212 264 316
#     4  11  21  32  49  78 105 134 173 210 261 309
#     4  11  20  30  50  77 104 135 170 207 255 316
#     4   9  18  31  45  69 107 137 156 192 248 310
#     4   9  18  33  54  77 103 137 173 212 256 310
#     4   9  18  33  51  73 102 135 172 215 255 293
#     4   9  19  36  54  74 103 137 178 219 255 304
#
# _framework density 17.628830000000001
#
# number of rings (size 3 to 8) (size 9 to 14) (size 15 to 20)
#    0.000    2.500    1.250    3.000    1.750    3.000 
#    0.000    1.250    0.000    0.375    0.000    0.875 
#    0.000    0.000    0.000    0.000    0.000    0.000 
#
# Total GULP energy -356777.741547 kJ/mol
# GULP energy per Si atom -5574.652212 kJ/mol
# Density = 1.758871 g / cm^3
# Si number density = 17.628830 Si / 1000 Ang^3
#
#
#
# Elastic Constant Matrix: (Units=GPa)
#
#
# Indices 1 2 3 4 5 6 
#
# 1 84.6283 16.9737 33.4564 0.0000 0.0000 0.0000
# 2 16.9737 26.6280 5.5060 0.0000 0.0000 0.0000
# 3 33.4564 5.5060 71.6594 0.0000 0.0000 0.0000
# 4 0.0000 0.0000 0.0000 17.2337 0.0000 0.0000
# 5 0.0000 0.0000 0.0000 0.0000 24.2409 0.0000
# 6 0.0000 0.0000 0.0000 0.0000 0.0000 20.5954
#
#
#
# Elastic Compliance Matrix: (Units=1/GPa)
#
#
# Indices 1 2 3 4 5 6 
#
# 1 0.016369 -0.008997 -0.006951 0.000000 0.000000 0.000000
# 2 -0.008997 0.043106 0.000888 0.000000 0.000000 0.000000
# 3 -0.006951 0.000888 0.017132 0.000000 0.000000 0.000000
# 4 0.000000 0.000000 0.000000 0.058026 0.000000 0.000000
# 5 0.000000 0.000000 0.000000 0.000000 0.041253 0.000000
# 6 0.000000 0.000000 0.000000 0.000000 0.000000 0.048555
#
#
# Mechanical properties :
#
#
# Convention : Reuss Voigt Hill
#
# Bulk Modulus (GPa) = 21.51115 32.75422 27.13268
# Shear Modulus (GPa) = 18.51479 20.87929 19.69704
#
# Velocity S-wave (km/s) = 3.24428 3.44522 3.34626
# Velocity P-wave (km/s) = 5.12470 5.86910 5.50949
#
# Compressibility (1/GPa) = 0.04648753
#
# Stress axis : x y z
#
# Youngs Moduli (GPa) = 61.09172 23.19879 58.37054
#
# Poissons Ratio (x) = 0.20872 0.40573
# Poissons Ratio (y) = 0.54963 -0.05186
# Poissons Ratio (z) = 0.42465 -0.02061
#
# Static dielectric constant tensor:
#      x y z
#    x 1.591180 0.000000 0.000000 
#    y 0.000000 1.630580 0.000000 
#    z 0.000000 0.000000 1.618640 
# 
# From -- ./inp_files/21486.got.cif
#   From: 2010.05.17/outbox.cif.g08.bks.cpg/sg58_11_cif.got.tgz:21486.got - 2010.06.03 14:20:14.
