data_PCOD9442292
_publ_section_title
;
Structure prediction by ZEFSAII (Michael W. Deem and Ramdas Pophale) SiO2 
 PCOD9442292
Probable space group: P N N M
;
_chemical_formula_sum "Si O2"
_cell_formula_units_Z 48
_cell_length_a 14.942011
_cell_length_b 14.894268
_cell_length_c 12.426147
_cell_angle_alpha 90.000000
_cell_angle_beta 90.000000
_cell_angle_gamma 90.000000
_cell_volume 2765.442945
_symmetry_space_group_name_H-M "P N N M"
_symmetry_group_IT_number 58
_symmetry_cell_setting 'orthorhombic'
loop_
_space_group_symop_operation_xyz
x,y,z
-x,-y,z
1/2+x,1/2-y,1/2-z
1/2-x,1/2+y,1/2-z
-x,-y,-z
x,y,-z
1/2-x,1/2+y,1/2+z
1/2+x,1/2-y,1/2+z
loop_
_atom_site_type_symbol
_atom_site_label
_atom_site_fract_x
_atom_site_fract_y
_atom_site_fract_z
Si Si1 0.957682 0.769648 0.716184
Si Si2 0.424971 0.626633 0.000000
Si Si3 0.435141 0.920332 0.123385
Si Si4 0.332517 0.317209 0.206141
Si Si5 0.365809 0.430576 0.000000
Si Si6 0.191715 0.167847 0.869656
Si Si7 0.227379 0.961765 0.877376
O O1 0.915422 0.817117 0.609656
O O2 0.944315 0.664464 0.699098
O O3 0.902983 0.802132 0.819708
O O4 0.063466 0.789609 0.717116
O O5 0.363664 0.538133 0.000000
O O6 0.528684 0.594898 0.000000
O O7 0.334448 0.955080 0.122378
O O8 0.500000 0.000000 0.155904
O O9 0.459618 0.893480 0.000000
O O10 0.268153 0.232008 0.182977
O O11 0.306825 0.379117 0.306802
O O12 0.324723 0.383720 0.104084
O O13 0.203193 0.062548 0.840910
O O14 0.196776 0.175845 0.000000
O O15 0.194760 0.952115 0.000000
#
# Coordination Sequence:
#
# PCOD9442292 Si02
#       7
#     8   4   8   8   4   8   8
#     4  11  21  35  60  87 118 155 200 244 299 356
#     4   9  18  32  53  86 115 140 191 244 302 340
#     4  10  19  34  58  87 115 145 192 253 303 345
#     4  11  21  37  59  86 118 157 198 247 296 355
#     4   9  18  32  54  82 114 150 186 241 292 352
#     4  11  23  40  61  87 122 162 200 242 304 366
#     4  10  22  38  58  86 118 154 198 246 297 359
#
# _framework density 17.357074999999998
#
# number of rings (size 3 to 8) (size 9 to 14) (size 15 to 20)
#    0.000    1.667    3.333    2.000    0.000    4.000 
#    0.000    1.667    0.000    0.500    0.000    0.000 
#    0.000    0.000    0.000    0.000    0.000    0.000 
#
# Total GULP energy -267755.738540 kJ/mol
# GULP energy per Si atom -5578.244553 kJ/mol
# Density = 1.731757 g / cm^3
# Si number density = 17.357075 Si / 1000 Ang^3
#
#
#
# Elastic Constant Matrix: (Units=GPa)
#
#
# Indices 1 2 3 4 5 6 
#
# 1 51.8435 8.6788 15.1243 0.0000 0.0000 0.0000
# 2 8.6788 78.3019 30.9529 0.0000 0.0000 0.0000
# 3 15.1243 30.9529 55.1139 0.0000 0.0000 0.0000
# 4 0.0000 0.0000 0.0000 23.8292 0.0000 0.0000
# 5 0.0000 0.0000 0.0000 0.0000 28.8448 0.0000
# 6 0.0000 0.0000 0.0000 0.0000 0.0000 30.7991
#
#
#
# Elastic Compliance Matrix: (Units=1/GPa)
#
#
# Indices 1 2 3 4 5 6 
#
# 1 0.020968 -0.000064 -0.005718 0.000000 0.000000 0.000000
# 2 -0.000064 0.016416 -0.009202 0.000000 0.000000 0.000000
# 3 -0.005718 -0.009202 0.024881 0.000000 0.000000 0.000000
# 4 0.000000 0.000000 0.000000 0.041965 0.000000 0.000000
# 5 0.000000 0.000000 0.000000 0.000000 0.034668 0.000000
# 6 0.000000 0.000000 0.000000 0.000000 0.000000 0.032468
#
#
# Mechanical properties :
#
#
# Convention : Reuss Voigt Hill
#
# Bulk Modulus (GPa) = 30.96231 32.75237 31.85734
# Shear Modulus (GPa) = 23.57381 25.39484 24.48432
#
# Velocity S-wave (km/s) = 3.68933 3.82918 3.75990
# Velocity P-wave (km/s) = 6.00211 6.20168 6.10271
#
# Compressibility (1/GPa) = 0.03229733
#
# Stress axis : x y z
#
# Youngs Moduli (GPa) = 47.69259 60.91744 40.19074
#
# Poissons Ratio (x) = 0.00387 0.22982
# Poissons Ratio (y) = 0.00303 0.36983
# Poissons Ratio (z) = 0.27271 0.56055
#
# Static dielectric constant tensor:
#      x y z
#    x 1.586100 0.000000 0.000000 
#    y 0.000000 1.577820 0.000000 
#    z 0.000000 0.000000 1.603530 
# 
# From -- ./inp_files/15611.got.cif
#   From: 2010.05.17/outbox.cif.g08.bks.cpg/sg58_8_cif.got.tgz:15611.got - 2010.06.03 14:20:14.
