data_PCOD9442169
_publ_section_title
;
Structure prediction by ZEFSAII (Michael W. Deem and Ramdas Pophale) SiO2 
 PCOD9442169
Probable space group: P N N M
;
_chemical_formula_sum "Si O2"
_cell_formula_units_Z 64
_cell_length_a 17.791278
_cell_length_b 10.422213
_cell_length_c 15.291326
_cell_angle_alpha 90.000000
_cell_angle_beta 90.000000
_cell_angle_gamma 90.000000
_cell_volume 2835.386308
_symmetry_space_group_name_H-M "P N N M"
_symmetry_group_IT_number 58
_symmetry_cell_setting 'orthorhombic'
loop_
_space_group_symop_operation_xyz
x,y,z
-x,-y,z
1/2+x,1/2-y,1/2-z
1/2-x,1/2+y,1/2-z
-x,-y,-z
x,y,-z
1/2-x,1/2+y,1/2+z
1/2+x,1/2-y,1/2+z
loop_
_atom_site_type_symbol
_atom_site_label
_atom_site_fract_x
_atom_site_fract_y
_atom_site_fract_z
Si Si1 0.258453 0.145035 0.097476
Si Si2 0.082578 0.486244 0.213153
Si Si3 0.892649 0.782815 0.165443
Si Si4 0.183167 0.733362 0.217804
Si Si5 0.660453 0.348392 0.857108
Si Si6 0.927769 0.092254 0.594127
Si Si7 0.379676 0.927013 0.906079
Si Si8 0.543521 0.635267 0.284209
O O1 0.167932 0.146300 0.105837
O O2 0.288286 0.228327 0.180664
O O3 0.300934 0.007217 0.105385
O O4 0.276448 0.193726 0.000000
O O5 0.126125 0.367982 0.169663
O O6 0.125737 0.617417 0.206459
O O7 0.077704 0.454263 0.316493
O O8 0.000000 0.500000 0.176209
O O9 0.877332 0.839918 0.261709
O O10 0.983095 0.788080 0.157462
O O11 0.253874 0.693026 0.159629
O O12 0.131504 0.854433 0.189743
O O13 0.640295 0.489540 0.892178
O O14 0.628464 0.226612 0.908541
O O15 0.921412 0.158948 0.500000
O O16 0.945951 0.173885 0.681206
O O17 0.000000 0.000000 0.589074
O O18 0.410553 0.970052 0.000000
O O19 0.500000 0.500000 0.285360
#
# Coordination Sequence:
#
# PCOD9442169 Si02
#       8
#     8   8   8   8   8   8   8   8
#     4   9  20  38  59  85 115 155 202 249 302 353
#     4  10  19  35  55  81 112 147 198 231 288 348
#     4  10  19  35  59  84 111 153 194 251 287 351
#     4  10  22  35  58  85 114 154 198 251 294 356
#     4  10  19  34  54  84 115 155 197 239 295 353
#     4  10  20  34  54  84 124 157 188 236 305 372
#     4   9  19  33  54  82 117 153 188 234 287 351
#     4  11  21  35  56  88 121 153 199 242 302 355
#
# _framework density 22.57188
#
# number of rings (size 3 to 8) (size 9 to 14) (size 15 to 20)
#    0.000    2.125    3.750    0.375    1.750    3.750 
#    0.000    0.000    0.000    3.000    0.000    0.000 
#    0.000    0.000    0.000    0.000    0.000    0.000 
#
# Total GULP energy -356295.094913 kJ/mol
# GULP energy per Si atom -5567.110858 kJ/mol
# Density = 2.252051 g / cm^3
# Si number density = 22.571880 Si / 1000 Ang^3
#
#
#
# Elastic Constant Matrix: (Units=GPa)
#
#
# Indices 1 2 3 4 5 6 
#
# 1 128.6887 21.3337 9.5487 0.0000 0.0000 0.0000
# 2 21.3337 71.4803 4.2260 0.0000 0.0000 0.0000
# 3 9.5487 4.2260 25.4148 0.0000 0.0000 0.0000
# 4 0.0000 0.0000 0.0000 12.2462 0.0000 0.0000
# 5 0.0000 0.0000 0.0000 0.0000 3.1380 0.0000
# 6 0.0000 0.0000 0.0000 0.0000 0.0000 33.3274
#
#
#
# Elastic Compliance Matrix: (Units=1/GPa)
#
#
# Indices 1 2 3 4 5 6 
#
# 1 0.008362 -0.002333 -0.002754 0.000000 0.000000 0.000000
# 2 -0.002333 0.014780 -0.001581 0.000000 0.000000 0.000000
# 3 -0.002754 -0.001581 0.040645 0.000000 0.000000 0.000000
# 4 0.000000 0.000000 0.000000 0.081658 0.000000 0.000000
# 5 0.000000 0.000000 0.000000 0.000000 0.318678 0.000000
# 6 0.000000 0.000000 0.000000 0.000000 0.000000 0.030005
#
#
# Mechanical properties :
#
#
# Convention : Reuss Voigt Hill
#
# Bulk Modulus (GPa) = 19.82130 32.86671 26.34401
# Shear Modulus (GPa) = 9.53690 22.44067 15.98879
#
# Velocity S-wave (km/s) = 2.05774 3.15649 2.66437
# Velocity P-wave (km/s) = 3.80082 5.27988 4.60018
#
# Compressibility (1/GPa) = 0.05045078
#
# Stress axis : x y z
#
# Youngs Moduli (GPa) = 119.59233 67.66093 24.60349
#
# Poissons Ratio (x) = 0.15784 0.06775
# Poissons Ratio (y) = 0.27899 0.03890
# Poissons Ratio (z) = 0.32932 0.10698
#
# Static dielectric constant tensor:
#      x y z
#    x 1.944420 0.000000 0.000000 
#    y 0.000000 1.920750 0.000000 
#    z 0.000000 0.000000 1.842680 
# 
# From -- ./inp_files/27396.got.cif
#   From: 2010.05.17/outbox.cif.g08.bks.cpg/sg58_14_cif.got.tgz:27396.got - 2010.06.03 14:20:14.
