data_PCOD9442121
_publ_section_title
;
Structure prediction by ZEFSAII (Michael W. Deem and Ramdas Pophale) SiO2 
 PCOD9442121
Probable space group: P N N M
;
_chemical_formula_sum "Si O2"
_cell_formula_units_Z 56
_cell_length_a 15.620830
_cell_length_b 20.333129
_cell_length_c 9.849223
_cell_angle_alpha 90.000000
_cell_angle_beta 90.000000
_cell_angle_gamma 90.000000
_cell_volume 3128.313671
_symmetry_space_group_name_H-M "P N N M"
_symmetry_group_IT_number 58
_symmetry_cell_setting 'orthorhombic'
loop_
_space_group_symop_operation_xyz
x,y,z
-x,-y,z
1/2+x,1/2-y,1/2-z
1/2-x,1/2+y,1/2-z
-x,-y,-z
x,y,-z
1/2-x,1/2+y,1/2+z
1/2+x,1/2-y,1/2+z
loop_
_atom_site_type_symbol
_atom_site_label
_atom_site_fract_x
_atom_site_fract_y
_atom_site_fract_z
Si Si1 0.825091 0.328858 0.337060
Si Si2 0.369633 0.470382 0.152941
Si Si3 0.277909 0.018895 0.154537
Si Si4 0.944947 0.565932 0.649478
Si Si5 0.027863 0.106881 0.653548
Si Si6 0.007418 0.679439 0.838539
Si Si7 0.368644 0.705348 0.659391
O O1 0.841815 0.321936 0.500000
O O2 0.811570 0.407613 0.309036
O O3 0.905356 0.304565 0.246263
O O4 0.733142 0.294075 0.306228
O O5 0.294217 0.490953 0.249483
O O6 0.425337 0.536800 0.144856
O O7 0.431717 0.411317 0.199736
O O8 0.340454 0.454501 0.000000
O O9 0.350762 0.963607 0.158597
O O10 0.246356 0.025590 0.000000
O O11 0.957506 0.598053 0.500000
O O12 0.000000 0.500000 0.651058
O O13 0.973319 0.612802 0.769683
O O14 0.023962 0.134305 0.500000
O O15 0.083292 0.151222 0.751494
O O16 0.928319 0.730469 0.822495
O O17 0.025583 0.673860 0.000000
O O18 0.371523 0.687724 0.500000
#
# Coordination Sequence:
#
# PCOD9442121 Si02
#       7
#     8   8   8   8   8   8   8
#     4  10  20  39  63  83 109 151 192 231 285 343
#     4   9  18  32  51  81 118 147 181 232 283 332
#     4  10  19  33  58  85 108 144 190 230 277 340
#     4  10  20  38  60  83 112 145 186 234 285 345
#     4   9  18  33  54  81 113 150 187 227 281 338
#     4  11  24  40  59  87 117 147 189 242 291 338
#     4  10  22  40  60  83 115 152 196 240 281 340
#
# _framework density 17.901018000000001
#
# number of rings (size 3 to 8) (size 9 to 14) (size 15 to 20)
#    0.000    2.143    2.857    1.286    0.000    3.714 
#    2.571    1.429    0.000    0.000    0.000    0.000 
#    0.000    0.000    0.000    0.000    0.000    0.000 
#
# Total GULP energy -311852.564257 kJ/mol
# GULP energy per Si atom -5568.795790 kJ/mol
# Density = 1.786027 g / cm^3
# Si number density = 17.901018 Si / 1000 Ang^3
#
#
#
# Elastic Constant Matrix: (Units=GPa)
#
#
# Indices 1 2 3 4 5 6 
#
# 1 115.0068 40.5784 70.9566 0.0000 0.0000 0.0000
# 2 40.5784 43.4112 38.8549 0.0000 0.0000 0.0000
# 3 70.9566 38.8549 78.6636 0.0000 0.0000 0.0000
# 4 0.0000 0.0000 0.0000 -17.5530 0.0000 0.0000
# 5 0.0000 0.0000 0.0000 0.0000 36.0011 0.0000
# 6 0.0000 0.0000 0.0000 0.0000 0.0000 26.3230
#
#
#
# Elastic Compliance Matrix: (Units=1/GPa)
#
#
# Indices 1 2 3 4 5 6 
#
# 1 0.020105 -0.004591 -0.015868 0.000000 0.000000 0.000000
# 2 -0.004591 0.042338 -0.016771 0.000000 0.000000 0.000000
# 3 -0.015868 -0.016771 0.035309 0.000000 0.000000 0.000000
# 4 0.000000 0.000000 0.000000 -0.056970 0.000000 0.000000
# 5 0.000000 0.000000 0.000000 0.000000 0.027777 0.000000
# 6 0.000000 0.000000 0.000000 0.000000 0.000000 0.037990
#
#
# Mechanical properties :
#
#
# Convention : Reuss Voigt Hill
#
# Bulk Modulus (GPa) = 42.93183 59.76239 51.34711
# Shear Modulus (GPa) = 26.48709 14.73366 20.61037
#
# Velocity S-wave (km/s) = 3.85078 2.87202 3.39684
# Velocity P-wave (km/s) = 6.61864 6.66749 6.64311
#
# Compressibility (1/GPa) = 0.02329274
#
# Stress axis : x y z
#
# Youngs Moduli (GPa) = 49.73935 23.61962 28.32120
#
# Poissons Ratio (x) = 0.10843 0.44939
# Poissons Ratio (y) = 0.22834 0.47498
# Poissons Ratio (z) = 0.78924 0.39613
#
# Static dielectric constant tensor:
#      x y z
#    x 1.687570 0.000000 0.000000 
#    y 0.000000 1.600100 0.000000 
#    z 0.000000 0.000000 1.611890 
# 
# From -- ./inp_files/6464.got.cif
#   From: 2010.05.17/outbox.cif.g08.bks.cpg/sg58_4_cif.got.tgz:6464.got - 2010.06.03 14:20:14.
