data_PCOD9442519
_publ_section_title
;
Structure prediction by ZEFSAII (Michael W. Deem and Ramdas Pophale) SiO2 
 PCOD9442519
Probable space group: P N N M
;
_chemical_formula_sum "Si O2"
_cell_formula_units_Z 48
_cell_length_a 16.833618
_cell_length_b 9.711084
_cell_length_c 16.778288
_cell_angle_alpha 90.000000
_cell_angle_beta 90.000000
_cell_angle_gamma 90.000000
_cell_volume 2742.791679
_symmetry_space_group_name_H-M "P N N M"
_symmetry_group_IT_number 58
_symmetry_cell_setting 'orthorhombic'
loop_
_space_group_symop_operation_xyz
x,y,z
-x,-y,z
1/2+x,1/2-y,1/2-z
1/2-x,1/2+y,1/2-z
-x,-y,-z
x,y,-z
1/2-x,1/2+y,1/2+z
1/2+x,1/2-y,1/2+z
loop_
_atom_site_type_symbol
_atom_site_label
_atom_site_fract_x
_atom_site_fract_y
_atom_site_fract_z
Si Si1 0.920934 0.594061 0.500000
Si Si2 0.088502 0.788517 0.328531
Si Si3 0.563520 0.268465 0.727414
Si Si4 0.327924 0.466390 0.705431
Si Si5 0.141639 0.476597 0.326025
Si Si6 0.456818 0.350381 0.591019
Si Si7 0.031100 0.846380 0.500000
O O1 0.875628 0.564485 0.417861
O O2 0.000000 0.500000 0.500000
O O3 0.954559 0.747721 0.500000
O O4 0.153631 0.882201 0.285828
O O5 0.105563 0.628111 0.313142
O O6 0.081582 0.814194 0.421713
O O7 0.003347 0.823551 0.288977
O O8 0.629988 0.384905 0.713530
O O9 0.600591 0.132973 0.766791
O O10 0.513240 0.254454 0.645474
O O11 0.235511 0.479048 0.688587
O O12 0.374490 0.380563 0.636738
O O13 0.500000 0.500000 0.590296
O O14 0.447137 0.304629 0.500000
O O15 0.000000 0.000000 0.500000
#
# Coordination Sequence:
#
# PCOD9442519 Si02
#       7
#     4   8   8   8   8   8   4
#     4  12  22  40  58  92 119 155 199 239 301 371
#     4  11  21  38  59  86 118 158 204 238 294 369
#     4  10  19  36  58  83 112 157 200 243 291 360
#     4  10  22  35  57  86 118 153 198 248 301 347
#     4  12  22  36  58  87 124 153 192 251 303 353
#     4   8  16  33  56  81 106 145 199 243 283 346
#     4  12  22  38  64  90 114 155 205 248 285 361
#
# _framework density 17.500419000000001
#
# number of rings (size 3 to 8) (size 9 to 14) (size 15 to 20)
#    0.000    1.500    3.333    4.000    1.167    0.000 
#    0.000    0.000    1.833    8.000    0.000    0.000 
#    0.000    0.000    0.000    0.000    0.000    0.000 
#
# Total GULP energy -267939.681721 kJ/mol
# GULP energy per Si atom -5582.076703 kJ/mol
# Density = 1.746059 g / cm^3
# Si number density = 17.500419 Si / 1000 Ang^3
#
#
#
# Elastic Constant Matrix: (Units=GPa)
#
#
# Indices 1 2 3 4 5 6 
#
# 1 123.4216 42.9784 58.0960 0.0000 0.0000 0.0000
# 2 42.9784 99.0352 31.1204 0.0000 0.0000 0.0000
# 3 58.0960 31.1204 140.0174 0.0000 0.0000 0.0000
# 4 0.0000 0.0000 0.0000 18.7535 0.0000 0.0000
# 5 0.0000 0.0000 0.0000 0.0000 19.3506 0.0000
# 6 0.0000 0.0000 0.0000 0.0000 0.0000 22.2870
#
#
#
# Elastic Compliance Matrix: (Units=1/GPa)
#
#
# Indices 1 2 3 4 5 6 
#
# 1 0.011173 -0.003647 -0.003825 0.000000 0.000000 0.000000
# 2 -0.003647 0.012046 -0.001164 0.000000 0.000000 0.000000
# 3 -0.003825 -0.001164 0.008988 0.000000 0.000000 0.000000
# 4 0.000000 0.000000 0.000000 0.053323 0.000000 0.000000
# 5 0.000000 0.000000 0.000000 0.000000 0.051678 0.000000
# 6 0.000000 0.000000 0.000000 0.000000 0.000000 0.044869
#
#
# Mechanical properties :
#
#
# Convention : Reuss Voigt Hill
#
# Bulk Modulus (GPa) = 66.96063 69.65153 68.30608
# Shear Modulus (GPa) = 24.47049 27.43016 25.95033
#
# Velocity S-wave (km/s) = 3.74342 3.96334 3.85494
# Velocity P-wave (km/s) = 7.55179 7.79938 7.67659
#
# Compressibility (1/GPa) = 0.01493415
#
# Stress axis : x y z
#
# Youngs Moduli (GPa) = 89.50340 83.01647 111.26029
#
# Poissons Ratio (x) = 0.30273 0.42560
# Poissons Ratio (y) = 0.32638 0.12954
# Poissons Ratio (z) = 0.34238 0.09665
#
# Static dielectric constant tensor:
#      x y z
#    x 1.574680 0.000000 0.000000 
#    y 0.000000 1.389210 0.000000 
#    z 0.000000 0.000000 1.613000 
# 
# From -- ./inp_files/26825.got.cif
#   From: 2010.05.17/outbox.cif.g08.bks.cpg/sg58_14_cif.got.tgz:26825.got - 2010.06.03 14:20:14.
