data_PCOD9442534
_publ_section_title
;
Structure prediction by ZEFSAII (Michael W. Deem and Ramdas Pophale) SiO2 
 PCOD9442534
Probable space group: P N N M
;
_chemical_formula_sum "Si O2"
_cell_formula_units_Z 56
_cell_length_a 21.692716
_cell_length_b 14.715625
_cell_length_c 7.423727
_cell_angle_alpha 90.000000
_cell_angle_beta 90.000000
_cell_angle_gamma 90.000000
_cell_volume 2369.816044
_symmetry_space_group_name_H-M "P N N M"
_symmetry_group_IT_number 58
_symmetry_cell_setting 'orthorhombic'
loop_
_space_group_symop_operation_xyz
x,y,z
-x,-y,z
1/2+x,1/2-y,1/2-z
1/2-x,1/2+y,1/2-z
-x,-y,-z
x,y,-z
1/2-x,1/2+y,1/2+z
1/2+x,1/2-y,1/2+z
loop_
_atom_site_type_symbol
_atom_site_label
_atom_site_fract_x
_atom_site_fract_y
_atom_site_fract_z
Si Si1 0.091735 0.096746 0.780755
Si Si2 0.707561 0.281354 0.279007
Si Si3 0.130842 0.898213 0.781861
Si Si4 0.677006 0.890936 0.205273
Si Si5 0.226475 0.416004 0.206585
Si Si6 0.979334 0.221349 0.217904
Si Si7 0.541817 0.920148 0.790721
O O1 0.152433 0.152326 0.725157
O O2 0.031156 0.150279 0.721813
O O3 0.098024 0.992313 0.726401
O O4 0.090617 0.096341 0.000000
O O5 0.708955 0.281035 0.500000
O O6 0.772820 0.322057 0.214650
O O7 0.697967 0.177610 0.220875
O O8 0.200212 0.899944 0.713075
O O9 0.087779 0.814972 0.724810
O O10 0.134348 0.897333 0.000000
O O11 0.609764 0.903731 0.290149
O O12 0.708716 0.990147 0.201194
O O13 0.667272 0.859550 0.000000
O O14 0.206780 0.426669 0.000000
O O15 0.991287 0.323113 0.281250
O O16 0.980168 0.222442 0.000000
O O17 0.500000 0.000000 0.711555
O O18 0.552699 0.945627 0.000000
#
# Coordination Sequence:
#
# PCOD9442534 Si02
#       7
#     8   8   8   8   8   8   8
#     4   9  17  33  57  83 111 145 188 229 276 339
#     4   9  18  33  55  80 108 146 186 225 279 338
#     4  10  19  36  59  84 115 151 188 224 279 348
#     4  10  20  39  61  79 108 154 192 224 274 340
#     4  11  22  34  56  88 114 142 186 237 285 329
#     4  10  21  35  59  89 112 144 192 243 279 319
#     4  10  23  41  59  81 115 157 194 228 283 352
#
# _framework density 23.630527000000001
#
# number of rings (size 3 to 8) (size 9 to 14) (size 15 to 20)
#    0.000    2.143    1.429    1.714    2.000    4.286 
#    0.000    2.143    0.000    1.714    0.000    0.000 
#    0.000    0.000    0.000    0.000    0.000    0.000 
#
# Total GULP energy -313147.156472 kJ/mol
# GULP energy per Si atom -5591.913508 kJ/mol
# Density = 2.357674 g / cm^3
# Si number density = 23.630527 Si / 1000 Ang^3
#
#
#
# Elastic Constant Matrix: (Units=GPa)
#
#
# Indices 1 2 3 4 5 6 
#
# 1 58.7226 -1.0668 -2.0272 0.0000 0.0000 0.0000
# 2 -1.0668 114.7034 -6.3889 0.0000 0.0000 0.0000
# 3 -2.0272 -6.3889 78.4344 0.0000 0.0000 0.0000
# 4 0.0000 0.0000 0.0000 8.3645 0.0000 0.0000
# 5 0.0000 0.0000 0.0000 0.0000 2.4213 0.0000
# 6 0.0000 0.0000 0.0000 0.0000 0.0000 36.0251
#
#
#
# Elastic Compliance Matrix: (Units=1/GPa)
#
#
# Indices 1 2 3 4 5 6 
#
# 1 0.017048 0.000184 0.000456 0.000000 0.000000 0.000000
# 2 0.000184 0.008760 0.000718 0.000000 0.000000 0.000000
# 3 0.000456 0.000718 0.012820 0.000000 0.000000 0.000000
# 4 0.000000 0.000000 0.000000 0.119554 0.000000 0.000000
# 5 0.000000 0.000000 0.000000 0.000000 0.412994 0.000000
# 6 0.000000 0.000000 0.000000 0.000000 0.000000 0.027758
#
#
# Mechanical properties :
#
#
# Convention : Reuss Voigt Hill
#
# Bulk Modulus (GPa) = 24.18754 25.87718 25.03236
# Shear Modulus (GPa) = 8.19673 26.78506 17.49089
#
# Velocity S-wave (km/s) = 1.86447 3.37039 2.72358
# Velocity P-wave (km/s) = 3.85913 5.11083 4.52844
#
# Compressibility (1/GPa) = 0.04134360
#
# Stress axis : x y z
#
# Youngs Moduli (GPa) = 58.65689 114.15711 78.00440
#
# Poissons Ratio (x) = -0.02100 -0.03554
# Poissons Ratio (y) = -0.01079 -0.05603
# Poissons Ratio (z) = -0.02672 -0.08200
#
# Static dielectric constant tensor:
#      x y z
#    x 1.874280 0.000000 0.000000 
#    y 0.000000 1.848170 0.000000 
#    z 0.000000 0.000000 1.929140 
# 
# From -- ./inp_files/6378.got.cif
#   From: 2010.05.17/outbox.cif.g08.bks.cpg/sg58_4_cif.got.tgz:6378.got - 2010.06.03 14:20:14.
