data_PCOD9442977
_publ_section_title
;
Structure prediction by ZEFSAII (Michael W. Deem and Ramdas Pophale) SiO2 
 PCOD9442977
Probable space group: P N N M
;
_chemical_formula_sum "Si O2"
_cell_formula_units_Z 56
_cell_length_a 14.527205
_cell_length_b 21.285869
_cell_length_c 7.563653
_cell_angle_alpha 90.000000
_cell_angle_beta 90.000000
_cell_angle_gamma 90.000000
_cell_volume 2338.864416
_symmetry_space_group_name_H-M "P N N M"
_symmetry_group_IT_number 58
_symmetry_cell_setting 'orthorhombic'
loop_
_space_group_symop_operation_xyz
x,y,z
-x,-y,z
1/2+x,1/2-y,1/2-z
1/2-x,1/2+y,1/2-z
-x,-y,-z
x,y,-z
1/2-x,1/2+y,1/2+z
1/2+x,1/2-y,1/2+z
loop_
_atom_site_type_symbol
_atom_site_label
_atom_site_fract_x
_atom_site_fract_y
_atom_site_fract_z
Si Si1 0.009376 0.405059 0.701744
Si Si2 0.790294 0.562425 0.716168
Si Si3 0.306812 0.076237 0.213169
Si Si4 0.998716 0.736102 0.794501
Si Si5 0.368468 0.345362 0.715147
Si Si6 0.658263 0.332683 0.209527
Si Si7 0.969461 0.936794 0.703062
O O1 0.009889 0.428323 0.500000
O O2 0.911977 0.425495 0.779709
O O3 0.105765 0.427124 0.780311
O O4 0.009791 0.329625 0.699149
O O5 0.788928 0.563231 0.500000
O O6 0.761176 0.491036 0.768637
O O7 0.727964 0.622624 0.768652
O O8 0.262155 0.143489 0.266157
O O9 0.308100 0.076482 0.000000
O O10 0.901864 0.774839 0.780751
O O11 0.085782 0.778713 0.731890
O O12 0.014213 0.722771 0.000000
O O13 0.371712 0.345700 0.500000
O O14 0.441691 0.393599 0.793050
O O15 0.608180 0.394442 0.287633
O O16 0.642701 0.328402 0.000000
O O17 0.941232 0.950352 0.500000
O O18 0.000000 0.000000 0.793878
#
# Coordination Sequence:
#
# PCOD9442977 Si02
#       7
#     8   8   8   8   8   8   8
#     4  10  21  37  57  80 109 148 189 229 274 326
#     4   9  18  35  58  82 108 143 186 228 274 330
#     4  10  20  35  57  84 112 143 184 231 276 327
#     4  10  21  37  55  80 112 144 183 229 278 332
#     4   9  18  32  52  76 102 135 176 221 267 319
#     4  10  20  34  54  79 109 145 182 224 276 333
#     4   9  17  29  46  72 106 139 170 210 265 325
#
# _framework density 23.943244
#
# number of rings (size 3 to 8) (size 9 to 14) (size 15 to 20)
#    0.000    2.429    0.000    2.143    0.000    4.857 
#    0.000    2.857    0.000    1.714    0.000    0.000 
#    0.000    0.000    0.000    0.000    0.000    0.000 
#
# Total GULP energy -312128.708799 kJ/mol
# GULP energy per Si atom -5573.726943 kJ/mol
# Density = 2.388875 g / cm^3
# Si number density = 23.943244 Si / 1000 Ang^3
#
#
#
# Elastic Constant Matrix: (Units=GPa)
#
#
# Indices 1 2 3 4 5 6 
#
# 1 101.6125 22.7290 -1.9318 0.0000 0.0000 0.0000
# 2 22.7290 137.4137 5.3001 0.0000 0.0000 0.0000
# 3 -1.9318 5.3001 67.4070 0.0000 0.0000 0.0000
# 4 0.0000 0.0000 0.0000 6.4497 0.0000 0.0000
# 5 0.0000 0.0000 0.0000 0.0000 1.1858 0.0000
# 6 0.0000 0.0000 0.0000 0.0000 0.0000 34.4010
#
#
#
# Elastic Compliance Matrix: (Units=1/GPa)
#
#
# Indices 1 2 3 4 5 6 
#
# 1 0.010232 -0.001709 0.000428 0.000000 0.000000 0.000000
# 2 -0.001709 0.007585 -0.000645 0.000000 0.000000 0.000000
# 3 0.000428 -0.000645 0.014898 0.000000 0.000000 0.000000
# 4 0.000000 0.000000 0.000000 0.155047 0.000000 0.000000
# 5 0.000000 0.000000 0.000000 0.000000 0.843287 0.000000
# 6 0.000000 0.000000 0.000000 0.000000 0.000000 0.029069
#
#
# Mechanical properties :
#
#
# Convention : Reuss Voigt Hill
#
# Bulk Modulus (GPa) = 34.64824 39.84755 37.24790
# Shear Modulus (GPa) = 4.65727 27.09636 15.87681
#
# Velocity S-wave (km/s) = 1.39619 3.36771 2.57787
# Velocity P-wave (km/s) = 4.13540 5.63920 4.94480
#
# Compressibility (1/GPa) = 0.02886150
#
# Stress axis : x y z
#
# Youngs Moduli (GPa) = 97.73565 131.84186 67.12200
#
# Poissons Ratio (x) = 0.22530 -0.02870
# Poissons Ratio (y) = 0.16702 0.04332
# Poissons Ratio (z) = -0.04179 0.08509
#
# Static dielectric constant tensor:
#      x y z
#    x 2.120640 0.000000 0.000000 
#    y 0.000000 1.920310 0.000000 
#    z 0.000000 0.000000 1.891780 
# 
# From -- ./inp_files/6271.got.cif
#   From: 2010.05.17/outbox.cif.g08.bks.cpg/sg58_4_cif.got.tgz:6271.got - 2010.06.03 14:20:14.
