data_PCOD9442772
_publ_section_title
;
Structure prediction by ZEFSAII (Michael W. Deem and Ramdas Pophale) SiO2 
 PCOD9442772
Probable space group: P N N M
;
_chemical_formula_sum "Si O2"
_cell_formula_units_Z 58
_cell_length_a 19.073172
_cell_length_b 19.899413
_cell_length_c 7.562665
_cell_angle_alpha 90.000000
_cell_angle_beta 90.000000
_cell_angle_gamma 90.000000
_cell_volume 2870.371134
_symmetry_space_group_name_H-M "P N N M"
_symmetry_group_IT_number 58
_symmetry_cell_setting 'orthorhombic'
loop_
_space_group_symop_operation_xyz
x,y,z
-x,-y,z
1/2+x,1/2-y,1/2-z
1/2-x,1/2+y,1/2-z
-x,-y,-z
x,y,-z
1/2-x,1/2+y,1/2+z
1/2+x,1/2-y,1/2+z
loop_
_atom_site_type_symbol
_atom_site_label
_atom_site_fract_x
_atom_site_fract_y
_atom_site_fract_z
Si Si1 0.723365 0.389558 0.712756
Si Si2 0.593984 0.031355 0.796359
Si Si3 0.480497 0.833243 0.791907
Si Si4 0.254524 0.463198 0.208185
Si Si5 0.218965 0.817828 0.715027
Si Si6 0.357640 0.740119 0.712933
Si Si7 0.500000 0.000000 0.500000
Si Si8 0.362567 0.186661 0.216908
O O1 0.724417 0.386855 0.500000
O O2 0.708180 0.465785 0.763760
O O3 0.667974 0.333232 0.773731
O O4 0.801094 0.365047 0.771441
O O5 0.564760 0.103403 0.724799
O O6 0.557904 0.982524 0.657459
O O7 0.677365 0.031279 0.789874
O O8 0.574623 0.018464 0.000000
O O9 0.432729 0.767516 0.768974
O O10 0.558733 0.826274 0.719725
O O11 0.487229 0.845801 0.000000
O O12 0.290787 0.394583 0.273056
O O13 0.243322 0.454571 0.000000
O O14 0.217407 0.816228 0.500000
O O15 0.296281 0.791886 0.769827
O O16 0.164388 0.760724 0.771355
O O17 0.357198 0.739872 0.500000
O O18 0.363783 0.184902 0.000000
#
# Coordination Sequence:
#
# PCOD9442772 Si02
#       8
#     8   8   8   8   8   8   2   8
#     4   9  19  34  53  76 103 143 183 226 275 327
#     4  11  24  38  54  81 114 155 191 230 272 336
#     4  10  20  32  53  80 107 138 179 230 284 333
#     4  11  20  33  54  81 108 143 182 225 280 335
#     4   8  15  30  53  73  97 135 182 225 267 325
#     4   9  17  33  55  73 100 140 184 225 274 333
#     4  12  26  40  52  74 116 160 194 216 276 328
#     4   8  16  32  51  74 100 134 179 224 271 327
#
# _framework density 20.206447000000001
#
# number of rings (size 3 to 8) (size 9 to 14) (size 15 to 20)
#    0.000    2.483    2.069    2.276    2.897    0.552 
#    0.000    0.690    0.000    3.310    0.000    5.793 
#    0.000    0.000    0.000    0.000    0.000    0.000 
#
# Total GULP energy -323170.066855 kJ/mol
# GULP energy per Si atom -5571.897704 kJ/mol
# Density = 2.016046 g / cm^3
# Si number density = 20.206447 Si / 1000 Ang^3
#
#
#
# Elastic Constant Matrix: (Units=GPa)
#
#
# Indices 1 2 3 4 5 6 
#
# 1 51.0473 24.4881 2.0306 0.0000 0.0000 0.0000
# 2 24.4881 143.9789 0.6483 0.0000 0.0000 0.0000
# 3 2.0306 0.6483 75.4388 0.0000 0.0000 0.0000
# 4 0.0000 0.0000 0.0000 12.1338 0.0000 0.0000
# 5 0.0000 0.0000 0.0000 0.0000 15.5633 0.0000
# 6 0.0000 0.0000 0.0000 0.0000 0.0000 21.3823
#
#
#
# Elastic Compliance Matrix: (Units=1/GPa)
#
#
# Indices 1 2 3 4 5 6 
#
# 1 0.021352 -0.003629 -0.000544 0.000000 0.000000 0.000000
# 2 -0.003629 0.007563 0.000033 0.000000 0.000000 0.000000
# 3 -0.000544 0.000033 0.013270 0.000000 0.000000 0.000000
# 4 0.000000 0.000000 0.000000 0.082414 0.000000 0.000000
# 5 0.000000 0.000000 0.000000 0.000000 0.064254 0.000000
# 6 0.000000 0.000000 0.000000 0.000000 0.000000 0.046768
#
#
# Mechanical properties :
#
#
# Convention : Reuss Voigt Hill
#
# Bulk Modulus (GPa) = 29.49428 36.08879 32.79153
# Shear Modulus (GPa) = 19.59229 26.03575 22.81402
#
# Velocity S-wave (km/s) = 3.11723 3.59344 3.36377
# Velocity P-wave (km/s) = 5.25208 5.92587 5.59912
#
# Compressibility (1/GPa) = 0.03390488
#
# Stress axis : x y z
#
# Youngs Moduli (GPa) = 46.83348 132.23024 75.35726
#
# Poissons Ratio (x) = 0.47989 0.04096
# Poissons Ratio (y) = 0.16997 -0.00246
# Poissons Ratio (z) = 0.02546 -0.00432
#
# Static dielectric constant tensor:
#      x y z
#    x 1.708090 0.000000 0.000000 
#    y 0.000000 1.800600 0.000000 
#    z 0.000000 0.000000 1.773750 
# 
# From -- ./inp_files/8046.got.cif
#   From: 2010.05.17/outbox.cif.g08.bks.cpg/sg58_5_cif.got.tgz:8046.got - 2010.06.03 14:20:14.
