data_PCOD9442480
_publ_section_title
;
Structure prediction by ZEFSAII (Michael W. Deem and Ramdas Pophale) SiO2 
 PCOD9442480
Probable space group: P N N M
;
_chemical_formula_sum "Si O2"
_cell_formula_units_Z 56
_cell_length_a 15.042568
_cell_length_b 20.334929
_cell_length_c 7.975476
_cell_angle_alpha 90.000000
_cell_angle_beta 90.000000
_cell_angle_gamma 90.000000
_cell_volume 2439.614783
_symmetry_space_group_name_H-M "P N N M"
_symmetry_group_IT_number 58
_symmetry_cell_setting 'orthorhombic'
loop_
_space_group_symop_operation_xyz
x,y,z
-x,-y,z
1/2+x,1/2-y,1/2-z
1/2-x,1/2+y,1/2-z
-x,-y,-z
x,y,-z
1/2-x,1/2+y,1/2+z
1/2+x,1/2-y,1/2+z
loop_
_atom_site_type_symbol
_atom_site_label
_atom_site_fract_x
_atom_site_fract_y
_atom_site_fract_z
Si Si1 0.882713 0.087527 0.696169
Si Si2 0.729487 0.190906 0.203813
Si Si3 0.548676 0.339995 0.313833
Si Si4 0.135677 0.476636 0.500000
Si Si5 0.469439 0.112240 0.000000
Si Si6 0.523506 0.189076 0.689275
Si Si7 0.252167 0.016911 0.700208
Si Si8 0.261689 0.663568 0.810857
O O1 0.901307 0.094912 0.500000
O O2 0.803120 0.138256 0.741774
O O3 0.971586 0.107606 0.790248
O O4 0.845753 0.013971 0.724314
O O5 0.629550 0.180177 0.274222
O O6 0.757317 0.264763 0.263972
O O7 0.724620 0.191972 0.000000
O O8 0.588573 0.345699 0.500000
O O9 0.507045 0.267203 0.301064
O O10 0.630757 0.341828 0.188351
O O11 0.087917 0.546930 0.500000
O O12 0.189163 0.474818 0.672798
O O13 0.068334 0.417330 0.500000
O O14 0.464898 0.154089 0.169577
O O15 0.505060 0.166016 0.500000
O O16 0.272152 0.010773 0.500000
O O17 0.264038 0.092227 0.756947
O O18 0.226571 0.665421 0.000000
#
# Coordination Sequence:
#
# PCOD9442480 Si02
#       8
#     8   8   8   4   4   8   8   8
#     4  11  23  37  59  89 125 165 206 259 310 367
#     4  10  19  35  62  90 120 160 209 259 313 371
#     4  10  22  37  59  93 126 158 207 259 311 374
#     4  11  26  42  64  91 122 162 216 261 310 376
#     4  11  24  42  64  94 122 165 206 260 324 367
#     4  10  21  39  63  90 125 163 200 252 318 378
#     4  10  24  44  63  88 125 169 212 257 308 375
#     4   9  20  40  62  84 121 166 205 256 315 372
#
# _framework density 22.954443000000001
#
# number of rings (size 3 to 8) (size 9 to 14) (size 15 to 20)
#    0.000    1.857    0.714    2.143    5.000    4.571 
#    0.000    7.143    0.000    0.000    0.000    0.000 
#    0.000    0.000    0.000    0.000    0.000    0.000 
#
# Total GULP energy -312836.305353 kJ/mol
# GULP energy per Si atom -5586.362596 kJ/mol
# Density = 2.290220 g / cm^3
# Si number density = 22.954443 Si / 1000 Ang^3
#
#
#
# Elastic Constant Matrix: (Units=GPa)
#
#
# Indices 1 2 3 4 5 6 
#
# 1 24.2695 2.0062 -1.2529 0.0000 0.0000 0.0000
# 2 2.0062 64.4640 12.1684 0.0000 0.0000 0.0000
# 3 -1.2529 12.1684 93.3244 0.0000 0.0000 0.0000
# 4 0.0000 0.0000 0.0000 64.8808 0.0000 0.0000
# 5 0.0000 0.0000 0.0000 0.0000 1.8496 0.0000
# 6 0.0000 0.0000 0.0000 0.0000 0.0000 30.5432
#
#
#
# Elastic Compliance Matrix: (Units=1/GPa)
#
#
# Indices 1 2 3 4 5 6 
#
# 1 0.041360 -0.001427 0.000741 0.000000 0.000000 0.000000
# 2 -0.001427 0.015953 -0.002099 0.000000 0.000000 0.000000
# 3 0.000741 -0.002099 0.010999 0.000000 0.000000 0.000000
# 4 0.000000 0.000000 0.000000 0.015413 0.000000 0.000000
# 5 0.000000 0.000000 0.000000 0.000000 0.540643 0.000000
# 6 0.000000 0.000000 0.000000 0.000000 0.000000 0.032741
#
#
# Mechanical properties :
#
#
# Convention : Reuss Voigt Hill
#
# Bulk Modulus (GPa) = 15.93820 23.10015 19.51917
# Shear Modulus (GPa) = 7.31429 30.73047 19.02238
#
# Velocity S-wave (km/s) = 1.78700 3.66288 2.88184
# Velocity P-wave (km/s) = 3.34907 5.28906 4.42665
#
# Compressibility (1/GPa) = 0.06274236
#
# Stress axis : x y z
#
# Youngs Moduli (GPa) = 24.17781 62.68330 90.91752
#
# Poissons Ratio (x) = 0.08946 -0.06740
# Poissons Ratio (y) = 0.03450 0.19086
# Poissons Ratio (z) = -0.01792 0.13159
#
# Static dielectric constant tensor:
#      x y z
#    x 1.848380 0.000000 0.000000 
#    y 0.000000 1.866420 0.000000 
#    z 0.000000 0.000000 1.897550 
# 
# From -- ./inp_files/6511.got.cif
#   From: 2010.05.17/outbox.cif.g08.bks.cpg/sg58_4_cif.got.tgz:6511.got - 2010.06.03 14:20:14.
