data_PCOD9442950
_publ_section_title
;
Structure prediction by ZEFSAII (Michael W. Deem and Ramdas Pophale) SiO2 
 PCOD9442950
Probable space group: P N N M
;
_chemical_formula_sum "Si O2"
_cell_formula_units_Z 64
_cell_length_a 11.080008
_cell_length_b 35.463070
_cell_length_c 8.936336
_cell_angle_alpha 90.000000
_cell_angle_beta 90.000000
_cell_angle_gamma 90.000000
_cell_volume 3511.364328
_symmetry_space_group_name_H-M "P N N M"
_symmetry_group_IT_number 58
_symmetry_cell_setting 'orthorhombic'
loop_
_space_group_symop_operation_xyz
x,y,z
-x,-y,z
1/2+x,1/2-y,1/2-z
1/2-x,1/2+y,1/2-z
-x,-y,-z
x,y,-z
1/2-x,1/2+y,1/2+z
1/2+x,1/2-y,1/2+z
loop_
_atom_site_type_symbol
_atom_site_label
_atom_site_fract_x
_atom_site_fract_y
_atom_site_fract_z
Si Si1 0.845409 0.152639 0.827296
Si Si2 0.861426 0.011835 0.827890
Si Si3 0.625819 0.359729 0.324545
Si Si4 0.241587 0.564928 0.320496
Si Si5 0.380446 0.267403 0.178971
Si Si6 0.158389 0.221134 0.320493
Si Si7 0.007533 0.543440 0.825460
Si Si8 0.252786 0.418318 0.827305
O O1 0.846019 0.190266 0.729224
O O2 0.760766 0.119912 0.765900
O O3 0.981468 0.136422 0.819408
O O4 0.819281 0.162142 0.000000
O O5 0.841122 0.049690 0.736447
O O6 0.791303 0.975423 0.764784
O O7 0.821555 0.018818 0.000000
O O8 0.000000 0.000000 0.831055
O O9 0.658964 0.354052 0.500000
O O10 0.687305 0.398080 0.268510
O O11 0.658867 0.322275 0.233723
O O12 0.255014 0.563905 0.500000
O O13 0.103966 0.565980 0.270849
O O14 0.276347 0.241367 0.251491
O O15 0.523588 0.262734 0.224096
O O16 0.375651 0.263454 0.000000
O O17 0.164594 0.223282 0.500000
O O18 0.000000 0.500000 0.773805
O O19 0.878195 0.562764 0.816607
O O20 0.045721 0.542844 0.000000
O O21 0.280586 0.410094 0.000000
#
# Coordination Sequence:
#
# PCOD9442950 Si02
#       8
#     8   8   8   8   8   8   8   8
#     4  10  20  37  61  85 114 148 184 229 283 336
#     4  10  20  34  53  78 107 138 177 226 278 332
#     4   9  19  37  59  84 114 147 181 229 285 332
#     4  10  20  34  55  80 105 139 185 228 273 330
#     4  10  21  39  63  91 123 155 193 238 284 344
#     4  10  21  38  62  92 121 155 196 234 283 345
#     4  10  21  38  54  71 105 148 186 229 280 330
#     4  11  22  36  54  77 107 144 187 230 278 332
#
# _framework density 18.226533
#
# number of rings (size 3 to 8) (size 9 to 14) (size 15 to 20)
#    0.000    2.000    1.250    2.250    0.000    6.000 
#    2.250    1.250    0.000    0.000    0.000    0.000 
#    0.000    0.000    0.000    0.000    0.000    0.000 
#
# Total GULP energy -357004.607977 kJ/mol
# GULP energy per Si atom -5578.197000 kJ/mol
# Density = 1.818505 g / cm^3
# Si number density = 18.226533 Si / 1000 Ang^3
#
#
#
# Elastic Constant Matrix: (Units=GPa)
#
#
# Indices 1 2 3 4 5 6 
#
# 1 35.0024 13.8127 13.1305 0.0000 0.0000 0.0000
# 2 13.8127 52.8489 11.5115 0.0000 0.0000 0.0000
# 3 13.1305 11.5115 32.5062 0.0000 0.0000 0.0000
# 4 0.0000 0.0000 0.0000 26.4124 0.0000 0.0000
# 5 0.0000 0.0000 0.0000 0.0000 -30.8670 0.0000
# 6 0.0000 0.0000 0.0000 0.0000 0.0000 32.7132
#
#
#
# Elastic Compliance Matrix: (Units=1/GPa)
#
#
# Indices 1 2 3 4 5 6 
#
# 1 0.035744 -0.006715 -0.012060 0.000000 0.000000 0.000000
# 2 -0.006715 0.021765 -0.004995 0.000000 0.000000 0.000000
# 3 -0.012060 -0.004995 0.037404 0.000000 0.000000 0.000000
# 4 0.000000 0.000000 0.000000 0.037861 0.000000 0.000000
# 5 0.000000 0.000000 0.000000 0.000000 -0.032397 0.000000
# 6 0.000000 0.000000 0.000000 0.000000 0.000000 0.030569
#
#
# Mechanical properties :
#
#
# Convention : Reuss Voigt Hill
#
# Bulk Modulus (GPa) = 21.10975 21.91856 21.51416
# Shear Modulus (GPa) = 25.73650 11.11191 18.42420
#
# Velocity S-wave (km/s) = 3.76178 2.47180 3.18283
# Velocity P-wave (km/s) = 5.52042 4.49423 5.03354
#
# Compressibility (1/GPa) = 0.04737148
#
# Stress axis : x y z
#
# Youngs Moduli (GPa) = 27.97707 45.94533 26.73517
#
# Poissons Ratio (x) = 0.30853 0.32243
# Poissons Ratio (y) = 0.18787 0.13355
# Poissons Ratio (z) = 0.33741 0.22951
#
# Static dielectric constant tensor:
#      x y z
#    x 1.636340 0.000000 0.000000 
#    y 0.000000 1.604070 0.000000 
#    z 0.000000 0.000000 1.637970 
# 
# From -- ./inp_files/4721.got.cif
#   From: 2010.05.17/outbox.cif.g08.bks.cpg/sg58_3_cif.got.tgz:4721.got - 2010.06.03 14:20:14.
