data_PCOD9442985
_publ_section_title
;
Structure prediction by ZEFSAII (Michael W. Deem and Ramdas Pophale) SiO2 
 PCOD9442985
Probable space group: P N N M
;
_chemical_formula_sum "Si O2"
_cell_formula_units_Z 64
_cell_length_a 27.839582
_cell_length_b 11.991612
_cell_length_c 9.298041
_cell_angle_alpha 90.000000
_cell_angle_beta 90.000000
_cell_angle_gamma 90.000000
_cell_volume 3104.071635
_symmetry_space_group_name_H-M "P N N M"
_symmetry_group_IT_number 58
_symmetry_cell_setting 'orthorhombic'
loop_
_space_group_symop_operation_xyz
x,y,z
-x,-y,z
1/2+x,1/2-y,1/2-z
1/2-x,1/2+y,1/2-z
-x,-y,-z
x,y,-z
1/2-x,1/2+y,1/2+z
1/2+x,1/2-y,1/2+z
loop_
_atom_site_type_symbol
_atom_site_label
_atom_site_fract_x
_atom_site_fract_y
_atom_site_fract_z
Si Si1 0.926820 0.930575 0.664869
Si Si2 0.780076 0.857631 0.169383
Si Si3 0.354053 0.782209 0.163883
Si Si4 0.348746 0.433656 0.329755
Si Si5 0.568661 0.862560 0.833590
Si Si6 0.501302 0.709433 0.665666
Si Si7 0.071881 0.419480 0.835126
Si Si8 0.824770 0.288254 0.665743
O O1 0.937232 0.962114 0.500000
O O2 0.890802 0.823318 0.661132
O O3 0.896542 0.023912 0.748417
O O4 0.973310 0.887432 0.750223
O O5 0.805737 0.763903 0.265215
O O6 0.807460 0.973438 0.197467
O O7 0.723356 0.857229 0.196827
O O8 0.788017 0.832554 0.000000
O O9 0.379794 0.873488 0.261994
O O10 0.347513 0.820737 0.000000
O O11 0.357748 0.429288 0.500000
O O12 0.330734 0.316949 0.268898
O O13 0.546719 0.756886 0.750969
O O14 0.553839 0.976116 0.755919
O O15 0.626222 0.857063 0.825424
O O16 0.553479 0.860382 0.000000
O O17 0.511505 0.680112 0.500000
O O18 0.465057 0.816113 0.665326
O O19 0.079199 0.453938 0.000000
O O20 0.821036 0.247669 0.500000
#
# Coordination Sequence:
#
# PCOD9442985 Si02
#       8
#     8   8   8   8   8   8   8   8
#     4   9  17  32  56  83 110 141 178 222 272 326
#     4   9  19  37  58  80 109 144 181 223 271 321
#     4   9  17  30  52  83 112 139 178 224 268 321
#     4  10  20  36  60  86 111 142 181 226 275 326
#     4  11  23  37  53  76 110 150 190 233 279 328
#     4  10  20  35  56  82 112 145 184 230 277 329
#     4  10  20  34  54  81 113 148 183 224 278 333
#     4  10  23  41  57  78 112 149 183 224 273 323
#
# _framework density 20.618079999999999
#
# number of rings (size 3 to 8) (size 9 to 14) (size 15 to 20)
#    0.000    2.250    0.000    2.625    0.000    9.000 
#    0.000    1.875    0.000    3.750    0.000    0.000 
#    0.000    0.000    0.000    0.000    0.000    0.000 
#
# Total GULP energy -357680.465895 kJ/mol
# GULP energy per Si atom -5588.757280 kJ/mol
# Density = 2.057115 g / cm^3
# Si number density = 20.618080 Si / 1000 Ang^3
#
#
#
# Elastic Constant Matrix: (Units=GPa)
#
#
# Indices 1 2 3 4 5 6 
#
# 1 72.0904 18.3245 39.8047 0.0000 0.0000 0.0000
# 2 18.3245 66.5006 46.4887 0.0000 0.0000 0.0000
# 3 39.8047 46.4887 131.7876 0.0000 0.0000 0.0000
# 4 0.0000 0.0000 0.0000 23.8793 0.0000 0.0000
# 5 0.0000 0.0000 0.0000 0.0000 25.9662 0.0000
# 6 0.0000 0.0000 0.0000 0.0000 0.0000 15.7746
#
#
#
# Elastic Compliance Matrix: (Units=1/GPa)
#
#
# Indices 1 2 3 4 5 6 
#
# 1 0.016750 -0.001432 -0.004554 0.000000 0.000000 0.000000
# 2 -0.001432 0.020082 -0.006651 0.000000 0.000000 0.000000
# 3 -0.004554 -0.006651 0.011310 0.000000 0.000000 0.000000
# 4 0.000000 0.000000 0.000000 0.041877 0.000000 0.000000
# 5 0.000000 0.000000 0.000000 0.000000 0.038512 0.000000
# 6 0.000000 0.000000 0.000000 0.000000 0.000000 0.063393
#
#
# Mechanical properties :
#
#
# Convention : Reuss Voigt Hill
#
# Bulk Modulus (GPa) = 43.73152 53.29048 48.51100
# Shear Modulus (GPa) = 22.23996 24.17473 23.20735
#
# Velocity S-wave (km/s) = 3.28786 3.42790 3.35861
# Velocity P-wave (km/s) = 5.97241 6.44747 6.21448
#
# Compressibility (1/GPa) = 0.02286680
#
# Stress axis : x y z
#
# Youngs Moduli (GPa) = 59.70173 49.79613 88.41908
#
# Poissons Ratio (x) = 0.07131 0.40266
# Poissons Ratio (y) = 0.08549 0.58812
# Poissons Ratio (z) = 0.27188 0.33122
#
# Static dielectric constant tensor:
#      x y z
#    x 1.743690 0.000000 0.000000 
#    y 0.000000 1.714960 0.000000 
#    z 0.000000 0.000000 1.706160 
# 
# From -- ./inp_files/10939.got.cif
#   From: 2010.05.17/outbox.cif.g08.bks.cpg/sg58_6_cif.got.tgz:10939.got - 2010.06.03 14:20:14.
