data_PCOD9442319
_publ_section_title
;
Structure prediction by ZEFSAII (Michael W. Deem and Ramdas Pophale) SiO2 
 PCOD9442319
Probable space group: P N N M
;
_chemical_formula_sum "Si O2"
_cell_formula_units_Z 58
_cell_length_a 26.945549
_cell_length_b 5.384946
_cell_length_c 19.461507
_cell_angle_alpha 90.000000
_cell_angle_beta 90.000000
_cell_angle_gamma 90.000000
_cell_volume 2823.871016
_symmetry_space_group_name_H-M "P N N M"
_symmetry_group_IT_number 58
_symmetry_cell_setting 'orthorhombic'
loop_
_space_group_symop_operation_xyz
x,y,z
-x,-y,z
1/2+x,1/2-y,1/2-z
1/2-x,1/2+y,1/2-z
-x,-y,-z
x,y,-z
1/2-x,1/2+y,1/2+z
1/2+x,1/2-y,1/2+z
loop_
_atom_site_type_symbol
_atom_site_label
_atom_site_fract_x
_atom_site_fract_y
_atom_site_fract_z
Si Si1 0.709843 0.228674 0.083698
Si Si2 0.383991 0.744547 0.583319
Si Si3 0.886729 0.747796 0.320200
Si Si4 0.000000 0.000000 0.000000
Si Si5 0.511393 0.250045 0.105329
Si Si6 0.770777 0.728837 0.082554
Si Si7 0.431237 0.251392 0.769394
Si Si8 0.556980 0.754236 0.382974
O O1 0.662682 0.240066 0.134178
O O2 0.742503 0.473782 0.098860
O O3 0.740148 0.976731 0.100042
O O4 0.698750 0.228083 0.000000
O O5 0.386337 0.732003 0.500000
O O6 0.327261 0.766548 0.608189
O O7 0.406802 0.483892 0.607229
O O8 0.414167 0.989273 0.604108
O O9 0.932051 0.749035 0.373377
O O10 0.897382 0.495664 0.277462
O O11 0.897078 0.002650 0.278402
O O12 0.984692 0.200825 0.060726
O O13 0.500000 0.500000 0.068489
O O14 0.473930 0.250763 0.171935
O O15 0.500000 0.000000 0.068538
O O16 0.774992 0.732728 0.000000
O O17 0.458432 0.249103 0.696299
#
# Coordination Sequence:
#
# PCOD9442319 Si02
#       8
#     8   8   8   2   8   8   8   8
#     4  10  19  34  59  96 116 144 186 257 304 338
#     4  11  21  42  59  85 115 158 194 242 296 366
#     4  10  19  35  57  83 118 148 200 240 287 344
#     4  12  28  42  60  98 128 154 186 274 300 330
#     4   8  16  30  49  74  99 145 189 226 254 320
#     4   9  19  34  61  85 115 150 196 235 298 362
#     4  10  21  37  57  81 112 165 203 233 270 367
#     4  12  25  40  61  86 125 152 197 242 308 333
#
# _framework density 20.539180000000002
#
# number of rings (size 3 to 8) (size 9 to 14) (size 15 to 20)
#    0.000    1.931    1.379    2.483    2.897    3.310 
#    2.483    0.000    0.000   24.000    0.000    0.000 
#    0.000    0.000    0.000    0.000    0.000    0.000 
#
# Total GULP energy -323094.368649 kJ/mol
# GULP energy per Si atom -5570.592563 kJ/mol
# Density = 2.049243 g / cm^3
# Si number density = 20.539180 Si / 1000 Ang^3
#
#
#
# Elastic Constant Matrix: (Units=GPa)
#
#
# Indices 1 2 3 4 5 6 
#
# 1 86.3735 51.5156 26.7516 0.0000 0.0000 0.0000
# 2 51.5156 191.6461 26.3260 0.0000 0.0000 0.0000
# 3 26.7516 26.3260 119.3062 0.0000 0.0000 0.0000
# 4 0.0000 0.0000 0.0000 16.4438 0.0000 0.0000
# 5 0.0000 0.0000 0.0000 0.0000 2.2300 0.0000
# 6 0.0000 0.0000 0.0000 0.0000 0.0000 31.8590
#
#
#
# Elastic Compliance Matrix: (Units=1/GPa)
#
#
# Indices 1 2 3 4 5 6 
#
# 1 0.014455 -0.003548 -0.002458 0.000000 0.000000 0.000000
# 2 -0.003548 0.006252 -0.000584 0.000000 0.000000 0.000000
# 3 -0.002458 -0.000584 0.009062 0.000000 0.000000 0.000000
# 4 0.000000 0.000000 0.000000 0.060813 0.000000 0.000000
# 5 0.000000 0.000000 0.000000 0.000000 0.448439 0.000000
# 6 0.000000 0.000000 0.000000 0.000000 0.000000 0.031388
#
#
# Mechanical properties :
#
#
# Convention : Reuss Voigt Hill
#
# Bulk Modulus (GPa) = 60.28327 67.39026 63.83677
# Shear Modulus (GPa) = 8.48725 29.62207 19.05466
#
# Velocity S-wave (km/s) = 2.03499 3.80178 3.04916
# Velocity P-wave (km/s) = 5.91064 7.22172 6.59882
#
# Compressibility (1/GPa) = 0.01658835
#
# Stress axis : x y z
#
# Youngs Moduli (GPa) = 69.17971 159.95202 110.35238
#
# Poissons Ratio (x) = 0.56750 0.27128
# Poissons Ratio (y) = 0.24544 0.06444
# Poissons Ratio (z) = 0.17007 0.09341
#
# Static dielectric constant tensor:
#      x y z
#    x 1.734310 0.000000 0.000000 
#    y 0.000000 1.867030 0.000000 
#    z 0.000000 0.000000 1.704980 
# 
# From -- ./inp_files/27743.got.cif
#   From: 2010.05.17/outbox.cif.g08.bks.cpg/sg58_14_cif.got.tgz:27743.got - 2010.06.03 14:20:14.
