data_PCOD9442320
_publ_section_title
;
Structure prediction by ZEFSAII (Michael W. Deem and Ramdas Pophale) SiO2 
 PCOD9442320
Probable space group: P N N M
;
_chemical_formula_sum "Si O2"
_cell_formula_units_Z 48
_cell_length_a 17.601237
_cell_length_b 12.126752
_cell_length_c 12.935142
_cell_angle_alpha 90.000000
_cell_angle_beta 90.000000
_cell_angle_gamma 90.000000
_cell_volume 2760.952198
_symmetry_space_group_name_H-M "P N N M"
_symmetry_group_IT_number 58
_symmetry_cell_setting 'orthorhombic'
loop_
_space_group_symop_operation_xyz
x,y,z
-x,-y,z
1/2+x,1/2-y,1/2-z
1/2-x,1/2+y,1/2-z
-x,-y,-z
x,y,-z
1/2-x,1/2+y,1/2+z
1/2+x,1/2-y,1/2+z
loop_
_atom_site_type_symbol
_atom_site_label
_atom_site_fract_x
_atom_site_fract_y
_atom_site_fract_z
Si Si1 0.622922 0.465861 0.000000
Si Si2 0.844273 0.671542 0.117812
Si Si3 0.703529 0.551419 0.200196
Si Si4 0.981609 0.186897 0.500000
Si Si5 0.107446 0.722876 0.691146
Si Si6 0.012616 0.631446 0.121214
Si Si7 0.745341 0.401106 0.616173
O O1 0.673406 0.479347 0.896769
O O2 0.567626 0.359623 0.000000
O O3 0.569948 0.575588 0.000000
O O4 0.789574 0.590830 0.179628
O O5 0.803410 0.788928 0.116538
O O6 0.930778 0.681878 0.151037
O O7 0.846722 0.628578 0.000000
O O8 0.651250 0.660551 0.206569
O O9 0.706146 0.482901 0.304365
O O10 0.955666 0.253751 0.602254
O O11 0.072745 0.677752 0.797428
O O12 0.170434 0.637086 0.649767
O O13 0.000000 0.500000 0.130078
O O14 0.029894 0.655732 0.000000
O O15 0.747565 0.445520 0.500000
#
# Coordination Sequence:
#
# PCOD9442320 Si02
#       7
#     4   8   8   4   8   8   8
#     4   9  18  32  56  90 105 139 189 233 277 314
#     4   9  18  35  55  76 104 141 182 214 265 334
#     4  10  19  34  60  83 107 141 183 235 268 316
#     4   9  18  34  57  80 118 145 176 228 281 341
#     4  10  20  37  58  79 112 150 182 220 281 333
#     4  10  21  36  56  78 105 142 184 227 270 325
#     4  10  20  35  55  78 107 148 180 214 275 338
#
# _framework density 17.385307000000001
#
# number of rings (size 3 to 8) (size 9 to 14) (size 15 to 20)
#    0.000    2.333    1.667    1.000    2.333    0.667 
#    1.500    0.417    3.667    3.000    0.000    0.000 
#    0.000    0.000    0.000    0.000    0.000    0.000 
#
# Total GULP energy -267545.785452 kJ/mol
# GULP energy per Si atom -5573.870530 kJ/mol
# Density = 1.734574 g / cm^3
# Si number density = 17.385307 Si / 1000 Ang^3
#
#
#
# Elastic Constant Matrix: (Units=GPa)
#
#
# Indices 1 2 3 4 5 6 
#
# 1 52.2327 14.1367 59.5589 0.0000 0.0000 0.0000
# 2 14.1367 34.7811 44.7200 0.0000 0.0000 0.0000
# 3 59.5589 44.7200 147.0216 0.0000 0.0000 0.0000
# 4 0.0000 0.0000 0.0000 27.2710 0.0000 0.0000
# 5 0.0000 0.0000 0.0000 0.0000 26.3923 0.0000
# 6 0.0000 0.0000 0.0000 0.0000 0.0000 12.9082
#
#
#
# Elastic Compliance Matrix: (Units=1/GPa)
#
#
# Indices 1 2 3 4 5 6 
#
# 1 0.036553 0.006868 -0.016897 0.000000 0.000000 0.000000
# 2 0.006868 0.048508 -0.017537 0.000000 0.000000 0.000000
# 3 -0.016897 -0.017537 0.018981 0.000000 0.000000 0.000000
# 4 0.000000 0.000000 0.000000 0.036669 0.000000 0.000000
# 5 0.000000 0.000000 0.000000 0.000000 0.037890 0.000000
# 6 0.000000 0.000000 0.000000 0.000000 0.000000 0.077470
#
#
# Mechanical properties :
#
#
# Convention : Reuss Voigt Hill
#
# Bulk Modulus (GPa) = 20.44540 52.31853 36.38196
# Shear Modulus (GPa) = 15.26685 21.02228 18.14456
#
# Velocity S-wave (km/s) = 2.96657 3.48112 3.23410
# Velocity P-wave (km/s) = 4.84971 6.80562 5.90916
#
# Compressibility (1/GPa) = 0.04891077
#
# Stress axis : x y z
#
# Youngs Moduli (GPa) = 27.35749 20.61499 52.68388
#
# Poissons Ratio (x) = -0.14159 0.89020
# Poissons Ratio (y) = -0.18790 0.92394
# Poissons Ratio (z) = 0.46226 0.36153
#
# Static dielectric constant tensor:
#      x y z
#    x 1.616070 0.000000 0.000000 
#    y 0.000000 1.579080 0.000000 
#    z 0.000000 0.000000 1.581000 
# 
# From -- ./inp_files/16375.got.cif
#   From: 2010.05.17/outbox.cif.g08.bks.cpg/sg58_9_cif.got.tgz:16375.got - 2010.06.03 14:20:14.
