data_PCOD9442558
_publ_section_title
;
Structure prediction by ZEFSAII (Michael W. Deem and Ramdas Pophale) SiO2 
 PCOD9442558
Probable space group: P N N M
;
_chemical_formula_sum "Si O2"
_cell_formula_units_Z 56
_cell_length_a 8.436771
_cell_length_b 14.254044
_cell_length_c 24.500057
_cell_angle_alpha 90.000000
_cell_angle_beta 90.000000
_cell_angle_gamma 90.000000
_cell_volume 2946.330428
_symmetry_space_group_name_H-M "P N N M"
_symmetry_group_IT_number 58
_symmetry_cell_setting 'orthorhombic'
loop_
_space_group_symop_operation_xyz
x,y,z
-x,-y,z
1/2+x,1/2-y,1/2-z
1/2-x,1/2+y,1/2-z
-x,-y,-z
x,y,-z
1/2-x,1/2+y,1/2+z
1/2+x,1/2-y,1/2+z
loop_
_atom_site_type_symbol
_atom_site_label
_atom_site_fract_x
_atom_site_fract_y
_atom_site_fract_z
Si Si1 0.129489 0.710501 0.564712
Si Si2 0.698507 0.679330 0.719050
Si Si3 0.112725 0.421510 0.373705
Si Si4 0.844304 0.950295 0.935224
Si Si5 0.592091 0.588121 0.887853
Si Si6 0.176205 0.462239 0.200482
Si Si7 0.615669 0.366488 0.779755
O O1 0.105697 0.694572 0.500000
O O2 0.289497 0.654006 0.582053
O O3 0.126842 0.820503 0.576863
O O4 0.992702 0.659793 0.599675
O O5 0.759669 0.623760 0.666298
O O6 0.802276 0.635037 0.768216
O O7 0.516360 0.661730 0.735253
O O8 0.751515 0.786788 0.714263
O O9 0.200036 0.481340 0.420197
O O10 0.000000 0.500000 0.345055
O O11 0.864936 0.944965 0.000000
O O12 0.000000 0.000000 0.911418
O O13 0.500000 0.500000 0.914172
O O14 0.752577 0.550712 0.859862
O O15 0.481659 0.620244 0.836360
O O16 0.294538 0.535891 0.230369
O O17 0.000000 0.500000 0.200629
#
# Coordination Sequence:
#
# PCOD9442558 Si02
#       7
#     8   8   8   8   8   8   8
#     4  10  19  36  61  84 112 151 193 238 290 343
#     4  11  20  35  55  80 112 146 185 232 273 341
#     4  10  20  34  56  84 111 142 190 232 280 341
#     4   9  19  36  53  79 119 151 180 230 290 343
#     4   9  19  37  57  80 114 145 192 240 285 343
#     4  10  21  38  56  77 110 151 184 230 286 336
#     4  10  21  37  55  80 115 149 186 231 282 336
#
# _framework density 19.006692999999999
#
# number of rings (size 3 to 8) (size 9 to 14) (size 15 to 20)
#    0.000    2.143    1.429    3.000    0.000    3.143 
#   10.286    0.000    0.000    0.429    0.000    0.000 
#    0.000    0.000    0.000    0.000    0.000    0.000 
#
# Total GULP energy -312240.678724 kJ/mol
# GULP energy per Si atom -5575.726406 kJ/mol
# Density = 1.896343 g / cm^3
# Si number density = 19.006693 Si / 1000 Ang^3
#
#
#
# Elastic Constant Matrix: (Units=GPa)
#
#
# Indices 1 2 3 4 5 6 
#
# 1 89.6317 31.2566 17.3507 0.0000 0.0000 0.0000
# 2 31.2566 117.7858 15.2017 0.0000 0.0000 0.0000
# 3 17.3507 15.2017 23.1577 0.0000 0.0000 0.0000
# 4 0.0000 0.0000 0.0000 25.7563 0.0000 0.0000
# 5 0.0000 0.0000 0.0000 0.0000 15.3686 0.0000
# 6 0.0000 0.0000 0.0000 0.0000 0.0000 24.4111
#
#
#
# Elastic Compliance Matrix: (Units=1/GPa)
#
#
# Indices 1 2 3 4 5 6 
#
# 1 0.013704 -0.002525 -0.008610 0.000000 0.000000 0.000000
# 2 -0.002525 0.009741 -0.004502 0.000000 0.000000 0.000000
# 3 -0.008610 -0.004502 0.052589 0.000000 0.000000 0.000000
# 4 0.000000 0.000000 0.000000 0.038825 0.000000 0.000000
# 5 0.000000 0.000000 0.000000 0.000000 0.065068 0.000000
# 6 0.000000 0.000000 0.000000 0.000000 0.000000 0.040965
#
#
# Mechanical properties :
#
#
# Convention : Reuss Voigt Hill
#
# Bulk Modulus (GPa) = 22.34212 39.79926 31.07069
# Shear Modulus (GPa) = 18.72048 24.22494 21.47271
#
# Velocity S-wave (km/s) = 3.14178 3.57395 3.36481
# Velocity P-wave (km/s) = 4.99414 6.16571 5.61059
#
# Compressibility (1/GPa) = 0.04475851
#
# Stress axis : x y z
#
# Youngs Moduli (GPa) = 72.97075 102.65626 19.01551
#
# Poissons Ratio (x) = 0.25925 0.16372
# Poissons Ratio (y) = 0.18428 0.08562
# Poissons Ratio (z) = 0.62827 0.46220
#
# Static dielectric constant tensor:
#      x y z
#    x 1.679440 0.000000 0.000000 
#    y 0.000000 1.667210 0.000000 
#    z 0.000000 0.000000 1.657780 
# 
# From -- ./inp_files/28942.got.cif
#   From: 2010.05.17/outbox.cif.g08.bks.cpg/sg58_15_cif.got.tgz:28942.got - 2010.06.03 14:20:14.
