data_PCOD9442797
_publ_section_title
;
Structure prediction by ZEFSAII (Michael W. Deem and Ramdas Pophale) SiO2 
 PCOD9442797
Probable space group: P N N M
;
_chemical_formula_sum "Si O2"
_cell_formula_units_Z 56
_cell_length_a 18.242379
_cell_length_b 19.590103
_cell_length_c 8.994136
_cell_angle_alpha 90.000000
_cell_angle_beta 90.000000
_cell_angle_gamma 90.000000
_cell_volume 3214.235134
_symmetry_space_group_name_H-M "P N N M"
_symmetry_group_IT_number 58
_symmetry_cell_setting 'orthorhombic'
loop_
_space_group_symop_operation_xyz
x,y,z
-x,-y,z
1/2+x,1/2-y,1/2-z
1/2-x,1/2+y,1/2-z
-x,-y,-z
x,y,-z
1/2-x,1/2+y,1/2+z
1/2+x,1/2-y,1/2+z
loop_
_atom_site_type_symbol
_atom_site_label
_atom_site_fract_x
_atom_site_fract_y
_atom_site_fract_z
Si Si1 0.510033 0.710328 0.323393
Si Si2 0.523816 0.425005 0.822035
Si Si3 0.392154 0.895354 0.822455
Si Si4 0.667271 0.956817 0.177758
Si Si5 0.805435 0.893266 0.323683
Si Si6 0.047958 0.642112 0.821383
Si Si7 0.143631 0.248554 0.323323
O O1 0.512964 0.702703 0.500000
O O2 0.522021 0.637155 0.248272
O O3 0.556738 0.777452 0.281428
O O4 0.428420 0.731415 0.271056
O O5 0.500000 0.500000 0.770861
O O6 0.610268 0.413305 0.790916
O O7 0.515122 0.421533 0.000000
O O8 0.469288 0.883160 0.740393
O O9 0.341678 0.828286 0.796754
O O10 0.355126 0.966197 0.778325
O O11 0.407035 0.898147 0.000000
O O12 0.747664 0.936508 0.232484
O O13 0.610443 0.904493 0.251761
O O14 0.662343 0.951944 0.000000
O O15 0.793016 0.903266 0.500000
O O16 0.799202 0.811756 0.291584
O O17 0.048238 0.637010 0.000000
O O18 0.125631 0.241069 0.500000
#
# Coordination Sequence:
#
# PCOD9442797 Si02
#       7
#     8   8   8   8   8   8   8
#     4   9  17  29  48  75 100 122 156 201 244 286
#     4   9  18  34  56  78 100 130 167 206 251 302
#     4   9  18  33  52  74  98 127 167 209 249 295
#     4  11  22  33  48  72 103 136 166 203 251 300
#     4   9  18  33  52  72  96 129 165 202 247 297
#     4  10  20  33  50  73 101 133 168 206 247 294
#     4   8  15  31  53  70  89 123 162 199 242 294
#
# _framework density 17.422495999999999
#
# number of rings (size 3 to 8) (size 9 to 14) (size 15 to 20)
#    0.000    2.714    0.000    2.571    0.000    7.143 
#    0.000    1.429    0.000    5.143    0.000    0.000 
#    0.000    0.000    0.000    0.000    0.000    0.000 
#
# Total GULP energy -311912.691733 kJ/mol
# GULP energy per Si atom -5569.869495 kJ/mol
# Density = 1.738284 g / cm^3
# Si number density = 17.422496 Si / 1000 Ang^3
#
#
#
# Elastic Constant Matrix: (Units=GPa)
#
#
# Indices 1 2 3 4 5 6 
#
# 1 33.4773 46.3807 22.3041 0.0000 0.0000 0.0000
# 2 46.3807 184.8873 51.5131 0.0000 0.0000 0.0000
# 3 22.3041 51.5131 30.2551 0.0000 0.0000 0.0000
# 4 0.0000 0.0000 0.0000 27.7621 0.0000 0.0000
# 5 0.0000 0.0000 0.0000 0.0000 22.8829 0.0000
# 6 0.0000 0.0000 0.0000 0.0000 0.0000 13.1229
#
#
#
# Elastic Compliance Matrix: (Units=1/GPa)
#
#
# Indices 1 2 3 4 5 6 
#
# 1 0.061320 -0.005304 -0.036175 0.000000 0.000000 0.000000
# 2 -0.005304 0.010749 -0.014391 0.000000 0.000000 0.000000
# 3 -0.036175 -0.014391 0.084224 0.000000 0.000000 0.000000
# 4 0.000000 0.000000 0.000000 0.036020 0.000000 0.000000
# 5 0.000000 0.000000 0.000000 0.000000 0.043701 0.000000
# 6 0.000000 0.000000 0.000000 0.000000 0.000000 0.076203
#
#
# Mechanical properties :
#
#
# Convention : Reuss Voigt Hill
#
# Bulk Modulus (GPa) = 22.44549 54.33504 38.39026
# Shear Modulus (GPa) = 11.39450 21.31506 16.35478
#
# Velocity S-wave (km/s) = 2.56014 3.50154 3.06717
# Velocity P-wave (km/s) = 4.65297 6.89943 5.88439
#
# Compressibility (1/GPa) = 0.04455239
#
# Stress axis : x y z
#
# Youngs Moduli (GPa) = 16.30778 93.03273 11.87312
#
# Poissons Ratio (x) = 0.49342 0.42951
# Poissons Ratio (y) = 0.08649 0.17087
# Poissons Ratio (z) = 0.58994 1.33888
#
# Static dielectric constant tensor:
#      x y z
#    x 1.558590 0.000000 0.000000 
#    y 0.000000 1.641530 0.000000 
#    z 0.000000 0.000000 1.581600 
# 
# From -- ./inp_files/9173.got.cif
#   From: 2010.05.17/outbox.cif.g08.bks.cpg/sg58_5_cif.got.tgz:9173.got - 2010.06.03 14:20:14.
