data_PCOD9442816
_publ_section_title
;
Structure prediction by ZEFSAII (Michael W. Deem and Ramdas Pophale) SiO2 
 PCOD9442816
Probable space group: P N N M
;
_chemical_formula_sum "Si O2"
_cell_formula_units_Z 64
_cell_length_a 25.271822
_cell_length_b 14.639079
_cell_length_c 7.462255
_cell_angle_alpha 90.000000
_cell_angle_beta 90.000000
_cell_angle_gamma 90.000000
_cell_volume 2760.707494
_symmetry_space_group_name_H-M "P N N M"
_symmetry_group_IT_number 58
_symmetry_cell_setting 'orthorhombic'
loop_
_space_group_symop_operation_xyz
x,y,z
-x,-y,z
1/2+x,1/2-y,1/2-z
1/2-x,1/2+y,1/2-z
-x,-y,-z
x,y,-z
1/2-x,1/2+y,1/2+z
1/2+x,1/2-y,1/2+z
loop_
_atom_site_type_symbol
_atom_site_label
_atom_site_fract_x
_atom_site_fract_y
_atom_site_fract_z
Si Si1 0.863539 0.991721 0.290056
Si Si2 0.653000 0.109390 0.281674
Si Si3 0.328964 0.182097 0.287700
Si Si4 0.074459 0.539570 0.785409
Si Si5 0.395963 0.711518 0.283247
Si Si6 0.500571 0.809523 0.294639
Si Si7 0.908170 0.173388 0.295387
Si Si8 0.255034 0.027836 0.280169
O O1 0.858364 0.015200 0.500000
O O2 0.887015 0.890974 0.277426
O O3 0.804073 0.989413 0.216432
O O4 0.899575 0.073169 0.215772
O O5 0.652944 0.106079 0.500000
O O6 0.648664 0.214762 0.228539
O O7 0.599377 0.055794 0.222909
O O8 0.703923 0.051388 0.224114
O O9 0.323934 0.197351 0.500000
O O10 0.376103 0.108602 0.258986
O O11 0.351266 0.275206 0.207298
O O12 0.277633 0.127032 0.223206
O O13 0.024013 0.596149 0.714871
O O14 0.066577 0.531811 0.000000
O O15 0.396888 0.708041 0.500000
O O16 0.450937 0.755578 0.217825
O O17 0.485812 0.831489 0.500000
O O18 0.549577 0.738707 0.298463
O O19 0.927054 0.167999 0.500000
O O20 0.255620 0.029253 0.500000
#
# Coordination Sequence:
#
# PCOD9442816 Si02
#       8
#     8   8   8   8   8   8   8   8
#     4  10  22  37  50  68  98 136 174 206 243 298
#     4   8  14  27  50  79 104 124 155 201 248 294
#     4   8  14  28  52  77  98 123 157 199 247 295
#     4   7  11  23  46  74  99 121 149 189 236 290
#     4  10  21  34  51  77 103 128 164 212 256 291
#     4   9  18  33  52  75 102 131 164 204 254 303
#     4  10  20  33  51  74  98 130 172 212 249 291
#     4   8  15  31  54  76 100 131 162 196 246 305
#
# _framework density 23.182464
#
# number of rings (size 3 to 8) (size 9 to 14) (size 15 to 20)
#    0.000    3.250    0.000    2.625    0.000    3.500 
#    0.000    6.875    0.000    7.500    0.000    8.750 
#    0.000    0.000    0.000    0.000    0.000    0.000 
#
# Total GULP energy -357031.793483 kJ/mol
# GULP energy per Si atom -5578.621773 kJ/mol
# Density = 2.312970 g / cm^3
# Si number density = 23.182464 Si / 1000 Ang^3
#
#
#
# Elastic Constant Matrix: (Units=GPa)
#
#
# Indices 1 2 3 4 5 6 
#
# 1 66.2216 32.4316 -10.1866 0.0000 0.0000 0.0000
# 2 32.4316 165.2227 -7.9188 0.0000 0.0000 0.0000
# 3 -10.1866 -7.9188 57.5331 0.0000 0.0000 0.0000
# 4 0.0000 0.0000 0.0000 -37.4450 0.0000 0.0000
# 5 0.0000 0.0000 0.0000 0.0000 5.7349 0.0000
# 6 0.0000 0.0000 0.0000 0.0000 0.0000 22.2805
#
#
#
# Elastic Compliance Matrix: (Units=1/GPa)
#
#
# Indices 1 2 3 4 5 6 
#
# 1 0.017079 -0.003229 0.002580 0.000000 0.000000 0.000000
# 2 -0.003229 0.006703 0.000351 0.000000 0.000000 0.000000
# 3 0.002580 0.000351 0.017886 0.000000 0.000000 0.000000
# 4 0.000000 0.000000 0.000000 -0.026706 0.000000 0.000000
# 5 0.000000 0.000000 0.000000 0.000000 0.174372 0.000000
# 6 0.000000 0.000000 0.000000 0.000000 0.000000 0.044882
#
#
# Mechanical properties :
#
#
# Convention : Reuss Voigt Hill
#
# Bulk Modulus (GPa) = 24.34776 35.29219 29.81998
# Shear Modulus (GPa) = 20.12041 16.42416 18.27229
#
# Velocity S-wave (km/s) = 2.94924 2.66460 2.81053
# Velocity P-wave (km/s) = 4.70349 4.97228 4.83975
#
# Compressibility (1/GPa) = 0.04107154
#
# Stress axis : x y z
#
# Youngs Moduli (GPa) = 58.55180 149.18613 55.90868
#
# Poissons Ratio (x) = 0.48169 -0.14422
# Poissons Ratio (y) = 0.18905 -0.01962
# Poissons Ratio (z) = -0.15104 -0.05235
#
# Static dielectric constant tensor:
#      x y z
#    x 1.891800 0.000000 0.000000 
#    y 0.000000 1.876020 0.000000 
#    z 0.000000 0.000000 1.894440 
# 
# From -- ./inp_files/17853.got.cif
#   From: 2010.05.17/outbox.cif.g08.bks.cpg/sg58_9_cif.got.tgz:17853.got - 2010.06.03 14:20:14.
