data_PCOD9442155
_publ_section_title
;
Structure prediction by ZEFSAII (Michael W. Deem and Ramdas Pophale) SiO2 
 PCOD9442155
Probable space group: P N N M
;
_chemical_formula_sum "Si O2"
_cell_formula_units_Z 64
_cell_length_a 19.366949
_cell_length_b 23.698511
_cell_length_c 8.849253
_cell_angle_alpha 90.000000
_cell_angle_beta 90.000000
_cell_angle_gamma 90.000000
_cell_volume 4061.522658
_symmetry_space_group_name_H-M "P N N M"
_symmetry_group_IT_number 58
_symmetry_cell_setting 'orthorhombic'
loop_
_space_group_symop_operation_xyz
x,y,z
-x,-y,z
1/2+x,1/2-y,1/2-z
1/2-x,1/2+y,1/2-z
-x,-y,-z
x,y,-z
1/2-x,1/2+y,1/2+z
1/2+x,1/2-y,1/2+z
loop_
_atom_site_type_symbol
_atom_site_label
_atom_site_fract_x
_atom_site_fract_y
_atom_site_fract_z
Si Si1 0.857676 0.228198 0.179101
Si Si2 0.000651 0.255271 0.319953
Si Si3 0.768047 0.340726 0.180367
Si Si4 0.733242 0.165121 0.319507
Si Si5 0.496045 0.119398 0.680831
Si Si6 0.857258 0.776321 0.180358
Si Si7 0.359662 0.063690 0.819983
Si Si8 0.142078 0.441343 0.180899
O O1 0.820995 0.288732 0.210584
O O2 0.802939 0.181736 0.234176
O O3 0.929780 0.226702 0.265589
O O4 0.868983 0.224421 0.000000
O O5 0.003545 0.258123 0.500000
O O6 0.000440 0.318481 0.251502
O O7 0.067841 0.224123 0.254922
O O8 0.695278 0.321665 0.250096
O O9 0.799826 0.396061 0.255265
O O10 0.762807 0.347085 0.000000
O O11 0.745705 0.165580 0.500000
O O12 0.678063 0.215158 0.289104
O O13 0.698678 0.105862 0.278093
O O14 0.487453 0.124868 0.500000
O O15 0.431155 0.086504 0.749156
O O16 0.566725 0.085612 0.710022
O O17 0.862245 0.782786 0.000000
O O18 0.349469 0.999574 0.767734
O O19 0.362594 0.068094 0.000000
O O20 0.146443 0.451365 0.000000
#
# Coordination Sequence:
#
# PCOD9442155 Si02
#       8
#     8   8   8   8   8   8   8   8
#     4  10  20  33  52  75 102 135 170 212 262 309
#     4  12  22  32  51  78 107 139 174 212 258 312
#     4  10  20  35  53  74 101 136 175 215 259 308
#     4   9  18  34  53  74 100 133 172 213 259 307
#     4  11  21  36  52  71 101 141 182 217 257 304
#     4  10  19  34  54  76 104 134 169 214 262 312
#     4  12  24  35  50  75 104 139 179 220 259 301
#     4  10  21  37  54  72 100 141 179 214 257 307
#
# _framework density 15.757638
#
# number of rings (size 3 to 8) (size 9 to 14) (size 15 to 20)
#    0.000    1.500    2.500    4.125    0.000    4.500 
#    0.000    0.000    0.000    0.000    0.000    0.875 
#    0.000    7.000    0.000    0.000    0.000    0.000 
#
# Total GULP energy -357563.079070 kJ/mol
# GULP energy per Si atom -5586.923110 kJ/mol
# Density = 1.572177 g / cm^3
# Si number density = 15.757638 Si / 1000 Ang^3
#
#
#
# Elastic Constant Matrix: (Units=GPa)
#
#
# Indices 1 2 3 4 5 6 
#
# 1 130.8669 65.7225 76.0415 0.0000 0.0000 0.0000
# 2 65.7225 85.2361 52.5019 0.0000 0.0000 0.0000
# 3 76.0415 52.5019 89.7019 0.0000 0.0000 0.0000
# 4 0.0000 0.0000 0.0000 26.3200 0.0000 0.0000
# 5 0.0000 0.0000 0.0000 0.0000 28.3438 0.0000
# 6 0.0000 0.0000 0.0000 0.0000 0.0000 16.0957
#
#
#
# Elastic Compliance Matrix: (Units=1/GPa)
#
#
# Indices 1 2 3 4 5 6 
#
# 1 0.017198 -0.006694 -0.010661 0.000000 0.000000 0.000000
# 2 -0.006694 0.020952 -0.006588 0.000000 0.000000 0.000000
# 3 -0.010661 -0.006588 0.024041 0.000000 0.000000 0.000000
# 4 0.000000 0.000000 0.000000 0.037994 0.000000 0.000000
# 5 0.000000 0.000000 0.000000 0.000000 0.035281 0.000000
# 6 0.000000 0.000000 0.000000 0.000000 0.000000 0.062129
#
#
# Mechanical properties :
#
#
# Convention : Reuss Voigt Hill
#
# Bulk Modulus (GPa) = 69.90712 77.14851 73.52782
# Shear Modulus (GPa) = 19.98012 21.58782 20.78397
#
# Velocity S-wave (km/s) = 3.56471 3.70535 3.63571
# Velocity P-wave (km/s) = 7.83602 8.20804 8.02418
#
# Compressibility (1/GPa) = 0.01430469
#
# Stress axis : x y z
#
# Youngs Moduli (GPa) = 58.14749 47.72878 41.59481
#
# Poissons Ratio (x) = 0.31949 0.44343
# Poissons Ratio (y) = 0.38923 0.27404
# Poissons Ratio (z) = 0.61990 0.31446
#
# Static dielectric constant tensor:
#      x y z
#    x 1.514800 0.000000 0.000000 
#    y 0.000000 1.501890 0.000000 
#    z 0.000000 0.000000 1.521190 
# 
# From -- ./inp_files/6944.got.cif
#   From: 2010.05.17/outbox.cif.g08.bks.cpg/sg58_4_cif.got.tgz:6944.got - 2010.06.03 14:20:14.
