data_PCOD9442324
_publ_section_title
;
Structure prediction by ZEFSAII (Michael W. Deem and Ramdas Pophale) SiO2 
 PCOD9442324
Probable space group: P N N M
;
_chemical_formula_sum "Si O2"
_cell_formula_units_Z 64
_cell_length_a 28.993822
_cell_length_b 12.496471
_cell_length_c 9.075820
_cell_angle_alpha 90.000000
_cell_angle_beta 90.000000
_cell_angle_gamma 90.000000
_cell_volume 3288.355239
_symmetry_space_group_name_H-M "P N N M"
_symmetry_group_IT_number 58
_symmetry_cell_setting 'orthorhombic'
loop_
_space_group_symop_operation_xyz
x,y,z
-x,-y,z
1/2+x,1/2-y,1/2-z
1/2-x,1/2+y,1/2-z
-x,-y,-z
x,y,-z
1/2-x,1/2+y,1/2+z
1/2+x,1/2-y,1/2+z
loop_
_atom_site_type_symbol
_atom_site_label
_atom_site_fract_x
_atom_site_fract_y
_atom_site_fract_z
Si Si1 0.380325 0.667510 0.323777
Si Si2 0.525253 0.737849 0.176648
Si Si3 0.186578 0.621455 0.827954
Si Si4 0.338786 0.367981 0.667954
Si Si5 0.076264 0.968430 0.325574
Si Si6 0.406706 0.070000 0.825127
Si Si7 0.058550 0.361607 0.175246
Si Si8 0.717896 0.423361 0.328257
O O1 0.381806 0.650886 0.500000
O O2 0.415425 0.581882 0.252183
O O3 0.396845 0.787289 0.293077
O O4 0.327962 0.640901 0.276824
O O5 0.536261 0.615161 0.219651
O O6 0.569183 0.815421 0.204948
O O7 0.483796 0.793277 0.261988
O O8 0.516768 0.739435 0.000000
O O9 0.178278 0.748457 0.812559
O O10 0.144335 0.567450 0.742055
O O11 0.236450 0.595434 0.763653
O O12 0.183820 0.593144 0.000000
O O13 0.357951 0.378716 0.500000
O O14 0.377269 0.403493 0.783616
O O15 0.297647 0.453113 0.679013
O O16 0.072317 0.985034 0.500000
O O17 0.436417 0.975534 0.752696
O O18 0.405352 0.055541 0.000000
O O19 0.054151 0.375306 0.000000
O O20 0.726202 0.395713 0.500000
#
# Coordination Sequence:
#
# PCOD9442324 Si02
#       8
#     8   8   8   8   8   8   8   8
#     4   9  21  41  59  82 119 157 193 240 297 351
#     4  10  22  39  59  87 119 154 196 243 297 353
#     4  11  22  36  58  88 115 145 194 245 289 347
#     4   9  19  36  56  79 112 150 188 237 293 344
#     4  10  19  34  60  88 113 147 196 242 284 344
#     4  11  23  41  61  83 118 157 195 242 297 352
#     4  11  24  40  60  87 120 158 200 243 293 350
#     4   9  19  37  58  80 111 152 190 232 294 353
#
# _framework density 19.462617999999999
#
# number of rings (size 3 to 8) (size 9 to 14) (size 15 to 20)
#    0.000    2.000    1.250    2.625    0.000    8.500 
#    0.000    5.000    0.000    0.000    0.000    0.000 
#    0.000    0.000    0.000    0.000    0.000    0.000 
#
# Total GULP energy -357352.518223 kJ/mol
# GULP energy per Si atom -5583.633097 kJ/mol
# Density = 1.941832 g / cm^3
# Si number density = 19.462618 Si / 1000 Ang^3
#
#
#
# Elastic Constant Matrix: (Units=GPa)
#
#
# Indices 1 2 3 4 5 6 
#
# 1 64.3317 -2.0811 24.3617 0.0000 0.0000 0.0000
# 2 -2.0811 49.0370 16.3110 0.0000 0.0000 0.0000
# 3 24.3617 16.3110 33.2962 0.0000 0.0000 0.0000
# 4 0.0000 0.0000 0.0000 22.6234 0.0000 0.0000
# 5 0.0000 0.0000 0.0000 0.0000 32.7776 0.0000
# 6 0.0000 0.0000 0.0000 0.0000 0.0000 17.7338
#
#
#
# Elastic Compliance Matrix: (Units=1/GPa)
#
#
# Indices 1 2 3 4 5 6 
#
# 1 0.023968 0.008184 -0.021546 0.000000 0.000000 0.000000
# 2 0.008184 0.027157 -0.019291 0.000000 0.000000 0.000000
# 3 -0.021546 -0.019291 0.055248 0.000000 0.000000 0.000000
# 4 0.000000 0.000000 0.000000 0.044202 0.000000 0.000000
# 5 0.000000 0.000000 0.000000 0.000000 0.030509 0.000000
# 6 0.000000 0.000000 0.000000 0.000000 0.000000 0.056389
#
#
# Mechanical properties :
#
#
# Convention : Reuss Voigt Hill
#
# Bulk Modulus (GPa) = 24.35063 24.87202 24.61133
# Shear Modulus (GPa) = 15.79929 21.83184 18.81557
#
# Velocity S-wave (km/s) = 2.85226 3.35286 3.11264
# Velocity P-wave (km/s) = 4.83589 5.27219 5.05875
#
# Compressibility (1/GPa) = 0.04106670
#
# Stress axis : x y z
#
# Youngs Moduli (GPa) = 41.72149 36.82307 18.10006
#
# Poissons Ratio (x) = -0.30136 0.38999
# Poissons Ratio (y) = -0.34145 0.34918
# Poissons Ratio (z) = 0.89893 0.71037
#
# Static dielectric constant tensor:
#      x y z
#    x 1.678740 0.000000 0.000000 
#    y 0.000000 1.679740 0.000000 
#    z 0.000000 0.000000 1.656190 
# 
# From -- ./inp_files/11073.got.cif
#   From: 2010.05.17/outbox.cif.g08.bks.cpg/sg58_6_cif.got.tgz:11073.got - 2010.06.03 14:20:14.
