data_PCOD9442863
_publ_section_title
;
Structure prediction by ZEFSAII (Michael W. Deem and Ramdas Pophale) SiO2 
 PCOD9442863
Probable space group: P N N M
;
_chemical_formula_sum "Si O2"
_cell_formula_units_Z 58
_cell_length_a 18.632874
_cell_length_b 19.663707
_cell_length_c 7.471965
_cell_angle_alpha 90.000000
_cell_angle_beta 90.000000
_cell_angle_gamma 90.000000
_cell_volume 2737.663530
_symmetry_space_group_name_H-M "P N N M"
_symmetry_group_IT_number 58
_symmetry_cell_setting 'orthorhombic'
loop_
_space_group_symop_operation_xyz
x,y,z
-x,-y,z
1/2+x,1/2-y,1/2-z
1/2-x,1/2+y,1/2-z
-x,-y,-z
x,y,-z
1/2-x,1/2+y,1/2+z
1/2+x,1/2-y,1/2+z
loop_
_atom_site_type_symbol
_atom_site_label
_atom_site_fract_x
_atom_site_fract_y
_atom_site_fract_z
Si Si1 0.773972 0.037899 0.297317
Si Si2 0.676928 0.394720 0.704986
Si Si3 0.389924 0.969696 0.283292
Si Si4 0.251514 0.740431 0.717970
Si Si5 0.130045 0.838499 0.280400
Si Si6 0.030621 0.176616 0.707490
Si Si7 0.500000 0.000000 0.000000
Si Si8 0.896672 0.685726 0.784995
O O1 0.760169 0.062374 0.500000
O O2 0.693773 0.025731 0.228691
O O3 0.824411 0.096198 0.218056
O O4 0.815050 0.966594 0.298437
O O5 0.697489 0.407231 0.500000
O O6 0.727834 0.334968 0.780099
O O7 0.597099 0.363519 0.707736
O O8 0.397020 0.980140 0.500000
O O9 0.411773 0.891613 0.234720
O O10 0.439779 0.014892 0.159313
O O11 0.253085 0.738461 0.500000
O O12 0.176342 0.772593 0.772318
O O13 0.317030 0.790128 0.772812
O O14 0.127011 0.839072 0.500000
O O15 0.048169 0.837911 0.218231
O O16 0.031578 0.156695 0.500000
O O17 0.048893 0.256669 0.720251
O O18 0.896979 0.688126 0.000000
#
# Coordination Sequence:
#
# PCOD9442863 Si02
#       8
#     8   8   8   8   8   8   2   8
#     4  10  20  38  64  86 116 157 207 253 307 371
#     4  10  21  36  56  81 120 163 199 248 313 377
#     4  10  22  42  65  91 124 169 208 260 315 372
#     4   8  14  31  56  80 103 145 198 246 300 366
#     4   9  17  33  57  86 111 148 203 258 304 368
#     4  10  20  33  55  87 120 150 201 259 316 370
#     4  12  26  40  64  90 132 154 218 250 308 380
#     4   9  17  35  61  81 112 155 199 246 314 373
#
# _framework density 21.185949999999998
#
# number of rings (size 3 to 8) (size 9 to 14) (size 15 to 20)
#    0.000    2.483    1.379    1.862    1.931    0.552 
#    2.483    4.138    0.000    7.448    0.000    0.000 
#    0.000    0.000    0.000    0.000    0.000    0.000 
#
# Total GULP energy -323071.989679 kJ/mol
# GULP energy per Si atom -5570.206719 kJ/mol
# Density = 2.113773 g / cm^3
# Si number density = 21.185950 Si / 1000 Ang^3
#
#
#
# Elastic Constant Matrix: (Units=GPa)
#
#
# Indices 1 2 3 4 5 6 
#
# 1 133.4313 45.5132 9.5994 0.0000 0.0000 0.0000
# 2 45.5132 58.1003 3.0232 0.0000 0.0000 0.0000
# 3 9.5994 3.0232 76.5177 0.0000 0.0000 0.0000
# 4 0.0000 0.0000 0.0000 16.0928 0.0000 0.0000
# 5 0.0000 0.0000 0.0000 0.0000 17.7188 0.0000
# 6 0.0000 0.0000 0.0000 0.0000 0.0000 14.0218
#
#
#
# Elastic Compliance Matrix: (Units=1/GPa)
#
#
# Indices 1 2 3 4 5 6 
#
# 1 0.010299 -0.008017 -0.000975 0.000000 0.000000 0.000000
# 2 -0.008017 0.023488 0.000078 0.000000 0.000000 0.000000
# 3 -0.000975 0.000078 0.013188 0.000000 0.000000 0.000000
# 4 0.000000 0.000000 0.000000 0.062140 0.000000 0.000000
# 5 0.000000 0.000000 0.000000 0.000000 0.056437 0.000000
# 6 0.000000 0.000000 0.000000 0.000000 0.000000 0.071318
#
#
# Mechanical properties :
#
#
# Convention : Reuss Voigt Hill
#
# Bulk Modulus (GPa) = 34.31027 42.70233 38.50630
# Shear Modulus (GPa) = 18.90968 23.56090 21.23529
#
# Velocity S-wave (km/s) = 2.99081 3.33843 3.16939
# Velocity P-wave (km/s) = 5.30628 5.92114 5.62212
#
# Compressibility (1/GPa) = 0.02914579
#
# Stress axis : x y z
#
# Youngs Moduli (GPa) = 97.09348 42.57499 75.82561
#
# Poissons Ratio (x) = 0.34134 0.07395
# Poissons Ratio (y) = 0.77843 -0.00590
# Poissons Ratio (z) = 0.09470 -0.00331
#
# Static dielectric constant tensor:
#      x y z
#    x 1.765860 0.000000 0.000000 
#    y 0.000000 1.760930 0.000000 
#    z 0.000000 0.000000 1.823200 
# 
# From -- ./inp_files/7991.got.cif
#   From: 2010.05.17/outbox.cif.g08.bks.cpg/sg58_4_cif.got.tgz:7991.got - 2010.06.03 14:20:14.
