data_PCOD9442426
_publ_section_title
;
Structure prediction by ZEFSAII (Michael W. Deem and Ramdas Pophale) SiO2 
 PCOD9442426
Probable space group: P N N M
;
_chemical_formula_sum "Si O2"
_cell_formula_units_Z 32
_cell_length_a 9.490885
_cell_length_b 10.167261
_cell_length_c 14.830569
_cell_angle_alpha 90.000000
_cell_angle_beta 90.000000
_cell_angle_gamma 90.000000
_cell_volume 1431.095108
_symmetry_space_group_name_H-M "P N N M"
_symmetry_group_IT_number 58
_symmetry_cell_setting 'orthorhombic'
loop_
_space_group_symop_operation_xyz
x,y,z
-x,-y,z
1/2+x,1/2-y,1/2-z
1/2-x,1/2+y,1/2-z
-x,-y,-z
x,y,-z
1/2-x,1/2+y,1/2+z
1/2+x,1/2-y,1/2+z
loop_
_atom_site_type_symbol
_atom_site_label
_atom_site_fract_x
_atom_site_fract_y
_atom_site_fract_z
Si Si1 0.820309 0.575250 0.231739
Si Si2 0.311648 0.620916 0.100902
Si Si3 0.832093 0.091119 0.101187
Si Si4 0.534035 0.707149 0.754799
O O1 0.795715 0.478065 0.149436
O O2 0.768206 0.515109 0.327724
O O3 0.697934 0.688629 0.219549
O O4 0.967500 0.649283 0.242573
O O5 0.244097 0.765760 0.093894
O O6 0.442592 0.637152 0.168456
O O7 0.347606 0.577567 0.000000
O O8 0.971248 0.132532 0.157964
O O9 0.846953 0.039454 0.000000
#
# Coordination Sequence:
#
# PCOD9442426 Si02
#       4
#     8   8   8   8
#     4   9  19  33  53  78 111 140 174 223 267 316
#     4  10  19  35  59  84 107 140 184 226 270 317
#     4   8  18  35  53  75 110 143 172 217 270 319
#     4   9  19  35  51  79 112 139 174 221 273 314
#
# _framework density 22.360498
#
# number of rings (size 3 to 8) (size 9 to 14) (size 15 to 20)
#    1.500    1.500    0.000    0.750    0.000    4.000 
#    0.000    5.000    0.000    3.000    0.000    7.000 
#    0.000    0.000    0.000    0.000    0.000    0.000 
#
# Total GULP energy -178207.985581 kJ/mol
# GULP energy per Si atom -5568.999549 kJ/mol
# Density = 2.230960 g / cm^3
# Si number density = 22.360498 Si / 1000 Ang^3
#
#
#
# Elastic Constant Matrix: (Units=GPa)
#
#
# Indices 1 2 3 4 5 6 
#
# 1 84.2627 1.8099 33.7326 0.0000 0.0000 0.0000
# 2 1.8099 39.1310 15.4863 0.0000 0.0000 0.0000
# 3 33.7326 15.4863 218.5140 0.0000 0.0000 0.0000
# 4 0.0000 0.0000 0.0000 44.4719 0.0000 0.0000
# 5 0.0000 0.0000 0.0000 0.0000 20.5284 0.0000
# 6 0.0000 0.0000 0.0000 0.0000 0.0000 35.5685
#
#
#
# Elastic Compliance Matrix: (Units=1/GPa)
#
#
# Indices 1 2 3 4 5 6 
#
# 1 0.012651 0.000193 -0.001967 0.000000 0.000000 0.000000
# 2 0.000193 0.026296 -0.001893 0.000000 0.000000 0.000000
# 3 -0.001967 -0.001893 0.005014 0.000000 0.000000 0.000000
# 4 0.000000 0.000000 0.000000 0.022486 0.000000 0.000000
# 5 0.000000 0.000000 0.000000 0.000000 0.048713 0.000000
# 6 0.000000 0.000000 0.000000 0.000000 0.000000 0.028115
#
#
# Mechanical properties :
#
#
# Convention : Reuss Voigt Hill
#
# Bulk Modulus (GPa) = 27.30245 49.32948 38.31597
# Shear Modulus (GPa) = 30.70932 39.50569 35.10751
#
# Velocity S-wave (km/s) = 3.70993 4.20785 3.96671
# Velocity P-wave (km/s) = 5.53065 6.76142 6.17677
#
# Compressibility (1/GPa) = 0.03662675
#
# Stress axis : x y z
#
# Youngs Moduli (GPa) = 79.04644 38.02924 199.43578
#
# Poissons Ratio (x) = -0.00735 0.39222
# Poissons Ratio (y) = -0.01527 0.37761
# Poissons Ratio (z) = 0.15545 0.07200
#
# Static dielectric constant tensor:
#      x y z
#    x 1.914460 0.000000 0.000000 
#    y 0.000000 1.945520 0.000000 
#    z 0.000000 0.000000 1.862960 
# 
# From -- ./inp_files/13775.got.cif
#   From: 2010.05.17/outbox.cif.g08.bks.cpg/sg58_7_cif.got.tgz:13775.got - 2010.06.03 14:20:14.
