data_PCOD9442952
_publ_section_title
;
Structure prediction by ZEFSAII (Michael W. Deem and Ramdas Pophale) SiO2 
 PCOD9442952
Probable space group: P N N M
;
_chemical_formula_sum "Si O2"
_cell_formula_units_Z 52
_cell_length_a 7.594714
_cell_length_b 15.832850
_cell_length_c 22.376705
_cell_angle_alpha 90.000000
_cell_angle_beta 90.000000
_cell_angle_gamma 90.000000
_cell_volume 2690.708543
_symmetry_space_group_name_H-M "P N N M"
_symmetry_group_IT_number 58
_symmetry_cell_setting 'orthorhombic'
loop_
_space_group_symop_operation_xyz
x,y,z
-x,-y,z
1/2+x,1/2-y,1/2-z
1/2-x,1/2+y,1/2-z
-x,-y,-z
x,y,-z
1/2-x,1/2+y,1/2+z
1/2+x,1/2-y,1/2+z
loop_
_atom_site_type_symbol
_atom_site_label
_atom_site_fract_x
_atom_site_fract_y
_atom_site_fract_z
Si Si1 0.103154 0.176756 0.699260
Si Si2 0.000000 0.000000 0.279145
Si Si3 0.129866 0.422617 0.248661
Si Si4 0.702454 0.523387 0.566338
Si Si5 0.345942 0.824866 0.868679
Si Si6 0.700294 0.839012 0.070383
Si Si7 0.797266 0.738874 0.180138
O O1 0.222392 0.236183 0.657231
O O2 0.152972 0.194522 0.767946
O O3 0.908445 0.214693 0.688624
O O4 0.090230 0.077939 0.686249
O O5 0.832840 0.043867 0.246514
O O6 0.085223 0.375009 0.310095
O O7 0.114094 0.350562 0.197565
O O8 0.000000 0.500000 0.238707
O O9 0.500000 0.500000 0.562047
O O10 0.776653 0.538514 0.500000
O O11 0.714975 0.608627 0.602900
O O12 0.792638 0.437812 0.589747
O O13 0.500072 0.811559 0.916731
O O14 0.815012 0.781565 0.115383
O O15 0.746426 0.834398 0.000000
#
# Coordination Sequence:
#
# PCOD9442952 Si02
#       7
#     8   4   8   8   8   8   8
#     4   9  20  34  51  78 108 140 180 229 280 341
#     4  10  22  34  54  80 114 148 182 222 288 342
#     4  10  21  35  54  82 113 143 182 234 288 342
#     4  10  21  33  47  75 110 143 185 225 267 332
#     4  10  20  34  53  78 107 144 185 224 277 340
#     4  10  20  35  55  75 107 149 186 225 268 332
#     4   9  20  35  51  80 109 139 189 227 281 340
#
# _framework density 19.325765000000001
#
# number of rings (size 3 to 8) (size 9 to 14) (size 15 to 20)
#    0.000    2.308    0.000    1.846    9.692    3.692 
#    0.000    0.000    0.000    0.462    0.000   53.846 
#    0.000    0.000    0.000    0.000    0.000    0.000 
#
# Total GULP energy -289811.037896 kJ/mol
# GULP energy per Si atom -5573.289190 kJ/mol
# Density = 1.928178 g / cm^3
# Si number density = 19.325765 Si / 1000 Ang^3
#
#
#
# Elastic Constant Matrix: (Units=GPa)
#
#
# Indices 1 2 3 4 5 6 
#
# 1 26.9362 17.8196 12.6462 0.0000 0.0000 0.0000
# 2 17.8196 152.3066 58.1392 0.0000 0.0000 0.0000
# 3 12.6462 58.1392 80.5279 0.0000 0.0000 0.0000
# 4 0.0000 0.0000 0.0000 13.5508 0.0000 0.0000
# 5 0.0000 0.0000 0.0000 0.0000 17.5635 0.0000
# 6 0.0000 0.0000 0.0000 0.0000 0.0000 28.8596
#
#
#
# Elastic Compliance Matrix: (Units=1/GPa)
#
#
# Indices 1 2 3 4 5 6 
#
# 1 0.041210 -0.003246 -0.004128 0.000000 0.000000 0.000000
# 2 -0.003246 0.009319 -0.006219 0.000000 0.000000 0.000000
# 3 -0.004128 -0.006219 0.017556 0.000000 0.000000 0.000000
# 4 0.000000 0.000000 0.000000 0.073797 0.000000 0.000000
# 5 0.000000 0.000000 0.000000 0.000000 0.056936 0.000000
# 6 0.000000 0.000000 0.000000 0.000000 0.000000 0.034651
#
#
# Mechanical properties :
#
#
# Convention : Reuss Voigt Hill
#
# Bulk Modulus (GPa) = 24.44975 48.55343 36.50159
# Shear Modulus (GPa) = 18.22906 23.40581 20.81743
#
# Velocity S-wave (km/s) = 3.07457 3.48389 3.28561
# Velocity P-wave (km/s) = 5.02820 6.43129 5.77254
#
# Compressibility (1/GPa) = 0.04090021
#
# Stress axis : x y z
#
# Youngs Moduli (GPa) = 24.26585 107.30524 56.96042
#
# Poissons Ratio (x) = 0.34827 0.23516
# Poissons Ratio (y) = 0.07876 0.35421
# Poissons Ratio (z) = 0.10018 0.66728
#
# Static dielectric constant tensor:
#      x y z
#    x 1.778840 0.000000 0.000000 
#    y 0.000000 1.738610 0.000000 
#    z 0.000000 0.000000 1.691360 
# 
# From -- ./inp_files/28880.got.cif
#   From: 2010.05.17/outbox.cif.g08.bks.cpg/sg58_15_cif.got.tgz:28880.got - 2010.06.03 14:20:14.
