data_PCOD9442337
_publ_section_title
;
Structure prediction by ZEFSAII (Michael W. Deem and Ramdas Pophale) SiO2 
 PCOD9442337
Probable space group: P N N M
;
_chemical_formula_sum "Si O2"
_cell_formula_units_Z 58
_cell_length_a 26.007316
_cell_length_b 12.106101
_cell_length_c 7.630411
_cell_angle_alpha 90.000000
_cell_angle_beta 90.000000
_cell_angle_gamma 90.000000
_cell_volume 2402.413494
_symmetry_space_group_name_H-M "P N N M"
_symmetry_group_IT_number 58
_symmetry_cell_setting 'orthorhombic'
loop_
_space_group_symop_operation_xyz
x,y,z
-x,-y,z
1/2+x,1/2-y,1/2-z
1/2-x,1/2+y,1/2-z
-x,-y,-z
x,y,-z
1/2-x,1/2+y,1/2+z
1/2+x,1/2-y,1/2+z
loop_
_atom_site_type_symbol
_atom_site_label
_atom_site_fract_x
_atom_site_fract_y
_atom_site_fract_z
Si Si1 0.078547 0.922470 0.695647
Si Si2 0.243907 0.451217 0.803391
Si Si3 0.629292 0.031566 0.788507
Si Si4 0.766498 0.789582 0.790405
Si Si5 0.072712 0.680279 0.708115
Si Si6 0.000000 0.000000 0.000000
Si Si7 0.628741 0.373232 0.702930
Si Si8 0.543029 0.211957 0.790114
O O1 0.054980 0.924492 0.500000
O O2 0.097620 0.799212 0.725695
O O3 0.038513 0.951214 0.846134
O O4 0.123895 0.010691 0.703672
O O5 0.182134 0.439243 0.801628
O O6 0.258516 0.327717 0.723632
O O7 0.250488 0.579619 0.735430
O O8 0.264745 0.455037 0.000000
O O9 0.581863 0.112824 0.753363
O O10 0.608997 0.913971 0.722944
O O11 0.638268 0.030336 0.000000
O O12 0.826048 0.796795 0.725471
O O13 0.764761 0.774616 0.000000
O O14 0.066644 0.654958 0.500000
O O15 0.014222 0.689073 0.776439
O O16 0.639794 0.393457 0.500000
O O17 0.572696 0.317193 0.714741
O O18 0.540469 0.227565 0.000000
#
# Coordination Sequence:
#
# PCOD9442337 Si02
#       8
#     8   8   8   8   8   2   8   8
#     4  11  23  39  60  90 132 175 226 275 329 390
#     4  11  24  44  68  99 130 169 219 279 342 414
#     4  10  20  38  64  92 128 168 214 262 324 395
#     4  10  24  45  69  97 135 169 217 279 343 410
#     4   9  20  37  58  90 130 174 217 267 318 381
#     4  12  22  40  60  90 130 180 230 276 328 392
#     4  11  22  40  63  90 130 169 213 271 328 394
#     4  10  19  34  61  91 124 167 216 259 313 380
#
# _framework density 24.142389999999999
#
# number of rings (size 3 to 8) (size 9 to 14) (size 15 to 20)
#    0.000    1.655    2.069    2.276    0.000    6.069 
#    1.241    4.138    0.000    1.655    0.000    0.000 
#    0.000    0.000    0.000    0.000    0.000    0.000 
#
# Total GULP energy -323072.382098 kJ/mol
# GULP energy per Si atom -5570.213484 kJ/mol
# Density = 2.408744 g / cm^3
# Si number density = 24.142390 Si / 1000 Ang^3
#
#
#
# Elastic Constant Matrix: (Units=GPa)
#
#
# Indices 1 2 3 4 5 6 
#
# 1 41.9369 31.2597 -2.5800 0.0000 0.0000 0.0000
# 2 31.2597 165.9011 40.3969 0.0000 0.0000 0.0000
# 3 -2.5800 40.3969 70.9279 0.0000 0.0000 0.0000
# 4 0.0000 0.0000 0.0000 -132.9607 0.0000 0.0000
# 5 0.0000 0.0000 0.0000 0.0000 0.7332 0.0000
# 6 0.0000 0.0000 0.0000 0.0000 0.0000 31.2187
#
#
#
# Elastic Compliance Matrix: (Units=1/GPa)
#
#
# Indices 1 2 3 4 5 6 
#
# 1 0.029115 -0.006669 0.004857 0.000000 0.000000 0.000000
# 2 -0.006669 0.008526 -0.005098 0.000000 0.000000 0.000000
# 3 0.004857 -0.005098 0.017179 0.000000 0.000000 0.000000
# 4 0.000000 0.000000 0.000000 -0.007521 0.000000 0.000000
# 5 0.000000 0.000000 0.000000 0.000000 1.363864 0.000000
# 6 0.000000 0.000000 0.000000 0.000000 0.000000 0.032032
#
#
# Mechanical properties :
#
#
# Convention : Reuss Voigt Hill
#
# Bulk Modulus (GPa) = 24.39012 46.32435 35.35724
# Shear Modulus (GPa) = 3.39978 -6.22247 -1.41134
#
# Velocity S-wave (km/s) = 1.18797 -1.60717 -0.76542
# Velocity P-wave (km/s) = 3.46500 3.97311 3.72773
#
# Compressibility (1/GPa) = 0.04100020
#
# Stress axis : x y z
#
# Youngs Moduli (GPa) = 34.34658 117.29284 58.20974
#
# Poissons Ratio (x) = 0.78219 -0.28273
# Poissons Ratio (y) = 0.22905 0.29677
# Poissons Ratio (z) = -0.16683 0.59800
#
# Static dielectric constant tensor:
#      x y z
#    x 1.904770 0.000000 0.000000 
#    y 0.000000 2.032450 0.000000 
#    z 0.000000 0.000000 1.968140 
# 
# From -- ./inp_files/10446.got.cif
#   From: 2010.05.17/outbox.cif.g08.bks.cpg/sg58_6_cif.got.tgz:10446.got - 2010.06.03 14:20:14.
