data_PCOD9442065
_publ_section_title
;
Structure prediction by ZEFSAII (Michael W. Deem and Ramdas Pophale) SiO2 
 PCOD9442065
Probable space group: P N N M
;
_chemical_formula_sum "Si O2"
_cell_formula_units_Z 56
_cell_length_a 9.789331
_cell_length_b 20.906346
_cell_length_c 13.599502
_cell_angle_alpha 90.000000
_cell_angle_beta 90.000000
_cell_angle_gamma 90.000000
_cell_volume 2783.262397
_symmetry_space_group_name_H-M "P N N M"
_symmetry_group_IT_number 58
_symmetry_cell_setting 'orthorhombic'
loop_
_space_group_symop_operation_xyz
x,y,z
-x,-y,z
1/2+x,1/2-y,1/2-z
1/2-x,1/2+y,1/2-z
-x,-y,-z
x,y,-z
1/2-x,1/2+y,1/2+z
1/2+x,1/2-y,1/2+z
loop_
_atom_site_type_symbol
_atom_site_label
_atom_site_fract_x
_atom_site_fract_y
_atom_site_fract_z
Si Si1 0.898462 0.556831 0.700424
Si Si2 0.060344 0.167304 0.888230
Si Si3 0.110054 0.944592 0.112353
Si Si4 0.287306 0.255878 0.119782
Si Si5 0.424441 0.869338 0.618038
Si Si6 0.575403 0.202272 0.119454
Si Si7 0.159757 0.720095 0.889068
O O1 0.747236 0.538265 0.666938
O O2 0.902695 0.568315 0.817282
O O3 0.926034 0.628518 0.655881
O O4 0.000000 0.500000 0.670233
O O5 0.200704 0.193773 0.847031
O O6 0.971280 0.113489 0.837371
O O7 0.960276 0.227421 0.896230
O O8 0.089946 0.143659 0.000000
O O9 0.149957 0.925611 0.000000
O O10 0.000000 0.000000 0.107182
O O11 0.199203 0.319270 0.143031
O O12 0.442474 0.243473 0.151836
O O13 0.287325 0.254380 0.000000
O O14 0.424789 0.876920 0.500000
O O15 0.572261 0.839746 0.649312
O O16 0.710421 0.241562 0.152339
O O17 0.576891 0.199285 0.000000
O O18 0.202518 0.701814 0.000000
#
# Coordination Sequence:
#
# PCOD9442065 Si02
#       7
#     8   8   8   8   8   8   8
#     4  12  26  38  53  83 118 156 204 241 280 342
#     4   8  13  27  50  75 104 143 181 211 258 334
#     4  10  21  37  57  79 113 160 193 221 275 347
#     4   8  16  31  56  85 110 140 182 232 293 350
#     4   9  20  41  62  79 107 149 201 254 295 337
#     4  10  19  33  55  89 127 147 170 231 300 355
#     4   8  14  30  57  83 108 141 180 225 288 351
#
# _framework density 20.120273000000001
#
# number of rings (size 3 to 8) (size 9 to 14) (size 15 to 20)
#    0.000    2.714    1.429    2.143    2.000    2.571 
#    0.000    1.429    0.000    0.429    0.000    0.000 
#    0.000    0.000    0.000    0.000    0.000    0.000 
#
# Total GULP energy -311965.907373 kJ/mol
# GULP energy per Si atom -5570.819775 kJ/mol
# Density = 2.007448 g / cm^3
# Si number density = 20.120273 Si / 1000 Ang^3
#
#
#
# Elastic Constant Matrix: (Units=GPa)
#
#
# Indices 1 2 3 4 5 6 
#
# 1 141.7230 37.1766 14.6688 0.0000 0.0000 0.0000
# 2 37.1766 46.1791 13.2257 0.0000 0.0000 0.0000
# 3 14.6688 13.2257 71.8530 0.0000 0.0000 0.0000
# 4 0.0000 0.0000 0.0000 23.1297 0.0000 0.0000
# 5 0.0000 0.0000 0.0000 0.0000 0.4835 0.0000
# 6 0.0000 0.0000 0.0000 0.0000 0.0000 14.2724
#
#
#
# Elastic Compliance Matrix: (Units=1/GPa)
#
#
# Indices 1 2 3 4 5 6 
#
# 1 0.008964 -0.007065 -0.000530 0.000000 0.000000 0.000000
# 2 -0.007065 0.028428 -0.003790 0.000000 0.000000 0.000000
# 3 -0.000530 -0.003790 0.014723 0.000000 0.000000 0.000000
# 4 0.000000 0.000000 0.000000 0.043234 0.000000 0.000000
# 5 0.000000 0.000000 0.000000 0.000000 2.068210 0.000000
# 6 0.000000 0.000000 0.000000 0.000000 0.000000 0.070065
#
#
# Mechanical properties :
#
#
# Convention : Reuss Voigt Hill
#
# Bulk Modulus (GPa) = 34.07678 43.32193 38.69935
# Shear Modulus (GPa) = 2.20636 20.55606 11.38121
#
# Velocity S-wave (km/s) = 1.04832 3.19981 2.38094
# Velocity P-wave (km/s) = 4.29402 5.93548 5.18018
#
# Compressibility (1/GPa) = 0.02934550
#
# Stress axis : x y z
#
# Youngs Moduli (GPa) = 111.55621 35.17661 67.92049
#
# Poissons Ratio (x) = 0.24852 0.03597
# Poissons Ratio (y) = 0.78813 0.25744
# Poissons Ratio (z) = 0.05908 0.13333
#
# Static dielectric constant tensor:
#      x y z
#    x 1.720700 0.000000 0.000000 
#    y 0.000000 1.708460 0.000000 
#    z 0.000000 0.000000 1.792760 
# 
# From -- ./inp_files/20148.got.cif
#   From: 2010.05.17/outbox.cif.g08.bks.cpg/sg58_11_cif.got.tgz:20148.got - 2010.06.03 14:20:14.
