data_PCOD9442867
_publ_section_title
;
Structure prediction by ZEFSAII (Michael W. Deem and Ramdas Pophale) SiO2 
 PCOD9442867
Probable space group: P N N M
;
_chemical_formula_sum "Si O2"
_cell_formula_units_Z 64
_cell_length_a 17.239008
_cell_length_b 21.471026
_cell_length_c 8.783796
_cell_angle_alpha 90.000000
_cell_angle_beta 90.000000
_cell_angle_gamma 90.000000
_cell_volume 3251.227128
_symmetry_space_group_name_H-M "P N N M"
_symmetry_group_IT_number 58
_symmetry_cell_setting 'orthorhombic'
loop_
_space_group_symop_operation_xyz
x,y,z
-x,-y,z
1/2+x,1/2-y,1/2-z
1/2-x,1/2+y,1/2-z
-x,-y,-z
x,y,-z
1/2-x,1/2+y,1/2+z
1/2+x,1/2-y,1/2+z
loop_
_atom_site_type_symbol
_atom_site_label
_atom_site_fract_x
_atom_site_fract_y
_atom_site_fract_z
Si Si1 0.331238 0.022177 0.182780
Si Si2 0.271741 0.895825 0.318403
Si Si3 0.707596 0.381992 0.179221
Si Si4 0.842595 0.291776 0.823367
Si Si5 0.619028 0.647339 0.679823
Si Si6 0.959804 0.385009 0.321368
Si Si7 0.596112 0.190860 0.682609
Si Si8 0.554993 0.330890 0.315619
O O1 0.262353 0.066133 0.245397
O O2 0.413485 0.053160 0.229847
O O3 0.315722 0.954138 0.246066
O O4 0.329456 0.022423 0.000000
O O5 0.274400 0.900494 0.500000
O O6 0.183187 0.893172 0.264051
O O7 0.319003 0.833546 0.271111
O O8 0.756100 0.317613 0.197339
O O9 0.624671 0.373090 0.255639
O O10 0.700018 0.394779 0.000000
O O11 0.854736 0.219116 0.801749
O O12 0.897385 0.330361 0.711224
O O13 0.865280 0.306343 0.000000
O O14 0.621149 0.632573 0.500000
O O15 0.529895 0.645438 0.732825
O O16 0.976902 0.390630 0.500000
O O17 0.035617 0.361657 0.235647
O O18 0.594268 0.193937 0.500000
O O19 0.570561 0.259440 0.737588
O O20 0.555292 0.330165 0.500000
#
# Coordination Sequence:
#
# PCOD9442867 Si02
#       8
#     8   8   8   8   8   8   8   8
#     4  10  22  41  60  80 113 154 196 237 283 340
#     4  11  24  39  58  84 113 150 194 241 285 330
#     4  10  20  34  58  87 113 145 189 239 283 329
#     4   9  17  33  55  80 113 150 183 221 281 346
#     4  10  20  36  58  81 113 154 188 226 283 346
#     4  10  20  33  56  87 114 147 189 237 280 326
#     4  10  21  38  58  84 121 156 186 228 286 350
#     4  10  20  36  58  85 118 153 186 224 281 347
#
# _framework density 19.684875999999999
#
# number of rings (size 3 to 8) (size 9 to 14) (size 15 to 20)
#    0.000    2.000    1.250    2.250    0.000    5.000 
#    0.000    3.125    0.000    3.750    0.000    0.000 
#    0.000    0.000    0.000    0.000    0.000    0.000 
#
# Total GULP energy -357296.263084 kJ/mol
# GULP energy per Si atom -5582.754111 kJ/mol
# Density = 1.964007 g / cm^3
# Si number density = 19.684876 Si / 1000 Ang^3
#
#
#
# Elastic Constant Matrix: (Units=GPa)
#
#
# Indices 1 2 3 4 5 6 
#
# 1 99.2879 4.9228 10.3318 0.0000 0.0000 0.0000
# 2 4.9228 30.6725 3.9088 0.0000 0.0000 0.0000
# 3 10.3318 3.9088 6.1353 0.0000 0.0000 0.0000
# 4 0.0000 0.0000 0.0000 18.3158 0.0000 0.0000
# 5 0.0000 0.0000 0.0000 0.0000 31.4665 0.0000
# 6 0.0000 0.0000 0.0000 0.0000 0.0000 19.6470
#
#
#
# Elastic Compliance Matrix: (Units=1/GPa)
#
#
# Indices 1 2 3 4 5 6 
#
# 1 0.012226 0.000720 -0.021048 0.000000 0.000000 0.000000
# 2 0.000720 0.035526 -0.023846 0.000000 0.000000 0.000000
# 3 -0.021048 -0.023846 0.213629 0.000000 0.000000 0.000000
# 4 0.000000 0.000000 0.000000 0.054598 0.000000 0.000000
# 5 0.000000 0.000000 0.000000 0.000000 0.031780 0.000000
# 6 0.000000 0.000000 0.000000 0.000000 0.000000 0.050898
#
#
# Mechanical properties :
#
#
# Convention : Reuss Voigt Hill
#
# Bulk Modulus (GPa) = 5.77924 19.38029 12.57977
# Shear Modulus (GPa) = 9.17967 21.68135 15.43051
#
# Velocity S-wave (km/s) = 2.16181 3.32237 2.80282
# Velocity P-wave (km/s) = 3.02878 4.95824 4.10838
#
# Compressibility (1/GPa) = 0.17303306
#
# Stress axis : x y z
#
# Youngs Moduli (GPa) = 81.79134 28.14855 4.68102
#
# Poissons Ratio (x) = -0.02027 0.09852
# Poissons Ratio (y) = -0.05889 0.11162
# Poissons Ratio (z) = 1.72152 0.67123
#
# Static dielectric constant tensor:
#      x y z
#    x 1.699680 0.000000 0.000000 
#    y 0.000000 1.691410 0.000000 
#    z 0.000000 0.000000 1.667040 
# 
# From -- ./inp_files/6923.got.cif
#   From: 2010.05.17/outbox.cif.g08.bks.cpg/sg58_4_cif.got.tgz:6923.got - 2010.06.03 14:20:14.
