data_PCOD9442367
_publ_section_title
;
Structure prediction by ZEFSAII (Michael W. Deem and Ramdas Pophale) SiO2 
 PCOD9442367
Probable space group: P N N M
;
_chemical_formula_sum "Si O2"
_cell_formula_units_Z 64
_cell_length_a 13.205024
_cell_length_b 28.489735
_cell_length_c 8.836480
_cell_angle_alpha 90.000000
_cell_angle_beta 90.000000
_cell_angle_gamma 90.000000
_cell_volume 3324.351237
_symmetry_space_group_name_H-M "P N N M"
_symmetry_group_IT_number 58
_symmetry_cell_setting 'orthorhombic'
loop_
_space_group_symop_operation_xyz
x,y,z
-x,-y,z
1/2+x,1/2-y,1/2-z
1/2-x,1/2+y,1/2-z
-x,-y,-z
x,y,-z
1/2-x,1/2+y,1/2+z
1/2+x,1/2-y,1/2+z
loop_
_atom_site_type_symbol
_atom_site_label
_atom_site_fract_x
_atom_site_fract_y
_atom_site_fract_z
Si Si1 0.159123 0.408469 0.830772
Si Si2 0.644076 0.618377 0.318824
Si Si3 0.540933 0.947937 0.670972
Si Si4 0.260284 0.087010 0.817940
Si Si5 0.038471 0.052199 0.815262
Si Si6 0.724118 0.722359 0.320605
Si Si7 0.863952 0.315503 0.680147
Si Si8 0.919390 0.695105 0.168124
O O1 0.262940 0.412922 0.742521
O O2 0.139605 0.353600 0.849530
O O3 0.055681 0.423956 0.750483
O O4 0.165695 0.430076 0.000000
O O5 0.646272 0.617156 0.500000
O O6 0.540903 0.592990 0.268407
O O7 0.666964 0.673065 0.278798
O O8 0.552737 0.927761 0.500000
O O9 0.646226 0.943172 0.754965
O O10 0.500000 0.000000 0.657868
O O11 0.151607 0.067226 0.765437
O O12 0.291148 0.140721 0.775985
O O13 0.259714 0.084946 0.000000
O O14 0.039490 0.051499 0.000000
O O15 0.000000 0.000000 0.768049
O O16 0.709702 0.729049 0.500000
O O17 0.681643 0.765637 0.226330
O O18 0.843944 0.721325 0.281639
O O19 0.879789 0.318466 0.500000
O O20 0.971216 0.316702 0.765605
O O21 0.928017 0.717127 0.000000
#
# Coordination Sequence:
#
# PCOD9442367 Si02
#       8
#     8   8   8   8   8   8   8   8
#     4   9  18  33  54  79 109 145 182 226 285 343
#     4   9  19  35  57  83 111 147 192 241 287 340
#     4  10  21  36  55  82 116 150 184 232 293 355
#     4  10  22  38  58  86 117 150 194 244 290 348
#     4   9  19  37  59  83 114 152 193 239 293 346
#     4  10  21  36  56  85 116 151 196 243 295 356
#     4  11  22  36  56  84 117 151 192 242 294 356
#     4  10  19  35  57  79 109 149 187 233 292 349
#
# _framework density 19.251875999999999
#
# number of rings (size 3 to 8) (size 9 to 14) (size 15 to 20)
#    0.000    2.250    1.250    1.125    1.750    3.250 
#    0.000    3.125    0.000    0.750    0.000    0.000 
#    0.000    0.000    0.000    0.000    0.000    0.000 
#
# Total GULP energy -356293.789981 kJ/mol
# GULP energy per Si atom -5567.090468 kJ/mol
# Density = 1.920806 g / cm^3
# Si number density = 19.251876 Si / 1000 Ang^3
#
#
#
# Elastic Constant Matrix: (Units=GPa)
#
#
# Indices 1 2 3 4 5 6 
#
# 1 169.6177 62.9825 26.2050 0.0000 0.0000 0.0000
# 2 62.9825 73.4065 20.2392 0.0000 0.0000 0.0000
# 3 26.2050 20.2392 22.5534 0.0000 0.0000 0.0000
# 4 0.0000 0.0000 0.0000 -2.0465 0.0000 0.0000
# 5 0.0000 0.0000 0.0000 0.0000 -36.5724 0.0000
# 6 0.0000 0.0000 0.0000 0.0000 0.0000 14.4553
#
#
#
# Elastic Compliance Matrix: (Units=1/GPa)
#
#
# Indices 1 2 3 4 5 6 
#
# 1 0.009011 -0.006437 -0.004693 0.000000 0.000000 0.000000
# 2 -0.006437 0.022700 -0.012891 0.000000 0.000000 0.000000
# 3 -0.004693 -0.012891 0.061361 0.000000 0.000000 0.000000
# 4 0.000000 0.000000 0.000000 -0.488644 0.000000 0.000000
# 5 0.000000 0.000000 0.000000 0.000000 -0.027343 0.000000
# 6 0.000000 0.000000 0.000000 0.000000 0.000000 0.069179
#
#
# Mechanical properties :
#
#
# Convention : Reuss Voigt Hill
#
# Bulk Modulus (GPa) = 22.20829 53.82569 38.01699
# Shear Modulus (GPa) = -17.20086 5.57734 -5.81176
#
# Velocity S-wave (km/s) = -2.99233 1.70391 -1.73936
# Velocity P-wave (km/s) = 0.61484 5.64716 3.96941
#
# Compressibility (1/GPa) = 0.04502824
#
# Stress axis : x y z
#
# Youngs Moduli (GPa) = 110.97507 44.05200 16.29711
#
# Poissons Ratio (x) = 0.28358 0.07648
# Poissons Ratio (y) = 0.71440 0.21009
# Poissons Ratio (z) = 0.52081 0.56789
#
# Static dielectric constant tensor:
#      x y z
#    x 1.681290 0.000000 0.000000 
#    y 0.000000 1.835980 0.000000 
#    z 0.000000 0.000000 1.691430 
# 
# From -- ./inp_files/4760.got.cif
#   From: 2010.05.17/outbox.cif.g08.bks.cpg/sg58_3_cif.got.tgz:4760.got - 2010.06.03 14:20:14.
