data_PCOD9442892
_publ_section_title
;
Structure prediction by ZEFSAII (Michael W. Deem and Ramdas Pophale) SiO2 
 PCOD9442892
Probable space group: P N N M
;
_chemical_formula_sum "Si O2"
_cell_formula_units_Z 64
_cell_length_a 23.938136
_cell_length_b 15.703212
_cell_length_c 9.330182
_cell_angle_alpha 90.000000
_cell_angle_beta 90.000000
_cell_angle_gamma 90.000000
_cell_volume 3507.267891
_symmetry_space_group_name_H-M "P N N M"
_symmetry_group_IT_number 58
_symmetry_cell_setting 'orthorhombic'
loop_
_space_group_symop_operation_xyz
x,y,z
-x,-y,z
1/2+x,1/2-y,1/2-z
1/2-x,1/2+y,1/2-z
-x,-y,-z
x,y,-z
1/2-x,1/2+y,1/2+z
1/2+x,1/2-y,1/2+z
loop_
_atom_site_type_symbol
_atom_site_label
_atom_site_fract_x
_atom_site_fract_y
_atom_site_fract_z
Si Si1 0.430924 0.377362 0.831528
Si Si2 0.688165 0.870401 0.826842
Si Si3 0.080951 0.565447 0.829979
Si Si4 0.046473 0.377011 0.829877
Si Si5 0.225627 0.984344 0.830800
Si Si6 0.597829 0.456548 0.331007
Si Si7 0.451094 0.704740 0.170243
Si Si8 0.304540 0.319216 0.829883
O O1 0.433707 0.462119 0.736310
O O2 0.483149 0.316062 0.804503
O O3 0.371047 0.333619 0.804251
O O4 0.432462 0.401715 0.000000
O O5 0.627901 0.887860 0.760137
O O6 0.709515 0.776665 0.784131
O O7 0.729539 0.946014 0.782047
O O8 0.684371 0.870300 0.000000
O O9 0.078445 0.464673 0.794899
O O10 0.019093 0.602586 0.804672
O O11 0.092066 0.573385 0.000000
O O12 0.063279 0.295358 0.739052
O O13 0.053257 0.360733 0.000000
O O14 0.227255 0.894854 0.749476
O O15 0.163498 0.022757 0.811937
O O16 0.233582 0.969679 0.000000
O O17 0.586112 0.448470 0.500000
O O18 0.581396 0.371686 0.247309
O O19 0.441431 0.704114 0.000000
O O20 0.295306 0.327066 0.000000
#
# Coordination Sequence:
#
# PCOD9442892 Si02
#       8
#     8   8   8   8   8   8   8   8
#     4   9  18  32  50  74 104 134 172 221 265 314
#     4  10  20  36  58  82 108 139 179 225 271 318
#     4   9  19  36  57  80 106 138 175 216 261 311
#     4   9  19  36  54  76 110 143 172 211 258 315
#     4   9  20  38  55  75 107 142 178 225 271 313
#     4  10  20  34  51  71 102 143 180 218 267 316
#     4  11  21  32  50  78 108 140 176 215 265 320
#     4   9  18  34  56  79 103 136 177 220 269 320
#
# _framework density 18.247820999999998
#
# number of rings (size 3 to 8) (size 9 to 14) (size 15 to 20)
#    0.000    2.500    0.000    2.625    0.000    6.000 
#    2.250    3.750    0.000    0.000    0.000    0.000 
#    0.000    0.000    0.000    0.000    0.000    0.000 
#
# Total GULP energy -357178.522502 kJ/mol
# GULP energy per Si atom -5580.914414 kJ/mol
# Density = 1.820629 g / cm^3
# Si number density = 18.247821 Si / 1000 Ang^3
#
#
#
# Elastic Constant Matrix: (Units=GPa)
#
#
# Indices 1 2 3 4 5 6 
#
# 1 18.9404 22.7763 14.1889 0.0000 0.0000 0.0000
# 2 22.7763 147.1737 53.8624 0.0000 0.0000 0.0000
# 3 14.1889 53.8624 33.5264 0.0000 0.0000 0.0000
# 4 0.0000 0.0000 0.0000 32.5906 0.0000 0.0000
# 5 0.0000 0.0000 0.0000 0.0000 359.4940 0.0000
# 6 0.0000 0.0000 0.0000 0.0000 0.0000 17.7667
#
#
#
# Elastic Compliance Matrix: (Units=1/GPa)
#
#
# Indices 1 2 3 4 5 6 
#
# 1 0.077307 0.000024 -0.032757 0.000000 0.000000 0.000000
# 2 0.000024 0.016491 -0.026504 0.000000 0.000000 0.000000
# 3 -0.032757 -0.026504 0.086271 0.000000 0.000000 0.000000
# 4 0.000000 0.000000 0.000000 0.030684 0.000000 0.000000
# 5 0.000000 0.000000 0.000000 0.000000 0.002782 0.000000
# 6 0.000000 0.000000 0.000000 0.000000 0.000000 0.056285
#
#
# Mechanical properties :
#
#
# Convention : Reuss Voigt Hill
#
# Bulk Modulus (GPa) = 16.23478 42.36621 29.30050
# Shear Modulus (GPa) = 12.23021 89.22444 50.72733
#
# Velocity S-wave (km/s) = 2.59169 7.00015 5.27821
# Velocity P-wave (km/s) = 4.22752 9.41295 7.29642
#
# Compressibility (1/GPa) = 0.06159614
#
# Stress axis : x y z
#
# Youngs Moduli (GPa) = 12.93539 60.64002 11.59143
#
# Poissons Ratio (x) = -0.00148 0.37970
# Poissons Ratio (y) = -0.00032 0.30722
# Poissons Ratio (z) = 0.42372 1.60719
#
# Static dielectric constant tensor:
#      x y z
#    x 1.622050 0.000000 0.000000 
#    y 0.000000 1.616300 0.000000 
#    z 0.000000 0.000000 1.604870 
# 
# From -- ./inp_files/9987.got.cif
#   From: 2010.05.17/outbox.cif.g08.bks.cpg/sg58_5_cif.got.tgz:9987.got - 2010.06.03 14:20:14.
