data_PCOD9442674
_publ_section_title
;
Structure prediction by ZEFSAII (Michael W. Deem and Ramdas Pophale) SiO2 
 PCOD9442674
Probable space group: P N N M
;
_chemical_formula_sum "Si O2"
_cell_formula_units_Z 40
_cell_length_a 10.305952
_cell_length_b 14.860337
_cell_length_c 13.302382
_cell_angle_alpha 90.000000
_cell_angle_beta 90.000000
_cell_angle_gamma 90.000000
_cell_volume 2037.258737
_symmetry_space_group_name_H-M "P N N M"
_symmetry_group_IT_number 58
_symmetry_cell_setting 'orthorhombic'
loop_
_space_group_symop_operation_xyz
x,y,z
-x,-y,z
1/2+x,1/2-y,1/2-z
1/2-x,1/2+y,1/2-z
-x,-y,-z
x,y,-z
1/2-x,1/2+y,1/2+z
1/2+x,1/2-y,1/2+z
loop_
_atom_site_type_symbol
_atom_site_label
_atom_site_fract_x
_atom_site_fract_y
_atom_site_fract_z
Si Si1 0.771452 0.614776 0.612709
Si Si2 0.708128 0.915880 0.178866
Si Si3 0.409360 0.088951 0.615265
Si Si4 0.487023 0.789007 0.222010
Si Si5 0.493674 0.601994 0.702738
O O1 0.800644 0.642096 0.500000
O O2 0.820929 0.513350 0.633587
O O3 0.845410 0.680973 0.687511
O O4 0.618020 0.612126 0.631521
O O5 0.702697 0.925426 0.301344
O O6 0.595042 0.844087 0.158568
O O7 0.853241 0.888098 0.150551
O O8 0.371217 0.104193 0.500000
O O9 0.486639 0.172735 0.665155
O O10 0.500000 0.000000 0.619630
O O11 0.504023 0.683043 0.218996
O O12 0.500000 0.500000 0.742859
#
# Coordination Sequence:
#
# PCOD9442674 Si02
#       5
#     8   8   8   8   8
#     4  11  22  38  62  91 123 159 198 242 310 368
#     4   9  19  37  58  90 118 161 193 253 299 351
#     4   9  17  34  61  89 113 150 206 253 299 349
#     4  10  19  38  59  91 116 159 206 252 292 348
#     4  10  22  37  58  84 124 163 194 240 307 357
#
# _framework density 19.634226000000002
#
# number of rings (size 3 to 8) (size 9 to 14) (size 15 to 20)
#    1.200    1.000    2.000    1.800    0.000    6.000 
#    0.000    0.000    0.000   15.600    0.000    0.000 
#    0.000    0.000    0.000    0.000    0.000    0.000 
#
# Total GULP energy -222727.516040 kJ/mol
# GULP energy per Si atom -5568.187901 kJ/mol
# Density = 1.958954 g / cm^3
# Si number density = 19.634226 Si / 1000 Ang^3
#
#
#
# Elastic Constant Matrix: (Units=GPa)
#
#
# Indices 1 2 3 4 5 6 
#
# 1 64.9507 14.4327 5.3378 0.0000 0.0000 0.0000
# 2 14.4327 100.1160 1.7487 0.0000 0.0000 0.0000
# 3 5.3378 1.7487 42.4342 0.0000 0.0000 0.0000
# 4 0.0000 0.0000 0.0000 -17.6255 0.0000 0.0000
# 5 0.0000 0.0000 0.0000 0.0000 9.6696 0.0000
# 6 0.0000 0.0000 0.0000 0.0000 0.0000 18.2148
#
#
#
# Elastic Compliance Matrix: (Units=1/GPa)
#
#
# Indices 1 2 3 4 5 6 
#
# 1 0.016062 -0.002282 -0.001926 0.000000 0.000000 0.000000
# 2 -0.002282 0.010320 -0.000138 0.000000 0.000000 0.000000
# 3 -0.001926 -0.000138 0.023814 0.000000 0.000000 0.000000
# 4 0.000000 0.000000 0.000000 -0.056736 0.000000 0.000000
# 5 0.000000 0.000000 0.000000 0.000000 0.103417 0.000000
# 6 0.000000 0.000000 0.000000 0.000000 0.000000 0.054900
#
#
# Mechanical properties :
#
#
# Convention : Reuss Voigt Hill
#
# Bulk Modulus (GPa) = 24.09492 27.83770 25.96631
# Shear Modulus (GPa) = 28.68559 14.45058 21.56809
#
# Velocity S-wave (km/s) = 3.82645 2.71586 3.31795
# Velocity P-wave (km/s) = 5.64099 4.90341 5.28508
#
# Compressibility (1/GPa) = 0.04150252
#
# Stress axis : x y z
#
# Youngs Moduli (GPa) = 62.26017 96.90142 41.99229
#
# Poissons Ratio (x) = 0.22111 0.08089
# Poissons Ratio (y) = 0.14206 0.00580
# Poissons Ratio (z) = 0.11994 0.01340
#
# Static dielectric constant tensor:
#      x y z
#    x 1.700990 0.000000 0.000000 
#    y 0.000000 1.710680 0.000000 
#    z 0.000000 0.000000 1.657870 
# 
# From -- ./inp_files/20971.got.cif
#   From: 2010.05.17/outbox.cif.g08.bks.cpg/sg58_11_cif.got.tgz:20971.got - 2010.06.03 14:20:14.
