data_PCOD9442142
_publ_section_title
;
Structure prediction by ZEFSAII (Michael W. Deem and Ramdas Pophale) SiO2 
 PCOD9442142
Probable space group: P N N M
;
_chemical_formula_sum "Si O2"
_cell_formula_units_Z 48
_cell_length_a 5.306679
_cell_length_b 31.404724
_cell_length_c 15.945362
_cell_angle_alpha 90.000000
_cell_angle_beta 90.000000
_cell_angle_gamma 90.000000
_cell_volume 2657.370945
_symmetry_space_group_name_H-M "P N N M"
_symmetry_group_IT_number 58
_symmetry_cell_setting 'orthorhombic'
loop_
_space_group_symop_operation_xyz
x,y,z
-x,-y,z
1/2+x,1/2-y,1/2-z
1/2-x,1/2+y,1/2-z
-x,-y,-z
x,y,-z
1/2-x,1/2+y,1/2+z
1/2+x,1/2-y,1/2+z
loop_
_atom_site_type_symbol
_atom_site_label
_atom_site_fract_x
_atom_site_fract_y
_atom_site_fract_z
Si Si1 0.204900 0.197046 0.000000
Si Si2 0.221888 0.681780 0.685006
Si Si3 0.243821 0.337184 0.901309
Si Si4 0.747043 0.880342 0.668994
Si Si5 0.749477 0.471830 0.098061
Si Si6 0.713228 0.254112 0.000000
Si Si7 0.017295 0.232927 0.329524
O O1 0.199150 0.173286 0.910587
O O2 0.461816 0.224714 0.000000
O O3 0.965291 0.227451 0.000000
O O4 0.194731 0.639082 0.738613
O O5 0.994808 0.716202 0.678757
O O6 0.403485 0.710682 0.743701
O O7 0.482266 0.363110 0.863342
O O8 0.261437 0.290667 0.858411
O O9 0.986721 0.361687 0.883599
O O10 0.276534 0.332015 0.000000
O O11 0.747291 0.930780 0.657107
O O12 0.500000 0.500000 0.111469
O O13 0.000000 0.500000 0.109033
O O14 0.744410 0.457343 0.000000
O O15 0.692974 0.277562 0.089594
#
# Coordination Sequence:
#
# PCOD9442142 Si02
#       7
#     4   8   8   8   8   4   8
#     4  10  22  36  54  72 100 145 188 235 274 316
#     4  10  21  36  54  78 109 148 193 237 275 318
#     4  11  21  34  52  81 115 152 187 227 271 323
#     4  11  23  36  56  81 114 146 186 229 276 329
#     4  10  20  36  58  83 110 141 173 214 275 349
#     4  10  20  34  52  74 102 143 194 229 276 320
#     4  10  19  34  51  78 108 152 191 232 275 318
#
# _framework density 18.062967
#
# number of rings (size 3 to 8) (size 9 to 14) (size 15 to 20)
#    0.000    1.667    0.833    4.500    0.000    9.333 
#    0.000    0.000    0.000    0.000    0.000    1.167 
#    0.000    0.000    0.000    0.000    0.000    0.000 
#
# Total GULP energy -267787.358248 kJ/mol
# GULP energy per Si atom -5578.903297 kJ/mol
# Density = 1.802186 g / cm^3
# Si number density = 18.062967 Si / 1000 Ang^3
#
#
#
# Elastic Constant Matrix: (Units=GPa)
#
#
# Indices 1 2 3 4 5 6 
#
# 1 100.0884 26.7711 21.2483 0.0000 0.0000 0.0000
# 2 26.7711 108.3284 51.3059 0.0000 0.0000 0.0000
# 3 21.2483 51.3059 148.1767 0.0000 0.0000 0.0000
# 4 0.0000 0.0000 0.0000 26.1839 0.0000 0.0000
# 5 0.0000 0.0000 0.0000 0.0000 19.2442 0.0000
# 6 0.0000 0.0000 0.0000 0.0000 0.0000 17.7188
#
#
#
# Elastic Compliance Matrix: (Units=1/GPa)
#
#
# Indices 1 2 3 4 5 6 
#
# 1 0.010767 -0.002308 -0.000745 0.000000 0.000000 0.000000
# 2 -0.002308 0.011537 -0.003664 0.000000 0.000000 0.000000
# 3 -0.000745 -0.003664 0.008124 0.000000 0.000000 0.000000
# 4 0.000000 0.000000 0.000000 0.038191 0.000000 0.000000
# 5 0.000000 0.000000 0.000000 0.000000 0.051964 0.000000
# 6 0.000000 0.000000 0.000000 0.000000 0.000000 0.056437
#
#
# Mechanical properties :
#
#
# Convention : Reuss Voigt Hill
#
# Bulk Modulus (GPa) = 58.84231 61.69379 60.26805
# Shear Modulus (GPa) = 25.49496 29.78060 27.63778
#
# Velocity S-wave (km/s) = 3.76100 4.06484 3.91587
# Velocity P-wave (km/s) = 7.17685 7.50063 7.34053
#
# Compressibility (1/GPa) = 0.01699457
#
# Stress axis : x y z
#
# Youngs Moduli (GPa) = 92.87970 86.67994 123.09193
#
# Poissons Ratio (x) = 0.20006 0.09167
# Poissons Ratio (y) = 0.21437 0.45096
# Poissons Ratio (z) = 0.06917 0.31756
#
# Static dielectric constant tensor:
#      x y z
#    x 1.712020 0.000000 0.000000 
#    y 0.000000 1.629940 0.000000 
#    z 0.000000 0.000000 1.684740 
# 
# From -- ./inp_files/18713.got.cif
#   From: 2010.05.17/outbox.cif.g08.bks.cpg/sg58_10_cif.got.tgz:18713.got - 2010.06.03 14:20:14.
