data_PCOD9442963
_publ_section_title
;
Structure prediction by ZEFSAII (Michael W. Deem and Ramdas Pophale) SiO2 
 PCOD9442963
Probable space group: P N N M
;
_chemical_formula_sum "Si O2"
_cell_formula_units_Z 48
_cell_length_a 5.352379
_cell_length_b 22.630253
_cell_length_c 20.023734
_cell_angle_alpha 90.000000
_cell_angle_beta 90.000000
_cell_angle_gamma 90.000000
_cell_volume 2425.388616
_symmetry_space_group_name_H-M "P N N M"
_symmetry_group_IT_number 58
_symmetry_cell_setting 'orthorhombic'
loop_
_space_group_symop_operation_xyz
x,y,z
-x,-y,z
1/2+x,1/2-y,1/2-z
1/2-x,1/2+y,1/2-z
-x,-y,-z
x,y,-z
1/2-x,1/2+y,1/2+z
1/2+x,1/2-y,1/2+z
loop_
_atom_site_type_symbol
_atom_site_label
_atom_site_fract_x
_atom_site_fract_y
_atom_site_fract_z
Si Si1 0.576914 0.839918 0.233974
Si Si2 0.780654 0.145822 0.873092
Si Si3 0.445156 0.753076 0.500000
Si Si4 0.901096 0.743723 0.149594
Si Si5 0.262929 0.035517 0.222633
Si Si6 0.683712 0.444329 0.425534
Si Si7 0.037264 0.321454 0.500000
O O1 0.345898 0.870943 0.195707
O O2 0.698466 0.788606 0.185316
O O3 0.474172 0.806846 0.298695
O O4 0.755508 0.896063 0.247772
O O5 0.579069 0.144501 0.931540
O O6 0.867342 0.212171 0.859310
O O7 0.008032 0.110149 0.903945
O O8 0.374004 0.780382 0.426913
O O9 0.731492 0.727477 0.500000
O O10 0.242257 0.700976 0.500000
O O11 0.321919 0.043039 0.143379
O O12 0.500000 0.000000 0.252410
O O13 0.000000 0.000000 0.229418
O O14 0.500000 0.500000 0.431185
O O15 0.795014 0.438973 0.500000
#
# Coordination Sequence:
#
# PCOD9442963 Si02
#       7
#     8   8   4   8   8   8   4
#     4  12  22  37  62  87 122 156 206 253 301 368
#     4  11  20  36  54  82 120 158 207 248 303 348
#     4  10  22  40  56  84 126 158 196 236 306 375
#     4  11  23  36  60  91 119 163 194 253 312 367
#     4  11  25  43  59  82 116 161 206 254 303 350
#     4  10  20  35  54  80 115 165 216 249 280 334
#     4  10  20  34  53  80 116 165 198 238 298 349
#
# _framework density 19.790645000000001
#
# number of rings (size 3 to 8) (size 9 to 14) (size 15 to 20)
#    0.000    1.167    5.833    2.000    0.000    0.333 
#    1.500    0.000    0.000    0.000    0.000    1.167 
#    0.000    0.000    0.000    1.583    0.000    0.000 
#
# Total GULP energy -267310.736472 kJ/mol
# GULP energy per Si atom -5568.973677 kJ/mol
# Density = 1.974560 g / cm^3
# Si number density = 19.790645 Si / 1000 Ang^3
#
#
#
# Elastic Constant Matrix: (Units=GPa)
#
#
# Indices 1 2 3 4 5 6 
#
# 1 66.7018 39.7314 31.9700 0.0000 0.0000 0.0000
# 2 39.7314 83.2098 39.1582 0.0000 0.0000 0.0000
# 3 31.9700 39.1582 111.3614 0.0000 0.0000 0.0000
# 4 0.0000 0.0000 0.0000 108.6817 0.0000 0.0000
# 5 0.0000 0.0000 0.0000 0.0000 10.1674 0.0000
# 6 0.0000 0.0000 0.0000 0.0000 0.0000 25.8829
#
#
#
# Elastic Compliance Matrix: (Units=1/GPa)
#
#
# Indices 1 2 3 4 5 6 
#
# 1 0.021817 -0.008951 -0.003116 0.000000 0.000000 0.000000
# 2 -0.008951 0.018073 -0.003785 0.000000 0.000000 0.000000
# 3 -0.003116 -0.003785 0.011205 0.000000 0.000000 0.000000
# 4 0.000000 0.000000 0.000000 0.009201 0.000000 0.000000
# 5 0.000000 0.000000 0.000000 0.000000 0.098353 0.000000
# 6 0.000000 0.000000 0.000000 0.000000 0.000000 0.038636
#
#
# Mechanical properties :
#
#
# Convention : Reuss Voigt Hill
#
# Bulk Modulus (GPa) = 51.57008 53.66581 52.61795
# Shear Modulus (GPa) = 21.23554 38.97396 30.10475
#
# Velocity S-wave (km/s) = 3.27923 4.44251 3.90444
# Velocity P-wave (km/s) = 6.36021 7.31369 6.85355
#
# Compressibility (1/GPa) = 0.01939109
#
# Stress axis : x y z
#
# Youngs Moduli (GPa) = 45.83513 55.33036 89.24295
#
# Poissons Ratio (x) = 0.49527 0.27807
# Poissons Ratio (y) = 0.41028 0.33782
# Poissons Ratio (z) = 0.14282 0.20945
#
# Static dielectric constant tensor:
#      x y z
#    x 1.752910 0.000000 0.000000 
#    y 0.000000 1.743640 0.000000 
#    z 0.000000 0.000000 1.735600 
# 
# From -- ./inp_files/28167.got.cif
#   From: 2010.05.17/outbox.cif.g08.bks.cpg/sg58_15_cif.got.tgz:28167.got - 2010.06.03 14:20:14.
