data_PCOD9442545
_publ_section_title
;
Structure prediction by ZEFSAII (Michael W. Deem and Ramdas Pophale) SiO2 
 PCOD9442545
Probable space group: P N N M
;
_chemical_formula_sum "Si O2"
_cell_formula_units_Z 64
_cell_length_a 19.028826
_cell_length_b 20.732033
_cell_length_c 7.540247
_cell_angle_alpha 90.000000
_cell_angle_beta 90.000000
_cell_angle_gamma 90.000000
_cell_volume 2974.674557
_symmetry_space_group_name_H-M "P N N M"
_symmetry_group_IT_number 58
_symmetry_cell_setting 'orthorhombic'
loop_
_space_group_symop_operation_xyz
x,y,z
-x,-y,z
1/2+x,1/2-y,1/2-z
1/2-x,1/2+y,1/2-z
-x,-y,-z
x,y,-z
1/2-x,1/2+y,1/2+z
1/2+x,1/2-y,1/2+z
loop_
_atom_site_type_symbol
_atom_site_label
_atom_site_fract_x
_atom_site_fract_y
_atom_site_fract_z
Si Si1 0.459022 0.564370 0.215099
Si Si2 0.328925 0.739558 0.295102
Si Si3 0.054577 0.815927 0.714229
Si Si4 0.784052 0.154801 0.790695
Si Si5 0.556718 0.053000 0.782936
Si Si6 0.801738 0.902120 0.206091
Si Si7 0.715450 0.022092 0.217254
Si Si8 0.026853 0.304664 0.703778
O O1 0.500000 0.500000 0.270039
O O2 0.502575 0.627136 0.274109
O O3 0.379730 0.568162 0.282541
O O4 0.455914 0.564668 0.000000
O O5 0.349721 0.729368 0.500000
O O6 0.265180 0.789812 0.288669
O O7 0.307031 0.670088 0.217785
O O8 0.396980 0.770525 0.204900
O O9 0.049395 0.814578 0.500000
O O10 0.134365 0.831609 0.760284
O O11 0.027250 0.746980 0.782598
O O12 0.761303 0.083923 0.725843
O O13 0.769624 0.156173 0.000000
O O14 0.635348 0.034138 0.728363
O O15 0.536128 0.124322 0.717949
O O16 0.500000 0.000000 0.729647
O O17 0.558035 0.054909 0.000000
O O18 0.748301 0.954897 0.281607
O O19 0.781706 0.893535 0.000000
O O20 0.717516 0.020580 0.000000
O O21 0.004651 0.314850 0.500000
#
# Coordination Sequence:
#
# PCOD9442545 Si02
#       8
#     8   8   8   8   8   8   8   8
#     4  10  20  34  53  79 114 151 183 225 278 337
#     4  11  22  36  57  84 115 151 191 236 286 338
#     4  10  21  35  54  83 115 146 189 236 280 335
#     4  11  22  37  59  83 112 151 192 235 286 344
#     4   9  17  31  57  87 109 139 187 240 287 329
#     4  10  21  35  55  82 112 148 189 236 279 330
#     4   9  18  34  55  82 113 145 190 240 280 330
#     4  10  19  36  60  83 111 151 192 233 284 342
#
# _framework density 21.514958
#
# number of rings (size 3 to 8) (size 9 to 14) (size 15 to 20)
#    0.000    2.000    2.500    1.500    0.000    2.750 
#    0.000    4.375    0.000    0.375    0.000    0.000 
#    0.000    0.000    0.000    0.000    0.000    0.000 
#
# Total GULP energy -357623.065117 kJ/mol
# GULP energy per Si atom -5587.860392 kJ/mol
# Density = 2.146599 g / cm^3
# Si number density = 21.514958 Si / 1000 Ang^3
#
#
#
# Elastic Constant Matrix: (Units=GPa)
#
#
# Indices 1 2 3 4 5 6 
#
# 1 115.8374 71.1823 -9.4702 0.0000 0.0000 0.0000
# 2 71.1823 200.7918 4.1415 0.0000 0.0000 0.0000
# 3 -9.4702 4.1415 54.4202 0.0000 0.0000 0.0000
# 4 0.0000 0.0000 0.0000 6.6678 0.0000 0.0000
# 5 0.0000 0.0000 0.0000 0.0000 24.9068 0.0000
# 6 0.0000 0.0000 0.0000 0.0000 0.0000 45.2229
#
#
#
# Elastic Compliance Matrix: (Units=1/GPa)
#
#
# Indices 1 2 3 4 5 6 
#
# 1 0.011312 -0.004057 0.002277 0.000000 0.000000 0.000000
# 2 -0.004057 0.006443 -0.001196 0.000000 0.000000 0.000000
# 3 0.002277 -0.001196 0.018863 0.000000 0.000000 0.000000
# 4 0.000000 0.000000 0.000000 0.149975 0.000000 0.000000
# 5 0.000000 0.000000 0.000000 0.000000 0.040150 0.000000
# 6 0.000000 0.000000 0.000000 0.000000 0.000000 0.022113
#
#
# Mechanical properties :
#
#
# Convention : Reuss Voigt Hill
#
# Bulk Modulus (GPa) = 32.60976 55.86185 44.23580
# Shear Modulus (GPa) = 18.86576 35.70587 27.28581
#
# Velocity S-wave (km/s) = 2.96441 4.07822 3.56508
# Velocity P-wave (km/s) = 5.18716 6.94236 6.12793
#
# Compressibility (1/GPa) = 0.03066567
#
# Stress axis : x y z
#
# Youngs Moduli (GPa) = 88.40060 155.20059 53.01425
#
# Poissons Ratio (x) = 0.62968 -0.12073
# Poissons Ratio (y) = 0.35866 0.06343
# Poissons Ratio (z) = -0.20131 0.18568
#
# Static dielectric constant tensor:
#      x y z
#    x 1.713120 0.000000 0.000000 
#    y 0.000000 1.781210 0.000000 
#    z 0.000000 0.000000 1.841590 
# 
# From -- ./inp_files/9252.got.cif
#   From: 2010.05.17/outbox.cif.g08.bks.cpg/sg58_5_cif.got.tgz:9252.got - 2010.06.03 14:20:14.
