data_PCOD9442925
_publ_section_title
;
Structure prediction by ZEFSAII (Michael W. Deem and Ramdas Pophale) SiO2 
 PCOD9442925
Probable space group: P N N M
;
_chemical_formula_sum "Si O2"
_cell_formula_units_Z 48
_cell_length_a 18.917456
_cell_length_b 16.721035
_cell_length_c 8.672791
_cell_angle_alpha 90.000000
_cell_angle_beta 90.000000
_cell_angle_gamma 90.000000
_cell_volume 2743.372426
_symmetry_space_group_name_H-M "P N N M"
_symmetry_group_IT_number 58
_symmetry_cell_setting 'orthorhombic'
loop_
_space_group_symop_operation_xyz
x,y,z
-x,-y,z
1/2+x,1/2-y,1/2-z
1/2-x,1/2+y,1/2-z
-x,-y,-z
x,y,-z
1/2-x,1/2+y,1/2+z
1/2+x,1/2-y,1/2+z
loop_
_atom_site_type_symbol
_atom_site_label
_atom_site_fract_x
_atom_site_fract_y
_atom_site_fract_z
Si Si1 0.710835 0.430151 0.682980
Si Si2 0.917783 0.005258 0.684228
Si Si3 0.288724 0.917000 0.681549
Si Si4 0.418930 0.014018 0.313756
Si Si5 0.659478 0.660245 0.681175
Si Si6 0.341871 0.170123 0.817498
O O1 0.715954 0.448596 0.500000
O O2 0.629950 0.436886 0.735006
O O3 0.748589 0.499798 0.781307
O O4 0.759189 0.352798 0.710495
O O5 0.911213 0.997625 0.500000
O O6 0.885431 0.090730 0.735396
O O7 0.000000 0.000000 0.726453
O O8 0.285802 0.899226 0.500000
O O9 0.241585 0.853273 0.771438
O O10 0.368788 0.938441 0.727726
O O11 0.414252 0.022526 0.500000
O O12 0.387058 0.093942 0.238499
O O13 0.500000 0.000000 0.271050
O O14 0.651580 0.649389 0.500000
O O15 0.638264 0.748653 0.732512
O O16 0.350940 0.180448 0.000000
#
# Coordination Sequence:
#
# PCOD9442925 Si02
#       6
#     8   8   8   8   8   8
#     4   9  17  30  50  73  96 126 164 203 241 289
#     4  10  20  34  53  76 103 134 166 203 250 303
#     4   9  16  29  50  72  97 128 162 201 242 289
#     4   9  18  33  53  77 104 135 169 203 246 301
#     4  11  21  33  52  75 100 131 169 211 253 298
#     4  10  20  34  52  75 102 131 168 211 254 297
#
# _framework density 17.496713
#
# number of rings (size 3 to 8) (size 9 to 14) (size 15 to 20)
#    0.000    2.333    0.000    5.500    0.000    4.333 
#    0.000    1.667    0.000    2.000    0.000    0.000 
#    0.000    0.000    0.000    0.000    0.000    0.000 
#
# Total GULP energy -267449.168727 kJ/mol
# GULP energy per Si atom -5571.857682 kJ/mol
# Density = 1.745689 g / cm^3
# Si number density = 17.496713 Si / 1000 Ang^3
#
#
#
# Elastic Constant Matrix: (Units=GPa)
#
#
# Indices 1 2 3 4 5 6 
#
# 1 123.2952 20.1107 20.6882 0.0000 0.0000 0.0000
# 2 20.1107 56.8968 9.0302 0.0000 0.0000 0.0000
# 3 20.6882 9.0302 33.8777 0.0000 0.0000 0.0000
# 4 0.0000 0.0000 0.0000 16.8028 0.0000 0.0000
# 5 0.0000 0.0000 0.0000 0.0000 21.0132 0.0000
# 6 0.0000 0.0000 0.0000 0.0000 0.0000 15.0114
#
#
#
# Elastic Compliance Matrix: (Units=1/GPa)
#
#
# Indices 1 2 3 4 5 6 
#
# 1 0.009368 -0.002509 -0.005052 0.000000 0.000000 0.000000
# 2 -0.002509 0.019024 -0.003539 0.000000 0.000000 0.000000
# 3 -0.005052 -0.003539 0.033546 0.000000 0.000000 0.000000
# 4 0.000000 0.000000 0.000000 0.059514 0.000000 0.000000
# 5 0.000000 0.000000 0.000000 0.000000 0.047589 0.000000
# 6 0.000000 0.000000 0.000000 0.000000 0.000000 0.066616
#
#
# Mechanical properties :
#
#
# Convention : Reuss Voigt Hill
#
# Bulk Modulus (GPa) = 25.16436 34.85867 30.01151
# Shear Modulus (GPa) = 18.44322 21.51485 19.97903
#
# Velocity S-wave (km/s) = 3.25021 3.51044 3.38283
# Velocity P-wave (km/s) = 5.33842 6.03301 5.69631
#
# Compressibility (1/GPa) = 0.03973875
#
# Stress axis : x y z
#
# Youngs Moduli (GPa) = 106.75156 52.56454 29.80972
#
# Poissons Ratio (x) = 0.13190 0.15059
# Poissons Ratio (y) = 0.26787 0.10549
# Poissons Ratio (z) = 0.53927 0.18601
#
# Static dielectric constant tensor:
#      x y z
#    x 1.635810 0.000000 0.000000 
#    y 0.000000 1.589980 0.000000 
#    z 0.000000 0.000000 1.586680 
# 
# From -- ./inp_files/7863.got.cif
#   From: 2010.05.17/outbox.cif.g08.bks.cpg/sg58_4_cif.got.tgz:7863.got - 2010.06.03 14:20:14.
