data_PCOD9442849
_publ_section_title
;
Structure prediction by ZEFSAII (Michael W. Deem and Ramdas Pophale) SiO2 
 PCOD9442849
Probable space group: P N N M
;
_chemical_formula_sum "Si O2"
_cell_formula_units_Z 64
_cell_length_a 25.584622
_cell_length_b 14.519961
_cell_length_c 7.741658
_cell_angle_alpha 90.000000
_cell_angle_beta 90.000000
_cell_angle_gamma 90.000000
_cell_volume 2875.930830
_symmetry_space_group_name_H-M "P N N M"
_symmetry_group_IT_number 58
_symmetry_cell_setting 'orthorhombic'
loop_
_space_group_symop_operation_xyz
x,y,z
-x,-y,z
1/2+x,1/2-y,1/2-z
1/2-x,1/2+y,1/2-z
-x,-y,-z
x,y,-z
1/2-x,1/2+y,1/2+z
1/2+x,1/2-y,1/2+z
loop_
_atom_site_type_symbol
_atom_site_label
_atom_site_fract_x
_atom_site_fract_y
_atom_site_fract_z
Si Si1 0.055325 0.959722 0.201746
Si Si2 0.397565 0.643709 0.791736
Si Si3 0.091735 0.758273 0.700541
Si Si4 0.668318 0.004286 0.708384
Si Si5 0.193233 0.284895 0.291242
Si Si6 0.479975 0.789281 0.209304
Si Si7 0.944497 0.521443 0.800299
Si Si8 0.204245 0.686090 0.796803
O O1 0.076527 0.865935 0.284494
O O2 0.097895 0.041010 0.221105
O O3 0.047155 0.939365 0.000000
O O4 0.000000 0.000000 0.272849
O O5 0.351208 0.711874 0.733249
O O6 0.452154 0.693874 0.746326
O O7 0.394401 0.637455 0.000000
O O8 0.096019 0.734636 0.500000
O O9 0.146924 0.731131 0.780865
O O10 0.039842 0.706806 0.770500
O O11 0.665366 0.997179 0.500000
O O12 0.702466 0.918573 0.772736
O O13 0.684697 0.108474 0.745000
O O14 0.609437 0.988061 0.777680
O O15 0.191214 0.283273 0.500000
O O16 0.249216 0.248582 0.225619
O O17 0.444713 0.868286 0.290639
O O18 0.478818 0.797792 0.000000
O O19 0.000000 0.500000 0.714019
O O20 0.946633 0.491070 0.000000
O O21 0.215596 0.678007 0.000000
#
# Coordination Sequence:
#
# PCOD9442849 Si02
#       8
#     8   8   8   8   8   8   8   8
#     4  11  23  37  58  89 124 163 203 247 301 359
#     4  10  20  37  59  85 119 157 198 246 299 355
#     4  11  23  39  60  87 120 160 202 248 302 358
#     4  10  21  38  61  88 121 157 196 244 298 355
#     4  10  22  41  65  89 118 157 201 249 298 351
#     4  10  20  34  55  83 116 152 191 239 294 354
#     4  10  20  33  53  83 117 155 194 238 294 354
#     4  10  23  43  63  87 120 158 200 248 299 352
#
# _framework density 22.253665000000002
#
# number of rings (size 3 to 8) (size 9 to 14) (size 15 to 20)
#    0.000    1.750    2.500    1.500    0.000    5.750 
#    0.000    1.250    0.000    0.000    0.000    0.000 
#    0.000    0.000    0.000    0.000    0.000    0.000 
#
# Total GULP energy -357386.781104 kJ/mol
# GULP energy per Si atom -5584.168455 kJ/mol
# Density = 2.220301 g / cm^3
# Si number density = 22.253665 Si / 1000 Ang^3
#
#
#
# Elastic Constant Matrix: (Units=GPa)
#
#
# Indices 1 2 3 4 5 6 
#
# 1 126.6677 46.9324 4.3735 0.0000 0.0000 0.0000
# 2 46.9324 110.9928 -0.5818 0.0000 0.0000 0.0000
# 3 4.3735 -0.5818 37.5758 0.0000 0.0000 0.0000
# 4 0.0000 0.0000 0.0000 29.3063 0.0000 0.0000
# 5 0.0000 0.0000 0.0000 0.0000 14.4639 0.0000
# 6 0.0000 0.0000 0.0000 0.0000 0.0000 35.6387
#
#
#
# Elastic Compliance Matrix: (Units=1/GPa)
#
#
# Indices 1 2 3 4 5 6 
#
# 1 0.009411 -0.003986 -0.001157 0.000000 0.000000 0.000000
# 2 -0.003986 0.010698 0.000630 0.000000 0.000000 0.000000
# 3 -0.001157 0.000630 0.026757 0.000000 0.000000 0.000000
# 4 0.000000 0.000000 0.000000 0.034122 0.000000 0.000000
# 5 0.000000 0.000000 0.000000 0.000000 0.069138 0.000000
# 6 0.000000 0.000000 0.000000 0.000000 0.000000 0.028059
#
#
# Mechanical properties :
#
#
# Convention : Reuss Voigt Hill
#
# Bulk Modulus (GPa) = 26.42670 41.85381 34.14026
# Shear Modulus (GPa) = 25.02175 30.84925 27.93550
#
# Velocity S-wave (km/s) = 3.35683 3.72728 3.54689
# Velocity P-wave (km/s) = 5.18897 6.11326 5.66998
#
# Compressibility (1/GPa) = 0.03784052
#
# Stress axis : x y z
#
# Youngs Moduli (GPa) = 106.25475 93.47401 37.37297
#
# Poissons Ratio (x) = 0.37255 0.04324
# Poissons Ratio (y) = 0.42349 -0.02353
# Poissons Ratio (z) = 0.12295 -0.05885
#
# Static dielectric constant tensor:
#      x y z
#    x 1.841860 0.000000 0.000000 
#    y 0.000000 1.853490 0.000000 
#    z 0.000000 0.000000 1.825860 
# 
# From -- ./inp_files/9957.got.cif
#   From: 2010.05.17/outbox.cif.g08.bks.cpg/sg58_5_cif.got.tgz:9957.got - 2010.06.03 14:20:14.
