data_PCOD9442422
_publ_section_title
;
Structure prediction by ZEFSAII (Michael W. Deem and Ramdas Pophale) SiO2 
 PCOD9442422
Probable space group: P N N M
;
_chemical_formula_sum "Si O2"
_cell_formula_units_Z 56
_cell_length_a 16.747131
_cell_length_b 20.272630
_cell_length_c 7.903101
_cell_angle_alpha 90.000000
_cell_angle_beta 90.000000
_cell_angle_gamma 90.000000
_cell_volume 2683.169099
_symmetry_space_group_name_H-M "P N N M"
_symmetry_group_IT_number 58
_symmetry_cell_setting 'orthorhombic'
loop_
_space_group_symop_operation_xyz
x,y,z
-x,-y,z
1/2+x,1/2-y,1/2-z
1/2-x,1/2+y,1/2-z
-x,-y,-z
x,y,-z
1/2-x,1/2+y,1/2+z
1/2+x,1/2-y,1/2+z
loop_
_atom_site_type_symbol
_atom_site_label
_atom_site_fract_x
_atom_site_fract_y
_atom_site_fract_z
Si Si1 0.644691 0.879768 0.190235
Si Si2 0.180889 0.126664 0.305444
Si Si3 0.727820 0.602723 0.702035
Si Si4 0.878954 0.517592 0.809172
Si Si5 0.092759 0.995077 0.295079
Si Si6 0.523035 0.140183 0.204653
Si Si7 0.674791 0.226684 0.206206
O O1 0.723890 0.880136 0.299232
O O2 0.566706 0.842477 0.258003
O O3 0.618277 0.955960 0.186363
O O4 0.663840 0.857194 0.000000
O O5 0.152770 0.129703 0.500000
O O6 0.139538 0.061006 0.232713
O O7 0.169405 0.199017 0.226998
O O8 0.739799 0.600356 0.500000
O O9 0.795006 0.555512 0.783419
O O10 0.642236 0.570036 0.740661
O O11 0.752524 0.677363 0.757177
O O12 0.947221 0.570756 0.776077
O O13 0.884258 0.492796 0.000000
O O14 0.094616 0.994684 0.500000
O O15 0.000000 0.000000 0.242429
O O16 0.592430 0.190694 0.251700
O O17 0.521963 0.135894 0.000000
O O18 0.679716 0.230787 0.000000
#
# Coordination Sequence:
#
# PCOD9442422 Si02
#       7
#     8   8   8   8   8   8   8
#     4  11  21  33  52  81 113 142 180 226 273 330
#     4  10  20  37  59  78 109 151 188 230 282 339
#     4  10  19  35  59  82 108 145 188 231 279 337
#     4  11  20  31  52  81 111 142 176 219 273 327
#     4  10  21  37  57  86 115 146 190 239 286 335
#     4   9  19  35  53  76 108 145 184 223 270 329
#     4   8  17  36  58  78 104 147 191 226 280 340
#
# _framework density 20.870842
#
# number of rings (size 3 to 8) (size 9 to 14) (size 15 to 20)
#    0.000    2.143    1.429    3.429    0.000    3.143 
#    2.571    3.571    0.000    0.000    0.000    0.000 
#    0.000    0.000    0.000    0.000    0.000    0.000 
#
# Total GULP energy -312280.865606 kJ/mol
# GULP energy per Si atom -5576.444029 kJ/mol
# Density = 2.082334 g / cm^3
# Si number density = 20.870842 Si / 1000 Ang^3
#
#
#
# Elastic Constant Matrix: (Units=GPa)
#
#
# Indices 1 2 3 4 5 6 
#
# 1 108.4101 30.3928 5.9902 0.0000 0.0000 0.0000
# 2 30.3928 96.4007 5.0880 0.0000 0.0000 0.0000
# 3 5.9902 5.0880 39.1245 0.0000 0.0000 0.0000
# 4 0.0000 0.0000 0.0000 7.8850 0.0000 0.0000
# 5 0.0000 0.0000 0.0000 0.0000 16.5935 0.0000
# 6 0.0000 0.0000 0.0000 0.0000 0.0000 6.4454
#
#
#
# Elastic Compliance Matrix: (Units=1/GPa)
#
#
# Indices 1 2 3 4 5 6 
#
# 1 0.010170 -0.003146 -0.001148 0.000000 0.000000 0.000000
# 2 -0.003146 0.011418 -0.001003 0.000000 0.000000 0.000000
# 3 -0.001148 -0.001003 0.025866 0.000000 0.000000 0.000000
# 4 0.000000 0.000000 0.000000 0.126823 0.000000 0.000000
# 5 0.000000 0.000000 0.000000 0.000000 0.060265 0.000000
# 6 0.000000 0.000000 0.000000 0.000000 0.000000 0.155149
#
#
# Mechanical properties :
#
#
# Convention : Reuss Voigt Hill
#
# Bulk Modulus (GPa) = 27.12999 36.31970 31.72484
# Shear Modulus (GPa) = 12.11915 19.68240 15.90078
#
# Velocity S-wave (km/s) = 2.41233 3.07426 2.76319
# Velocity P-wave (km/s) = 4.55920 5.48099 5.04121
#
# Compressibility (1/GPa) = 0.03685958
#
# Stress axis : x y z
#
# Youngs Moduli (GPa) = 98.33286 87.58052 38.66134
#
# Poissons Ratio (x) = 0.27550 0.04438
# Poissons Ratio (y) = 0.30932 0.03879
# Poissons Ratio (z) = 0.11288 0.08787
#
# Static dielectric constant tensor:
#      x y z
#    x 1.776990 0.000000 0.000000 
#    y 0.000000 1.760780 0.000000 
#    z 0.000000 0.000000 1.756950 
# 
# From -- ./inp_files/6335.got.cif
#   From: 2010.05.17/outbox.cif.g08.bks.cpg/sg58_4_cif.got.tgz:6335.got - 2010.06.03 14:20:14.
