data_PCOD9442260
_publ_section_title
;
Structure prediction by ZEFSAII (Michael W. Deem and Ramdas Pophale) SiO2 
 PCOD9442260
Probable space group: P N N M
;
_chemical_formula_sum "Si O2"
_cell_formula_units_Z 48
_cell_length_a 7.965800
_cell_length_b 13.211780
_cell_length_c 20.961361
_cell_angle_alpha 90.000000
_cell_angle_beta 90.000000
_cell_angle_gamma 90.000000
_cell_volume 2206.023879
_symmetry_space_group_name_H-M "P N N M"
_symmetry_group_IT_number 58
_symmetry_cell_setting 'orthorhombic'
loop_
_space_group_symop_operation_xyz
x,y,z
-x,-y,z
1/2+x,1/2-y,1/2-z
1/2-x,1/2+y,1/2-z
-x,-y,-z
x,y,-z
1/2-x,1/2+y,1/2+z
1/2+x,1/2-y,1/2+z
loop_
_atom_site_type_symbol
_atom_site_label
_atom_site_fract_x
_atom_site_fract_y
_atom_site_fract_z
Si Si1 0.484542 0.229714 0.621739
Si Si2 0.992186 0.211592 0.748314
Si Si3 0.160221 0.074830 0.926596
Si Si4 0.327103 0.098002 0.206186
Si Si5 0.185418 0.552615 0.067562
Si Si6 0.237806 0.434109 0.186612
O O1 0.400040 0.281852 0.682648
O O2 0.590234 0.310830 0.582555
O O3 0.354495 0.169717 0.578852
O O4 0.602700 0.145626 0.657182
O O5 0.977565 0.320775 0.714210
O O6 0.897093 0.129576 0.706935
O O7 0.170947 0.167377 0.769341
O O8 0.287593 0.063973 0.866453
O O9 0.220904 0.061080 0.000000
O O10 0.000000 0.000000 0.917478
O O11 0.324422 0.003966 0.254910
O O12 0.275885 0.508688 0.128446
O O13 0.000000 0.500000 0.065773
O O14 0.268175 0.532578 0.000000
#
# Coordination Sequence:
#
# PCOD9442260 Si02
#       6
#     8   8   8   8   8   8
#     4  10  19  34  57  86 117 150 199 239 298 348
#     4  11  20  36  54  87 117 150 192 243 289 352
#     4  10  20  36  58  88 118 151 194 249 299 341
#     4  11  22  36  60  86 120 152 196 246 297 352
#     4   9  18  31  53  85 117 147 189 241 287 343
#     4  11  20  35  57  85 115 151 192 244 296 347
#
# _framework density 21.758603000000001
#
# number of rings (size 3 to 8) (size 9 to 14) (size 15 to 20)
#    0.000    1.667    5.000    3.000    0.000    0.667 
#    0.000    0.000    0.000    3.000    0.000    3.500 
#    0.000    0.000    0.000    0.000    0.000    0.000 
#
# Total GULP energy -267753.301403 kJ/mol
# GULP energy per Si atom -5578.193779 kJ/mol
# Density = 2.170908 g / cm^3
# Si number density = 21.758603 Si / 1000 Ang^3
#
#
#
# Elastic Constant Matrix: (Units=GPa)
#
#
# Indices 1 2 3 4 5 6 
#
# 1 38.9949 18.8734 24.7608 0.0000 0.0000 0.0000
# 2 18.8734 106.9395 34.5300 0.0000 0.0000 0.0000
# 3 24.7608 34.5300 166.6644 0.0000 0.0000 0.0000
# 4 0.0000 0.0000 0.0000 16.3117 0.0000 0.0000
# 5 0.0000 0.0000 0.0000 0.0000 21.3517 0.0000
# 6 0.0000 0.0000 0.0000 0.0000 0.0000 35.2130
#
#
#
# Elastic Compliance Matrix: (Units=1/GPa)
#
#
# Indices 1 2 3 4 5 6 
#
# 1 0.029919 -0.004121 -0.003591 0.000000 0.000000 0.000000
# 2 -0.004121 0.010589 -0.001582 0.000000 0.000000 0.000000
# 3 -0.003591 -0.001582 0.006861 0.000000 0.000000 0.000000
# 4 0.000000 0.000000 0.000000 0.061306 0.000000 0.000000
# 5 0.000000 0.000000 0.000000 0.000000 0.046835 0.000000
# 6 0.000000 0.000000 0.000000 0.000000 0.000000 0.028399
#
#
# Mechanical properties :
#
#
# Convention : Reuss Voigt Hill
#
# Bulk Modulus (GPa) = 34.74370 52.10302 43.42336
# Shear Modulus (GPa) = 23.57491 30.20426 26.88958
#
# Velocity S-wave (km/s) = 3.29519 3.72983 3.51923
# Velocity P-wave (km/s) = 5.52088 6.52279 6.04264
#
# Compressibility (1/GPa) = 0.02878219
#
# Stress axis : x y z
#
# Youngs Moduli (GPa) = 33.42344 94.43728 145.74464
#
# Poissons Ratio (x) = 0.38915 0.52340
# Poissons Ratio (y) = 0.13773 0.23052
# Poissons Ratio (z) = 0.12003 0.14937
#
# Static dielectric constant tensor:
#      x y z
#    x 1.858930 0.000000 0.000000 
#    y 0.000000 1.862270 0.000000 
#    z 0.000000 0.000000 1.825260 
# 
# From -- ./inp_files/28841.got.cif
#   From: 2010.05.17/outbox.cif.g08.bks.cpg/sg58_15_cif.got.tgz:28841.got - 2010.06.03 14:20:14.
