data_PCOD9442132
_publ_section_title
;
Structure prediction by ZEFSAII (Michael W. Deem and Ramdas Pophale) SiO2 
 PCOD9442132
Probable space group: P N N M
;
_chemical_formula_sum "Si O2"
_cell_formula_units_Z 56
_cell_length_a 8.310695
_cell_length_b 18.685329
_cell_length_c 18.952855
_cell_angle_alpha 90.000000
_cell_angle_beta 90.000000
_cell_angle_gamma 90.000000
_cell_volume 2943.152280
_symmetry_space_group_name_H-M "P N N M"
_symmetry_group_IT_number 58
_symmetry_cell_setting 'orthorhombic'
loop_
_space_group_symop_operation_xyz
x,y,z
-x,-y,z
1/2+x,1/2-y,1/2-z
1/2-x,1/2+y,1/2-z
-x,-y,-z
x,y,-z
1/2-x,1/2+y,1/2+z
1/2+x,1/2-y,1/2+z
loop_
_atom_site_type_symbol
_atom_site_label
_atom_site_fract_x
_atom_site_fract_y
_atom_site_fract_z
Si Si1 0.097464 0.425392 0.575776
Si Si2 0.310633 0.826354 0.418675
Si Si3 0.876557 0.842766 0.771161
Si Si4 0.356103 0.943073 0.223427
Si Si5 0.095304 0.935669 0.332132
Si Si6 0.469778 0.188678 0.706738
Si Si7 0.228197 0.659248 0.580897
O O1 0.176674 0.412481 0.500000
O O2 0.207916 0.431809 0.644212
O O3 0.000000 0.500000 0.571424
O O4 0.956088 0.367186 0.587360
O O5 0.337537 0.843675 0.500000
O O6 0.182861 0.880081 0.383547
O O7 0.474936 0.828011 0.373237
O O8 0.243299 0.745157 0.413832
O O9 0.712034 0.824448 0.729776
O O10 0.825481 0.868683 0.850304
O O11 0.979910 0.895066 0.722868
O O12 0.978192 0.769843 0.779100
O O13 0.231915 0.968619 0.281464
O O14 0.423075 0.866565 0.248165
O O15 0.500000 0.000000 0.220482
O O16 0.000000 0.000000 0.368515
O O17 0.279215 0.638909 0.500000
#
# Coordination Sequence:
#
# PCOD9442132 Si02
#       7
#     8   8   8   8   8   8   8
#     4   9  17  28  50  80 108 146 187 222 271 329
#     4   9  20  39  59  82 109 143 188 241 298 345
#     4  11  20  36  56  85 116 145 189 231 275 340
#     4  10  19  34  55  79 110 145 185 236 279 330
#     4  11  24  36  55  83 112 151 194 236 288 341
#     4  10  19  33  59  82 107 144 180 229 282 338
#     4   9  17  32  57  83 111 150 183 225 282 333
#
# _framework density 19.027218000000001
#
# number of rings (size 3 to 8) (size 9 to 14) (size 15 to 20)
#    0.000    2.143    1.429    3.429    2.000    0.286 
#    0.000    1.429    0.000   18.857    0.000    0.000 
#    0.000    0.000    0.000    0.000    0.000    0.000 
#
# Total GULP energy -312172.337472 kJ/mol
# GULP energy per Si atom -5574.506026 kJ/mol
# Density = 1.898391 g / cm^3
# Si number density = 19.027218 Si / 1000 Ang^3
#
#
#
# Elastic Constant Matrix: (Units=GPa)
#
#
# Indices 1 2 3 4 5 6 
#
# 1 53.8295 4.1277 26.4625 0.0000 0.0000 0.0000
# 2 4.1277 33.2126 21.8753 0.0000 0.0000 0.0000
# 3 26.4625 21.8753 133.8906 0.0000 0.0000 0.0000
# 4 0.0000 0.0000 0.0000 17.5475 0.0000 0.0000
# 5 0.0000 0.0000 0.0000 0.0000 25.3300 0.0000
# 6 0.0000 0.0000 0.0000 0.0000 0.0000 22.8485
#
#
#
# Elastic Compliance Matrix: (Units=1/GPa)
#
#
# Indices 1 2 3 4 5 6 
#
# 1 0.020577 0.000136 -0.004089 0.000000 0.000000 0.000000
# 2 0.000136 0.033741 -0.005539 0.000000 0.000000 0.000000
# 3 -0.004089 -0.005539 0.009182 0.000000 0.000000 0.000000
# 4 0.000000 0.000000 0.000000 0.056988 0.000000 0.000000
# 5 0.000000 0.000000 0.000000 0.000000 0.039479 0.000000
# 6 0.000000 0.000000 0.000000 0.000000 0.000000 0.043767
#
#
# Mechanical properties :
#
#
# Convention : Reuss Voigt Hill
#
# Bulk Modulus (GPa) = 22.46465 36.20707 29.33586
# Shear Modulus (GPa) = 21.04760 24.37634 22.71197
#
# Velocity S-wave (km/s) = 3.32954 3.58317 3.45868
# Velocity P-wave (km/s) = 5.15881 6.01575 5.60368
#
# Compressibility (1/GPa) = 0.04451439
#
# Stress axis : x y z
#
# Youngs Moduli (GPa) = 48.59813 29.63778 108.90857
#
# Poissons Ratio (x) = -0.00403 0.44534
# Poissons Ratio (y) = -0.00661 0.60330
# Poissons Ratio (z) = 0.19872 0.16418
#
# Static dielectric constant tensor:
#      x y z
#    x 1.662890 0.000000 0.000000 
#    y 0.000000 1.668500 0.000000 
#    z 0.000000 0.000000 1.703390 
# 
# From -- ./inp_files/29070.got.cif
#   From: 2010.05.17/outbox.cif.g08.bks.cpg/sg58_15_cif.got.tgz:29070.got - 2010.06.03 14:20:14.
