data_PCOD9442005
_publ_section_title
;
Structure prediction by ZEFSAII (Michael W. Deem and Ramdas Pophale) SiO2 
 PCOD9442005
Probable space group: P N N M
;
_chemical_formula_sum "Si O2"
_cell_formula_units_Z 64
_cell_length_a 12.189918
_cell_length_b 27.562374
_cell_length_c 9.339760
_cell_angle_alpha 90.000000
_cell_angle_beta 90.000000
_cell_angle_gamma 90.000000
_cell_volume 3138.001321
_symmetry_space_group_name_H-M "P N N M"
_symmetry_group_IT_number 58
_symmetry_cell_setting 'orthorhombic'
loop_
_space_group_symop_operation_xyz
x,y,z
-x,-y,z
1/2+x,1/2-y,1/2-z
1/2-x,1/2+y,1/2-z
-x,-y,-z
x,y,-z
1/2-x,1/2+y,1/2+z
1/2+x,1/2-y,1/2+z
loop_
_atom_site_type_symbol
_atom_site_label
_atom_site_fract_x
_atom_site_fract_y
_atom_site_fract_z
Si Si1 0.090864 0.061299 0.331992
Si Si2 0.692688 0.682848 0.667634
Si Si3 0.234397 0.149319 0.659649
Si Si4 0.364810 0.222438 0.831459
Si Si5 0.065906 0.350451 0.671305
Si Si6 0.435062 0.071045 0.664307
Si Si7 0.879215 0.074647 0.164577
Si Si8 0.217899 0.504680 0.668277
O O1 0.103845 0.048315 0.500000
O O2 0.968490 0.055065 0.275038
O O3 0.125545 0.117904 0.318038
O O4 0.176896 0.033386 0.231624
O O5 0.697669 0.696155 0.500000
O O6 0.638764 0.726260 0.753850
O O7 0.629706 0.632076 0.679613
O O8 0.816830 0.670693 0.715972
O O9 0.233098 0.170817 0.500000
O O10 0.264149 0.189947 0.773050
O O11 0.331817 0.109012 0.662717
O O12 0.473483 0.190589 0.801148
O O13 0.356878 0.228929 0.000000
O O14 0.068819 0.359865 0.500000
O O15 0.027578 0.399234 0.751316
O O16 0.464720 0.061091 0.500000
O O17 0.385862 0.024060 0.743935
O O18 0.759718 0.050369 0.184473
O O19 0.912068 0.062872 0.000000
O O20 0.201974 0.515038 0.500000
#
# Coordination Sequence:
#
# PCOD9442005 Si02
#       8
#     8   8   8   8   8   8   8   8
#     4  10  20  33  53  81 111 143 178 221 274 324
#     4  10  22  40  57  75 106 145 181 218 265 319
#     4   8  16  31  50  75 105 136 170 209 257 315
#     4  10  20  34  55  82 105 131 173 220 266 315
#     4   9  19  37  59  79 103 138 176 216 263 317
#     4   9  17  31  54  82 107 133 171 218 267 315
#     4  10  22  37  52  74 106 146 187 225 268 320
#     4  10  19  33  54  79 108 142 182 223 263 317
#
# _framework density 20.395147999999999
#
# number of rings (size 3 to 8) (size 9 to 14) (size 15 to 20)
#    0.000    2.500    0.000    2.625    0.000    8.500 
#    0.000    4.375    0.000    3.750    0.000    0.000 
#    0.000    0.000    0.000    0.000    0.000    0.000 
#
# Total GULP energy -357321.444129 kJ/mol
# GULP energy per Si atom -5583.147565 kJ/mol
# Density = 2.034873 g / cm^3
# Si number density = 20.395148 Si / 1000 Ang^3
#
#
#
# Elastic Constant Matrix: (Units=GPa)
#
#
# Indices 1 2 3 4 5 6 
#
# 1 66.8051 2.8065 33.9674 0.0000 0.0000 0.0000
# 2 2.8065 49.3235 24.9494 0.0000 0.0000 0.0000
# 3 33.9674 24.9494 68.1970 0.0000 0.0000 0.0000
# 4 0.0000 0.0000 0.0000 28.1067 0.0000 0.0000
# 5 0.0000 0.0000 0.0000 0.0000 4.9862 0.0000
# 6 0.0000 0.0000 0.0000 0.0000 0.0000 12.1366
#
#
#
# Elastic Compliance Matrix: (Units=1/GPa)
#
#
# Indices 1 2 3 4 5 6 
#
# 1 0.021015 0.005030 -0.012307 0.000000 0.000000 0.000000
# 2 0.005030 0.026082 -0.012047 0.000000 0.000000 0.000000
# 3 -0.012307 -0.012047 0.025201 0.000000 0.000000 0.000000
# 4 0.000000 0.000000 0.000000 0.035579 0.000000 0.000000
# 5 0.000000 0.000000 0.000000 0.000000 0.200555 0.000000
# 6 0.000000 0.000000 0.000000 0.000000 0.000000 0.082395
#
#
# Mechanical properties :
#
#
# Convention : Reuss Voigt Hill
#
# Bulk Modulus (GPa) = 29.71897 34.19692 31.95794
# Shear Modulus (GPa) = 11.34577 17.21938 14.28258
#
# Velocity S-wave (km/s) = 2.36116 2.90882 2.64918
# Velocity P-wave (km/s) = 4.69432 5.29955 5.00609
#
# Compressibility (1/GPa) = 0.03364854
#
# Stress axis : x y z
#
# Youngs Moduli (GPa) = 47.58430 38.34080 39.68145
#
# Poissons Ratio (x) = -0.19284 0.48837
# Poissons Ratio (y) = -0.23933 0.47804
# Poissons Ratio (z) = 0.58564 0.46189
#
# Static dielectric constant tensor:
#      x y z
#    x 1.718910 0.000000 0.000000 
#    y 0.000000 1.751920 0.000000 
#    z 0.000000 0.000000 1.692830 
# 
# From -- ./inp_files/4635.got.cif
#   From: 2010.05.17/outbox.cif.g08.bks.cpg/sg58_3_cif.got.tgz:4635.got - 2010.06.03 14:20:14.
