data_PCOD9442080
_publ_section_title
;
Structure prediction by ZEFSAII (Michael W. Deem and Ramdas Pophale) SiO2 
 PCOD9442080
Probable space group: P N N M
;
_chemical_formula_sum "Si O2"
_cell_formula_units_Z 48
_cell_length_a 10.572171
_cell_length_b 32.284702
_cell_length_c 7.665355
_cell_angle_alpha 90.000000
_cell_angle_beta 90.000000
_cell_angle_gamma 90.000000
_cell_volume 2616.334294
_symmetry_space_group_name_H-M "P N N M"
_symmetry_group_IT_number 58
_symmetry_cell_setting 'orthorhombic'
loop_
_space_group_symop_operation_xyz
x,y,z
-x,-y,z
1/2+x,1/2-y,1/2-z
1/2-x,1/2+y,1/2-z
-x,-y,-z
x,y,-z
1/2-x,1/2+y,1/2+z
1/2+x,1/2-y,1/2+z
loop_
_atom_site_type_symbol
_atom_site_label
_atom_site_fract_x
_atom_site_fract_y
_atom_site_fract_z
Si Si1 0.303978 0.508530 0.000000
Si Si2 0.854681 0.377399 0.710522
Si Si3 0.060922 0.124609 0.200595
Si Si4 0.878070 0.285217 0.710463
Si Si5 0.888789 0.467155 0.294291
Si Si6 0.041687 0.929239 0.500000
Si Si7 0.915410 0.781165 0.708763
O O1 0.224291 0.518844 0.828340
O O2 0.423763 0.538976 0.000000
O O3 0.341309 0.460341 0.000000
O O4 0.858923 0.374389 0.500000
O O5 0.706830 0.383116 0.756918
O O6 0.896897 0.332437 0.776779
O O7 0.924032 0.419890 0.758303
O O8 0.971501 0.099912 0.331205
O O9 0.048101 0.174185 0.213569
O O10 0.045704 0.111546 0.000000
O O11 0.886601 0.286015 0.500000
O O12 0.732885 0.272877 0.752244
O O13 0.986526 0.253809 0.771862
O O14 0.854144 0.466358 0.500000
O O15 0.000000 0.500000 0.271673
O O16 0.926954 0.784638 0.500000
#
# Coordination Sequence:
#
# PCOD9442080 Si02
#       7
#     4   8   8   8   8   4   8
#     4  11  23  36  56  82 121 139 188 242 284 333
#     4   8  15  31  54  78 105 142 188 230 270 326
#     4  10  19  35  58  80 111 148 188 229 275 339
#     4   9  19  34  54  80 113 148 186 235 282 334
#     4  10  20  36  59  82 109 149 193 236 284 336
#     4  11  22  36  56  86 110 152 184 230 283 342
#     4  10  19  33  56  83 113 148 190 236 282 339
#
# _framework density 18.346278999999999
#
# number of rings (size 3 to 8) (size 9 to 14) (size 15 to 20)
#    0.000    2.333    2.500    1.750    0.000    2.000 
#    0.000    3.333    0.000    2.000    0.000    0.000 
#    0.000    0.000    0.000    0.000    0.000    0.000 
#
# Total GULP energy -267593.689644 kJ/mol
# GULP energy per Si atom -5574.868534 kJ/mol
# Density = 1.830452 g / cm^3
# Si number density = 18.346279 Si / 1000 Ang^3
#
#
#
# Elastic Constant Matrix: (Units=GPa)
#
#
# Indices 1 2 3 4 5 6 
#
# 1 60.4561 69.3822 16.1441 0.0000 0.0000 0.0000
# 2 69.3822 161.3427 26.7629 0.0000 0.0000 0.0000
# 3 16.1441 26.7629 54.8806 0.0000 0.0000 0.0000
# 4 0.0000 0.0000 0.0000 45.1259 0.0000 0.0000
# 5 0.0000 0.0000 0.0000 0.0000 17.2901 0.0000
# 6 0.0000 0.0000 0.0000 0.0000 0.0000 36.3518
#
#
#
# Elastic Compliance Matrix: (Units=1/GPa)
#
#
# Indices 1 2 3 4 5 6 
#
# 1 0.033119 -0.013738 -0.003044 0.000000 0.000000 0.000000
# 2 -0.013738 0.012442 -0.002026 0.000000 0.000000 0.000000
# 3 -0.003044 -0.002026 0.020105 0.000000 0.000000 0.000000
# 4 0.000000 0.000000 0.000000 0.022160 0.000000 0.000000
# 5 0.000000 0.000000 0.000000 0.000000 0.057837 0.000000
# 6 0.000000 0.000000 0.000000 0.000000 0.000000 0.027509
#
#
# Mechanical properties :
#
#
# Convention : Reuss Voigt Hill
#
# Bulk Modulus (GPa) = 35.64865 55.69532 45.67199
# Shear Modulus (GPa) = 22.71321 30.71290 26.71305
#
# Velocity S-wave (km/s) = 3.52238 4.09598 3.81996
# Velocity P-wave (km/s) = 6.00134 7.26588 6.66368
#
# Compressibility (1/GPa) = 0.02805155
#
# Stress axis : x y z
#
# Youngs Moduli (GPa) = 30.19376 80.37545 49.73954
#
# Poissons Ratio (x) = 1.10416 0.15138
# Poissons Ratio (y) = 0.41479 0.10078
# Poissons Ratio (z) = 0.09189 0.16285
#
# Static dielectric constant tensor:
#      x y z
#    x 1.604920 0.000000 0.000000 
#    y 0.000000 1.663070 0.000000 
#    z 0.000000 0.000000 1.648140 
# 
# From -- ./inp_files/3074.got.cif
#   From: 2010.05.17/outbox.cif.g08.bks.cpg/sg58_2_cif.got.tgz:3074.got - 2010.06.03 14:20:14.
