data_PCOD9442584
_publ_section_title
;
Structure prediction by ZEFSAII (Michael W. Deem and Ramdas Pophale) SiO2 
 PCOD9442584
Probable space group: P N N M
;
_chemical_formula_sum "Si O2"
_cell_formula_units_Z 64
_cell_length_a 15.726904
_cell_length_b 24.932685
_cell_length_c 8.358229
_cell_angle_alpha 90.000000
_cell_angle_beta 90.000000
_cell_angle_gamma 90.000000
_cell_volume 3277.378134
_symmetry_space_group_name_H-M "P N N M"
_symmetry_group_IT_number 58
_symmetry_cell_setting 'orthorhombic'
loop_
_space_group_symop_operation_xyz
x,y,z
-x,-y,z
1/2+x,1/2-y,1/2-z
1/2-x,1/2+y,1/2-z
-x,-y,-z
x,y,-z
1/2-x,1/2+y,1/2+z
1/2+x,1/2-y,1/2+z
loop_
_atom_site_type_symbol
_atom_site_label
_atom_site_fract_x
_atom_site_fract_y
_atom_site_fract_z
Si Si1 0.587194 0.740048 0.305194
Si Si2 0.732840 0.819599 0.808121
Si Si3 0.597579 0.510984 0.694019
Si Si4 0.893613 0.750350 0.189191
Si Si5 0.646361 0.134923 0.814976
Si Si6 0.244804 0.558326 0.810018
Si Si7 0.593511 0.019230 0.193838
Si Si8 0.152004 0.873982 0.185442
O O1 0.588931 0.741372 0.500000
O O2 0.649315 0.787506 0.249356
O O3 0.489601 0.742729 0.248990
O O4 0.623130 0.682833 0.246391
O O5 0.817658 0.788174 0.746455
O O6 0.734223 0.881508 0.756498
O O7 0.733589 0.817503 0.000000
O O8 0.500000 0.500000 0.735231
O O9 0.605119 0.510766 0.500000
O O10 0.666319 0.468380 0.755396
O O11 0.619807 0.570455 0.756777
O O12 0.870741 0.688657 0.219137
O O13 0.897552 0.761204 0.000000
O O14 0.605131 0.080507 0.751070
O O15 0.746745 0.124563 0.815505
O O16 0.619175 0.143510 0.000000
O O17 0.168183 0.519671 0.752768
O O18 0.243038 0.560916 0.000000
O O19 0.500000 0.000000 0.240493
O O20 0.599077 0.020001 0.000000
O O21 0.122013 0.873710 0.000000
#
# Coordination Sequence:
#
# PCOD9442584 Si02
#       8
#     8   8   8   8   8   8   8   8
#     4  10  21  39  61  88 121 156 196 248 306 358
#     4  11  24  42  62  86 120 162 208 250 297 362
#     4  10  21  39  67  94 120 161 208 250 298 362
#     4  10  23  39  60  89 121 155 198 249 300 357
#     4  10  19  36  62  87 117 155 197 245 296 354
#     4  12  26  42  61  88 127 166 201 253 311 362
#     4  10  22  41  64  91 122 159 205 252 299 363
#     4   9  17  34  61  88 115 150 196 245 295 353
#
# _framework density 19.527805000000001
#
# number of rings (size 3 to 8) (size 9 to 14) (size 15 to 20)
#    0.000    1.750    2.500    1.500    3.500    2.000 
#    0.000    0.625    0.000    0.000    0.000    0.000 
#    0.000    0.000    0.000    0.000    0.000    0.000 
#
# Total GULP energy -357250.984584 kJ/mol
# GULP energy per Si atom -5582.046634 kJ/mol
# Density = 1.948336 g / cm^3
# Si number density = 19.527805 Si / 1000 Ang^3
#
#
#
# Elastic Constant Matrix: (Units=GPa)
#
#
# Indices 1 2 3 4 5 6 
#
# 1 60.9706 -11.1896 7.5151 0.0000 0.0000 0.0000
# 2 -11.1896 57.9418 -10.7859 0.0000 0.0000 0.0000
# 3 7.5151 -10.7859 18.1263 0.0000 0.0000 0.0000
# 4 0.0000 0.0000 0.0000 17.2067 0.0000 0.0000
# 5 0.0000 0.0000 0.0000 0.0000 46.0431 0.0000
# 6 0.0000 0.0000 0.0000 0.0000 0.0000 35.2102
#
#
#
# Elastic Compliance Matrix: (Units=1/GPa)
#
#
# Indices 1 2 3 4 5 6 
#
# 1 0.017550 0.002288 -0.005915 0.000000 0.000000 0.000000
# 2 0.002288 0.019707 0.010778 0.000000 0.000000 0.000000
# 3 -0.005915 0.010778 0.064034 0.000000 0.000000 0.000000
# 4 0.000000 0.000000 0.000000 0.058117 0.000000 0.000000
# 5 0.000000 0.000000 0.000000 0.000000 0.021719 0.000000
# 6 0.000000 0.000000 0.000000 0.000000 0.000000 0.028401
#
#
# Mechanical properties :
#
#
# Convention : Reuss Voigt Hill
#
# Bulk Modulus (GPa) = 8.65097 12.01308 10.33202
# Shear Modulus (GPa) = 21.38977 29.79193 25.59085
#
# Velocity S-wave (km/s) = 3.31320 3.91015 3.62399
# Velocity P-wave (km/s) = 4.36762 5.15275 4.77634
#
# Compressibility (1/GPa) = 0.11559401
#
# Stress axis : x y z
#
# Youngs Moduli (GPa) = 56.97896 50.74365 15.61669
#
# Poissons Ratio (x) = -0.11611 0.09237
# Poissons Ratio (y) = -0.13038 -0.16831
# Poissons Ratio (z) = 0.33701 -0.54690
#
# Static dielectric constant tensor:
#      x y z
#    x 1.678010 0.000000 0.000000 
#    y 0.000000 1.826970 0.000000 
#    z 0.000000 0.000000 1.701400 
# 
# From -- ./inp_files/6856.got.cif
#   From: 2010.05.17/outbox.cif.g08.bks.cpg/sg58_4_cif.got.tgz:6856.got - 2010.06.03 14:20:14.
