data_PCOD9442510
_publ_section_title
;
Structure prediction by ZEFSAII (Michael W. Deem and Ramdas Pophale) SiO2 
 PCOD9442510
Probable space group: P N N M
;
_chemical_formula_sum "Si O2"
_cell_formula_units_Z 64
_cell_length_a 19.326475
_cell_length_b 20.618651
_cell_length_c 7.573383
_cell_angle_alpha 90.000000
_cell_angle_beta 90.000000
_cell_angle_gamma 90.000000
_cell_volume 3017.885910
_symmetry_space_group_name_H-M "P N N M"
_symmetry_group_IT_number 58
_symmetry_cell_setting 'orthorhombic'
loop_
_space_group_symop_operation_xyz
x,y,z
-x,-y,z
1/2+x,1/2-y,1/2-z
1/2-x,1/2+y,1/2-z
-x,-y,-z
x,y,-z
1/2-x,1/2+y,1/2+z
1/2+x,1/2-y,1/2+z
loop_
_atom_site_type_symbol
_atom_site_label
_atom_site_fract_x
_atom_site_fract_y
_atom_site_fract_z
Si Si1 0.950735 0.817682 0.210686
Si Si2 0.707506 0.348164 0.212438
Si Si3 0.301496 0.404711 0.794418
Si Si4 0.287175 0.023246 0.283530
Si Si5 0.536573 0.799865 0.283741
Si Si6 0.456825 0.437138 0.714212
Si Si7 0.555730 0.946926 0.715767
Si Si8 0.816871 0.244288 0.792723
O O1 0.872101 0.836760 0.243843
O O2 0.974385 0.746906 0.274932
O O3 0.002962 0.873045 0.277351
O O4 0.960057 0.817005 0.000000
O O5 0.739461 0.416377 0.273855
O O6 0.755696 0.289389 0.279759
O O7 0.711311 0.349281 0.000000
O O8 0.245868 0.455678 0.721266
O O9 0.377711 0.435494 0.773837
O O10 0.303702 0.332014 0.721729
O O11 0.286186 0.396944 0.000000
O O12 0.286177 0.022593 0.500000
O O13 0.366186 0.035474 0.229785
O O14 0.535846 0.801308 0.500000
O O15 0.536155 0.874320 0.226404
O O16 0.608124 0.765956 0.223902
O O17 0.500000 0.500000 0.770793
O O18 0.455659 0.436776 0.500000
O O19 0.555835 0.946759 0.500000
O O20 0.500000 0.000000 0.773234
O O21 0.820479 0.259353 0.000000
#
# Coordination Sequence:
#
# PCOD9442510 Si02
#       8
#     8   8   8   8   8   8   8   8
#     4  10  20  33  52  79 109 137 175 226 272 316
#     4  10  20  35  57  79 105 145 185 222 267 328
#     4  11  22  33  52  82 115 144 175 227 281 325
#     4   9  18  33  50  76 112 143 175 221 275 324
#     4   9  16  31  53  74 101 140 178 218 266 321
#     4  10  20  35  54  76 106 147 188 223 263 323
#     4   9  16  28  51  79 103 134 178 223 271 321
#     4  10  19  36  58  75 102 147 189 217 259 329
#
# _framework density 21.206897999999999
#
# number of rings (size 3 to 8) (size 9 to 14) (size 15 to 20)
#    0.000    2.250    2.500    1.125    0.000    2.250 
#    0.000    3.125    0.000    0.000    0.000    0.000 
#    0.000    5.500    0.000    0.000    0.000    0.000 
#
# Total GULP energy -357435.981114 kJ/mol
# GULP energy per Si atom -5584.937205 kJ/mol
# Density = 2.115863 g / cm^3
# Si number density = 21.206898 Si / 1000 Ang^3
#
#
#
# Elastic Constant Matrix: (Units=GPa)
#
#
# Indices 1 2 3 4 5 6 
#
# 1 132.3077 81.3090 -4.4888 0.0000 0.0000 0.0000
# 2 81.3090 176.1461 -0.7286 0.0000 0.0000 0.0000
# 3 -4.4888 -0.7286 41.0002 0.0000 0.0000 0.0000
# 4 0.0000 0.0000 0.0000 8.8745 0.0000 0.0000
# 5 0.0000 0.0000 0.0000 0.0000 21.2392 0.0000
# 6 0.0000 0.0000 0.0000 0.0000 0.0000 45.3668
#
#
#
# Elastic Compliance Matrix: (Units=1/GPa)
#
#
# Indices 1 2 3 4 5 6 
#
# 1 0.010598 -0.004888 0.001073 0.000000 0.000000 0.000000
# 2 -0.004888 0.007932 -0.000394 0.000000 0.000000 0.000000
# 3 0.001073 -0.000394 0.024501 0.000000 0.000000 0.000000
# 4 0.000000 0.000000 0.000000 0.112682 0.000000 0.000000
# 5 0.000000 0.000000 0.000000 0.000000 0.047083 0.000000
# 6 0.000000 0.000000 0.000000 0.000000 0.000000 0.022043
#
#
# Mechanical properties :
#
#
# Convention : Reuss Voigt Hill
#
# Bulk Modulus (GPa) = 28.89026 55.73747 42.31387
# Shear Modulus (GPa) = 20.42545 33.32026 26.87285
#
# Velocity S-wave (km/s) = 3.10683 3.96814 3.56360
# Velocity P-wave (km/s) = 5.15000 6.88001 6.07689
#
# Compressibility (1/GPa) = 0.03461374
#
# Stress axis : x y z
#
# Youngs Moduli (GPa) = 94.35488 126.07720 40.81521
#
# Poissons Ratio (x) = 0.61623 -0.04381
# Poissons Ratio (y) = 0.46118 0.01609
# Poissons Ratio (z) = -0.10129 0.04970
#
# Static dielectric constant tensor:
#      x y z
#    x 1.730180 0.000000 0.000000 
#    y 0.000000 1.750850 0.000000 
#    z 0.000000 0.000000 1.819690 
# 
# From -- ./inp_files/8318.got.cif
#   From: 2010.05.17/outbox.cif.g08.bks.cpg/sg58_5_cif.got.tgz:8318.got - 2010.06.03 14:20:14.
