data_PCOD9442937
_publ_section_title
;
Structure prediction by ZEFSAII (Michael W. Deem and Ramdas Pophale) SiO2 
 PCOD9442937
Probable space group: P N N M
;
_chemical_formula_sum "Si O2"
_cell_formula_units_Z 64
_cell_length_a 19.215578
_cell_length_b 20.185053
_cell_length_c 7.341419
_cell_angle_alpha 90.000000
_cell_angle_beta 90.000000
_cell_angle_gamma 90.000000
_cell_volume 2847.497543
_symmetry_space_group_name_H-M "P N N M"
_symmetry_group_IT_number 58
_symmetry_cell_setting 'orthorhombic'
loop_
_space_group_symop_operation_xyz
x,y,z
-x,-y,z
1/2+x,1/2-y,1/2-z
1/2-x,1/2+y,1/2-z
-x,-y,-z
x,y,-z
1/2-x,1/2+y,1/2+z
1/2+x,1/2-y,1/2+z
loop_
_atom_site_type_symbol
_atom_site_label
_atom_site_fract_x
_atom_site_fract_y
_atom_site_fract_z
Si Si1 0.361029 0.717986 0.781325
Si Si2 0.279368 0.473017 0.276557
Si Si3 0.435915 0.459412 0.290043
Si Si4 0.167986 0.366166 0.722085
Si Si5 0.479891 0.926439 0.778188
Si Si6 0.237506 0.617383 0.285266
Si Si7 0.018460 0.811649 0.720868
Si Si8 0.904484 0.319361 0.722193
O O1 0.334284 0.789842 0.717128
O O2 0.307410 0.659871 0.736363
O O3 0.439478 0.703286 0.718352
O O4 0.364700 0.721855 0.000000
O O5 0.279439 0.472297 0.500000
O O6 0.359004 0.469465 0.213136
O O7 0.233261 0.410325 0.219343
O O8 0.246586 0.542769 0.215751
O O9 0.500000 0.500000 0.206588
O O10 0.430509 0.482247 0.500000
O O11 0.455583 0.382589 0.284579
O O12 0.168589 0.365404 0.500000
O O13 0.096331 0.402029 0.777790
O O14 0.538039 0.873460 0.723708
O O15 0.500000 0.000000 0.717914
O O16 0.479365 0.927272 0.000000
O O17 0.224640 0.609721 0.500000
O O18 0.171177 0.657608 0.213174
O O19 0.017971 0.812747 0.500000
O O20 0.069320 0.752642 0.780412
O O21 0.903902 0.317851 0.500000
#
# Coordination Sequence:
#
# PCOD9442937 Si02
#       8
#     8   8   8   8   8   8   8   8
#     4  10  20  34  53  75 104 139 171 208 255 308
#     4   9  18  32  50  74 103 135 172 214 258 304
#     4  10  21  36  54  76 103 136 178 224 261 298
#     4   9  16  28  46  72 103 133 165 205 253 302
#     4   9  14  23  44  72 101 130 161 199 246 299
#     4  10  20  34  54  77 104 134 167 211 260 306
#     4  10  20  35  53  76 107 138 170 210 258 311
#     4   9  17  30  47  74 107 134 162 205 257 305
#
# _framework density 22.475874000000001
#
# number of rings (size 3 to 8) (size 9 to 14) (size 15 to 20)
#    0.000    2.500    1.250    1.500    1.750    4.750 
#    0.000    0.625    0.000    0.750    0.000    0.000 
#    0.000    2.500    0.000    0.000    0.000    0.000 
#
# Total GULP energy -357758.177776 kJ/mol
# GULP energy per Si atom -5589.971528 kJ/mol
# Density = 2.242472 g / cm^3
# Si number density = 22.475874 Si / 1000 Ang^3
#
#
#
# Elastic Constant Matrix: (Units=GPa)
#
#
# Indices 1 2 3 4 5 6 
#
# 1 135.3535 28.6367 -2.3538 0.0000 0.0000 0.0000
# 2 28.6367 99.9957 -12.5958 0.0000 0.0000 0.0000
# 3 -2.3538 -12.5958 83.2891 0.0000 0.0000 0.0000
# 4 0.0000 0.0000 0.0000 -53.8216 0.0000 0.0000
# 5 0.0000 0.0000 0.0000 0.0000 -3.4741 0.0000
# 6 0.0000 0.0000 0.0000 0.0000 0.0000 44.4089
#
#
#
# Elastic Compliance Matrix: (Units=1/GPa)
#
#
# Indices 1 2 3 4 5 6 
#
# 1 0.007866 -0.002268 -0.000121 0.000000 0.000000 0.000000
# 2 -0.002268 0.010848 0.001577 0.000000 0.000000 0.000000
# 3 -0.000121 0.001577 0.012241 0.000000 0.000000 0.000000
# 4 0.000000 0.000000 0.000000 -0.018580 0.000000 0.000000
# 5 0.000000 0.000000 0.000000 0.000000 -0.287844 0.000000
# 6 0.000000 0.000000 0.000000 0.000000 0.000000 0.022518
#
#
# Mechanical properties :
#
#
# Convention : Reuss Voigt Hill
#
# Bulk Modulus (GPa) = 34.09277 38.44584 36.26930
# Shear Modulus (GPa) = -20.69975 17.75270 -1.47352
#
# Velocity S-wave (km/s) = -3.03805 2.81349 -0.81057
# Velocity P-wave (km/s) = 1.70153 5.26277 3.91101
#
# Compressibility (1/GPa) = 0.02933174
#
# Stress axis : x y z
#
# Youngs Moduli (GPa) = 127.13331 92.17890 81.69012
#
# Poissons Ratio (x) = 0.20904 0.00986
# Poissons Ratio (y) = 0.28831 -0.12879
# Poissons Ratio (z) = 0.01534 -0.14532
#
# Static dielectric constant tensor:
#      x y z
#    x 1.788460 0.000000 0.000000 
#    y 0.000000 1.764830 0.000000 
#    z 0.000000 0.000000 1.910400 
# 
# From -- ./inp_files/8378.got.cif
#   From: 2010.05.17/outbox.cif.g08.bks.cpg/sg58_5_cif.got.tgz:8378.got - 2010.06.03 14:20:14.
