data_PCOD9442103
_publ_section_title
;
Structure prediction by ZEFSAII (Michael W. Deem and Ramdas Pophale) SiO2 
 PCOD9442103
Probable space group: P N N M
;
_chemical_formula_sum "Si O2"
_cell_formula_units_Z 40
_cell_length_a 13.605171
_cell_length_b 5.511385
_cell_length_c 19.158771
_cell_angle_alpha 90.000000
_cell_angle_beta 90.000000
_cell_angle_gamma 90.000000
_cell_volume 1436.588551
_symmetry_space_group_name_H-M "P N N M"
_symmetry_group_IT_number 58
_symmetry_cell_setting 'orthorhombic'
loop_
_space_group_symop_operation_xyz
x,y,z
-x,-y,z
1/2+x,1/2-y,1/2-z
1/2-x,1/2+y,1/2-z
-x,-y,-z
x,y,-z
1/2-x,1/2+y,1/2+z
1/2+x,1/2-y,1/2+z
loop_
_atom_site_type_symbol
_atom_site_label
_atom_site_fract_x
_atom_site_fract_y
_atom_site_fract_z
Si Si1 0.535987 0.256987 0.868677
Si Si2 0.287264 0.962654 0.809834
Si Si3 0.282198 0.763543 0.575937
Si Si4 0.916110 0.257618 0.775615
Si Si5 0.591217 0.740610 0.575629
O O1 0.500000 0.500000 0.905415
O O2 0.652930 0.233128 0.855687
O O3 0.483376 0.267819 0.791734
O O4 0.500000 0.000000 0.899199
O O5 0.286490 0.201386 0.858736
O O6 0.177320 0.918341 0.784902
O O7 0.354715 0.000738 0.742347
O O8 0.231705 0.767049 0.500000
O O9 0.341066 0.017208 0.579931
O O10 0.348865 0.514063 0.574941
O O11 0.966432 0.249956 0.851095
O O12 0.539757 0.752863 0.500000
#
# Coordination Sequence:
#
# PCOD9442103 Si02
#       5
#     8   8   8   8   8
#     4  10  22  36  52  78 112 144 182 228 270 320
#     4  10  19  33  57  82 111 144 183 225 275 326
#     4   9  18  32  52  80 110 140 178 223 273 329
#     4  10  19  33  57  82 111 144 183 225 275 326
#     4   9  18  32  52  80 110 140 178 223 273 329
#
# _framework density 27.843741000000001
#
# number of rings (size 3 to 8) (size 9 to 14) (size 15 to 20)
#    0.000    2.400    0.000    2.400    0.000    9.600 
#    0.000    0.000    0.000   12.000    0.000    0.000 
#    0.000    0.000    0.000    0.000    0.000    0.000 
#
# Total GULP energy -223313.696254 kJ/mol
# GULP energy per Si atom -5582.842406 kJ/mol
# Density = 2.778037 g / cm^3
# Si number density = 27.843741 Si / 1000 Ang^3
#
#
#
# Elastic Constant Matrix: (Units=GPa)
#
#
# Indices 1 2 3 4 5 6 
#
# 1 93.6063 52.1863 25.9855 0.0000 0.0000 0.0000
# 2 52.1863 220.4036 9.1704 0.0000 0.0000 0.0000
# 3 25.9855 9.1704 90.1196 0.0000 0.0000 0.0000
# 4 0.0000 0.0000 0.0000 20.7647 0.0000 0.0000
# 5 0.0000 0.0000 0.0000 0.0000 16.7508 0.0000
# 6 0.0000 0.0000 0.0000 0.0000 0.0000 53.6626
#
#
#
# Elastic Compliance Matrix: (Units=1/GPa)
#
#
# Indices 1 2 3 4 5 6 
#
# 1 0.013346 -0.003013 -0.003542 0.000000 0.000000 0.000000
# 2 -0.003013 0.005236 0.000336 0.000000 0.000000 0.000000
# 3 -0.003542 0.000336 0.012083 0.000000 0.000000 0.000000
# 4 0.000000 0.000000 0.000000 0.048159 0.000000 0.000000
# 5 0.000000 0.000000 0.000000 0.000000 0.059699 0.000000
# 6 0.000000 0.000000 0.000000 0.000000 0.000000 0.018635
#
#
# Mechanical properties :
#
#
# Convention : Reuss Voigt Hill
#
# Bulk Modulus (GPa) = 54.85821 64.31265 59.58543
# Shear Modulus (GPa) = 28.46231 39.35478 33.90854
#
# Velocity S-wave (km/s) = 3.20068 3.76362 3.49351
# Velocity P-wave (km/s) = 5.77963 6.48339 6.14159
#
# Compressibility (1/GPa) = 0.01822881
#
# Stress axis : x y z
#
# Youngs Moduli (GPa) = 74.93021 190.96839 82.75814
#
# Poissons Ratio (x) = 0.57531 0.29310
# Poissons Ratio (y) = 0.22573 -0.02779
# Poissons Ratio (z) = 0.26537 -0.06413
#
# Static dielectric constant tensor:
#      x y z
#    x 2.190140 0.000000 0.000000 
#    y 0.000000 2.333750 0.000000 
#    z 0.000000 0.000000 2.177500 
# 
# From -- ./inp_files/30184.got.cif
#   From: 2010.05.17/outbox.cif.g08.bks.cpg/sg58_16_cif.got.tgz:30184.got - 2010.06.03 14:20:14.
