data_PCOD9442433
_publ_section_title
;
Structure prediction by ZEFSAII (Michael W. Deem and Ramdas Pophale) SiO2 
 PCOD9442433
Probable space group: P N N M
;
_chemical_formula_sum "Si O2"
_cell_formula_units_Z 54
_cell_length_a 13.872155
_cell_length_b 13.740407
_cell_length_c 15.507709
_cell_angle_alpha 90.000000
_cell_angle_beta 90.000000
_cell_angle_gamma 90.000000
_cell_volume 2955.909768
_symmetry_space_group_name_H-M "P N N M"
_symmetry_group_IT_number 58
_symmetry_cell_setting 'orthorhombic'
loop_
_space_group_symop_operation_xyz
x,y,z
-x,-y,z
1/2+x,1/2-y,1/2-z
1/2-x,1/2+y,1/2-z
-x,-y,-z
x,y,-z
1/2-x,1/2+y,1/2+z
1/2+x,1/2-y,1/2+z
loop_
_atom_site_type_symbol
_atom_site_label
_atom_site_fract_x
_atom_site_fract_y
_atom_site_fract_z
Si Si1 0.500000 0.500000 0.192496
Si Si2 0.660833 0.989570 0.746043
Si Si3 0.317197 0.533590 0.098623
Si Si4 0.000000 0.000000 0.000000
Si Si5 0.229814 0.916363 0.100791
Si Si6 0.507205 0.163234 0.741393
Si Si7 0.484526 0.359698 0.344889
Si Si8 0.395538 0.753276 0.905392
O O1 0.409726 0.475041 0.132928
O O2 0.520511 0.412373 0.258230
O O3 0.721344 0.006044 0.834537
O O4 0.591145 0.082691 0.731656
O O5 0.732253 0.981684 0.665837
O O6 0.592332 0.895556 0.748916
O O7 0.352459 0.645642 0.102257
O O8 0.292292 0.510463 0.000000
O O9 0.027755 0.080868 0.075552
O O10 0.129990 0.879041 0.141578
O O11 0.306146 0.828431 0.097740
O O12 0.209343 0.946092 0.000000
O O13 0.503841 0.245417 0.667352
O O14 0.531883 0.217219 0.830643
O O15 0.441283 0.762389 0.000000
#
# Coordination Sequence:
#
# PCOD9442433 Si02
#       8
#     4   8   8   2   8   8   8   8
#     4  11  21  35  61  84 108 152 194 252 300 350
#     4  10  22  39  59  90 124 157 203 246 308 364
#     4  11  21  38  58  83 117 156 200 249 297 360
#     4  10  24  36  58  90 114 150 202 248 290 366
#     4  10  19  35  59  85 115 153 195 243 295 359
#     4  10  21  39  61  87 123 162 195 252 305 362
#     4  11  20  38  60  84 118 153 198 246 305 349
#     4   9  19  34  58  85 112 153 200 238 292 356
#
# _framework density 18.268488000000001
#
# number of rings (size 3 to 8) (size 9 to 14) (size 15 to 20)
#    0.000    1.778    3.704    1.111    0.000    0.593 
#    2.667    3.704    0.000    0.000    0.000    0.000 
#    0.000    0.000    0.000    0.000    0.000    0.000 
#
# Total GULP energy -300602.707943 kJ/mol
# GULP energy per Si atom -5566.716814 kJ/mol
# Density = 1.822691 g / cm^3
# Si number density = 18.268488 Si / 1000 Ang^3
#
#
#
# Elastic Constant Matrix: (Units=GPa)
#
#
# Indices 1 2 3 4 5 6 
#
# 1 57.8734 -6.9248 35.5918 0.0000 0.0000 0.0000
# 2 -6.9248 68.2506 31.6675 0.0000 0.0000 0.0000
# 3 35.5918 31.6675 134.3548 0.0000 0.0000 0.0000
# 4 0.0000 0.0000 0.0000 21.2900 0.0000 0.0000
# 5 0.0000 0.0000 0.0000 0.0000 17.8774 0.0000
# 6 0.0000 0.0000 0.0000 0.0000 0.0000 12.4639
#
#
#
# Elastic Compliance Matrix: (Units=1/GPa)
#
#
# Indices 1 2 3 4 5 6 
#
# 1 0.022428 0.005650 -0.007273 0.000000 0.000000 0.000000
# 2 0.005650 0.017874 -0.005710 0.000000 0.000000 0.000000
# 3 -0.007273 -0.005710 0.010716 0.000000 0.000000 0.000000
# 4 0.000000 0.000000 0.000000 0.046970 0.000000 0.000000
# 5 0.000000 0.000000 0.000000 0.000000 0.055937 0.000000
# 6 0.000000 0.000000 0.000000 0.000000 0.000000 0.080232
#
#
# Mechanical properties :
#
#
# Convention : Reuss Voigt Hill
#
# Bulk Modulus (GPa) = 27.50833 42.34977 34.92905
# Shear Modulus (GPa) = 19.16148 23.66920 21.41534
#
# Velocity S-wave (km/s) = 3.24216 3.60339 3.42754
# Velocity P-wave (km/s) = 5.39499 6.36748 5.90130
#
# Compressibility (1/GPa) = 0.03635262
#
# Stress axis : x y z
#
# Youngs Moduli (GPa) = 44.58680 55.94577 93.32256
#
# Poissons Ratio (x) = -0.31611 0.67875
# Poissons Ratio (y) = -0.25193 0.53286
# Poissons Ratio (z) = 0.32429 0.31944
#
# Static dielectric constant tensor:
#      x y z
#    x 1.682090 0.000000 0.000000 
#    y 0.000000 1.654130 0.000000 
#    z 0.000000 0.000000 1.626330 
# 
# From -- ./inp_files/22346.got.cif
#   From: 2010.05.17/outbox.cif.g08.bks.cpg/sg58_12_cif.got.tgz:22346.got - 2010.06.03 14:20:14.
