data_PCOD9442823
_publ_section_title
;
Structure prediction by ZEFSAII (Michael W. Deem and Ramdas Pophale) SiO2 
 PCOD9442823
Probable space group: P N N M
;
_chemical_formula_sum "Si O2"
_cell_formula_units_Z 64
_cell_length_a 13.239508
_cell_length_b 26.009296
_cell_length_c 10.398579
_cell_angle_alpha 90.000000
_cell_angle_beta 90.000000
_cell_angle_gamma 90.000000
_cell_volume 3580.753616
_symmetry_space_group_name_H-M "P N N M"
_symmetry_group_IT_number 58
_symmetry_cell_setting 'orthorhombic'
loop_
_space_group_symop_operation_xyz
x,y,z
-x,-y,z
1/2+x,1/2-y,1/2-z
1/2-x,1/2+y,1/2-z
-x,-y,-z
x,y,-z
1/2-x,1/2+y,1/2+z
1/2+x,1/2-y,1/2+z
loop_
_atom_site_type_symbol
_atom_site_label
_atom_site_fract_x
_atom_site_fract_y
_atom_site_fract_z
Si Si1 0.996156 0.697307 0.654545
Si Si2 0.481759 0.584276 0.855045
Si Si3 0.896185 0.803835 0.347311
Si Si4 0.850549 0.604946 0.648999
Si Si5 0.725554 0.452710 0.739517
Si Si6 0.859232 0.057239 0.140714
Si Si7 0.611441 0.021397 0.361308
Si Si8 0.221414 0.660626 0.347215
O O1 0.001081 0.698667 0.500000
O O2 0.960053 0.753933 0.693970
O O3 0.906897 0.657189 0.686740
O O4 0.107793 0.677804 0.693302
O O5 0.466127 0.645522 0.841901
O O6 0.372195 0.561468 0.822984
O O7 0.560872 0.563569 0.752770
O O8 0.512560 0.571657 0.000000
O O9 0.865441 0.798496 0.500000
O O10 0.802710 0.813491 0.249888
O O11 0.878009 0.593702 0.500000
O O12 0.729002 0.600008 0.654205
O O13 0.885854 0.561902 0.747241
O O14 0.692846 0.501155 0.651629
O O15 0.813138 0.475278 0.828447
O O16 0.762631 0.400972 0.669482
O O17 0.907001 0.062316 0.000000
O O18 0.640157 0.044422 0.500000
O O19 0.500000 0.000000 0.368146
O O20 0.236314 0.672958 0.500000
#
# Coordination Sequence:
#
# PCOD9442823 Si02
#       8
#     8   8   8   8   8   8   8   8
#     4   9  18  36  60  81 106 143 181 218 267 324
#     4  10  21  35  52  74 102 140 181 217 261 321
#     4   9  20  38  56  77 108 142 176 219 273 327
#     4   9  19  35  53  75 103 137 176 213 257 315
#     4  10  20  34  54  77 107 142 178 218 268 324
#     4  10  21  34  51  77 107 137 172 218 267 313
#     4  10  20  33  51  77 108 139 172 215 263 312
#     4  10  20  35  58  84 106 135 181 229 266 312
#
# _framework density 17.873332999999999
#
# number of rings (size 3 to 8) (size 9 to 14) (size 15 to 20)
#    0.000    2.375    0.000    1.875    0.000    8.250 
#    0.000    1.875    0.000    0.000    0.000    0.000 
#    0.000    0.000    0.000    0.000    0.000    0.000 
#
# Total GULP energy -356600.278821 kJ/mol
# GULP energy per Si atom -5571.879357 kJ/mol
# Density = 1.783265 g / cm^3
# Si number density = 17.873333 Si / 1000 Ang^3
#
#
#
# Elastic Constant Matrix: (Units=GPa)
#
#
# Indices 1 2 3 4 5 6 
#
# 1 99.5583 59.3725 53.1216 0.0000 0.0000 0.0000
# 2 59.3725 90.8194 38.9698 0.0000 0.0000 0.0000
# 3 53.1216 38.9698 103.8003 0.0000 0.0000 0.0000
# 4 0.0000 0.0000 0.0000 18.2319 0.0000 0.0000
# 5 0.0000 0.0000 0.0000 0.0000 -6.5985 0.0000
# 6 0.0000 0.0000 0.0000 0.0000 0.0000 18.8168
#
#
#
# Elastic Compliance Matrix: (Units=1/GPa)
#
#
# Indices 1 2 3 4 5 6 
#
# 1 0.019243 -0.009959 -0.006109 0.000000 0.000000 0.000000
# 2 -0.009959 0.018279 -0.001766 0.000000 0.000000 0.000000
# 3 -0.006109 -0.001766 0.013423 0.000000 0.000000 0.000000
# 4 0.000000 0.000000 0.000000 0.054849 0.000000 0.000000
# 5 0.000000 0.000000 0.000000 0.000000 -0.151550 0.000000
# 6 0.000000 0.000000 0.000000 0.000000 0.000000 0.053144
#
#
# Mechanical properties :
#
#
# Convention : Reuss Voigt Hill
#
# Bulk Modulus (GPa) = 65.45438 66.34509 65.89973
# Shear Modulus (GPa) = 103.84699 15.60432 59.72565
#
# Velocity S-wave (km/s) = 7.63071 2.95795 5.78693
# Velocity P-wave (km/s) = 10.69288 6.99043 9.03338
#
# Compressibility (1/GPa) = 0.01527782
#
# Stress axis : x y z
#
# Youngs Moduli (GPa) = 51.96723 54.70774 74.49694
#
# Poissons Ratio (x) = 0.54481 0.45511
# Poissons Ratio (y) = 0.51752 0.13156
# Poissons Ratio (z) = 0.31748 0.09662
#
# Static dielectric constant tensor:
#      x y z
#    x 1.606870 0.000000 0.000000 
#    y 0.000000 1.619750 0.000000 
#    z 0.000000 0.000000 1.620700 
# 
# From -- ./inp_files/6918.got.cif
#   From: 2010.05.17/outbox.cif.g08.bks.cpg/sg58_4_cif.got.tgz:6918.got - 2010.06.03 14:20:14.
