data_PCOD9442187
_publ_section_title
;
Structure prediction by ZEFSAII (Michael W. Deem and Ramdas Pophale) SiO2 
 PCOD9442187
Probable space group: P N N M
;
_chemical_formula_sum "Si O2"
_cell_formula_units_Z 64
_cell_length_a 18.676159
_cell_length_b 5.662929
_cell_length_c 28.097192
_cell_angle_alpha 90.000000
_cell_angle_beta 90.000000
_cell_angle_gamma 90.000000
_cell_volume 2971.608545
_symmetry_space_group_name_H-M "P N N M"
_symmetry_group_IT_number 58
_symmetry_cell_setting 'orthorhombic'
loop_
_space_group_symop_operation_xyz
x,y,z
-x,-y,z
1/2+x,1/2-y,1/2-z
1/2-x,1/2+y,1/2-z
-x,-y,-z
x,y,-z
1/2-x,1/2+y,1/2+z
1/2+x,1/2-y,1/2+z
loop_
_atom_site_type_symbol
_atom_site_label
_atom_site_fract_x
_atom_site_fract_y
_atom_site_fract_z
Si Si1 0.088044 0.142738 0.445010
Si Si2 0.566198 0.654425 0.200746
Si Si3 0.254995 0.165556 0.421492
Si Si4 0.676176 0.325865 0.744384
Si Si5 0.210098 0.810029 0.179501
Si Si6 0.097152 0.640275 0.398386
Si Si7 0.251592 0.664110 0.445286
Si Si8 0.071113 0.571932 0.207125
O O1 0.065945 0.164801 0.500000
O O2 0.175415 0.147006 0.443421
O O3 0.069506 0.384241 0.416356
O O4 0.068876 0.883122 0.423717
O O5 0.500000 0.500000 0.182475
O O6 0.632966 0.504483 0.220900
O O7 0.587672 0.827048 0.158001
O O8 0.540283 0.776776 0.249013
O O9 0.248728 0.211369 0.365331
O O10 0.289838 0.410387 0.439537
O O11 0.289429 0.911196 0.432437
O O12 0.747011 0.264743 0.773367
O O13 0.700096 0.415927 0.691954
O O14 0.619891 0.122846 0.732898
O O15 0.129420 0.715129 0.177538
O O16 0.181414 0.645907 0.412004
O O17 0.227315 0.679419 0.500000
O O18 0.000000 0.500000 0.179338
#
# Coordination Sequence:
#
# PCOD9442187 Si02
#       8
#     8   8   8   8   8   8   8   8
#     4  10  19  35  56  82 116 157 193 245 322 380
#     4  11  24  38  58  85 112 162 219 258 301 362
#     4  10  20  31  54  83 119 151 198 247 300 371
#     4  11  22  39  57  84 120 157 203 258 314 359
#     4  11  24  35  60  91 119 159 206 264 313 358
#     4  10  20  31  55  81 107 146 201 258 295 352
#     4  10  19  34  55  83 121 161 193 246 323 380
#     4  11  24  42  62  80 124 170 205 251 307 379
#
# _framework density 21.537156
#
# number of rings (size 3 to 8) (size 9 to 14) (size 15 to 20)
#    0.000    1.500    2.500    5.250    7.000    0.000 
#    0.000    0.000    0.000    4.125    0.000    0.000 
#    0.000    5.500    0.000    0.000    0.000    0.000 
#
# Total GULP energy -357042.727069 kJ/mol
# GULP energy per Si atom -5578.792610 kJ/mol
# Density = 2.148814 g / cm^3
# Si number density = 21.537156 Si / 1000 Ang^3
#
#
#
# Elastic Constant Matrix: (Units=GPa)
#
#
# Indices 1 2 3 4 5 6 
#
# 1 48.4030 -0.6408 -11.0868 0.0000 0.0000 0.0000
# 2 -0.6408 138.2396 16.1646 0.0000 0.0000 0.0000
# 3 -11.0868 16.1646 61.5790 0.0000 0.0000 0.0000
# 4 0.0000 0.0000 0.0000 -12.0800 0.0000 0.0000
# 5 0.0000 0.0000 0.0000 0.0000 4.3960 0.0000
# 6 0.0000 0.0000 0.0000 0.0000 0.0000 18.1834
#
#
#
# Elastic Compliance Matrix: (Units=1/GPa)
#
#
# Indices 1 2 3 4 5 6 
#
# 1 0.021566 -0.000365 0.003979 0.000000 0.000000 0.000000
# 2 -0.000365 0.007469 -0.002026 0.000000 0.000000 0.000000
# 3 0.003979 -0.002026 0.017488 0.000000 0.000000 0.000000
# 4 0.000000 0.000000 0.000000 -0.082781 0.000000 0.000000
# 5 0.000000 0.000000 0.000000 0.000000 0.227477 0.000000
# 6 0.000000 0.000000 0.000000 0.000000 0.000000 0.054995
#
#
# Mechanical properties :
#
#
# Convention : Reuss Voigt Hill
#
# Bulk Modulus (GPa) = 20.12190 28.56619 24.34404
# Shear Modulus (GPa) = 19.25998 18.35219 18.80609
#
# Velocity S-wave (km/s) = 2.99368 2.92227 2.95819
# Velocity P-wave (km/s) = 4.61656 4.96777 4.79538
#
# Compressibility (1/GPa) = 0.04969709
#
# Stress axis : x y z
#
# Youngs Moduli (GPa) = 46.36852 133.88532 57.18343
#
# Poissons Ratio (x) = 0.04891 -0.22752
# Poissons Ratio (y) = 0.01694 0.11588
# Poissons Ratio (z) = -0.18449 0.27131
#
# Static dielectric constant tensor:
#      x y z
#    x 1.805950 0.000000 0.000000 
#    y 0.000000 1.976860 0.000000 
#    z 0.000000 0.000000 1.765090 
# 
# From -- ./inp_files/32998.got.cif
#   From: 2010.05.17/outbox.cif.g08.bks.cpg/sg58_17_cif.got.tgz:32998.got - 2010.06.03 14:20:14.
