data_PCOD9442506
_publ_section_title
;
Structure prediction by ZEFSAII (Michael W. Deem and Ramdas Pophale) SiO2 
 PCOD9442506
Probable space group: P N N M
;
_chemical_formula_sum "Si O2"
_cell_formula_units_Z 64
_cell_length_a 11.810514
_cell_length_b 14.832501
_cell_length_c 18.856779
_cell_angle_alpha 90.000000
_cell_angle_beta 90.000000
_cell_angle_gamma 90.000000
_cell_volume 3303.320376
_symmetry_space_group_name_H-M "P N N M"
_symmetry_group_IT_number 58
_symmetry_cell_setting 'orthorhombic'
loop_
_space_group_symop_operation_xyz
x,y,z
-x,-y,z
1/2+x,1/2-y,1/2-z
1/2-x,1/2+y,1/2-z
-x,-y,-z
x,y,-z
1/2-x,1/2+y,1/2+z
1/2+x,1/2-y,1/2+z
loop_
_atom_site_type_symbol
_atom_site_label
_atom_site_fract_x
_atom_site_fract_y
_atom_site_fract_z
Si Si1 0.538824 0.150217 0.414999
Si Si2 0.634284 0.003270 0.921361
Si Si3 0.778582 0.053515 0.418049
Si Si4 0.706441 0.871256 0.644568
Si Si5 0.271959 0.557309 0.705589
Si Si6 0.286092 0.324772 0.417429
Si Si7 0.512119 0.337280 0.659941
Si Si8 0.590825 0.582280 0.213524
O O1 0.519942 0.161651 0.500000
O O2 0.651134 0.090724 0.407169
O O3 0.423873 0.112916 0.379524
O O4 0.554803 0.244862 0.374355
O O5 0.680107 0.948109 0.855289
O O6 0.500000 0.000000 0.921397
O O7 0.686464 0.103040 0.910984
O O8 0.674070 0.972847 0.000000
O O9 0.808471 0.064725 0.500000
O O10 0.862416 0.103206 0.363835
O O11 0.777658 0.948178 0.395952
O O12 0.730608 0.884260 0.727621
O O13 0.734080 0.769442 0.622157
O O14 0.384709 0.594450 0.667721
O O15 0.306023 0.461657 0.741348
O O16 0.301214 0.303614 0.500000
O O17 0.404583 0.364739 0.388014
O O18 0.462090 0.337405 0.740264
O O19 0.500000 0.500000 0.208232
#
# Coordination Sequence:
#
# PCOD9442506 Si02
#       8
#     8   8   8   8   8   8   8   8
#     4  10  21  35  56  88 119 151 198 251 302 359
#     4  10  22  40  61  88 123 159 203 253 302 366
#     4  10  20  35  58  84 117 158 197 251 307 356
#     4  10  20  36  56  88 122 155 199 251 297 370
#     4  10  21  37  56  87 115 151 202 246 302 354
#     4  10  20  37  63  90 117 158 204 249 303 361
#     4  10  19  36  57  83 120 149 197 252 296 349
#     4   9  19  35  56  81 114 148 199 250 284 366
#
# _framework density 19.374445000000001
#
# number of rings (size 3 to 8) (size 9 to 14) (size 15 to 20)
#    0.000    2.125    1.250    2.625    0.000    6.250 
#    4.500    1.250    2.750    0.000    0.000    0.000 
#    0.000    0.000    0.000    0.000    0.000    0.000 
#
# Total GULP energy -356845.247936 kJ/mol
# GULP energy per Si atom -5575.706999 kJ/mol
# Density = 1.933035 g / cm^3
# Si number density = 19.374445 Si / 1000 Ang^3
#
#
#
# Elastic Constant Matrix: (Units=GPa)
#
#
# Indices 1 2 3 4 5 6 
#
# 1 63.1750 23.1085 51.5743 0.0000 0.0000 0.0000
# 2 23.1085 49.0055 54.0416 0.0000 0.0000 0.0000
# 3 51.5743 54.0416 147.7061 0.0000 0.0000 0.0000
# 4 0.0000 0.0000 0.0000 28.0403 0.0000 0.0000
# 5 0.0000 0.0000 0.0000 0.0000 34.8129 0.0000
# 6 0.0000 0.0000 0.0000 0.0000 0.0000 18.4397
#
#
#
# Elastic Compliance Matrix: (Units=1/GPa)
#
#
# Indices 1 2 3 4 5 6 
#
# 1 0.022446 -0.003255 -0.006646 0.000000 0.000000 0.000000
# 2 -0.003255 0.034680 -0.011552 0.000000 0.000000 0.000000
# 3 -0.006646 -0.011552 0.013317 0.000000 0.000000 0.000000
# 4 0.000000 0.000000 0.000000 0.035663 0.000000 0.000000
# 5 0.000000 0.000000 0.000000 0.000000 0.028725 0.000000
# 6 0.000000 0.000000 0.000000 0.000000 0.000000 0.054231
#
#
# Mechanical properties :
#
#
# Convention : Reuss Voigt Hill
#
# Bulk Modulus (GPa) = 36.31535 57.48173 46.89854
# Shear Modulus (GPa) = 20.73428 25.00272 22.86850
#
# Velocity S-wave (km/s) = 3.27492 3.59625 3.43934
# Velocity P-wave (km/s) = 5.75194 6.85400 6.32701
#
# Compressibility (1/GPa) = 0.02753656
#
# Stress axis : x y z
#
# Youngs Moduli (GPa) = 44.55222 28.83531 75.08931
#
# Poissons Ratio (x) = 0.09385 0.49908
# Poissons Ratio (y) = 0.14500 0.86743
# Poissons Ratio (z) = 0.29612 0.33310
#
# Static dielectric constant tensor:
#      x y z
#    x 1.691390 0.000000 0.000000 
#    y 0.000000 1.699090 0.000000 
#    z 0.000000 0.000000 1.685280 
# 
# From -- ./inp_files/26364.got.cif
#   From: 2010.05.17/outbox.cif.g08.bks.cpg/sg58_14_cif.got.tgz:26364.got - 2010.06.03 14:20:14.
