data_PCOD9442738
_publ_section_title
;
Structure prediction by ZEFSAII (Michael W. Deem and Ramdas Pophale) SiO2 
 PCOD9442738
Probable space group: P N N M
;
_chemical_formula_sum "Si O2"
_cell_formula_units_Z 64
_cell_length_a 7.797177
_cell_length_b 24.621863
_cell_length_c 13.839931
_cell_angle_alpha 90.000000
_cell_angle_beta 90.000000
_cell_angle_gamma 90.000000
_cell_volume 2657.004124
_symmetry_space_group_name_H-M "P N N M"
_symmetry_group_IT_number 58
_symmetry_cell_setting 'orthorhombic'
loop_
_space_group_symop_operation_xyz
x,y,z
-x,-y,z
1/2+x,1/2-y,1/2-z
1/2-x,1/2+y,1/2-z
-x,-y,-z
x,y,-z
1/2-x,1/2+y,1/2+z
1/2+x,1/2-y,1/2+z
loop_
_atom_site_type_symbol
_atom_site_label
_atom_site_fract_x
_atom_site_fract_y
_atom_site_fract_z
Si Si1 0.664172 0.134528 0.884030
Si Si2 0.644130 0.727072 0.883084
Si Si3 0.073188 0.055928 0.889967
Si Si4 0.269154 0.153533 0.882365
Si Si5 0.243165 0.244464 0.382181
Si Si6 0.144011 0.455693 0.106294
Si Si7 0.037875 0.338329 0.116797
Si Si8 0.803826 0.516842 0.305381
O O1 0.464055 0.138598 0.853262
O O2 0.757545 0.191389 0.857961
O O3 0.735363 0.076824 0.848675
O O4 0.664120 0.133461 0.000000
O O5 0.741718 0.783129 0.859410
O O6 0.448027 0.726887 0.849838
O O7 0.773285 0.680691 0.852435
O O8 0.632939 0.725918 0.000000
O O9 0.115711 0.114640 0.846325
O O10 0.262250 0.029567 0.884672
O O11 0.010558 0.060103 0.000000
O O12 0.000000 0.000000 0.841751
O O13 0.260335 0.148609 0.000000
O O14 0.245671 0.242760 0.500000
O O15 0.389349 0.202518 0.348308
O O16 0.040848 0.401701 0.139715
O O17 0.260736 0.476894 0.193885
O O18 0.000000 0.500000 0.091352
O O19 0.225566 0.444763 0.000000
O O20 0.028925 0.334684 0.000000
O O21 0.000000 0.500000 0.288015
#
# Coordination Sequence:
#
# PCOD9442738 Si02
#       8
#     8   8   8   8   8   8   8   8
#     4   9  16  27  48  79 113 143 179 218 259 331
#     4   8  14  25  46  75 106 139 173 214 270 338
#     4  10  20  31  47  79 120 157 190 227 273 335
#     4   8  14  26  43  70 111 149 178 211 257 318
#     4   8  15  27  47  79 111 139 170 215 273 338
#     4   9  20  38  60  81 101 134 187 248 298 336
#     4   9  16  30  56  79 101 137 180 228 287 344
#     4  11  20  32  56  77 104 151 194 235 280 333
#
# _framework density 24.08728
#
# number of rings (size 3 to 8) (size 9 to 14) (size 15 to 20)
#    0.000    3.000    1.250    1.875    0.000    1.500 
#    0.000    3.750   11.000    0.375    0.000    0.000 
#    0.000    0.000    0.000    0.000    0.000    0.000 
#
# Total GULP energy -356323.659561 kJ/mol
# GULP energy per Si atom -5567.557181 kJ/mol
# Density = 2.403246 g / cm^3
# Si number density = 24.087280 Si / 1000 Ang^3
#
#
#
# Elastic Constant Matrix: (Units=GPa)
#
#
# Indices 1 2 3 4 5 6 
#
# 1 34.6167 19.3447 9.4008 0.0000 0.0000 0.0000
# 2 19.3447 115.0173 -1.5938 0.0000 0.0000 0.0000
# 3 9.4008 -1.5938 113.9338 0.0000 0.0000 0.0000
# 4 0.0000 0.0000 0.0000 89.9362 0.0000 0.0000
# 5 0.0000 0.0000 0.0000 0.0000 -66.8102 0.0000
# 6 0.0000 0.0000 0.0000 0.0000 0.0000 16.5756
#
#
#
# Elastic Compliance Matrix: (Units=1/GPa)
#
#
# Indices 1 2 3 4 5 6 
#
# 1 0.032741 -0.005545 -0.002779 0.000000 0.000000 0.000000
# 2 -0.005545 0.009635 0.000592 0.000000 0.000000 0.000000
# 3 -0.002779 0.000592 0.009015 0.000000 0.000000 0.000000
# 4 0.000000 0.000000 0.000000 0.011119 0.000000 0.000000
# 5 0.000000 0.000000 0.000000 0.000000 -0.014968 0.000000
# 6 0.000000 0.000000 0.000000 0.000000 0.000000 0.060330
#
#
# Mechanical properties :
#
#
# Convention : Reuss Voigt Hill
#
# Bulk Modulus (GPa) = 27.83410 35.31901 31.57656
# Shear Modulus (GPa) = 36.95166 23.70138 30.32652
#
# Velocity S-wave (km/s) = 3.92097 3.14025 3.55213
# Velocity P-wave (km/s) = 5.66386 5.27664 5.47368
#
# Compressibility (1/GPa) = 0.03592715
#
# Stress axis : x y z
#
# Youngs Moduli (GPa) = 30.54240 103.78603 110.93091
#
# Poissons Ratio (x) = 0.57552 0.30829
# Poissons Ratio (y) = 0.16937 -0.06571
# Poissons Ratio (z) = 0.08488 -0.06148
#
# Static dielectric constant tensor:
#      x y z
#    x 0.360930 0.000000 0.000000 
#    y 0.000000 1.819990 0.000000 
#    z 0.000000 0.000000 2.046810 
# 
# From -- ./inp_files/20277.got.cif
#   From: 2010.05.17/outbox.cif.g08.bks.cpg/sg58_11_cif.got.tgz:20277.got - 2010.06.03 14:20:14.
