data_PCOD9442727
_publ_section_title
;
Structure prediction by ZEFSAII (Michael W. Deem and Ramdas Pophale) SiO2 
 PCOD9442727
Probable space group: P N N M
;
_chemical_formula_sum "Si O2"
_cell_formula_units_Z 48
_cell_length_a 7.315582
_cell_length_b 17.275685
_cell_length_c 13.528744
_cell_angle_alpha 90.000000
_cell_angle_beta 90.000000
_cell_angle_gamma 90.000000
_cell_volume 1709.785533
_symmetry_space_group_name_H-M "P N N M"
_symmetry_group_IT_number 58
_symmetry_cell_setting 'orthorhombic'
loop_
_space_group_symop_operation_xyz
x,y,z
-x,-y,z
1/2+x,1/2-y,1/2-z
1/2-x,1/2+y,1/2-z
-x,-y,-z
x,y,-z
1/2-x,1/2+y,1/2+z
1/2+x,1/2-y,1/2+z
loop_
_atom_site_type_symbol
_atom_site_label
_atom_site_fract_x
_atom_site_fract_y
_atom_site_fract_z
Si Si1 0.041187 0.299928 0.607631
Si Si2 0.312537 0.432680 0.606518
Si Si3 0.002961 0.706599 0.839091
Si Si4 0.176345 0.106700 0.363464
Si Si5 0.265358 0.438445 0.161969
Si Si6 0.318805 0.636244 0.367086
O O1 0.020525 0.258771 0.500000
O O2 0.992163 0.270212 0.719864
O O3 0.888010 0.367665 0.600546
O O4 0.232121 0.344403 0.612969
O O5 0.240076 0.461592 0.500000
O O6 0.273840 0.457987 0.719487
O O7 0.529993 0.422622 0.597791
O O8 0.195130 0.680294 0.889372
O O9 0.883641 0.628304 0.847765
O O10 0.893221 0.777296 0.886470
O O11 0.185612 0.120360 0.247680
O O12 0.958750 0.095796 0.378849
O O13 0.261264 0.022649 0.386920
#
# Coordination Sequence:
#
# PCOD9442727 Si02
#       6
#     8   8   8   8   8   8
#     4   9  19  32  47  70 103 135 168 211 255 301
#     4   9  18  32  50  71 105 142 176 208 251 305
#     4  10  20  30  52  73 100 137 177 214 261 304
#     4   9  19  31  47  70 102 134 169 219 249 304
#     4   9  18  33  47  68 102 137 170 210 254 306
#     4  10  20  30  50  75 101 136 176 217 257 302
#
# _framework density 28.073698
#
# number of rings (size 3 to 8) (size 9 to 14) (size 15 to 20)
#    0.000    2.667    0.000    1.000   14.000    0.000 
#    0.000   10.000    0.000   13.000    0.000    0.000 
#    0.000   14.667    0.000    1.333    0.000    0.000 
#
# Total GULP energy -267707.618754 kJ/mol
# GULP energy per Si atom -5577.242057 kJ/mol
# Density = 2.800980 g / cm^3
# Si number density = 28.073698 Si / 1000 Ang^3
#
#
#
# Elastic Constant Matrix: (Units=GPa)
#
#
# Indices 1 2 3 4 5 6 
#
# 1 83.7233 17.5188 9.4178 0.0000 0.0000 0.0000
# 2 17.5188 163.5870 14.7323 0.0000 0.0000 0.0000
# 3 9.4178 14.7323 167.5066 0.0000 0.0000 0.0000
# 4 0.0000 0.0000 0.0000 -24.4624 0.0000 0.0000
# 5 0.0000 0.0000 0.0000 0.0000 -40.4811 0.0000
# 6 0.0000 0.0000 0.0000 0.0000 0.0000 37.8346
#
#
#
# Elastic Compliance Matrix: (Units=1/GPa)
#
#
# Indices 1 2 3 4 5 6 
#
# 1 0.012273 -0.001262 -0.000579 0.000000 0.000000 0.000000
# 2 -0.001262 0.006292 -0.000482 0.000000 0.000000 0.000000
# 3 -0.000579 -0.000482 0.006045 0.000000 0.000000 0.000000
# 4 0.000000 0.000000 0.000000 -0.040879 0.000000 0.000000
# 5 0.000000 0.000000 0.000000 0.000000 -0.024703 0.000000
# 6 0.000000 0.000000 0.000000 0.000000 0.000000 0.026431
#
#
# Mechanical properties :
#
#
# Convention : Reuss Voigt Hill
#
# Bulk Modulus (GPa) = 50.09384 55.35052 52.72218
# Shear Modulus (GPa) = -1543.30797 19.45474 -761.92661
#
# Velocity S-wave (km/s) = -23.47185 2.63532 -16.49216
# Velocity P-wave (km/s) = 26.77103 5.38691 18.54278
#
# Compressibility (1/GPa) = 0.01996253
#
# Stress axis : x y z
#
# Youngs Moduli (GPa) = 81.47732 158.94276 165.42884
#
# Poissons Ratio (x) = 0.20062 0.09579
# Poissons Ratio (y) = 0.10284 0.07980
# Poissons Ratio (z) = 0.04718 0.07667
#
# Static dielectric constant tensor:
#      x y z
#    x 2.177780 0.000000 0.000000 
#    y 0.000000 2.234610 0.000000 
#    z 0.000000 0.000000 2.294780 
# 
# From -- ./inp_files/23160.got.cif
#   From: 2010.05.17/outbox.cif.g08.bks.cpg/sg58_12_cif.got.tgz:23160.got - 2010.06.03 14:20:14.
