data_PCOD9442435
_publ_section_title
;
Structure prediction by ZEFSAII (Michael W. Deem and Ramdas Pophale) SiO2 
 PCOD9442435
Probable space group: P N N M
;
_chemical_formula_sum "Si O2"
_cell_formula_units_Z 64
_cell_length_a 13.041299
_cell_length_b 28.910602
_cell_length_c 7.667203
_cell_angle_alpha 90.000000
_cell_angle_beta 90.000000
_cell_angle_gamma 90.000000
_cell_volume 2890.779386
_symmetry_space_group_name_H-M "P N N M"
_symmetry_group_IT_number 58
_symmetry_cell_setting 'orthorhombic'
loop_
_space_group_symop_operation_xyz
x,y,z
-x,-y,z
1/2+x,1/2-y,1/2-z
1/2-x,1/2+y,1/2-z
-x,-y,-z
x,y,-z
1/2-x,1/2+y,1/2+z
1/2+x,1/2-y,1/2+z
loop_
_atom_site_type_symbol
_atom_site_label
_atom_site_fract_x
_atom_site_fract_y
_atom_site_fract_z
Si Si1 0.855832 0.859175 0.798103
Si Si2 0.760084 0.702240 0.713402
Si Si3 0.962293 0.651222 0.705182
Si Si4 0.419776 0.367041 0.712794
Si Si5 0.670005 0.798656 0.698492
Si Si6 0.245685 0.050367 0.295753
Si Si7 0.399556 0.472085 0.710875
Si Si8 0.478737 0.051107 0.202894
O O1 0.762838 0.834920 0.701766
O O2 0.835448 0.913984 0.786082
O O3 0.969038 0.849099 0.728646
O O4 0.849734 0.845062 0.000000
O O5 0.765784 0.705523 0.500000
O O6 0.869884 0.682984 0.775356
O O7 0.673885 0.665127 0.761533
O O8 0.718614 0.751848 0.775761
O O9 0.940808 0.644971 0.500000
O O10 0.070279 0.677941 0.718908
O O11 0.973211 0.598688 0.778125
O O12 0.424448 0.367842 0.500000
O O13 0.403603 0.419483 0.771707
O O14 0.639168 0.788361 0.500000
O O15 0.254604 0.060174 0.500000
O O16 0.356263 0.057337 0.211375
O O17 0.201267 0.999379 0.268604
O O18 0.500000 0.500000 0.771739
O O19 0.400617 0.472033 0.500000
O O20 0.500000 0.000000 0.281256
O O21 0.511756 0.048571 0.000000
#
# Coordination Sequence:
#
# PCOD9442435 Si02
#       8
#     8   8   8   8   8   8   8   8
#     4  11  21  38  63  89 116 153 207 251 295 363
#     4   9  21  39  60  89 121 157 199 249 307 359
#     4  10  21  40  64  89 121 157 202 252 297 361
#     4   9  19  36  61  88 116 155 202 252 297 350
#     4  11  23  39  61  89 122 157 197 251 311 360
#     4  12  24  37  56  86 125 162 195 242 307 361
#     4  10  19  35  59  86 116 154 202 248 288 344
#     4  10  22  39  63  91 115 156 209 252 296 356
#
# _framework density 22.139358000000001
#
# number of rings (size 3 to 8) (size 9 to 14) (size 15 to 20)
#    0.000    1.750    2.500    1.875    3.500    0.500 
#    0.000    0.625    0.000    3.000    0.000    0.000 
#    0.000    0.000    0.000    0.000    0.000    0.000 
#
# Total GULP energy -357515.721921 kJ/mol
# GULP energy per Si atom -5586.183155 kJ/mol
# Density = 2.208897 g / cm^3
# Si number density = 22.139358 Si / 1000 Ang^3
#
#
#
# Elastic Constant Matrix: (Units=GPa)
#
#
# Indices 1 2 3 4 5 6 
#
# 1 119.1456 59.6031 -9.5074 0.0000 0.0000 0.0000
# 2 59.6031 130.7075 4.7483 0.0000 0.0000 0.0000
# 3 -9.5074 4.7483 47.7580 0.0000 0.0000 0.0000
# 4 0.0000 0.0000 0.0000 6.8259 0.0000 0.0000
# 5 0.0000 0.0000 0.0000 0.0000 -8.5112 0.0000
# 6 0.0000 0.0000 0.0000 0.0000 0.0000 27.1008
#
#
#
# Elastic Compliance Matrix: (Units=1/GPa)
#
#
# Indices 1 2 3 4 5 6 
#
# 1 0.011223 -0.005218 0.002753 0.000000 0.000000 0.000000
# 2 -0.005218 0.010104 -0.002043 0.000000 0.000000 0.000000
# 3 0.002753 -0.002043 0.021690 0.000000 0.000000 0.000000
# 4 0.000000 0.000000 0.000000 0.146502 0.000000 0.000000
# 5 0.000000 0.000000 0.000000 0.000000 -0.117492 0.000000
# 6 0.000000 0.000000 0.000000 0.000000 0.000000 0.036899
#
#
# Mechanical properties :
#
#
# Convention : Reuss Voigt Hill
#
# Bulk Modulus (GPa) = 29.41075 45.25542 37.33309
# Shear Modulus (GPa) = 38.67685 21.26757 29.97221
#
# Velocity S-wave (km/s) = 4.18421 3.10275 3.68339
# Velocity P-wave (km/s) = 6.05448 5.77249 5.91517
#
# Compressibility (1/GPa) = 0.03400117
#
# Stress axis : x y z
#
# Youngs Moduli (GPa) = 89.10310 98.96877 46.10394
#
# Poissons Ratio (x) = 0.51639 -0.12692
# Poissons Ratio (y) = 0.46491 0.09420
# Poissons Ratio (z) = -0.24530 0.20222
#
# Static dielectric constant tensor:
#      x y z
#    x 1.767010 0.000000 0.000000 
#    y 0.000000 1.828140 0.000000 
#    z 0.000000 0.000000 1.827110 
# 
# From -- ./inp_files/4823.got.cif
#   From: 2010.05.17/outbox.cif.g08.bks.cpg/sg58_3_cif.got.tgz:4823.got - 2010.06.03 14:20:14.
