data_PCOD9442741
_publ_section_title
;
Structure prediction by ZEFSAII (Michael W. Deem and Ramdas Pophale) SiO2 
 PCOD9442741
Probable space group: P N N M
;
_chemical_formula_sum "Si O2"
_cell_formula_units_Z 44
_cell_length_a 5.201141
_cell_length_b 16.556904
_cell_length_c 21.365756
_cell_angle_alpha 90.000000
_cell_angle_beta 90.000000
_cell_angle_gamma 90.000000
_cell_volume 1839.907639
_symmetry_space_group_name_H-M "P N N M"
_symmetry_group_IT_number 58
_symmetry_cell_setting 'orthorhombic'
loop_
_space_group_symop_operation_xyz
x,y,z
-x,-y,z
1/2+x,1/2-y,1/2-z
1/2-x,1/2+y,1/2-z
-x,-y,-z
x,y,-z
1/2-x,1/2+y,1/2+z
1/2+x,1/2-y,1/2+z
loop_
_atom_site_type_symbol
_atom_site_label
_atom_site_fract_x
_atom_site_fract_y
_atom_site_fract_z
Si Si1 0.819237 0.205979 0.571861
Si Si2 0.000000 0.000000 0.653663
Si Si3 0.965392 0.355727 0.342998
Si Si4 0.970629 0.093426 0.225818
Si Si5 0.665422 0.900626 0.428436
Si Si6 0.766920 0.988286 0.074269
O O1 0.769664 0.234058 0.500000
O O2 0.903096 0.278167 0.616744
O O3 0.565202 0.157396 0.593558
O O4 0.066229 0.148276 0.569851
O O5 0.945180 0.075150 0.700488
O O6 0.243866 0.023191 0.612307
O O7 0.736538 0.366578 0.293101
O O8 0.226249 0.363355 0.303819
O O9 0.951610 0.432519 0.392269
O O10 0.962334 0.064717 0.085160
O O11 0.000000 0.000000 0.201984
O O12 0.602673 0.921492 0.500000
O O13 0.727744 0.983959 0.000000
#
# Coordination Sequence:
#
# PCOD9442741 Si02
#       6
#     8   4   8   8   8   8
#     4  10  23  40  66 101 136 173 221 274 344 426
#     4  10  25  46  70 100 131 170 230 300 340 410
#     4  12  20  39  59  89 132 182 213 271 331 399
#     4  10  24  37  62  92 127 179 231 274 327 388
#     4  10  22  44  72 102 131 167 216 287 365 419
#     4  10  20  31  50  81 115 159 218 271 316 368
#
# _framework density 23.914242999999999
#
# number of rings (size 3 to 8) (size 9 to 14) (size 15 to 20)
#    0.545    1.091    0.000    5.182    0.000    3.636 
#    0.000   13.636    0.000    1.636    0.000    0.000 
#    0.000    0.000    0.000    0.000    0.000    0.000 
#
# Total GULP energy -245059.752510 kJ/mol
# GULP energy per Si atom -5569.539830 kJ/mol
# Density = 2.385981 g / cm^3
# Si number density = 23.914243 Si / 1000 Ang^3
#
#
#
# Elastic Constant Matrix: (Units=GPa)
#
#
# Indices 1 2 3 4 5 6 
#
# 1 318.2707 50.7641 70.3006 0.0000 0.0000 0.0000
# 2 50.7641 83.3763 44.6988 0.0000 0.0000 0.0000
# 3 70.3006 44.6988 133.6594 0.0000 0.0000 0.0000
# 4 0.0000 0.0000 0.0000 18.9677 0.0000 0.0000
# 5 0.0000 0.0000 0.0000 0.0000 347.3434 0.0000
# 6 0.0000 0.0000 0.0000 0.0000 0.0000 33.0178
#
#
#
# Elastic Compliance Matrix: (Units=1/GPa)
#
#
# Indices 1 2 3 4 5 6 
#
# 1 0.003698 -0.001473 -0.001452 0.000000 0.000000 0.000000
# 2 -0.001473 0.015200 -0.004309 0.000000 0.000000 0.000000
# 3 -0.001452 -0.004309 0.009687 0.000000 0.000000 0.000000
# 4 0.000000 0.000000 0.000000 0.052721 0.000000 0.000000
# 5 0.000000 0.000000 0.000000 0.000000 0.002879 0.000000
# 6 0.000000 0.000000 0.000000 0.000000 0.000000 0.030287
#
#
# Mechanical properties :
#
#
# Convention : Reuss Voigt Hill
#
# Bulk Modulus (GPa) = 70.83668 96.31482 83.57575
# Shear Modulus (GPa) = 37.41252 104.50196 70.95724
#
# Velocity S-wave (km/s) = 3.95960 6.61767 5.45307
# Velocity P-wave (km/s) = 7.11266 9.93750 8.64129
#
# Compressibility (1/GPa) = 0.01411698
#
# Stress axis : x y z
#
# Youngs Moduli (GPa) = 270.43994 65.78740 103.23591
#
# Poissons Ratio (x) = 0.09689 0.14993
# Poissons Ratio (y) = 0.39829 0.44482
# Poissons Ratio (z) = 0.39277 0.28346
#
# Static dielectric constant tensor:
#      x y z
#    x 0.744980 0.000000 0.000000 
#    y 0.000000 1.054180 0.000000 
#    z 0.000000 0.000000 1.847960 
# 
# From -- ./inp_files/24319.got.cif
#   From: 2010.05.17/outbox.cif.g08.bks.cpg/sg58_13_cif.got.tgz:24319.got - 2010.06.03 14:20:14.
