data_PCOD9442380
_publ_section_title
;
Structure prediction by ZEFSAII (Michael W. Deem and Ramdas Pophale) SiO2 
 PCOD9442380
Probable space group: P N N M
;
_chemical_formula_sum "Si O2"
_cell_formula_units_Z 48
_cell_length_a 10.474762
_cell_length_b 9.170614
_cell_length_c 20.215642
_cell_angle_alpha 90.000000
_cell_angle_beta 90.000000
_cell_angle_gamma 90.000000
_cell_volume 1941.914551
_symmetry_space_group_name_H-M "P N N M"
_symmetry_group_IT_number 58
_symmetry_cell_setting 'orthorhombic'
loop_
_space_group_symop_operation_xyz
x,y,z
-x,-y,z
1/2+x,1/2-y,1/2-z
1/2-x,1/2+y,1/2-z
-x,-y,-z
x,y,-z
1/2-x,1/2+y,1/2+z
1/2+x,1/2-y,1/2+z
loop_
_atom_site_type_symbol
_atom_site_label
_atom_site_fract_x
_atom_site_fract_y
_atom_site_fract_z
Si Si1 0.811754 0.744131 0.927787
Si Si2 0.482666 0.323213 0.076536
Si Si3 0.144546 0.539366 0.869876
Si Si4 0.408361 0.806591 0.791557
Si Si5 0.956417 0.186871 0.170401
Si Si6 0.769055 0.963856 0.238285
O O1 0.660251 0.744491 0.914138
O O2 0.834850 0.568973 0.929553
O O3 0.915010 0.808409 0.875761
O O4 0.835927 0.809015 0.000000
O O5 0.500000 0.500000 0.082512
O O6 0.561582 0.256230 0.136881
O O7 0.519590 0.289694 0.000000
O O8 0.243407 0.487272 0.814114
O O9 0.000000 0.500000 0.848932
O O10 0.139909 0.713123 0.873686
O O11 0.519746 0.774775 0.739011
O O12 0.644730 0.030260 0.796660
O O13 0.303454 0.703127 0.753355
O O14 0.117965 0.953957 0.198971
#
# Coordination Sequence:
#
# PCOD9442380 Si02
#       6
#     8   8   8   8   8   8
#     4  10  21  39  63  97 141 179 227 289 346 402
#     4  10  22  40  66 100 135 177 227 289 347 396
#     4  10  19  35  57  94 130 165 221 270 337 394
#     4  12  24  39  69  98 138 175 223 285 340 415
#     4  11  23  37  62  96 131 174 222 275 347 401
#     4  12  23  40  63  98 138 172 220 282 342 406
#
# _framework density 24.717873999999998
#
# number of rings (size 3 to 8) (size 9 to 14) (size 15 to 20)
#    0.000    1.167    5.000    3.500    0.000    3.000 
#    0.000    0.833    0.000    3.000    0.000    5.833 
#    0.000    0.000    0.000    0.000    0.000    0.000 
#
# Total GULP energy -267210.554699 kJ/mol
# GULP energy per Si atom -5566.886556 kJ/mol
# Density = 2.466162 g / cm^3
# Si number density = 24.717874 Si / 1000 Ang^3
#
#
#
# Elastic Constant Matrix: (Units=GPa)
#
#
# Indices 1 2 3 4 5 6 
#
# 1 134.3991 30.7882 56.5106 0.0000 0.0000 0.0000
# 2 30.7882 89.0616 42.9828 0.0000 0.0000 0.0000
# 3 56.5106 42.9828 156.3259 0.0000 0.0000 0.0000
# 4 0.0000 0.0000 0.0000 26.3372 0.0000 0.0000
# 5 0.0000 0.0000 0.0000 0.0000 18.1362 0.0000
# 6 0.0000 0.0000 0.0000 0.0000 0.0000 34.5379
#
#
#
# Elastic Compliance Matrix: (Units=1/GPa)
#
#
# Indices 1 2 3 4 5 6 
#
# 1 0.009012 -0.001779 -0.002769 0.000000 0.000000 0.000000
# 2 -0.001779 0.013297 -0.003013 0.000000 0.000000 0.000000
# 3 -0.002769 -0.003013 0.008226 0.000000 0.000000 0.000000
# 4 0.000000 0.000000 0.000000 0.037969 0.000000 0.000000
# 5 0.000000 0.000000 0.000000 0.000000 0.055138 0.000000
# 6 0.000000 0.000000 0.000000 0.000000 0.000000 0.028954
#
#
# Mechanical properties :
#
#
# Convention : Reuss Voigt Hill
#
# Bulk Modulus (GPa) = 64.87621 71.14997 68.01309
# Shear Modulus (GPa) = 28.92568 32.43593 30.68080
#
# Velocity S-wave (km/s) = 3.42458 3.62642 3.52695
# Velocity P-wave (km/s) = 6.47616 6.81043 6.64539
#
# Compressibility (1/GPa) = 0.01541397
#
# Stress axis : x y z
#
# Youngs Moduli (GPa) = 110.96003 75.20262 121.56317
#
# Poissons Ratio (x) = 0.13381 0.33656
# Poissons Ratio (y) = 0.19743 0.36627
# Poissons Ratio (z) = 0.30721 0.22659
#
# Static dielectric constant tensor:
#      x y z
#    x 2.202740 0.000000 0.000000 
#    y 0.000000 2.127810 0.000000 
#    z 0.000000 0.000000 1.879830 
# 
# From -- ./inp_files/26222.got.cif
#   From: 2010.05.17/outbox.cif.g08.bks.cpg/sg58_14_cif.got.tgz:26222.got - 2010.06.03 14:20:14.
