data_PCOD9442655
_publ_section_title
;
Structure prediction by ZEFSAII (Michael W. Deem and Ramdas Pophale) SiO2 
 PCOD9442655
Probable space group: P N N M
;
_chemical_formula_sum "Si O2"
_cell_formula_units_Z 40
_cell_length_a 9.708570
_cell_length_b 11.943985
_cell_length_c 15.036592
_cell_angle_alpha 90.000000
_cell_angle_beta 90.000000
_cell_angle_gamma 90.000000
_cell_volume 1743.628389
_symmetry_space_group_name_H-M "P N N M"
_symmetry_group_IT_number 58
_symmetry_cell_setting 'orthorhombic'
loop_
_space_group_symop_operation_xyz
x,y,z
-x,-y,z
1/2+x,1/2-y,1/2-z
1/2-x,1/2+y,1/2-z
-x,-y,-z
x,y,-z
1/2-x,1/2+y,1/2+z
1/2+x,1/2-y,1/2+z
loop_
_atom_site_type_symbol
_atom_site_label
_atom_site_fract_x
_atom_site_fract_y
_atom_site_fract_z
Si Si1 0.152577 0.988283 0.149620
Si Si2 0.149046 0.300955 0.698502
Si Si3 0.802343 0.658446 0.901292
Si Si4 0.899924 0.357119 0.594784
Si Si5 0.642482 0.447856 0.144648
O O1 0.213755 0.865381 0.167140
O O2 0.269673 0.061325 0.102713
O O3 0.142578 0.034995 0.249301
O O4 0.000000 0.000000 0.109815
O O5 0.137395 0.298965 0.806457
O O6 0.149626 0.185593 0.642742
O O7 0.013693 0.368458 0.669289
O O8 0.663066 0.732554 0.901996
O O9 0.763749 0.527279 0.891782
O O10 0.867137 0.677438 0.000000
O O11 0.969579 0.373699 0.500000
O O12 0.500000 0.500000 0.109297
#
# Coordination Sequence:
#
# PCOD9442655 Si02
#       5
#     8   8   8   8   8
#     4  10  23  40  64 100 134 184 229 282 350 419
#     4  11  22  40  71 101 139 184 232 290 353 424
#     4  10  22  39  65 101 141 182 225 286 357 418
#     4  11  23  42  69 103 137 178 233 289 350 422
#     4  10  19  37  63  97 135 182 228 278 347 423
#
# _framework density 22.940667999999999
#
# number of rings (size 3 to 8) (size 9 to 14) (size 15 to 20)
#    0.000    1.600    4.000    0.600    0.000    3.200 
#    0.000    0.000    0.000   11.400    0.000    0.000 
#    0.000    0.000    0.000    0.000    0.000    0.000 
#
# Total GULP energy -223038.080556 kJ/mol
# GULP energy per Si atom -5575.952014 kJ/mol
# Density = 2.288845 g / cm^3
# Si number density = 22.940668 Si / 1000 Ang^3
#
#
#
# Elastic Constant Matrix: (Units=GPa)
#
#
# Indices 1 2 3 4 5 6 
#
# 1 75.6530 25.4429 36.4114 0.0000 0.0000 0.0000
# 2 25.4429 127.3321 3.8459 0.0000 0.0000 0.0000
# 3 36.4114 3.8459 130.6024 0.0000 0.0000 0.0000
# 4 0.0000 0.0000 0.0000 2.5867 0.0000 0.0000
# 5 0.0000 0.0000 0.0000 0.0000 21.7346 0.0000
# 6 0.0000 0.0000 0.0000 0.0000 0.0000 26.7488
#
#
#
# Elastic Compliance Matrix: (Units=1/GPa)
#
#
# Indices 1 2 3 4 5 6 
#
# 1 0.016438 -0.003149 -0.004490 0.000000 0.000000 0.000000
# 2 -0.003149 0.008464 0.000629 0.000000 0.000000 0.000000
# 3 -0.004490 0.000629 0.008890 0.000000 0.000000 0.000000
# 4 0.000000 0.000000 0.000000 0.386595 0.000000 0.000000
# 5 0.000000 0.000000 0.000000 0.000000 0.046010 0.000000
# 6 0.000000 0.000000 0.000000 0.000000 0.000000 0.037385
#
#
# Mechanical properties :
#
#
# Convention : Reuss Voigt Hill
#
# Bulk Modulus (GPa) = 50.57863 51.66533 51.12198
# Shear Modulus (GPa) = 9.53484 28.07317 18.80401
#
# Velocity S-wave (km/s) = 2.04091 3.50198 2.86611
# Velocity P-wave (km/s) = 5.25825 6.23875 5.76937
#
# Compressibility (1/GPa) = 0.01977119
#
# Stress axis : x y z
#
# Youngs Moduli (GPa) = 60.83306 118.15148 112.48379
#
# Poissons Ratio (x) = 0.37206 0.50508
# Poissons Ratio (y) = 0.19156 -0.07072
# Poissons Ratio (z) = 0.27315 -0.07428
#
# Static dielectric constant tensor:
#      x y z
#    x 1.864560 0.000000 0.000000 
#    y 0.000000 1.923450 0.000000 
#    z 0.000000 0.000000 1.841530 
# 
# From -- ./inp_files/20915.got.cif
#   From: 2010.05.17/outbox.cif.g08.bks.cpg/sg58_11_cif.got.tgz:20915.got - 2010.06.03 14:20:14.
