data_PCOD9442976
_publ_section_title
;
Structure prediction by ZEFSAII (Michael W. Deem and Ramdas Pophale) SiO2 
 PCOD9442976
Probable space group: P N N M
;
_chemical_formula_sum "Si O2"
_cell_formula_units_Z 58
_cell_length_a 14.536223
_cell_length_b 17.678788
_cell_length_c 10.019335
_cell_angle_alpha 90.000000
_cell_angle_beta 90.000000
_cell_angle_gamma 90.000000
_cell_volume 2574.796810
_symmetry_space_group_name_H-M "P N N M"
_symmetry_group_IT_number 58
_symmetry_cell_setting 'orthorhombic'
loop_
_space_group_symop_operation_xyz
x,y,z
-x,-y,z
1/2+x,1/2-y,1/2-z
1/2-x,1/2+y,1/2-z
-x,-y,-z
x,y,-z
1/2-x,1/2+y,1/2+z
1/2+x,1/2-y,1/2+z
loop_
_atom_site_type_symbol
_atom_site_label
_atom_site_fract_x
_atom_site_fract_y
_atom_site_fract_z
Si Si1 0.828619 0.237740 0.850319
Si Si2 0.185969 0.886647 0.647178
Si Si3 0.775828 0.526789 0.645575
Si Si4 0.974933 0.914765 0.349549
Si Si5 0.550532 0.286431 0.349919
Si Si6 0.854125 0.360694 0.643519
Si Si7 0.947279 0.617167 0.243076
Si Si8 0.500000 0.000000 0.500000
O O1 0.784997 0.176475 0.752569
O O2 0.819849 0.315277 0.771088
O O3 0.938372 0.219853 0.857675
O O4 0.792027 0.238958 0.000000
O O5 0.228164 0.884110 0.500000
O O6 0.210351 0.962157 0.727467
O O7 0.076998 0.879840 0.633901
O O8 0.735841 0.548681 0.500000
O O9 0.805539 0.440639 0.639566
O O10 0.866612 0.575467 0.677476
O O11 0.933879 0.920612 0.500000
O O12 0.926477 0.856344 0.248708
O O13 0.000000 0.000000 0.301705
O O14 0.584946 0.301042 0.500000
O O15 0.578506 0.202575 0.301959
O O16 0.840268 0.320540 0.500000
O O17 0.962298 0.373920 0.666221
O O18 0.974275 0.563710 0.117592
#
# Coordination Sequence:
#
# PCOD9442976 Si02
#       8
#     8   8   8   8   8   8   8   2
#     4   9  18  33  55  77 104 134 174 222 270 329
#     4  10  21  36  57  80 105 141 182 228 284 338
#     4  11  23  36  52  77 114 152 185 225 276 333
#     4   9  19  38  61  83 106 137 182 234 284 338
#     4   9  18  31  52  83 109 135 172 220 272 321
#     4  10  20  34  54  79 108 144 189 229 270 324
#     4  11  21  33  55  80 116 150 190 230 277 329
#     4  12  20  32  54  84 118 148 196 240 272 328
#
# _framework density 22.526049
#
# number of rings (size 3 to 8) (size 9 to 14) (size 15 to 20)
#    0.000    2.069    2.069    1.241    1.931    6.345 
#    0.000    1.379    0.000    4.966    0.000    0.000 
#    0.000    0.000    0.000    0.000    0.000    0.000 
#
# Total GULP energy -323182.791872 kJ/mol
# GULP energy per Si atom -5572.117101 kJ/mol
# Density = 2.247478 g / cm^3
# Si number density = 22.526049 Si / 1000 Ang^3
#
#
#
# Elastic Constant Matrix: (Units=GPa)
#
#
# Indices 1 2 3 4 5 6 
#
# 1 26.2490 -10.0593 7.0301 0.0000 0.0000 0.0000
# 2 -10.0593 109.6277 56.6838 0.0000 0.0000 0.0000
# 3 7.0301 56.6838 189.2996 0.0000 0.0000 0.0000
# 4 0.0000 0.0000 0.0000 44.9783 0.0000 0.0000
# 5 0.0000 0.0000 0.0000 0.0000 8.6831 0.0000
# 6 0.0000 0.0000 0.0000 0.0000 0.0000 15.1179
#
#
#
# Elastic Compliance Matrix: (Units=1/GPa)
#
#
# Indices 1 2 3 4 5 6 
#
# 1 0.040999 0.005383 -0.003134 0.000000 0.000000 0.000000
# 2 0.005383 0.011499 -0.003643 0.000000 0.000000 0.000000
# 3 -0.003134 -0.003643 0.006490 0.000000 0.000000 0.000000
# 4 0.000000 0.000000 0.000000 0.022233 0.000000 0.000000
# 5 0.000000 0.000000 0.000000 0.000000 0.115166 0.000000
# 6 0.000000 0.000000 0.000000 0.000000 0.000000 0.066147
#
#
# Mechanical properties :
#
#
# Convention : Reuss Voigt Hill
#
# Bulk Modulus (GPa) = 17.79410 48.05395 32.92402
# Shear Modulus (GPa) = 17.60209 31.85730 24.72970
#
# Velocity S-wave (km/s) = 2.79840 3.76472 3.31694
# Velocity P-wave (km/s) = 4.28461 6.34637 5.41453
#
# Compressibility (1/GPa) = 0.05619842
#
# Stress axis : x y z
#
# Youngs Moduli (GPa) = 24.39086 86.96042 154.08359
#
# Poissons Ratio (x) = -0.46808 0.48296
# Poissons Ratio (y) = -0.13129 0.56137
# Poissons Ratio (z) = 0.07645 0.31682
#
# Static dielectric constant tensor:
#      x y z
#    x 1.884870 0.000000 0.000000 
#    y 0.000000 1.879730 0.000000 
#    z 0.000000 0.000000 1.884890 
# 
# From -- ./inp_files/8032.got.cif
#   From: 2010.05.17/outbox.cif.g08.bks.cpg/sg58_5_cif.got.tgz:8032.got - 2010.06.03 14:20:14.
