data_PCOD9442305
_publ_section_title
;
Structure prediction by ZEFSAII (Michael W. Deem and Ramdas Pophale) SiO2 
 PCOD9442305
Probable space group: P N N M
;
_chemical_formula_sum "Si O2"
_cell_formula_units_Z 40
_cell_length_a 8.791847
_cell_length_b 13.218287
_cell_length_c 17.930995
_cell_angle_alpha 90.000000
_cell_angle_beta 90.000000
_cell_angle_gamma 90.000000
_cell_volume 2083.817535
_symmetry_space_group_name_H-M "P N N M"
_symmetry_group_IT_number 58
_symmetry_cell_setting 'orthorhombic'
loop_
_space_group_symop_operation_xyz
x,y,z
-x,-y,z
1/2+x,1/2-y,1/2-z
1/2-x,1/2+y,1/2-z
-x,-y,-z
x,y,-z
1/2-x,1/2+y,1/2+z
1/2+x,1/2-y,1/2+z
loop_
_atom_site_type_symbol
_atom_site_label
_atom_site_fract_x
_atom_site_fract_y
_atom_site_fract_z
Si Si1 0.826891 0.522347 0.367202
Si Si2 0.345083 0.896710 0.301536
Si Si3 0.792700 0.391936 0.834407
Si Si4 0.865725 0.200046 0.918050
Si Si5 0.343038 0.671396 0.680992
O O1 0.816947 0.569794 0.283484
O O2 0.748816 0.606588 0.417079
O O3 0.743065 0.414823 0.364928
O O4 0.000000 0.500000 0.385735
O O5 0.529187 0.888313 0.307848
O O6 0.281867 0.786500 0.321429
O O7 0.278954 0.988614 0.351076
O O8 0.785331 0.305960 0.896834
O O9 0.680171 0.361684 0.767058
O O10 0.989279 0.176195 0.853924
O O11 0.937771 0.209441 0.000000
#
# Coordination Sequence:
#
# PCOD9442305 Si02
#       5
#     8   8   8   8   8
#     4  11  20  35  57  82 118 155 197 239 287 344
#     4   9  16  32  56  88 109 140 201 243 276 338
#     4   9  17  34  59  81 113 149 195 239 283 342
#     4  11  24  38  56  87 124 154 189 240 299 348
#     4  10  19  34  59  83 116 151 196 245 282 337
#
# _framework density 19.195539
#
# number of rings (size 3 to 8) (size 9 to 14) (size 15 to 20)
#    0.000    2.000    6.000    0.600    0.000    2.000 
#    0.000    8.000    0.000    0.000    0.000    1.400 
#    0.000    0.000    0.000    0.000    0.000    0.000 
#
# Total GULP energy -222764.174447 kJ/mol
# GULP energy per Si atom -5569.104361 kJ/mol
# Density = 1.915185 g / cm^3
# Si number density = 19.195539 Si / 1000 Ang^3
#
#
#
# Elastic Constant Matrix: (Units=GPa)
#
#
# Indices 1 2 3 4 5 6 
#
# 1 41.5058 41.9489 22.3651 0.0000 0.0000 0.0000
# 2 41.9489 181.8919 37.9209 0.0000 0.0000 0.0000
# 3 22.3651 37.9209 38.9780 0.0000 0.0000 0.0000
# 4 0.0000 0.0000 0.0000 -9.4331 0.0000 0.0000
# 5 0.0000 0.0000 0.0000 0.0000 -17.0960 0.0000
# 6 0.0000 0.0000 0.0000 0.0000 0.0000 22.7995
#
#
#
# Elastic Compliance Matrix: (Units=1/GPa)
#
#
# Indices 1 2 3 4 5 6 
#
# 1 0.038667 -0.005384 -0.016949 0.000000 0.000000 0.000000
# 2 -0.005384 0.007646 -0.004350 0.000000 0.000000 0.000000
# 3 -0.016949 -0.004350 0.039612 0.000000 0.000000 0.000000
# 4 0.000000 0.000000 0.000000 -0.106010 0.000000 0.000000
# 5 0.000000 0.000000 0.000000 0.000000 -0.058493 0.000000
# 6 0.000000 0.000000 0.000000 0.000000 0.000000 0.043861
#
#
# Mechanical properties :
#
#
# Convention : Reuss Voigt Hill
#
# Bulk Modulus (GPa) = 30.71171 51.87170 41.29170
# Shear Modulus (GPa) = 169.48428 9.93015 89.70722
#
# Velocity S-wave (km/s) = 9.40666 2.27692 6.84360
# Velocity P-wave (km/s) = 11.57646 5.83043 9.16538
#
# Compressibility (1/GPa) = 0.03256087
#
# Stress axis : x y z
#
# Youngs Moduli (GPa) = 25.86160 130.78219 25.24489
#
# Poissons Ratio (x) = 0.70416 0.42787
# Poissons Ratio (y) = 0.13924 0.10980
# Poissons Ratio (z) = 0.43832 0.56884
#
# Static dielectric constant tensor:
#      x y z
#    x 1.669170 0.000000 0.000000 
#    y 0.000000 1.731520 0.000000 
#    z 0.000000 0.000000 1.664380 
# 
# From -- ./inp_files/24934.got.cif
#   From: 2010.05.17/outbox.cif.g08.bks.cpg/sg58_13_cif.got.tgz:24934.got - 2010.06.03 14:20:14.
