data_PCOD9442589
_publ_section_title
;
Structure prediction by ZEFSAII (Michael W. Deem and Ramdas Pophale) SiO2 
 PCOD9442589
Probable space group: P N N M
;
_chemical_formula_sum "Si O2"
_cell_formula_units_Z 64
_cell_length_a 12.000811
_cell_length_b 19.124621
_cell_length_c 14.373740
_cell_angle_alpha 90.000000
_cell_angle_beta 90.000000
_cell_angle_gamma 90.000000
_cell_volume 3298.930896
_symmetry_space_group_name_H-M "P N N M"
_symmetry_group_IT_number 58
_symmetry_cell_setting 'orthorhombic'
loop_
_space_group_symop_operation_xyz
x,y,z
-x,-y,z
1/2+x,1/2-y,1/2-z
1/2-x,1/2+y,1/2-z
-x,-y,-z
x,y,-z
1/2-x,1/2+y,1/2+z
1/2+x,1/2-y,1/2+z
loop_
_atom_site_type_symbol
_atom_site_label
_atom_site_fract_x
_atom_site_fract_y
_atom_site_fract_z
Si Si1 0.900214 0.945026 0.390830
Si Si2 0.943302 0.844365 0.887132
Si Si3 0.517897 0.923147 0.740750
Si Si4 0.857158 0.063371 0.892644
Si Si5 0.422563 0.200541 0.611577
Si Si6 0.231876 0.070597 0.212468
Si Si7 0.161368 0.206668 0.388809
Si Si8 0.632354 0.140815 0.891517
O O1 0.870142 0.953612 0.500000
O O2 0.801662 0.953513 0.316971
O O3 0.917018 0.861174 0.375744
O O4 0.000000 0.000000 0.372127
O O5 0.833189 0.861472 0.827823
O O6 0.028092 0.905790 0.855483
O O7 0.009021 0.772012 0.869560
O O8 0.924616 0.848514 0.000000
O O9 0.517994 0.863199 0.663474
O O10 0.637530 0.919290 0.790264
O O11 0.428061 0.910293 0.821041
O O12 0.500000 0.000000 0.699925
O O13 0.763680 0.123782 0.888089
O O14 0.809179 0.994352 0.848087
O O15 0.877180 0.047816 0.000000
O O16 0.422672 0.191283 0.500000
O O17 0.291200 0.199811 0.642167
O O18 0.171128 0.215086 0.500000
O O19 0.112397 0.280235 0.356711
O O20 0.598174 0.132406 0.000000
#
# Coordination Sequence:
#
# PCOD9442589 Si02
#       8
#     8   8   8   8   8   8   8   8
#     4  10  21  37  60  89 121 161 208 253 303 358
#     4  10  21  38  64  94 119 150 196 254 321 370
#     4  12  26  40  57  86 120 166 211 239 296 372
#     4  10  19  36  62  90 122 155 195 249 310 376
#     4  10  21  40  65  88 115 155 203 254 307 365
#     4  12  23  37  58  92 126 159 198 256 306 360
#     4   9  17  36  63  87 114 154 202 249 305 362
#     4  10  21  38  62  88 120 162 202 246 301 376
#
# _framework density 19.400226
#
# number of rings (size 3 to 8) (size 9 to 14) (size 15 to 20)
#    0.000    1.625    3.750    1.500    1.750    2.500 
#    0.000    0.000    0.000    0.000    0.000    0.000 
#    0.000    0.000    0.000    0.000    0.000    0.000 
#
# Total GULP energy -356778.502264 kJ/mol
# GULP energy per Si atom -5574.664098 kJ/mol
# Density = 1.935607 g / cm^3
# Si number density = 19.400226 Si / 1000 Ang^3
#
#
#
# Elastic Constant Matrix: (Units=GPa)
#
#
# Indices 1 2 3 4 5 6 
#
# 1 62.6931 13.4030 12.2592 0.0000 0.0000 0.0000
# 2 13.4030 101.7177 16.9163 0.0000 0.0000 0.0000
# 3 12.2592 16.9163 40.1406 0.0000 0.0000 0.0000
# 4 0.0000 0.0000 0.0000 28.5279 0.0000 0.0000
# 5 0.0000 0.0000 0.0000 0.0000 19.7987 0.0000
# 6 0.0000 0.0000 0.0000 0.0000 0.0000 31.6769
#
#
#
# Elastic Compliance Matrix: (Units=1/GPa)
#
#
# Indices 1 2 3 4 5 6 
#
# 1 0.017173 -0.001495 -0.004614 0.000000 0.000000 0.000000
# 2 -0.001495 0.010702 -0.004054 0.000000 0.000000 0.000000
# 3 -0.004614 -0.004054 0.028030 0.000000 0.000000 0.000000
# 4 0.000000 0.000000 0.000000 0.035053 0.000000 0.000000
# 5 0.000000 0.000000 0.000000 0.000000 0.050508 0.000000
# 6 0.000000 0.000000 0.000000 0.000000 0.000000 0.031569
#
#
# Mechanical properties :
#
#
# Convention : Reuss Voigt Hill
#
# Bulk Modulus (GPa) = 28.10705 32.18982 30.14843
# Shear Modulus (GPa) = 24.36389 26.79889 25.58139
#
# Velocity S-wave (km/s) = 3.54765 3.72071 3.63521
# Velocity P-wave (km/s) = 5.59469 5.92341 5.76139
#
# Compressibility (1/GPa) = 0.03557827
#
# Stress axis : x y z
#
# Youngs Moduli (GPa) = 58.23182 93.43786 35.67608
#
# Poissons Ratio (x) = 0.13972 0.16463
# Poissons Ratio (y) = 0.08708 0.14461
# Poissons Ratio (z) = 0.26871 0.37875
#
# Static dielectric constant tensor:
#      x y z
#    x 1.663780 0.000000 0.000000 
#    y 0.000000 1.736630 0.000000 
#    z 0.000000 0.000000 1.685090 
# 
# From -- ./inp_files/21525.got.cif
#   From: 2010.05.17/outbox.cif.g08.bks.cpg/sg58_11_cif.got.tgz:21525.got - 2010.06.03 14:20:14.
