data_PCOD9442156
_publ_section_title
;
Structure prediction by ZEFSAII (Michael W. Deem and Ramdas Pophale) SiO2 
 PCOD9442156
Probable space group: P N N M
;
_chemical_formula_sum "Si O2"
_cell_formula_units_Z 40
_cell_length_a 26.338344
_cell_length_b 9.961018
_cell_length_c 8.261780
_cell_angle_alpha 90.000000
_cell_angle_beta 90.000000
_cell_angle_gamma 90.000000
_cell_volume 2167.533491
_symmetry_space_group_name_H-M "P N N M"
_symmetry_group_IT_number 58
_symmetry_cell_setting 'orthorhombic'
loop_
_space_group_symop_operation_xyz
x,y,z
-x,-y,z
1/2+x,1/2-y,1/2-z
1/2-x,1/2+y,1/2-z
-x,-y,-z
x,y,-z
1/2-x,1/2+y,1/2+z
1/2+x,1/2-y,1/2+z
loop_
_atom_site_type_symbol
_atom_site_label
_atom_site_fract_x
_atom_site_fract_y
_atom_site_fract_z
Si Si1 0.643410 0.195045 0.688486
Si Si2 0.138027 0.720942 0.302862
Si Si3 0.776652 0.488257 0.309420
Si Si4 0.558217 0.999788 0.803844
Si Si5 0.836446 0.986098 0.309634
O O1 0.652479 0.170151 0.500000
O O2 0.644282 0.352294 0.723984
O O3 0.688575 0.119503 0.783910
O O4 0.591162 0.124360 0.740695
O O5 0.138743 0.722986 0.500000
O O6 0.187985 0.636291 0.254580
O O7 0.089330 0.633512 0.253506
O O8 0.140327 0.873848 0.247113
O O9 0.765610 0.471770 0.500000
O O10 0.724095 0.495697 0.215990
O O11 0.500000 0.000000 0.750254
O O12 0.559044 0.004687 0.000000
O O13 0.847526 0.973980 0.500000
#
# Coordination Sequence:
#
# PCOD9442156 Si02
#       5
#     8   8   8   8   8
#     4  11  22  35  51  76 109 143 179 214 254 311
#     4   8  17  32  51  76 102 129 167 215 261 310
#     4  10  19  34  54  77 106 140 179 217 258 311
#     4   9  18  37  62  80  96 127 174 226 277 325
#     4  11  20  32  51  77 110 142 172 212 262 310
#
# _framework density 18.454155
#
# number of rings (size 3 to 8) (size 9 to 14) (size 15 to 20)
#    0.000    2.200    0.000    5.400    0.000    2.000 
#    0.000   10.000    0.000    6.000    0.000    0.000 
#    0.000    0.000    0.000    0.000    0.000    0.000 
#
# Total GULP energy -223322.028405 kJ/mol
# GULP energy per Si atom -5583.050710 kJ/mol
# Density = 1.841215 g / cm^3
# Si number density = 18.454155 Si / 1000 Ang^3
#
#
#
# Elastic Constant Matrix: (Units=GPa)
#
#
# Indices 1 2 3 4 5 6 
#
# 1 105.8913 55.2389 -3.1638 0.0000 0.0000 0.0000
# 2 55.2389 150.9619 -4.8531 0.0000 0.0000 0.0000
# 3 -3.1638 -4.8531 20.9690 0.0000 0.0000 0.0000
# 4 0.0000 0.0000 0.0000 17.8449 0.0000 0.0000
# 5 0.0000 0.0000 0.0000 0.0000 18.8904 0.0000
# 6 0.0000 0.0000 0.0000 0.0000 0.0000 2.1600
#
#
#
# Elastic Compliance Matrix: (Units=1/GPa)
#
#
# Indices 1 2 3 4 5 6 
#
# 1 0.011684 -0.004250 0.000779 0.000000 0.000000 0.000000
# 2 -0.004250 0.008220 0.001261 0.000000 0.000000 0.000000
# 3 0.000779 0.001261 0.048099 0.000000 0.000000 0.000000
# 4 0.000000 0.000000 0.000000 0.056038 0.000000 0.000000
# 5 0.000000 0.000000 0.000000 0.000000 0.052937 0.000000
# 6 0.000000 0.000000 0.000000 0.000000 0.000000 0.462956
#
#
# Mechanical properties :
#
#
# Convention : Reuss Voigt Hill
#
# Bulk Modulus (GPa) = 15.72748 41.36293 28.54520
# Shear Modulus (GPa) = 7.51260 23.15243 15.33252
#
# Velocity S-wave (km/s) = 2.01985 3.54586 2.88556
# Velocity P-wave (km/s) = 3.73908 6.26313 5.15788
#
# Compressibility (1/GPa) = 0.06358298
#
# Stress axis : x y z
#
# Youngs Moduli (GPa) = 85.58614 121.65479 20.79053
#
# Poissons Ratio (x) = 0.51707 -0.01620
# Poissons Ratio (y) = 0.36377 -0.02622
# Poissons Ratio (z) = -0.06669 -0.15343
#
# Static dielectric constant tensor:
#      x y z
#    x 1.607370 0.000000 0.000000 
#    y 0.000000 1.642030 0.000000 
#    z 0.000000 0.000000 1.625430 
# 
# From -- ./inp_files/2403.got.cif
#   From: 2010.05.17/outbox.cif.g08.bks.cpg/sg58_2_cif.got.tgz:2403.got - 2010.06.03 14:20:14.
