data_PCOD9442471
_publ_section_title
;
Structure prediction by ZEFSAII (Michael W. Deem and Ramdas Pophale) SiO2 
 PCOD9442471
Probable space group: P N N M
;
_chemical_formula_sum "Si O2"
_cell_formula_units_Z 40
_cell_length_a 13.709704
_cell_length_b 10.447038
_cell_length_c 13.406893
_cell_angle_alpha 90.000000
_cell_angle_beta 90.000000
_cell_angle_gamma 90.000000
_cell_volume 1920.212957
_symmetry_space_group_name_H-M "P N N M"
_symmetry_group_IT_number 58
_symmetry_cell_setting 'orthorhombic'
loop_
_space_group_symop_operation_xyz
x,y,z
-x,-y,z
1/2+x,1/2-y,1/2-z
1/2-x,1/2+y,1/2-z
-x,-y,-z
x,y,-z
1/2-x,1/2+y,1/2+z
1/2+x,1/2-y,1/2+z
loop_
_atom_site_type_symbol
_atom_site_label
_atom_site_fract_x
_atom_site_fract_y
_atom_site_fract_z
Si Si1 0.931205 0.154131 0.209418
Si Si2 0.587842 0.346784 0.885234
Si Si3 0.880644 0.879555 0.885780
Si Si4 0.729634 0.866397 0.740984
Si Si5 0.888073 0.543141 0.386890
O O1 0.848850 0.260967 0.209832
O O2 0.991582 0.138966 0.314321
O O3 0.017501 0.190075 0.133255
O O4 0.891841 0.018847 0.167468
O O5 0.689162 0.405360 0.841471
O O6 0.612089 0.195631 0.882432
O O7 0.570231 0.383076 0.000000
O O8 0.796432 0.806291 0.828522
O O9 0.861941 0.898982 0.000000
O O10 0.673803 0.979900 0.798738
O O11 0.855995 0.504771 0.500000
O O12 0.000000 0.500000 0.376499
#
# Coordination Sequence:
#
# PCOD9442471 Si02
#       5
#     8   8   8   8   8
#     4  10  20  37  60  87 119 153 192 246 293 340
#     4  10  22  38  59  87 118 156 197 238 295 351
#     4  10  22  40  63  90 114 153 204 243 284 347
#     4  11  21  34  59  92 119 150 192 247 294 340
#     4  10  19  35  61  89 113 148 199 246 285 341
#
# _framework density 20.831022999999998
#
# number of rings (size 3 to 8) (size 9 to 14) (size 15 to 20)
#    0.000    1.800    2.000    3.000    0.000    4.000 
#    0.000    8.000    0.000   29.400    0.000    0.000 
#    0.000    0.000    0.000    0.000    0.000    0.000 
#
# Total GULP energy -223087.643083 kJ/mol
# GULP energy per Si atom -5577.191077 kJ/mol
# Density = 2.078361 g / cm^3
# Si number density = 20.831023 Si / 1000 Ang^3
#
#
#
# Elastic Constant Matrix: (Units=GPa)
#
#
# Indices 1 2 3 4 5 6 
#
# 1 104.3864 15.9936 24.0641 0.0000 0.0000 0.0000
# 2 15.9936 32.9905 3.9487 0.0000 0.0000 0.0000
# 3 24.0641 3.9487 112.2997 0.0000 0.0000 0.0000
# 4 0.0000 0.0000 0.0000 25.0842 0.0000 0.0000
# 5 0.0000 0.0000 0.0000 0.0000 -30.9164 0.0000
# 6 0.0000 0.0000 0.0000 0.0000 0.0000 31.2678
#
#
#
# Elastic Compliance Matrix: (Units=1/GPa)
#
#
# Indices 1 2 3 4 5 6 
#
# 1 0.010841 -0.004998 -0.002147 0.000000 0.000000 0.000000
# 2 -0.004998 0.032745 -0.000080 0.000000 0.000000 0.000000
# 3 -0.002147 -0.000080 0.009368 0.000000 0.000000 0.000000
# 4 0.000000 0.000000 0.000000 0.039866 0.000000 0.000000
# 5 0.000000 0.000000 0.000000 0.000000 -0.032345 0.000000
# 6 0.000000 0.000000 0.000000 0.000000 0.000000 0.031982
#
#
# Mechanical properties :
#
#
# Convention : Reuss Voigt Hill
#
# Bulk Modulus (GPa) = 25.97340 37.52106 31.74723
# Shear Modulus (GPa) = 41.75688 18.79846 30.27767
#
# Velocity S-wave (km/s) = 4.48208 3.00730 3.81660
# Velocity P-wave (km/s) = 6.26746 5.48723 5.89028
#
# Compressibility (1/GPa) = 0.03850093
#
# Stress axis : x y z
#
# Youngs Moduli (GPa) = 92.24556 30.53942 106.74998
#
# Poissons Ratio (x) = 0.15265 0.22922
# Poissons Ratio (y) = 0.46109 0.00857
# Poissons Ratio (z) = 0.19807 0.00245
#
# Static dielectric constant tensor:
#      x y z
#    x 1.816390 0.000000 0.000000 
#    y 0.000000 1.767660 0.000000 
#    z 0.000000 0.000000 1.781520 
# 
# From -- ./inp_files/15369.got.cif
#   From: 2010.05.17/outbox.cif.g08.bks.cpg/sg58_8_cif.got.tgz:15369.got - 2010.06.03 14:20:14.
