data_PCOD9442951
_publ_section_title
;
Structure prediction by ZEFSAII (Michael W. Deem and Ramdas Pophale) SiO2 
 PCOD9442951
Probable space group: P N N M
;
_chemical_formula_sum "Si O2"
_cell_formula_units_Z 48
_cell_length_a 10.676175
_cell_length_b 27.455383
_cell_length_c 7.639971
_cell_angle_alpha 90.000000
_cell_angle_beta 90.000000
_cell_angle_gamma 90.000000
_cell_volume 2239.416638
_symmetry_space_group_name_H-M "P N N M"
_symmetry_group_IT_number 58
_symmetry_cell_setting 'orthorhombic'
loop_
_space_group_symop_operation_xyz
x,y,z
-x,-y,z
1/2+x,1/2-y,1/2-z
1/2-x,1/2+y,1/2-z
-x,-y,-z
x,y,-z
1/2-x,1/2+y,1/2+z
1/2+x,1/2-y,1/2+z
loop_
_atom_site_type_symbol
_atom_site_label
_atom_site_fract_x
_atom_site_fract_y
_atom_site_fract_z
Si Si1 0.889942 0.696083 0.289212
Si Si2 0.356357 0.361058 0.715056
Si Si3 0.619575 0.528699 0.294594
Si Si4 0.626640 0.974606 0.707061
Si Si5 0.135732 0.639318 0.288073
Si Si6 0.889098 0.810080 0.209175
O O1 0.890899 0.692700 0.500000
O O2 0.767646 0.667200 0.226073
O O3 0.884168 0.752758 0.243900
O O4 0.016926 0.670481 0.225168
O O5 0.353771 0.360568 0.500000
O O6 0.359740 0.416956 0.775902
O O7 0.481818 0.333562 0.773887
O O8 0.500000 0.500000 0.218632
O O9 0.591442 0.535950 0.500000
O O10 0.746334 0.497782 0.280802
O O11 0.630866 0.983620 0.500000
O O12 0.623276 0.917034 0.739353
O O13 0.500000 0.000000 0.777013
O O14 0.136655 0.641713 0.500000
O O15 0.265590 0.662573 0.223080
O O16 0.889396 0.816911 0.000000
#
# Coordination Sequence:
#
# PCOD9442951 Si02
#       6
#     8   8   8   8   8   8
#     4  10  20  34  53  78 107 140 179 220 267 323
#     4   9  18  33  53  77 105 137 173 216 266 321
#     4  10  20  37  62  86 109 144 189 233 280 336
#     4  11  24  39  56  83 117 150 186 232 287 340
#     4  10  21  37  57  80 107 144 189 230 270 328
#     4  10  20  35  55  79 107 138 176 222 270 322
#
# _framework density 21.434156000000002
#
# number of rings (size 3 to 8) (size 9 to 14) (size 15 to 20)
#    0.000    2.000    0.000    3.500    0.000    7.000 
#    0.000    1.667    0.000    0.000    0.000    0.000 
#    0.000    0.000    0.000    0.000    0.000    0.000 
#
# Total GULP energy -268334.410828 kJ/mol
# GULP energy per Si atom -5590.300226 kJ/mol
# Density = 2.138537 g / cm^3
# Si number density = 21.434156 Si / 1000 Ang^3
#
#
#
# Elastic Constant Matrix: (Units=GPa)
#
#
# Indices 1 2 3 4 5 6 
#
# 1 160.1352 61.0732 -11.2365 0.0000 0.0000 0.0000
# 2 61.0732 148.7515 -23.5163 0.0000 0.0000 0.0000
# 3 -11.2365 -23.5163 35.6525 0.0000 0.0000 0.0000
# 4 0.0000 0.0000 0.0000 31.1911 0.0000 0.0000
# 5 0.0000 0.0000 0.0000 0.0000 4.8250 0.0000
# 6 0.0000 0.0000 0.0000 0.0000 0.0000 44.2061
#
#
#
# Elastic Compliance Matrix: (Units=1/GPa)
#
#
# Indices 1 2 3 4 5 6 
#
# 1 0.007408 -0.002984 0.000367 0.000000 0.000000 0.000000
# 2 -0.002984 0.008707 0.004803 0.000000 0.000000 0.000000
# 3 0.000367 0.004803 0.031332 0.000000 0.000000 0.000000
# 4 0.000000 0.000000 0.000000 0.032060 0.000000 0.000000
# 5 0.000000 0.000000 0.000000 0.000000 0.207252 0.000000
# 6 0.000000 0.000000 0.000000 0.000000 0.000000 0.022621
#
#
# Mechanical properties :
#
#
# Convention : Reuss Voigt Hill
#
# Bulk Modulus (GPa) = 19.29793 44.13112 31.71452
# Shear Modulus (GPa) = 15.51434 37.25901 26.38667
#
# Velocity S-wave (km/s) = 2.69330 4.17382 3.51245
# Velocity P-wave (km/s) = 4.32374 6.62280 5.59268
#
# Compressibility (1/GPa) = 0.05181903
#
# Stress axis : x y z
#
# Youngs Moduli (GPa) = 134.98190 114.85136 31.91624
#
# Poissons Ratio (x) = 0.34268 -0.01171
# Poissons Ratio (y) = 0.40274 -0.15328
# Poissons Ratio (z) = -0.04952 -0.55160
#
# Static dielectric constant tensor:
#      x y z
#    x 1.755960 0.000000 0.000000 
#    y 0.000000 1.710080 0.000000 
#    z 0.000000 0.000000 1.810860 
# 
# From -- ./inp_files/2962.got.cif
#   From: 2010.05.17/outbox.cif.g08.bks.cpg/sg58_2_cif.got.tgz:2962.got - 2010.06.03 14:20:14.
