data_PCOD9442966
_publ_section_title
;
Structure prediction by ZEFSAII (Michael W. Deem and Ramdas Pophale) SiO2 
 PCOD9442966
Probable space group: P N N M
;
_chemical_formula_sum "Si O2"
_cell_formula_units_Z 40
_cell_length_a 7.959435
_cell_length_b 9.884221
_cell_length_c 24.567501
_cell_angle_alpha 90.000000
_cell_angle_beta 90.000000
_cell_angle_gamma 90.000000
_cell_volume 1932.794451
_symmetry_space_group_name_H-M "P N N M"
_symmetry_group_IT_number 58
_symmetry_cell_setting 'orthorhombic'
loop_
_space_group_symop_operation_xyz
x,y,z
-x,-y,z
1/2+x,1/2-y,1/2-z
1/2-x,1/2+y,1/2-z
-x,-y,-z
x,y,-z
1/2-x,1/2+y,1/2+z
1/2+x,1/2-y,1/2+z
loop_
_atom_site_type_symbol
_atom_site_label
_atom_site_fract_x
_atom_site_fract_y
_atom_site_fract_z
Si Si1 0.695112 0.955266 0.063854
Si Si2 0.284861 0.590612 0.156308
Si Si3 0.852390 0.202120 0.636710
Si Si4 0.869258 0.136548 0.848826
Si Si5 0.720052 0.407613 0.714349
O O1 0.703368 0.805934 0.090088
O O2 0.500000 0.000000 0.072350
O O3 0.819991 0.055405 0.096407
O O4 0.730004 0.955659 0.000000
O O5 0.458318 0.647465 0.131218
O O6 0.248963 0.436901 0.140027
O O7 0.154491 0.706061 0.141915
O O8 0.303400 0.591445 0.221787
O O9 0.842633 0.292391 0.691800
O O10 0.048624 0.124418 0.818946
O O11 0.741451 0.060223 0.806538
#
# Coordination Sequence:
#
# PCOD9442966 Si02
#       5
#     8   8   8   8   8
#     4  10  20  39  60  78 101 142 193 240 276 325
#     4  11  19  34  54  81 118 149 175 222 269 329
#     4  10  21  34  52  82 111 142 185 224 271 328
#     4  10  20  35  54  81 109 146 187 222 267 328
#     4  10  20  34  53  82 116 150 178 217 266 336
#
# _framework density 20.695423000000002
#
# number of rings (size 3 to 8) (size 9 to 14) (size 15 to 20)
#    0.000    1.800    2.000    4.800    0.000    0.800 
#    0.000   15.000    0.000    0.000    0.000   14.000 
#    0.000    0.000    0.000    0.000    0.000    0.000 
#
# Total GULP energy -223026.607875 kJ/mol
# GULP energy per Si atom -5575.665197 kJ/mol
# Density = 2.064832 g / cm^3
# Si number density = 20.695423 Si / 1000 Ang^3
#
#
#
# Elastic Constant Matrix: (Units=GPa)
#
#
# Indices 1 2 3 4 5 6 
#
# 1 43.3257 35.4357 24.2164 0.0000 0.0000 0.0000
# 2 35.4357 156.0705 46.0490 0.0000 0.0000 0.0000
# 3 24.2164 46.0490 134.5867 0.0000 0.0000 0.0000
# 4 0.0000 0.0000 0.0000 13.5107 0.0000 0.0000
# 5 0.0000 0.0000 0.0000 0.0000 25.6031 0.0000
# 6 0.0000 0.0000 0.0000 0.0000 0.0000 24.7093
#
#
#
# Elastic Compliance Matrix: (Units=1/GPa)
#
#
# Indices 1 2 3 4 5 6 
#
# 1 0.029660 -0.005739 -0.003373 0.000000 0.000000 0.000000
# 2 -0.005739 0.008237 -0.001786 0.000000 0.000000 0.000000
# 3 -0.003373 -0.001786 0.008648 0.000000 0.000000 0.000000
# 4 0.000000 0.000000 0.000000 0.074015 0.000000 0.000000
# 5 0.000000 0.000000 0.000000 0.000000 0.039058 0.000000
# 6 0.000000 0.000000 0.000000 0.000000 0.000000 0.040471
#
#
# Mechanical properties :
#
#
# Convention : Reuss Voigt Hill
#
# Bulk Modulus (GPa) = 40.40463 60.59836 50.50149
# Shear Modulus (GPa) = 21.72634 27.98340 24.85487
#
# Velocity S-wave (km/s) = 3.24360 3.68115 3.46928
# Velocity P-wave (km/s) = 5.79601 6.88567 6.36421
#
# Compressibility (1/GPa) = 0.02474964
#
# Stress axis : x y z
#
# Youngs Moduli (GPa) = 33.71507 121.39878 115.63231
#
# Poissons Ratio (x) = 0.69672 0.39005
# Poissons Ratio (y) = 0.19349 0.20649
# Poissons Ratio (z) = 0.11373 0.21679
#
# Static dielectric constant tensor:
#      x y z
#    x 1.841380 0.000000 0.000000 
#    y 0.000000 2.011100 0.000000 
#    z 0.000000 0.000000 1.702970 
# 
# From -- ./inp_files/31275.got.cif
#   From: 2010.05.17/outbox.cif.g08.bks.cpg/sg58_16_cif.got.tgz:31275.got - 2010.06.03 14:20:14.
