data_PCOD9442788
_publ_section_title
;
Structure prediction by ZEFSAII (Michael W. Deem and Ramdas Pophale) SiO2 
 PCOD9442788
Probable space group: P N N M
;
_chemical_formula_sum "Si O2"
_cell_formula_units_Z 64
_cell_length_a 12.443628
_cell_length_b 31.755797
_cell_length_c 7.285488
_cell_angle_alpha 90.000000
_cell_angle_beta 90.000000
_cell_angle_gamma 90.000000
_cell_volume 2878.913947
_symmetry_space_group_name_H-M "P N N M"
_symmetry_group_IT_number 58
_symmetry_cell_setting 'orthorhombic'
loop_
_space_group_symop_operation_xyz
x,y,z
-x,-y,z
1/2+x,1/2-y,1/2-z
1/2-x,1/2+y,1/2-z
-x,-y,-z
x,y,-z
1/2-x,1/2+y,1/2+z
1/2+x,1/2-y,1/2+z
loop_
_atom_site_type_symbol
_atom_site_label
_atom_site_fract_x
_atom_site_fract_y
_atom_site_fract_z
Si Si1 0.600072 0.375960 0.224090
Si Si2 0.507759 0.832263 0.276408
Si Si3 0.852942 0.128023 0.275918
Si Si4 0.750868 0.953460 0.276472
Si Si5 0.010616 0.570340 0.777336
Si Si6 0.221751 0.454663 0.776484
Si Si7 0.787369 0.707127 0.220530
Si Si8 0.260439 0.195771 0.715498
O O1 0.476474 0.375211 0.282914
O O2 0.666535 0.417350 0.281886
O O3 0.666318 0.334694 0.285539
O O4 0.597657 0.376230 0.000000
O O5 0.507666 0.830690 0.500000
O O6 0.494204 0.880964 0.227470
O O7 0.406003 0.805525 0.214229
O O8 0.622418 0.815869 0.209920
O O9 0.851792 0.127938 0.500000
O O10 0.783730 0.087367 0.217976
O O11 0.796560 0.171487 0.216715
O O12 0.750736 0.952170 0.500000
O O13 0.628722 0.943522 0.216802
O O14 0.775483 0.001340 0.221494
O O15 0.903393 0.546063 0.718674
O O16 0.012836 0.567490 0.000000
O O17 0.221146 0.453765 0.000000
O O18 0.760599 0.754926 0.266713
O O19 0.787918 0.704620 0.000000
O O20 0.266097 0.185790 0.500000
#
# Coordination Sequence:
#
# PCOD9442788 Si02
#       8
#     8   8   8   8   8   8   8   8
#     4   9  17  28  40  57  85 119 150 181 223 273
#     4   9  16  29  47  64  87 120 153 187 228 272
#     4   9  17  28  40  57  85 119 150 181 223 273
#     4   9  15  22  35  56  82 114 149 181 216 264
#     4   9  13  22  37  55  81 112 146 181 219 263
#     4   9  15  22  35  56  82 114 149 181 216 264
#     4  10  20  33  49  68  91 121 156 191 229 271
#     4  10  20  33  49  68  91 121 156 191 229 271
#
# _framework density 22.230606000000002
#
# number of rings (size 3 to 8) (size 9 to 14) (size 15 to 20)
#    0.000    2.750    2.500    0.375    1.750    2.000 
#    0.000    2.500    0.000    0.000    0.000    0.000 
#    0.000    1.000    0.000    4.500    0.000    5.000 
#
# Total GULP energy -357539.903920 kJ/mol
# GULP energy per Si atom -5586.560999 kJ/mol
# Density = 2.218001 g / cm^3
# Si number density = 22.230606 Si / 1000 Ang^3
#
#
#
# Elastic Constant Matrix: (Units=GPa)
#
#
# Indices 1 2 3 4 5 6 
#
# 1 143.2264 36.0875 0.5121 0.0000 0.0000 0.0000
# 2 36.0875 91.3348 -12.7600 0.0000 0.0000 0.0000
# 3 0.5121 -12.7600 91.7302 0.0000 0.0000 0.0000
# 4 0.0000 0.0000 0.0000 2.4001 0.0000 0.0000
# 5 0.0000 0.0000 0.0000 0.0000 -19.3651 0.0000
# 6 0.0000 0.0000 0.0000 0.0000 0.0000 19.0406
#
#
#
# Elastic Compliance Matrix: (Units=1/GPa)
#
#
# Indices 1 2 3 4 5 6 
#
# 1 0.007775 -0.003139 -0.000480 0.000000 0.000000 0.000000
# 2 -0.003139 0.012433 0.001747 0.000000 0.000000 0.000000
# 3 -0.000480 0.001747 0.011147 0.000000 0.000000 0.000000
# 4 0.000000 0.000000 0.000000 0.416649 0.000000 0.000000
# 5 0.000000 0.000000 0.000000 0.000000 -0.051639 0.000000
# 6 0.000000 0.000000 0.000000 0.000000 0.000000 0.052519
#
#
# Mechanical properties :
#
#
# Convention : Reuss Voigt Hill
#
# Bulk Modulus (GPa) = 36.21749 41.55228 38.88489
# Shear Modulus (GPa) = 10.82648 20.57858 15.70253
#
# Velocity S-wave (km/s) = 2.20922 3.04581 2.66060
# Velocity P-wave (km/s) = 4.77856 5.57686 5.19307
#
# Compressibility (1/GPa) = 0.02761097
#
# Stress axis : x y z
#
# Youngs Moduli (GPa) = 128.62494 80.43108 89.70834
#
# Poissons Ratio (x) = 0.25246 0.04306
# Poissons Ratio (y) = 0.40374 -0.15672
# Poissons Ratio (z) = 0.06174 -0.14051
#
# Static dielectric constant tensor:
#      x y z
#    x 1.771530 0.000000 0.000000 
#    y 0.000000 1.768380 0.000000 
#    z 0.000000 0.000000 2.074900 
# 
# From -- ./inp_files/14903.got.cif
#   From: 2010.05.17/outbox.cif.g08.bks.cpg/sg58_8_cif.got.tgz:14903.got - 2010.06.03 14:20:14.
