data_PCOD9442993
_publ_section_title
;
Structure prediction by ZEFSAII (Michael W. Deem and Ramdas Pophale) SiO2 
 PCOD9442993
Probable space group: P N N M
;
_chemical_formula_sum "Si O2"
_cell_formula_units_Z 64
_cell_length_a 14.216425
_cell_length_b 24.949942
_cell_length_c 9.316035
_cell_angle_alpha 90.000000
_cell_angle_beta 90.000000
_cell_angle_gamma 90.000000
_cell_volume 3304.388105
_symmetry_space_group_name_H-M "P N N M"
_symmetry_group_IT_number 58
_symmetry_cell_setting 'orthorhombic'
loop_
_space_group_symop_operation_xyz
x,y,z
-x,-y,z
1/2+x,1/2-y,1/2-z
1/2-x,1/2+y,1/2-z
-x,-y,-z
x,y,-z
1/2-x,1/2+y,1/2+z
1/2+x,1/2-y,1/2+z
loop_
_atom_site_type_symbol
_atom_site_label
_atom_site_fract_x
_atom_site_fract_y
_atom_site_fract_z
Si Si1 0.545971 0.174380 0.333796
Si Si2 0.957082 0.902860 0.670443
Si Si3 0.604616 0.883647 0.167344
Si Si4 0.760763 0.280976 0.666580
Si Si5 0.566337 0.281544 0.830159
Si Si6 0.220364 0.049571 0.829139
Si Si7 0.228725 0.838800 0.664479
Si Si8 0.863668 0.065766 0.168999
O O1 0.520539 0.179572 0.500000
O O2 0.486768 0.127215 0.261047
O O3 0.526338 0.230313 0.252633
O O4 0.657861 0.164259 0.324538
O O5 0.953227 0.911402 0.500000
O O6 0.978424 0.839783 0.696561
O O7 0.858077 0.917711 0.742431
O O8 0.039007 0.936795 0.744388
O O9 0.667919 0.829784 0.180433
O O10 0.675050 0.931326 0.210747
O O11 0.579208 0.890143 0.000000
O O12 0.725598 0.280715 0.500000
O O13 0.673528 0.286889 0.773405
O O14 0.804873 0.222204 0.689507
O O15 0.563605 0.271196 0.000000
O O16 0.198312 0.987238 0.806310
O O17 0.209653 0.061297 0.000000
O O18 0.203495 0.853770 0.500000
O O19 0.189415 0.882028 0.773178
O O20 0.883704 0.069535 0.000000
#
# Coordination Sequence:
#
# PCOD9442993 Si02
#       8
#     8   8   8   8   8   8   8   8
#     4  10  22  38  58  85 118 153 191 237 288 344
#     4  11  23  37  57  86 118 154 192 232 283 343
#     4  10  20  36  60  86 115 152 189 237 291 338
#     4   9  18  34  57  82 112 150 186 229 287 339
#     4  10  20  34  54  83 117 151 188 228 278 340
#     4  10  22  41  61  84 116 151 193 239 287 339
#     4   9  20  39  58  81 115 151 190 237 287 338
#     4  11  24  39  59  85 112 151 198 240 284 341
#
# _framework density 19.368185
#
# number of rings (size 3 to 8) (size 9 to 14) (size 15 to 20)
#    0.000    2.000    1.250    2.625    1.750    7.500 
#    0.000    0.625    0.000    3.750    0.000    0.000 
#    0.000    0.000    0.000    0.000    0.000    0.000 
#
# Total GULP energy -357528.998397 kJ/mol
# GULP energy per Si atom -5586.390600 kJ/mol
# Density = 1.932410 g / cm^3
# Si number density = 19.368185 Si / 1000 Ang^3
#
#
#
# Elastic Constant Matrix: (Units=GPa)
#
#
# Indices 1 2 3 4 5 6 
#
# 1 21.1658 -3.9158 9.8979 0.0000 0.0000 0.0000
# 2 -3.9158 52.9863 25.9254 0.0000 0.0000 0.0000
# 3 9.8979 25.9254 54.5166 0.0000 0.0000 0.0000
# 4 0.0000 0.0000 0.0000 4.1179 0.0000 0.0000
# 5 0.0000 0.0000 0.0000 0.0000 23.8316 0.0000
# 6 0.0000 0.0000 0.0000 0.0000 0.0000 30.4403
#
#
#
# Elastic Compliance Matrix: (Units=1/GPa)
#
#
# Indices 1 2 3 4 5 6 
#
# 1 0.057012 0.012091 -0.016101 0.000000 0.000000 0.000000
# 2 0.012091 0.027160 -0.015111 0.000000 0.000000 0.000000
# 3 -0.016101 -0.015111 0.028452 0.000000 0.000000 0.000000
# 4 0.000000 0.000000 0.000000 0.242841 0.000000 0.000000
# 5 0.000000 0.000000 0.000000 0.000000 0.041961 0.000000
# 6 0.000000 0.000000 0.000000 0.000000 0.000000 0.032851
#
#
# Mechanical properties :
#
#
# Convention : Reuss Voigt Hill
#
# Bulk Modulus (GPa) = 13.44391 21.38704 17.41547
# Shear Modulus (GPa) = 10.13551 18.12872 14.13211
#
# Velocity S-wave (km/s) = 2.29007 3.06274 2.70415
# Velocity P-wave (km/s) = 3.73482 4.85525 4.33142
#
# Compressibility (1/GPa) = 0.07438315
#
# Stress axis : x y z
#
# Youngs Moduli (GPa) = 17.54003 36.81868 35.14630
#
# Poissons Ratio (x) = -0.44519 0.56589
# Poissons Ratio (y) = -0.21208 0.53111
# Poissons Ratio (z) = 0.28241 0.55638
#
# Static dielectric constant tensor:
#      x y z
#    x 1.686260 0.000000 0.000000 
#    y 0.000000 1.687750 0.000000 
#    z 0.000000 0.000000 1.646360 
# 
# From -- ./inp_files/6815.got.cif
#   From: 2010.05.17/outbox.cif.g08.bks.cpg/sg58_4_cif.got.tgz:6815.got - 2010.06.03 14:20:14.
