data_PCOD9442667
_publ_section_title
;
Structure prediction by ZEFSAII (Michael W. Deem and Ramdas Pophale) SiO2 
 PCOD9442667
Probable space group: P N N M
;
_chemical_formula_sum "Si O2"
_cell_formula_units_Z 40
_cell_length_a 11.294305
_cell_length_b 7.242246
_cell_length_c 22.860566
_cell_angle_alpha 90.000000
_cell_angle_beta 90.000000
_cell_angle_gamma 90.000000
_cell_volume 1869.905947
_symmetry_space_group_name_H-M "P N N M"
_symmetry_group_IT_number 58
_symmetry_cell_setting 'orthorhombic'
loop_
_space_group_symop_operation_xyz
x,y,z
-x,-y,z
1/2+x,1/2-y,1/2-z
1/2-x,1/2+y,1/2-z
-x,-y,-z
x,y,-z
1/2-x,1/2+y,1/2+z
1/2+x,1/2-y,1/2+z
loop_
_atom_site_type_symbol
_atom_site_label
_atom_site_fract_x
_atom_site_fract_y
_atom_site_fract_z
Si Si1 0.790514 0.256883 0.340557
Si Si2 0.978464 0.280097 0.567153
Si Si3 0.313714 0.662704 0.152163
Si Si4 0.390170 0.418347 0.355428
Si Si5 0.496490 0.713879 0.236706
O O1 0.734570 0.539824 0.168946
O O2 0.686294 0.403513 0.335075
O O3 0.899795 0.313580 0.298615
O O4 0.849061 0.256037 0.404892
O O5 0.985469 0.223037 0.500000
O O6 0.076756 0.177215 0.606811
O O7 0.000000 0.500000 0.570733
O O8 0.208375 0.778558 0.122926
O O9 0.366624 0.761235 0.211408
O O10 0.500000 0.500000 0.391978
O O11 0.456106 0.307285 0.302499
O O12 0.500000 0.500000 0.216021
#
# Coordination Sequence:
#
# PCOD9442667 Si02
#       5
#     8   8   8   8   8
#     4  10  21  37  58  86 121 156 199 253 297 362
#     4  10  19  37  67  98 121 155 198 259 322 353
#     4  10  21  40  58  86 122 156 204 253 296 366
#     4  11  23  37  55  83 121 164 200 246 301 365
#     4   8  19  34  52  80 109 152 203 233 291 348
#
# _framework density 21.391449999999999
#
# number of rings (size 3 to 8) (size 9 to 14) (size 15 to 20)
#    0.000    2.200    2.000    1.800    8.400    2.400 
#    0.000    6.000    0.000    2.400    0.000    2.800 
#    0.000    0.000    0.000    0.000    0.000    0.000 
#
# Total GULP energy -222689.841767 kJ/mol
# GULP energy per Si atom -5567.246044 kJ/mol
# Density = 2.134276 g / cm^3
# Si number density = 21.391450 Si / 1000 Ang^3
#
#
#
# Elastic Constant Matrix: (Units=GPa)
#
#
# Indices 1 2 3 4 5 6 
#
# 1 89.5462 7.3966 -3.8859 0.0000 0.0000 0.0000
# 2 7.3966 83.8389 -14.1001 0.0000 0.0000 0.0000
# 3 -3.8859 -14.1001 68.0989 0.0000 0.0000 0.0000
# 4 0.0000 0.0000 0.0000 16.4957 0.0000 0.0000
# 5 0.0000 0.0000 0.0000 0.0000 11.5272 0.0000
# 6 0.0000 0.0000 0.0000 0.0000 0.0000 32.1257
#
#
#
# Elastic Compliance Matrix: (Units=1/GPa)
#
#
# Indices 1 2 3 4 5 6 
#
# 1 0.011263 -0.000918 0.000453 0.000000 0.000000 0.000000
# 2 -0.000918 0.012433 0.002522 0.000000 0.000000 0.000000
# 3 0.000453 0.002522 0.015233 0.000000 0.000000 0.000000
# 4 0.000000 0.000000 0.000000 0.060622 0.000000 0.000000
# 5 0.000000 0.000000 0.000000 0.000000 0.086751 0.000000
# 6 0.000000 0.000000 0.000000 0.000000 0.000000 0.031128
#
#
# Mechanical properties :
#
#
# Convention : Reuss Voigt Hill
#
# Bulk Modulus (GPa) = 23.23297 24.47833 23.85565
# Shear Modulus (GPa) = 21.96235 28.83463 25.39849
#
# Velocity S-wave (km/s) = 3.20767 3.67543 3.44949
# Velocity P-wave (km/s) = 4.96018 5.42951 5.20014
#
# Compressibility (1/GPa) = 0.04304228
#
# Stress axis : x y z
#
# Youngs Moduli (GPa) = 88.78745 80.43293 65.64901
#
# Poissons Ratio (x) = 0.07380 -0.02972
# Poissons Ratio (y) = 0.08146 -0.16556
# Poissons Ratio (z) = -0.04020 -0.20284
#
# Static dielectric constant tensor:
#      x y z
#    x 1.860730 0.000000 0.000000 
#    y 0.000000 1.846630 0.000000 
#    z 0.000000 0.000000 1.796740 
# 
# From -- ./inp_files/29407.got.cif
#   From: 2010.05.17/outbox.cif.g08.bks.cpg/sg58_15_cif.got.tgz:29407.got - 2010.06.03 14:20:14.
