data_PCOD9442201
_publ_section_title
;
Structure prediction by ZEFSAII (Michael W. Deem and Ramdas Pophale) SiO2 
 PCOD9442201
Probable space group: P N N M
;
_chemical_formula_sum "Si O2"
_cell_formula_units_Z 64
_cell_length_a 16.412638
_cell_length_b 22.174016
_cell_length_c 9.707877
_cell_angle_alpha 90.000000
_cell_angle_beta 90.000000
_cell_angle_gamma 90.000000
_cell_volume 3533.027456
_symmetry_space_group_name_H-M "P N N M"
_symmetry_group_IT_number 58
_symmetry_cell_setting 'orthorhombic'
loop_
_space_group_symop_operation_xyz
x,y,z
-x,-y,z
1/2+x,1/2-y,1/2-z
1/2-x,1/2+y,1/2-z
-x,-y,-z
x,y,-z
1/2-x,1/2+y,1/2+z
1/2+x,1/2-y,1/2+z
loop_
_atom_site_type_symbol
_atom_site_label
_atom_site_fract_x
_atom_site_fract_y
_atom_site_fract_z
Si Si1 0.680282 0.157018 0.841695
Si Si2 0.373062 0.148521 0.154728
Si Si3 0.305763 0.238507 0.652682
Si Si4 0.085516 0.534139 0.163493
Si Si5 0.244025 0.450618 0.162280
Si Si6 0.430993 0.449594 0.164307
Si Si7 0.467635 0.770586 0.842586
Si Si8 0.038769 0.828041 0.838083
O O1 0.727055 0.220234 0.839996
O O2 0.725666 0.108782 0.749801
O O3 0.591157 0.175867 0.792185
O O4 0.676563 0.135209 0.000000
O O5 0.305032 0.185503 0.237080
O O6 0.404703 0.092786 0.243187
O O7 0.445038 0.197693 0.147836
O O8 0.350393 0.130683 0.000000
O O9 0.314919 0.211537 0.500000
O O10 0.379167 0.287109 0.667560
O O11 0.167748 0.495022 0.189146
O O12 0.000000 0.500000 0.194630
O O13 0.083583 0.548546 0.000000
O O14 0.337321 0.471196 0.191088
O O15 0.241116 0.436465 0.000000
O O16 0.500000 0.500000 0.192290
O O17 0.447166 0.390146 0.255940
O O18 0.435927 0.434908 0.000000
O O19 0.473418 0.713585 0.742310
O O20 0.443578 0.753842 0.000000
O O21 0.020334 0.837808 0.000000
#
# Coordination Sequence:
#
# PCOD9442201 Si02
#       8
#     8   8   8   8   8   8   8   8
#     4  10  19  34  56  82 109 139 179 226 277 331
#     4  10  20  34  53  78 107 142 180 219 268 322
#     4   9  18  33  54  77 104 139 174 215 272 330
#     4  10  21  37  56  80 113 150 185 225 278 337
#     4  10  21  36  57  83 109 145 191 235 279 331
#     4  10  21  38  58  78 105 145 191 236 281 332
#     4   9  19  34  54  81 111 143 178 219 272 335
#     4  10  19  34  56  81 108 138 177 226 280 330
#
# _framework density 18.114775999999999
#
# number of rings (size 3 to 8) (size 9 to 14) (size 15 to 20)
#    0.000    2.250    1.250    1.500    0.000    3.000 
#    2.250    0.000    0.000    0.000    0.000    0.000 
#    0.000    0.000    0.000    0.000    0.000    0.000 
#
# Total GULP energy -356471.680716 kJ/mol
# GULP energy per Si atom -5569.870011 kJ/mol
# Density = 1.807355 g / cm^3
# Si number density = 18.114776 Si / 1000 Ang^3
#
#
#
# Elastic Constant Matrix: (Units=GPa)
#
#
# Indices 1 2 3 4 5 6 
#
# 1 73.6355 24.7880 35.4591 0.0000 0.0000 0.0000
# 2 24.7880 79.5259 70.1498 0.0000 0.0000 0.0000
# 3 35.4591 70.1498 86.1814 0.0000 0.0000 0.0000
# 4 0.0000 0.0000 0.0000 34.4010 0.0000 0.0000
# 5 0.0000 0.0000 0.0000 0.0000 9.5980 0.0000
# 6 0.0000 0.0000 0.0000 0.0000 0.0000 17.6572
#
#
#
# Elastic Compliance Matrix: (Units=1/GPa)
#
#
# Indices 1 2 3 4 5 6 
#
# 1 0.017151 0.003117 -0.009594 0.000000 0.000000 0.000000
# 2 0.003117 0.045158 -0.038040 0.000000 0.000000 0.000000
# 3 -0.009594 -0.038040 0.046515 0.000000 0.000000 0.000000
# 4 0.000000 0.000000 0.000000 0.029069 0.000000 0.000000
# 5 0.000000 0.000000 0.000000 0.000000 0.104188 0.000000
# 6 0.000000 0.000000 0.000000 0.000000 0.000000 0.056634
#
#
# Mechanical properties :
#
#
# Convention : Reuss Voigt Hill
#
# Bulk Modulus (GPa) = 50.53177 55.57074 53.05125
# Shear Modulus (GPa) = 12.67920 19.59429 16.13674
#
# Velocity S-wave (km/s) = 2.64850 3.29245 2.98787
# Velocity P-wave (km/s) = 6.10808 6.72289 6.42285
#
# Compressibility (1/GPa) = 0.01978953
#
# Stress axis : x y z
#
# Youngs Moduli (GPa) = 58.30552 22.14425 21.49862
#
# Poissons Ratio (x) = -0.06901 0.20625
# Poissons Ratio (y) = -0.18171 0.81781
# Poissons Ratio (z) = 0.55936 0.84237
#
# Static dielectric constant tensor:
#      x y z
#    x 1.665970 0.000000 0.000000 
#    y 0.000000 1.591030 0.000000 
#    z 0.000000 0.000000 1.634990 
# 
# From -- ./inp_files/8330.got.cif
#   From: 2010.05.17/outbox.cif.g08.bks.cpg/sg58_5_cif.got.tgz:8330.got - 2010.06.03 14:20:14.
