data_PCOD9442236
_publ_section_title
;
Structure prediction by ZEFSAII (Michael W. Deem and Ramdas Pophale) SiO2 
 PCOD9442236
Probable space group: P N N M
;
_chemical_formula_sum "Si O2"
_cell_formula_units_Z 48
_cell_length_a 16.080869
_cell_length_b 21.374445
_cell_length_c 7.547658
_cell_angle_alpha 90.000000
_cell_angle_beta 90.000000
_cell_angle_gamma 90.000000
_cell_volume 2594.278366
_symmetry_space_group_name_H-M "P N N M"
_symmetry_group_IT_number 58
_symmetry_cell_setting 'orthorhombic'
loop_
_space_group_symop_operation_xyz
x,y,z
-x,-y,z
1/2+x,1/2-y,1/2-z
1/2-x,1/2+y,1/2-z
-x,-y,-z
x,y,-z
1/2-x,1/2+y,1/2+z
1/2+x,1/2-y,1/2+z
loop_
_atom_site_type_symbol
_atom_site_label
_atom_site_fract_x
_atom_site_fract_y
_atom_site_fract_z
Si Si1 0.573643 0.046148 0.784412
Si Si2 0.568527 0.188121 0.792107
Si Si3 0.633299 0.483767 0.500000
Si Si4 0.244358 0.817280 0.712188
Si Si5 0.439369 0.293505 0.215178
Si Si6 0.485605 0.395256 0.500000
Si Si7 0.259348 0.461990 0.797537
O O1 0.560771 0.117533 0.720319
O O2 0.661900 0.023398 0.713036
O O3 0.500000 0.000000 0.733983
O O4 0.579243 0.047039 0.000000
O O5 0.665678 0.206987 0.772989
O O6 0.501473 0.238091 0.726599
O O7 0.551085 0.183225 0.000000
O O8 0.579034 0.421464 0.500000
O O9 0.572473 0.543793 0.500000
O O10 0.689819 0.492412 0.672502
O O11 0.249380 0.818923 0.500000
O O12 0.158472 0.782703 0.758659
O O13 0.234768 0.889900 0.770950
O O14 0.466495 0.354110 0.326349
O O15 0.445222 0.302292 0.000000
O O16 0.288781 0.463400 0.000000
#
# Coordination Sequence:
#
# PCOD9442236 Si02
#       7
#     8   8   4   8   8   4   8
#     4   9  17  32  57  86 116 150 190 237 282 327
#     4   9  19  33  55  82 111 147 189 231 276 333
#     4  11  22  38  55  90 104 142 199 228 279 349
#     4   9  18  32  54  81 106 142 189 230 268 326
#     4  10  21  38  56  82 114 147 186 232 283 337
#     4  11  24  36  62  80 113 146 180 238 290 337
#     4  10  19  34  57  81 112 149 187 232 275 333
#
# _framework density 18.502255999999999
#
# number of rings (size 3 to 8) (size 9 to 14) (size 15 to 20)
#    0.000    2.333    2.500    0.000    3.500    1.000 
#    0.000    3.333    0.000    0.000    0.000    0.000 
#    0.000    0.000    0.000    0.000    0.000    0.000 
#
# Total GULP energy -267617.897434 kJ/mol
# GULP energy per Si atom -5575.372863 kJ/mol
# Density = 1.846014 g / cm^3
# Si number density = 18.502256 Si / 1000 Ang^3
#
#
#
# Elastic Constant Matrix: (Units=GPa)
#
#
# Indices 1 2 3 4 5 6 
#
# 1 141.7136 60.5845 20.4536 0.0000 0.0000 0.0000
# 2 60.5845 57.7398 16.1391 0.0000 0.0000 0.0000
# 3 20.4536 16.1391 64.2610 0.0000 0.0000 0.0000
# 4 0.0000 0.0000 0.0000 4.7663 0.0000 0.0000
# 5 0.0000 0.0000 0.0000 0.0000 6.1266 0.0000
# 6 0.0000 0.0000 0.0000 0.0000 0.0000 41.6442
#
#
#
# Elastic Compliance Matrix: (Units=1/GPa)
#
#
# Indices 1 2 3 4 5 6 
#
# 1 0.012831 -0.013252 -0.000756 0.000000 0.000000 0.000000
# 2 -0.013252 0.032313 -0.003898 0.000000 0.000000 0.000000
# 3 -0.000756 -0.003898 0.016781 0.000000 0.000000 0.000000
# 4 0.000000 0.000000 0.000000 0.209806 0.000000 0.000000
# 5 0.000000 0.000000 0.000000 0.000000 0.163223 0.000000
# 6 0.000000 0.000000 0.000000 0.000000 0.000000 0.024013
#
#
# Mechanical properties :
#
#
# Convention : Reuss Voigt Hill
#
# Bulk Modulus (GPa) = 38.29239 50.89654 44.59447
# Shear Modulus (GPa) = 9.93084 21.60990 15.77037
#
# Velocity S-wave (km/s) = 2.31927 3.42125 2.92267
# Velocity P-wave (km/s) = 5.28328 6.57074 5.96186
#
# Compressibility (1/GPa) = 0.02611485
#
# Stress axis : x y z
#
# Youngs Moduli (GPa) = 77.93689 30.94714 59.59141
#
# Poissons Ratio (x) = 0.41011 0.04504
# Poissons Ratio (y) = 1.03280 0.23226
# Poissons Ratio (z) = 0.05890 0.12062
#
# Static dielectric constant tensor:
#      x y z
#    x 1.652650 0.000000 0.000000 
#    y 0.000000 1.623660 0.000000 
#    z 0.000000 0.000000 1.678370 
# 
# From -- ./inp_files/6072.got.cif
#   From: 2010.05.17/outbox.cif.g08.bks.cpg/sg58_4_cif.got.tgz:6072.got - 2010.06.03 14:20:14.
