data_PCOD9442494
_publ_section_title
;
Structure prediction by ZEFSAII (Michael W. Deem and Ramdas Pophale) SiO2 
 PCOD9442494
Probable space group: P N N M
;
_chemical_formula_sum "Si O2"
_cell_formula_units_Z 64
_cell_length_a 20.315090
_cell_length_b 5.290227
_cell_length_c 30.928861
_cell_angle_alpha 90.000000
_cell_angle_beta 90.000000
_cell_angle_gamma 90.000000
_cell_volume 3323.969156
_symmetry_space_group_name_H-M "P N N M"
_symmetry_group_IT_number 58
_symmetry_cell_setting 'orthorhombic'
loop_
_space_group_symop_operation_xyz
x,y,z
-x,-y,z
1/2+x,1/2-y,1/2-z
1/2-x,1/2+y,1/2-z
-x,-y,-z
x,y,-z
1/2-x,1/2+y,1/2+z
1/2+x,1/2-y,1/2+z
loop_
_atom_site_type_symbol
_atom_site_label
_atom_site_fract_x
_atom_site_fract_y
_atom_site_fract_z
Si Si1 0.706159 0.234159 0.548916
Si Si2 0.211972 0.978457 0.237969
Si Si3 0.653091 0.735419 0.416610
Si Si4 0.763121 0.733253 0.652665
Si Si5 0.568057 0.656751 0.753866
Si Si6 0.542300 0.756028 0.149994
Si Si7 0.681617 0.736015 0.876080
Si Si8 0.543093 0.756220 0.342377
O O1 0.731641 0.232319 0.500000
O O2 0.660473 0.479406 0.556623
O O3 0.767899 0.235295 0.583085
O O4 0.659125 0.992346 0.556611
O O5 0.253763 0.753111 0.261003
O O6 0.215268 0.862928 0.189998
O O7 0.136629 0.997958 0.253158
O O8 0.720629 0.741247 0.389996
O O9 0.596971 0.731974 0.380147
O O10 0.814076 0.508212 0.646739
O O11 0.794772 0.008480 0.655370
O O12 0.500000 0.500000 0.753103
O O13 0.566132 0.799687 0.799835
O O14 0.568603 0.797375 0.707243
O O15 0.500000 0.500000 0.150826
O O16 0.603948 0.704122 0.118417
O O17 0.500000 0.000000 0.137355
O O18 0.500000 0.500000 0.342105
O O19 0.500000 0.000000 0.352816
#
# Coordination Sequence:
#
# PCOD9442494 Si02
#       8
#     8   8   8   8   8   8   8   8
#     4  10  21  38  66  91 112 143 183 241 305 364
#     4  12  24  36  56  81 116 155 203 258 305 334
#     4  10  20  37  59  85 119 145 188 236 289 350
#     4  10  19  36  53  81 109 146 188 239 290 341
#     4  10  23  40  56  84 119 166 213 253 283 345
#     4  11  22  37  55  79 114 158 201 237 283 338
#     4  10  21  37  61  82 116 147 190 239 299 355
#     4  11  22  37  58  83 117 162 202 237 280 335
#
# _framework density 19.254089
#
# number of rings (size 3 to 8) (size 9 to 14) (size 15 to 20)
#    0.000    1.500    1.250    4.500    0.000    5.000 
#    0.000    0.000    0.000    8.250    0.000    0.000 
#    0.000    0.000    0.000    0.000    0.000    0.000 
#
# Total GULP energy -356498.186413 kJ/mol
# GULP energy per Si atom -5570.284163 kJ/mol
# Density = 1.921027 g / cm^3
# Si number density = 19.254089 Si / 1000 Ang^3
#
#
#
# Elastic Constant Matrix: (Units=GPa)
#
#
# Indices 1 2 3 4 5 6 
#
# 1 93.7405 40.2909 16.3770 0.0000 0.0000 0.0000
# 2 40.2909 131.7469 34.6318 0.0000 0.0000 0.0000
# 3 16.3770 34.6318 65.8610 0.0000 0.0000 0.0000
# 4 0.0000 0.0000 0.0000 -42.2782 0.0000 0.0000
# 5 0.0000 0.0000 0.0000 0.0000 24.8335 0.0000
# 6 0.0000 0.0000 0.0000 0.0000 0.0000 21.0108
#
#
#
# Elastic Compliance Matrix: (Units=1/GPa)
#
#
# Indices 1 2 3 4 5 6 
#
# 1 0.012372 -0.003452 -0.001261 0.000000 0.000000 0.000000
# 2 -0.003452 0.009771 -0.004280 0.000000 0.000000 0.000000
# 3 -0.001261 -0.004280 0.017747 0.000000 0.000000 0.000000
# 4 0.000000 0.000000 0.000000 -0.023653 0.000000 0.000000
# 5 0.000000 0.000000 0.000000 0.000000 0.040268 0.000000
# 6 0.000000 0.000000 0.000000 0.000000 0.000000 0.047595
#
#
# Mechanical properties :
#
#
# Convention : Reuss Voigt Hill
#
# Bulk Modulus (GPa) = 45.65223 52.66087 49.15655
# Shear Modulus (GPa) = 38.64374 14.04980 26.34677
#
# Velocity S-wave (km/s) = 4.48486 2.70423 3.70317
# Velocity P-wave (km/s) = 7.11200 6.09593 6.62348
#
# Compressibility (1/GPa) = 0.02190473
#
# Stress axis : x y z
#
# Youngs Moduli (GPa) = 80.82894 102.34418 56.34624
#
# Poissons Ratio (x) = 0.35329 0.07106
# Poissons Ratio (y) = 0.27902 0.24113
# Poissons Ratio (z) = 0.10194 0.43798
#
# Static dielectric constant tensor:
#      x y z
#    x 1.680570 0.000000 0.000000 
#    y 0.000000 1.715180 0.000000 
#    z 0.000000 0.000000 1.689950 
# 
# From -- ./inp_files/35133.got.cif
#   From: 2010.05.17/outbox.cif.g08.bks.cpg/sg58_18_cif.got.tgz:35133.got - 2010.06.03 14:20:14.
