data_PCOD9442035
_publ_section_title
;
Structure prediction by ZEFSAII (Michael W. Deem and Ramdas Pophale) SiO2 
 PCOD9442035
Probable space group: P N N M
;
_chemical_formula_sum "Si O2"
_cell_formula_units_Z 40
_cell_length_a 18.614860
_cell_length_b 14.005239
_cell_length_c 8.380238
_cell_angle_alpha 90.000000
_cell_angle_beta 90.000000
_cell_angle_gamma 90.000000
_cell_volume 2184.774668
_symmetry_space_group_name_H-M "P N N M"
_symmetry_group_IT_number 58
_symmetry_cell_setting 'orthorhombic'
loop_
_space_group_symop_operation_xyz
x,y,z
-x,-y,z
1/2+x,1/2-y,1/2-z
1/2-x,1/2+y,1/2-z
-x,-y,-z
x,y,-z
1/2-x,1/2+y,1/2+z
1/2+x,1/2-y,1/2+z
loop_
_atom_site_type_symbol
_atom_site_label
_atom_site_fract_x
_atom_site_fract_y
_atom_site_fract_z
Si Si1 0.472691 0.797021 0.193001
Si Si2 0.667650 0.088840 0.192884
Si Si3 0.183822 0.823576 0.309065
Si Si4 0.374485 0.121343 0.194341
Si Si5 0.533285 0.600107 0.691191
O O1 0.399144 0.845809 0.247144
O O2 0.542820 0.858761 0.240944
O O3 0.485782 0.690357 0.254712
O O4 0.472557 0.793923 0.000000
O O5 0.743295 0.131403 0.245338
O O6 0.654861 0.980281 0.249702
O O7 0.665819 0.087261 0.000000
O O8 0.185893 0.822756 0.500000
O O9 0.170795 0.714028 0.253907
O O10 0.113318 0.881577 0.255789
O O11 0.373387 0.120033 0.000000
O O12 0.500000 0.500000 0.746958
O O13 0.536406 0.598945 0.500000
#
# Coordination Sequence:
#
# PCOD9442035 Si02
#       5
#     8   8   8   8   8
#     4   9  18  33  55  81 105 133 172 215 257 306
#     4  10  19  33  55  80 106 137 173 211 257 312
#     4  10  21  36  53  76 106 137 173 216 259 303
#     4   8  16  33  54  73  99 137 173 206 250 307
#     4  10  21  37  56  76 102 139 178 214 257 311
#
# _framework density 18.308524999999999
#
# number of rings (size 3 to 8) (size 9 to 14) (size 15 to 20)
#    0.000    2.600    0.000    3.000    0.000    6.400 
#    0.000   11.000    0.000    6.000    0.000    0.000 
#    0.000    0.000    0.000    0.000    0.000    0.000 
#
# Total GULP energy -223162.649328 kJ/mol
# GULP energy per Si atom -5579.066233 kJ/mol
# Density = 1.826685 g / cm^3
# Si number density = 18.308525 Si / 1000 Ang^3
#
#
#
# Elastic Constant Matrix: (Units=GPa)
#
#
# Indices 1 2 3 4 5 6 
#
# 1 155.2544 139.9845 17.3851 0.0000 0.0000 0.0000
# 2 139.9845 181.3201 22.9090 0.0000 0.0000 0.0000
# 3 17.3851 22.9090 14.6397 0.0000 0.0000 0.0000
# 4 0.0000 0.0000 0.0000 20.5949 0.0000 0.0000
# 5 0.0000 0.0000 0.0000 0.0000 38.1608 0.0000
# 6 0.0000 0.0000 0.0000 0.0000 0.0000 22.5627
#
#
#
# Elastic Compliance Matrix: (Units=1/GPa)
#
#
# Indices 1 2 3 4 5 6 
#
# 1 0.021198 -0.016434 0.000544 0.000000 0.000000 0.000000
# 2 -0.016434 0.019615 -0.011179 0.000000 0.000000 0.000000
# 3 0.000544 -0.011179 0.085155 0.000000 0.000000 0.000000
# 4 0.000000 0.000000 0.000000 0.048556 0.000000 0.000000
# 5 0.000000 0.000000 0.000000 0.000000 0.026205 0.000000
# 6 0.000000 0.000000 0.000000 0.000000 0.000000 0.044321
#
#
# Mechanical properties :
#
#
# Convention : Reuss Voigt Hill
#
# Bulk Modulus (GPa) = 13.92183 79.08572 46.50378
# Shear Modulus (GPa) = 15.47362 27.65939 21.56650
#
# Velocity S-wave (km/s) = 2.91032 3.89104 3.43585
# Velocity P-wave (km/s) = 4.34900 7.96723 6.41836
#
# Compressibility (1/GPa) = 0.07182961
#
# Stress axis : x y z
#
# Youngs Moduli (GPa) = 47.17447 50.98101 11.74333
#
# Poissons Ratio (x) = 0.83783 -0.00639
# Poissons Ratio (y) = 0.77527 0.13128
# Poissons Ratio (z) = -0.02566 0.56991
#
# Static dielectric constant tensor:
#      x y z
#    x 1.599320 0.000000 0.000000 
#    y 0.000000 1.627740 0.000000 
#    z 0.000000 0.000000 1.637120 
# 
# From -- ./inp_files/3802.got.cif
#   From: 2010.05.17/outbox.cif.g08.bks.cpg/sg58_2_cif.got.tgz:3802.got - 2010.06.03 14:20:14.
