data_PCOD9442277
_publ_section_title
;
Structure prediction by ZEFSAII (Michael W. Deem and Ramdas Pophale) SiO2 
 PCOD9442277
Probable space group: P N N M
;
_chemical_formula_sum "Si O2"
_cell_formula_units_Z 64
_cell_length_a 16.053784
_cell_length_b 24.152434
_cell_length_c 7.856259
_cell_angle_alpha 90.000000
_cell_angle_beta 90.000000
_cell_angle_gamma 90.000000
_cell_volume 3046.169826
_symmetry_space_group_name_H-M "P N N M"
_symmetry_group_IT_number 58
_symmetry_cell_setting 'orthorhombic'
loop_
_space_group_symop_operation_xyz
x,y,z
-x,-y,z
1/2+x,1/2-y,1/2-z
1/2-x,1/2+y,1/2-z
-x,-y,-z
x,y,-z
1/2-x,1/2+y,1/2+z
1/2+x,1/2-y,1/2+z
loop_
_atom_site_type_symbol
_atom_site_label
_atom_site_fract_x
_atom_site_fract_y
_atom_site_fract_z
Si Si1 0.681698 0.693056 0.705240
Si Si2 0.938322 0.578517 0.291880
Si Si3 0.617609 0.956279 0.207882
Si Si4 0.200851 0.049448 0.196778
Si Si5 0.505245 0.726775 0.695401
Si Si6 0.137754 0.308330 0.299216
Si Si7 0.033477 0.106055 0.302493
Si Si8 0.357481 0.433068 0.202664
O O1 0.676551 0.697929 0.500000
O O2 0.598835 0.723847 0.771247
O O3 0.772558 0.711842 0.767721
O O4 0.674228 0.627933 0.749285
O O5 0.937356 0.579040 0.500000
O O6 0.898644 0.519993 0.239892
O O7 0.889929 0.632125 0.227747
O O8 0.035615 0.577578 0.240817
O O9 0.707794 0.936362 0.267473
O O10 0.620150 0.956209 0.000000
O O11 0.121723 0.076769 0.285305
O O12 0.189894 0.983147 0.208887
O O13 0.197041 0.066332 0.000000
O O14 0.510431 0.744821 0.500000
O O15 0.437562 0.765880 0.780166
O O16 0.473028 0.663577 0.703682
O O17 0.151157 0.316966 0.500000
O O18 0.018473 0.120006 0.500000
O O19 0.955712 0.067569 0.249793
O O20 0.350222 0.441219 0.000000
#
# Coordination Sequence:
#
# PCOD9442277 Si02
#       8
#     8   8   8   8   8   8   8   8
#     4   9  19  36  57  80 106 137 177 224 275 322
#     4   8  14  28  51  76 103 136 173 214 254 301
#     4   8  15  28  47  75 109 138 169 210 254 304
#     4  11  20  30  49  78 110 142 176 213 264 323
#     4  10  21  38  56  77 107 139 175 225 275 321
#     4  10  19  34  58  83 106 139 181 221 269 326
#     4  10  21  37  53  71 102 140 178 221 268 318
#     4  10  20  33  52  77 105 137 179 224 265 315
#
# _framework density 21.009989999999998
#
# number of rings (size 3 to 8) (size 9 to 14) (size 15 to 20)
#    0.000    2.500    0.000    3.375    0.000    6.000 
#    2.250    0.000    0.000    0.750    0.000    5.250 
#    0.000    0.000    0.000    0.000    0.000    0.000 
#
# Total GULP energy -357125.364710 kJ/mol
# GULP energy per Si atom -5580.083824 kJ/mol
# Density = 2.096217 g / cm^3
# Si number density = 21.009990 Si / 1000 Ang^3
#
#
#
# Elastic Constant Matrix: (Units=GPa)
#
#
# Indices 1 2 3 4 5 6 
#
# 1 175.4883 30.0034 4.0254 0.0000 0.0000 0.0000
# 2 30.0034 19.8529 -7.1000 0.0000 0.0000 0.0000
# 3 4.0254 -7.1000 25.1676 0.0000 0.0000 0.0000
# 4 0.0000 0.0000 0.0000 17.1925 0.0000 0.0000
# 5 0.0000 0.0000 0.0000 0.0000 12.5537 0.0000
# 6 0.0000 0.0000 0.0000 0.0000 0.0000 18.1296
#
#
#
# Elastic Compliance Matrix: (Units=1/GPa)
#
#
# Indices 1 2 3 4 5 6 
#
# 1 0.008297 -0.014474 -0.005410 0.000000 0.000000 0.000000
# 2 -0.014474 0.081273 0.025243 0.000000 0.000000 0.000000
# 3 -0.005410 0.025243 0.047720 0.000000 0.000000 0.000000
# 4 0.000000 0.000000 0.000000 0.058165 0.000000 0.000000
# 5 0.000000 0.000000 0.000000 0.000000 0.079658 0.000000
# 6 0.000000 0.000000 0.000000 0.000000 0.000000 0.055158
#
#
# Mechanical properties :
#
#
# Convention : Reuss Voigt Hill
#
# Bulk Modulus (GPa) = 6.75644 30.48515 18.62080
# Shear Modulus (GPa) = 13.55413 22.48049 18.01731
#
# Velocity S-wave (km/s) = 2.54269 3.27462 2.93159
# Velocity P-wave (km/s) = 3.44139 5.37018 4.51010
#
# Compressibility (1/GPa) = 0.14800690
#
# Stress axis : x y z
#
# Youngs Moduli (GPa) = 120.52269 12.30417 20.95547
#
# Poissons Ratio (x) = 0.17810 0.11338
# Poissons Ratio (y) = 1.74449 -0.52898
# Poissons Ratio (z) = 0.65208 -0.31059
#
# Static dielectric constant tensor:
#      x y z
#    x 1.802580 0.000000 0.000000 
#    y 0.000000 1.709210 0.000000 
#    z 0.000000 0.000000 1.761420 
# 
# From -- ./inp_files/6925.got.cif
#   From: 2010.05.17/outbox.cif.g08.bks.cpg/sg58_4_cif.got.tgz:6925.got - 2010.06.03 14:20:14.
