data_PCOD9442996
_publ_section_title
;
Structure prediction by ZEFSAII (Michael W. Deem and Ramdas Pophale) SiO2 
 PCOD9442996
Probable space group: P N N M
;
_chemical_formula_sum "Si O2"
_cell_formula_units_Z 28
_cell_length_a 11.058169
_cell_length_b 4.898876
_cell_length_c 25.326318
_cell_angle_alpha 90.000000
_cell_angle_beta 90.000000
_cell_angle_gamma 90.000000
_cell_volume 1371.992462
_symmetry_space_group_name_H-M "P N N M"
_symmetry_group_IT_number 58
_symmetry_cell_setting 'orthorhombic'
loop_
_space_group_symop_operation_xyz
x,y,z
-x,-y,z
1/2+x,1/2-y,1/2-z
1/2-x,1/2+y,1/2-z
-x,-y,-z
x,y,-z
1/2-x,1/2+y,1/2+z
1/2+x,1/2-y,1/2+z
loop_
_atom_site_type_symbol
_atom_site_label
_atom_site_fract_x
_atom_site_fract_y
_atom_site_fract_z
Si Si1 0.863197 0.890483 0.113625
Si Si2 0.907232 0.753233 0.000000
Si Si3 0.268918 0.101740 0.673625
Si Si4 0.420362 0.266844 0.772430
O O1 0.833746 0.786947 0.054283
O O2 0.856601 0.625017 0.149699
O O3 0.778125 0.128779 0.137497
O O4 0.000000 0.000000 0.113191
O O5 0.000000 0.500000 0.000000
O O6 0.000000 0.000000 0.000000
O O7 0.317567 0.177509 0.731482
O O8 0.142817 0.940315 0.680864
O O9 0.500000 0.500000 0.744258
O O10 0.500000 0.000000 0.786044
#
# Coordination Sequence:
#
# PCOD9442996 Si02
#       4
#     8   4   8   8
#     4  11  21  35  56  84 116 148 183 230 286 350
#     4  10  20  34  54  84 118 148 182 232 294 350
#     4  12  23  36  57  82 110 153 192 223 287 347
#     4  12  24  38  55  81 116 150 190 239 278 334
#
# _framework density 20.408276999999998
#
# number of rings (size 3 to 8) (size 9 to 14) (size 15 to 20)
#    0.000    0.571    0.000   13.714    0.000    0.000 
#    0.000    0.000    0.000    0.000    0.000   20.000 
#    0.000    0.000    0.000    0.000    0.000    0.000 
#
# Total GULP energy -156388.919044 kJ/mol
# GULP energy per Si atom -5585.318537 kJ/mol
# Density = 2.036183 g / cm^3
# Si number density = 20.408277 Si / 1000 Ang^3
#
#
#
# Elastic Constant Matrix: (Units=GPa)
#
#
# Indices 1 2 3 4 5 6 
#
# 1 58.1373 37.2698 24.2961 0.0000 0.0000 0.0000
# 2 37.2698 184.8584 50.0114 0.0000 0.0000 0.0000
# 3 24.2961 50.0114 97.0477 0.0000 0.0000 0.0000
# 4 0.0000 0.0000 0.0000 15.4115 0.0000 0.0000
# 5 0.0000 0.0000 0.0000 0.0000 15.1601 0.0000
# 6 0.0000 0.0000 0.0000 0.0000 0.0000 58.8325
#
#
#
# Elastic Compliance Matrix: (Units=1/GPa)
#
#
# Indices 1 2 3 4 5 6 
#
# 1 0.020745 -0.003227 -0.003530 0.000000 0.000000 0.000000
# 2 -0.003227 0.006788 -0.002690 0.000000 0.000000 0.000000
# 3 -0.003530 -0.002690 0.012574 0.000000 0.000000 0.000000
# 4 0.000000 0.000000 0.000000 0.064887 0.000000 0.000000
# 5 0.000000 0.000000 0.000000 0.000000 0.065963 0.000000
# 6 0.000000 0.000000 0.000000 0.000000 0.000000 0.016997
#
#
# Mechanical properties :
#
#
# Convention : Reuss Voigt Hill
#
# Bulk Modulus (GPa) = 47.14390 62.57756 54.86073
# Shear Modulus (GPa) = 23.37321 33.11189 28.24255
#
# Velocity S-wave (km/s) = 3.38787 4.03236 3.72409
# Velocity P-wave (km/s) = 6.20114 7.23943 6.74031
#
# Compressibility (1/GPa) = 0.02121165
#
# Stress axis : x y z
#
# Youngs Moduli (GPa) = 48.20447 147.31909 79.52717
#
# Poissons Ratio (x) = 0.47545 0.28076
# Poissons Ratio (y) = 0.15557 0.21393
# Poissons Ratio (z) = 0.17018 0.39630
#
# Static dielectric constant tensor:
#      x y z
#    x 1.795710 0.000000 0.000000 
#    y 0.000000 1.748910 0.000000 
#    z 0.000000 0.000000 1.834450 
# 
# From -- ./inp_files/31727.got.cif
#   From: 2010.05.17/outbox.cif.g08.bks.cpg/sg58_16_cif.got.tgz:31727.got - 2010.06.03 14:20:14.
