data_PCOD9442787
_publ_section_title
;
Structure prediction by ZEFSAII (Michael W. Deem and Ramdas Pophale) SiO2 
 PCOD9442787
Probable space group: P N N M
;
_chemical_formula_sum "Si O2"
_cell_formula_units_Z 64
_cell_length_a 11.528139
_cell_length_b 31.201318
_cell_length_c 7.727282
_cell_angle_alpha 90.000000
_cell_angle_beta 90.000000
_cell_angle_gamma 90.000000
_cell_volume 2779.450256
_symmetry_space_group_name_H-M "P N N M"
_symmetry_group_IT_number 58
_symmetry_cell_setting 'orthorhombic'
loop_
_space_group_symop_operation_xyz
x,y,z
-x,-y,z
1/2+x,1/2-y,1/2-z
1/2-x,1/2+y,1/2-z
-x,-y,-z
x,y,-z
1/2-x,1/2+y,1/2+z
1/2+x,1/2-y,1/2+z
loop_
_atom_site_type_symbol
_atom_site_label
_atom_site_fract_x
_atom_site_fract_y
_atom_site_fract_z
Si Si1 0.633566 0.629977 0.806323
Si Si2 0.365882 0.010288 0.206432
Si Si3 0.487307 0.549475 0.787561
Si Si4 0.850776 0.224640 0.804412
Si Si5 0.243110 0.093098 0.305718
Si Si6 0.923461 0.723534 0.208085
Si Si7 0.832402 0.582222 0.298768
Si Si8 0.961993 0.365460 0.210298
O O1 0.582148 0.585131 0.738732
O O2 0.623300 0.673822 0.704773
O O3 0.768277 0.618027 0.810537
O O4 0.588432 0.637387 0.000000
O O5 0.305044 0.965839 0.260070
O O6 0.500000 0.000000 0.231484
O O7 0.321091 0.050407 0.309947
O O8 0.346923 0.016923 0.000000
O O9 0.500000 0.500000 0.728523
O O10 0.371762 0.573693 0.722521
O O11 0.484330 0.547237 0.000000
O O12 0.969165 0.246036 0.726988
O O13 0.714771 0.230930 0.746636
O O14 0.847745 0.240542 0.000000
O O15 0.211295 0.107132 0.500000
O O16 0.328131 0.129253 0.230316
O O17 0.970001 0.676894 0.266833
O O18 0.926323 0.724741 0.000000
O O19 0.801750 0.586176 0.500000
O O20 0.966757 0.594203 0.281436
O O21 0.959667 0.366860 0.000000
#
# Coordination Sequence:
#
# PCOD9442787 Si02
#       8
#     8   8   8   8   8   8   8   8
#     4  11  22  38  63  89 118 157 202 248 302 365
#     4  10  20  33  48  74 114 154 190 235 296 354
#     4   9  19  36  57  84 119 159 205 256 302 354
#     4  11  24  42  67  98 130 165 210 261 316 385
#     4  10  20  34  55  83 113 150 204 255 299 356
#     4  10  23  43  65  93 129 167 212 265 321 383
#     4  11  21  34  55  81 113 150 193 241 292 351
#     4  10  20  35  57  84 114 149 192 247 304 357
#
# _framework density 23.026133999999999
#
# number of rings (size 3 to 8) (size 9 to 14) (size 15 to 20)
#    0.000    1.750    2.500    1.875    0.000    4.250 
#    0.000    3.750    0.000    3.375    0.000    0.000 
#    0.000    0.000    0.000    0.000    0.000    0.000 
#
# Total GULP energy -356495.985258 kJ/mol
# GULP energy per Si atom -5570.249770 kJ/mol
# Density = 2.297373 g / cm^3
# Si number density = 23.026134 Si / 1000 Ang^3
#
#
#
# Elastic Constant Matrix: (Units=GPa)
#
#
# Indices 1 2 3 4 5 6 
#
# 1 143.8357 57.3131 10.6656 0.0000 0.0000 0.0000
# 2 57.3131 89.7519 1.2506 0.0000 0.0000 0.0000
# 3 10.6656 1.2506 44.0321 0.0000 0.0000 0.0000
# 4 0.0000 0.0000 0.0000 16.5923 0.0000 0.0000
# 5 0.0000 0.0000 0.0000 0.0000 1.1533 0.0000
# 6 0.0000 0.0000 0.0000 0.0000 0.0000 43.5266
#
#
#
# Elastic Compliance Matrix: (Units=1/GPa)
#
#
# Indices 1 2 3 4 5 6 
#
# 1 0.009522 -0.006050 -0.002134 0.000000 0.000000 0.000000
# 2 -0.006050 0.014991 0.001040 0.000000 0.000000 0.000000
# 3 -0.002134 0.001040 0.023198 0.000000 0.000000 0.000000
# 4 0.000000 0.000000 0.000000 0.060269 0.000000 0.000000
# 5 0.000000 0.000000 0.000000 0.000000 0.867070 0.000000
# 6 0.000000 0.000000 0.000000 0.000000 0.000000 0.022974
#
#
# Mechanical properties :
#
#
# Convention : Reuss Voigt Hill
#
# Bulk Modulus (GPa) = 29.92186 46.23094 38.07640
# Shear Modulus (GPa) = 4.88542 26.14713 15.51627
#
# Velocity S-wave (km/s) = 1.45818 3.37344 2.59869
# Velocity P-wave (km/s) = 3.98221 5.94093 5.05730
#
# Compressibility (1/GPa) = 0.03342038
#
# Stress axis : x y z
#
# Youngs Moduli (GPa) = 105.02515 66.70673 43.10684
#
# Poissons Ratio (x) = 0.40361 0.09201
# Poissons Ratio (y) = 0.63545 -0.04482
# Poissons Ratio (z) = 0.22417 -0.06936
#
# Static dielectric constant tensor:
#      x y z
#    x 2.041660 0.000000 0.000000 
#    y 0.000000 1.844690 0.000000 
#    z 0.000000 0.000000 1.862240 
# 
# From -- ./inp_files/4766.got.cif
#   From: 2010.05.17/outbox.cif.g08.bks.cpg/sg58_3_cif.got.tgz:4766.got - 2010.06.03 14:20:14.
