data_PCOD9442876
_publ_section_title
;
Structure prediction by ZEFSAII (Michael W. Deem and Ramdas Pophale) SiO2 
 PCOD9442876
Probable space group: P N N M
;
_chemical_formula_sum "Si O2"
_cell_formula_units_Z 64
_cell_length_a 23.245787
_cell_length_b 12.626171
_cell_length_c 8.602217
_cell_angle_alpha 90.000000
_cell_angle_beta 90.000000
_cell_angle_gamma 90.000000
_cell_volume 2524.796124
_symmetry_space_group_name_H-M "P N N M"
_symmetry_group_IT_number 58
_symmetry_cell_setting 'orthorhombic'
loop_
_space_group_symop_operation_xyz
x,y,z
-x,-y,z
1/2+x,1/2-y,1/2-z
1/2-x,1/2+y,1/2-z
-x,-y,-z
x,y,-z
1/2-x,1/2+y,1/2+z
1/2+x,1/2-y,1/2+z
loop_
_atom_site_type_symbol
_atom_site_label
_atom_site_fract_x
_atom_site_fract_y
_atom_site_fract_z
Si Si1 0.400555 0.392560 0.314645
Si Si2 0.714727 0.861048 0.318629
Si Si3 0.770075 0.104684 0.178946
Si Si4 0.150541 0.390969 0.171848
Si Si5 0.029128 0.329750 0.812967
Si Si6 0.946005 0.900635 0.677905
Si Si7 0.833077 0.861386 0.172891
Si Si8 0.408042 0.158059 0.183200
O O1 0.406951 0.371997 0.500000
O O2 0.335078 0.432604 0.285319
O O3 0.444464 0.481920 0.255216
O O4 0.406597 0.283894 0.221415
O O5 0.724653 0.886067 0.500000
O O6 0.720135 0.732143 0.308124
O O7 0.767970 0.893256 0.209256
O O8 0.649685 0.886872 0.263509
O O9 0.712679 0.071213 0.269088
O O10 0.757427 0.084272 0.000000
O O11 0.087133 0.387579 0.250484
O O12 0.163770 0.265605 0.160162
O O13 0.141284 0.434459 0.000000
O O14 0.031113 0.204135 0.766560
O O15 0.969461 0.376658 0.751086
O O16 0.030013 0.334330 0.000000
O O17 0.965682 0.899843 0.500000
O O18 0.877238 0.880108 0.687932
O O19 0.853345 0.898694 0.000000
O O20 0.404847 0.140163 0.000000
#
# Coordination Sequence:
#
# PCOD9442876 Si02
#       8
#     8   8   8   8   8   8   8   8
#     4  10  20  34  47  62  87 121 154 186 223 265
#     4   9  16  28  45  65  87 113 143 180 224 268
#     4   8  15  26  43  63  83 107 138 175 219 263
#     4   8  15  26  43  63  83 107 138 175 219 263
#     4  10  20  34  47  62  87 121 154 186 223 265
#     4  11  21  32  46  66  89 117 153 191 225 264
#     4   9  16  28  45  65  87 113 143 180 224 268
#     4  11  21  32  46  66  89 117 153 191 225 264
#
# _framework density 25.348580999999999
#
# number of rings (size 3 to 8) (size 9 to 14) (size 15 to 20)
#    0.000    2.500    0.000    5.250    0.000    7.500 
#    0.000    2.500    0.000    0.000    0.000    0.000 
#    0.000    1.000    0.000   10.500    0.000    6.250 
#
# Total GULP energy -357623.004333 kJ/mol
# GULP energy per Si atom -5587.859443 kJ/mol
# Density = 2.529089 g / cm^3
# Si number density = 25.348581 Si / 1000 Ang^3
#
#
#
# Elastic Constant Matrix: (Units=GPa)
#
#
# Indices 1 2 3 4 5 6 
#
# 1 188.7353 1.5259 44.8674 0.0000 0.0000 0.0000
# 2 1.5259 37.0295 -11.1536 0.0000 0.0000 0.0000
# 3 44.8674 -11.1536 106.1364 0.0000 0.0000 0.0000
# 4 0.0000 0.0000 0.0000 25.5949 0.0000 0.0000
# 5 0.0000 0.0000 0.0000 0.0000 39.9502 0.0000
# 6 0.0000 0.0000 0.0000 0.0000 0.0000 48.4136
#
#
#
# Elastic Compliance Matrix: (Units=1/GPa)
#
#
# Indices 1 2 3 4 5 6 
#
# 1 0.005928 -0.001032 -0.002615 0.000000 0.000000 0.000000
# 2 -0.001032 0.028068 0.003386 0.000000 0.000000 0.000000
# 3 -0.002615 0.003386 0.010883 0.000000 0.000000 0.000000
# 4 0.000000 0.000000 0.000000 0.039070 0.000000 0.000000
# 5 0.000000 0.000000 0.000000 0.000000 0.025031 0.000000
# 6 0.000000 0.000000 0.000000 0.000000 0.000000 0.020655
#
#
# Mechanical properties :
#
#
# Convention : Reuss Voigt Hill
#
# Bulk Modulus (GPa) = 22.54391 44.70895 33.62643
# Shear Modulus (GPa) = 34.49634 42.56918 38.53276
#
# Velocity S-wave (km/s) = 3.69301 4.10243 3.90309
# Velocity P-wave (km/s) = 5.20551 6.33371 5.79712
#
# Compressibility (1/GPa) = 0.04435788
#
# Stress axis : x y z
#
# Youngs Moduli (GPa) = 168.68206 35.62797 91.88735
#
# Poissons Ratio (x) = 0.03676 0.24024
# Poissons Ratio (y) = 0.17405 -0.31111
# Poissons Ratio (z) = 0.44102 -0.12063
#
# Static dielectric constant tensor:
#      x y z
#    x 2.053390 0.000000 0.000000 
#    y 0.000000 2.201960 0.000000 
#    z 0.000000 0.000000 1.869160 
# 
# From -- ./inp_files/9449.got.cif
#   From: 2010.05.17/outbox.cif.g08.bks.cpg/sg58_5_cif.got.tgz:9449.got - 2010.06.03 14:20:14.
