data_PCOD9442430
_publ_section_title
;
Structure prediction by ZEFSAII (Michael W. Deem and Ramdas Pophale) SiO2 
 PCOD9442430
Probable space group: P N N M
;
_chemical_formula_sum "Si O2"
_cell_formula_units_Z 64
_cell_length_a 10.710649
_cell_length_b 22.370725
_cell_length_c 13.904834
_cell_angle_alpha 90.000000
_cell_angle_beta 90.000000
_cell_angle_gamma 90.000000
_cell_volume 3331.667519
_symmetry_space_group_name_H-M "P N N M"
_symmetry_group_IT_number 58
_symmetry_cell_setting 'orthorhombic'
loop_
_space_group_symop_operation_xyz
x,y,z
-x,-y,z
1/2+x,1/2-y,1/2-z
1/2-x,1/2+y,1/2-z
-x,-y,-z
x,y,-z
1/2-x,1/2+y,1/2+z
1/2+x,1/2-y,1/2+z
loop_
_atom_site_type_symbol
_atom_site_label
_atom_site_fract_x
_atom_site_fract_y
_atom_site_fract_z
Si Si1 0.661451 0.703216 0.201331
Si Si2 0.581796 0.907918 0.610829
Si Si3 0.211627 0.017821 0.711861
Si Si4 0.381632 0.455442 0.391488
Si Si5 0.589945 0.765114 0.391862
Si Si6 0.291220 0.905016 0.388909
Si Si7 0.819834 0.797587 0.107671
Si Si8 0.041281 0.121761 0.244441
O O1 0.662217 0.731029 0.307867
O O2 0.757603 0.650180 0.179100
O O3 0.701188 0.757014 0.131954
O O4 0.526962 0.670954 0.190206
O O5 0.616441 0.923246 0.500000
O O6 0.668487 0.943733 0.683056
O O7 0.596079 0.836392 0.621618
O O8 0.435855 0.922085 0.622704
O O9 0.094317 0.062745 0.705757
O O10 0.211597 0.989059 0.818717
O O11 0.208325 0.961494 0.640670
O O12 0.500000 0.500000 0.398916
O O13 0.338270 0.442653 0.500000
O O14 0.438336 0.398583 0.334961
O O15 0.633771 0.751003 0.500000
O O16 0.445072 0.743665 0.386827
O O17 0.272200 0.887344 0.500000
O O18 0.845672 0.848345 0.185951
O O19 0.813375 0.822306 0.000000
#
# Coordination Sequence:
#
# PCOD9442430 Si02
#       8
#     8   8   8   8   8   8   8   8
#     4  11  20  35  58  90 117 150 188 240 291 350
#     4  10  20  38  62  86 113 154 204 244 279 339
#     4  11  21  36  56  88 120 155 194 239 293 343
#     4   9  18  34  56  82 112 146 193 241 284 339
#     4   9  19  35  58  86 112 145 192 241 290 340
#     4  11  22  38  59  86 117 156 204 242 282 341
#     4  10  19  35  59  85 113 147 193 239 282 339
#     4  10  21  36  58  86 119 148 191 237 302 351
#
# _framework density 19.209599999999998
#
# number of rings (size 3 to 8) (size 9 to 14) (size 15 to 20)
#    0.000    1.875    2.500    2.250    0.000    2.000 
#    0.000    3.125    0.000    8.250    0.000    0.000 
#    0.000    0.000    0.000    0.000    0.000    0.000 
#
# Total GULP energy -356969.757425 kJ/mol
# GULP energy per Si atom -5577.652460 kJ/mol
# Density = 1.916588 g / cm^3
# Si number density = 19.209600 Si / 1000 Ang^3
#
#
#
# Elastic Constant Matrix: (Units=GPa)
#
#
# Indices 1 2 3 4 5 6 
#
# 1 51.2911 26.6731 49.0442 0.0000 0.0000 0.0000
# 2 26.6731 74.7213 29.0436 0.0000 0.0000 0.0000
# 3 49.0442 29.0436 83.6817 0.0000 0.0000 0.0000
# 4 0.0000 0.0000 0.0000 9.7679 0.0000 0.0000
# 5 0.0000 0.0000 0.0000 0.0000 25.4634 0.0000
# 6 0.0000 0.0000 0.0000 0.0000 0.0000 34.5755
#
#
#
# Elastic Compliance Matrix: (Units=1/GPa)
#
#
# Indices 1 2 3 4 5 6 
#
# 1 0.047379 -0.007074 -0.025313 0.000000 0.000000 0.000000
# 2 -0.007074 0.016526 -0.001590 0.000000 0.000000 0.000000
# 3 -0.025313 -0.001590 0.027337 0.000000 0.000000 0.000000
# 4 0.000000 0.000000 0.000000 0.102376 0.000000 0.000000
# 5 0.000000 0.000000 0.000000 0.000000 0.039272 0.000000
# 6 0.000000 0.000000 0.000000 0.000000 0.000000 0.028922
#
#
# Mechanical properties :
#
#
# Convention : Reuss Voigt Hill
#
# Bulk Modulus (GPa) = 42.93820 46.57952 44.75886
# Shear Modulus (GPa) = 14.81353 20.95690 17.88521
#
# Velocity S-wave (km/s) = 2.77998 3.30655 3.05463
# Velocity P-wave (km/s) = 5.71886 6.23525 5.98263
#
# Compressibility (1/GPa) = 0.02328928
#
# Stress axis : x y z
#
# Youngs Moduli (GPa) = 21.10631 60.50995 36.58022
#
# Poissons Ratio (x) = 0.42804 0.92595
# Poissons Ratio (y) = 0.14930 0.05816
# Poissons Ratio (z) = 0.53426 0.09620
#
# Static dielectric constant tensor:
#      x y z
#    x 1.676410 0.000000 0.000000 
#    y 0.000000 1.712190 0.000000 
#    z 0.000000 0.000000 1.672070 
# 
# From -- ./inp_files/14860.got.cif
#   From: 2010.05.17/outbox.cif.g08.bks.cpg/sg58_8_cif.got.tgz:14860.got - 2010.06.03 14:20:14.
