data_PCOD9442755
_publ_section_title
;
Structure prediction by ZEFSAII (Michael W. Deem and Ramdas Pophale) SiO2 
 PCOD9442755
Probable space group: P N N M
;
_chemical_formula_sum "Si O2"
_cell_formula_units_Z 40
_cell_length_a 12.555137
_cell_length_b 15.151346
_cell_length_c 13.744160
_cell_angle_alpha 90.000000
_cell_angle_beta 90.000000
_cell_angle_gamma 90.000000
_cell_volume 2614.513414
_symmetry_space_group_name_H-M "P N N M"
_symmetry_group_IT_number 58
_symmetry_cell_setting 'orthorhombic'
loop_
_space_group_symop_operation_xyz
x,y,z
-x,-y,z
1/2+x,1/2-y,1/2-z
1/2-x,1/2+y,1/2-z
-x,-y,-z
x,y,-z
1/2-x,1/2+y,1/2+z
1/2+x,1/2-y,1/2+z
loop_
_atom_site_type_symbol
_atom_site_label
_atom_site_fract_x
_atom_site_fract_y
_atom_site_fract_z
Si Si1 0.724942 0.558390 0.386370
Si Si2 0.177053 0.145663 0.885197
Si Si3 0.044078 0.405507 0.618470
Si Si4 0.525312 0.600489 0.255482
Si Si5 0.886704 0.248107 0.383242
O O1 0.714310 0.578758 0.500000
O O2 0.731220 0.451715 0.378540
O O3 0.833857 0.601416 0.348850
O O4 0.620661 0.590104 0.332279
O O5 0.266604 0.218536 0.861065
O O6 0.076774 0.140896 0.812418
O O7 0.145827 0.155816 0.000000
O O8 0.045587 0.407295 0.500000
O O9 0.000000 0.500000 0.650926
O O10 0.966654 0.326917 0.646880
O O11 0.500000 0.500000 0.222968
O O12 0.570646 0.661899 0.170648
O O13 0.892406 0.238236 0.500000
#
# Coordination Sequence:
#
# PCOD9442755 Si02
#       5
#     8   8   8   8   8
#     4   9  16  29  50  73  97 119 149 201 255 289
#     4   9  17  32  50  70  96 123 155 198 250 293
#     4   9  15  27  47  71  95 119 152 198 248 287
#     4  10  21  32  47  72 100 129 164 195 236 286
#     4  10  20  32  48  69  97 132 163 194 234 287
#
# _framework density 15.299213
#
# number of rings (size 3 to 8) (size 9 to 14) (size 15 to 20)
#    0.000    2.600    2.000    0.600    2.800    2.800 
#    0.000    0.000    0.000    0.000    0.000    0.000 
#    0.000    9.600    0.000    0.000    0.000    0.000 
#
# Total GULP energy -222715.204617 kJ/mol
# GULP energy per Si atom -5567.880115 kJ/mol
# Density = 1.526439 g / cm^3
# Si number density = 15.299213 Si / 1000 Ang^3
#
#
#
# Elastic Constant Matrix: (Units=GPa)
#
#
# Indices 1 2 3 4 5 6 
#
# 1 113.0913 62.6457 38.5189 0.0000 0.0000 0.0000
# 2 62.6457 88.5728 43.2868 0.0000 0.0000 0.0000
# 3 38.5189 43.2868 40.5841 0.0000 0.0000 0.0000
# 4 0.0000 0.0000 0.0000 23.1539 0.0000 0.0000
# 5 0.0000 0.0000 0.0000 0.0000 0.5235 0.0000
# 6 0.0000 0.0000 0.0000 0.0000 0.0000 23.4582
#
#
#
# Elastic Compliance Matrix: (Units=1/GPa)
#
#
# Indices 1 2 3 4 5 6 
#
# 1 0.015251 -0.007755 -0.006204 0.000000 0.000000 0.000000
# 2 -0.007755 0.027526 -0.021999 0.000000 0.000000 0.000000
# 3 -0.006204 -0.021999 0.053992 0.000000 0.000000 0.000000
# 4 0.000000 0.000000 0.000000 0.043189 0.000000 0.000000
# 5 0.000000 0.000000 0.000000 0.000000 1.910205 0.000000
# 6 0.000000 0.000000 0.000000 0.000000 0.000000 0.042629
#
#
# Mechanical properties :
#
#
# Convention : Reuss Voigt Hill
#
# Bulk Modulus (GPa) = 40.23450 59.01680 49.62565
# Shear Modulus (GPa) = 2.30097 15.94691 9.12394
#
# Velocity S-wave (km/s) = 1.22770 3.23202 2.44471
# Velocity P-wave (km/s) = 5.32590 7.25167 6.36207
#
# Compressibility (1/GPa) = 0.02485429
#
# Stress axis : x y z
#
# Youngs Moduli (GPa) = 65.56860 36.32876 18.52123
#
# Poissons Ratio (x) = 0.28173 0.11490
# Poissons Ratio (y) = 0.50849 0.40745
# Poissons Ratio (z) = 0.40676 0.79920
#
# Static dielectric constant tensor:
#      x y z
#    x 1.525080 0.000000 0.000000 
#    y 0.000000 1.504840 0.000000 
#    z 0.000000 0.000000 1.484830 
# 
# From -- ./inp_files/14079.got.cif
#   From: 2010.05.17/outbox.cif.g08.bks.cpg/sg58_8_cif.got.tgz:14079.got - 2010.06.03 14:20:14.
