data_PCOD9442095
_publ_section_title
;
Structure prediction by ZEFSAII (Michael W. Deem and Ramdas Pophale) SiO2 
 PCOD9442095
Probable space group: P N N M
;
_chemical_formula_sum "Si O2"
_cell_formula_units_Z 64
_cell_length_a 13.871522
_cell_length_b 17.895728
_cell_length_c 14.030505
_cell_angle_alpha 90.000000
_cell_angle_beta 90.000000
_cell_angle_gamma 90.000000
_cell_volume 3482.946376
_symmetry_space_group_name_H-M "P N N M"
_symmetry_group_IT_number 58
_symmetry_cell_setting 'orthorhombic'
loop_
_space_group_symop_operation_xyz
x,y,z
-x,-y,z
1/2+x,1/2-y,1/2-z
1/2-x,1/2+y,1/2-z
-x,-y,-z
x,y,-z
1/2-x,1/2+y,1/2+z
1/2+x,1/2-y,1/2+z
loop_
_atom_site_type_symbol
_atom_site_label
_atom_site_fract_x
_atom_site_fract_y
_atom_site_fract_z
Si Si1 0.724547 0.435450 0.384734
Si Si2 0.952323 0.744876 0.269018
Si Si3 0.356383 0.451415 0.114310
Si Si4 0.362113 0.197837 0.115109
Si Si5 0.524615 0.359776 0.389328
Si Si6 0.759958 0.671700 0.787084
Si Si7 0.814509 0.098954 0.889826
Si Si8 0.569337 0.388590 0.114685
O O1 0.721186 0.436985 0.500000
O O2 0.810618 0.380124 0.358839
O O3 0.621608 0.400765 0.356146
O O4 0.733160 0.521485 0.356977
O O5 0.992539 0.788954 0.177437
O O6 0.871297 0.689314 0.230193
O O7 0.906723 0.811348 0.333958
O O8 0.036569 0.708769 0.331889
O O9 0.270817 0.404520 0.160246
O O10 0.458086 0.410528 0.139700
O O11 0.367715 0.538519 0.140817
O O12 0.349672 0.448422 0.000000
O O13 0.290535 0.262641 0.152568
O O14 0.372401 0.203287 0.000000
O O15 0.537355 0.338126 0.500000
O O16 0.429968 0.410931 0.384422
O O17 0.715345 0.663632 0.681639
O O18 0.790322 0.114510 0.000000
O O19 0.573113 0.380373 0.000000
#
# Coordination Sequence:
#
# PCOD9442095 Si02
#       8
#     8   8   8   8   8   8   8   8
#     4   9  19  36  60  84 114 155 198 241 296 360
#     4  12  23  35  56  91 122 160 200 244 304 357
#     4   9  18  34  58  87 115 150 195 248 304 357
#     4  11  22  40  61  87 123 161 204 251 301 364
#     4  10  19  33  56  87 119 150 192 243 298 355
#     4  12  23  34  56  85 121 160 199 243 302 357
#     4  10  21  37  55  82 119 153 193 247 300 353
#     4   9  18  34  58  86 117 150 191 247 310 358
#
# _framework density 18.375246000000001
#
# number of rings (size 3 to 8) (size 9 to 14) (size 15 to 20)
#    0.000    1.750    3.750    1.875    1.750    3.000 
#    0.000    0.625    0.000    2.250    0.000    0.875 
#    0.000    7.000    0.000    0.000    0.000    0.000 
#
# Total GULP energy -357142.794376 kJ/mol
# GULP energy per Si atom -5580.356162 kJ/mol
# Density = 1.833342 g / cm^3
# Si number density = 18.375246 Si / 1000 Ang^3
#
#
#
# Elastic Constant Matrix: (Units=GPa)
#
#
# Indices 1 2 3 4 5 6 
#
# 1 66.2327 31.8339 25.0632 0.0000 0.0000 0.0000
# 2 31.8339 60.7262 31.5947 0.0000 0.0000 0.0000
# 3 25.0632 31.5947 87.2695 0.0000 0.0000 0.0000
# 4 0.0000 0.0000 0.0000 20.1600 0.0000 0.0000
# 5 0.0000 0.0000 0.0000 0.0000 23.5047 0.0000
# 6 0.0000 0.0000 0.0000 0.0000 0.0000 32.7851
#
#
#
# Elastic Compliance Matrix: (Units=1/GPa)
#
#
# Indices 1 2 3 4 5 6 
#
# 1 0.020608 -0.009516 -0.002473 0.000000 0.000000 0.000000
# 2 -0.009516 0.024684 -0.006203 0.000000 0.000000 0.000000
# 3 -0.002473 -0.006203 0.014415 0.000000 0.000000 0.000000
# 4 0.000000 0.000000 0.000000 0.049603 0.000000 0.000000
# 5 0.000000 0.000000 0.000000 0.000000 0.042545 0.000000
# 6 0.000000 0.000000 0.000000 0.000000 0.000000 0.030502
#
#
# Mechanical properties :
#
#
# Convention : Reuss Voigt Hill
#
# Bulk Modulus (GPa) = 42.88046 43.46802 43.17424
# Shear Modulus (GPa) = 22.07357 23.67242 22.87300
#
# Velocity S-wave (km/s) = 3.46969 3.59315 3.53196
# Velocity P-wave (km/s) = 6.27999 6.39699 6.33876
#
# Compressibility (1/GPa) = 0.02332065
#
# Stress axis : x y z
#
# Youngs Moduli (GPa) = 48.52456 40.51288 69.37282
#
# Poissons Ratio (x) = 0.38554 0.17157
# Poissons Ratio (y) = 0.46178 0.43034
# Poissons Ratio (z) = 0.12001 0.25131
#
# Static dielectric constant tensor:
#      x y z
#    x 1.634650 0.000000 0.000000 
#    y 0.000000 1.654480 0.000000 
#    z 0.000000 0.000000 1.669740 
# 
# From -- ./inp_files/21528.got.cif
#   From: 2010.05.17/outbox.cif.g08.bks.cpg/sg58_11_cif.got.tgz:21528.got - 2010.06.03 14:20:14.
