data_PCOD9442354
_publ_section_title
;
Structure prediction by ZEFSAII (Michael W. Deem and Ramdas Pophale) SiO2 
 PCOD9442354
Probable space group: P N N M
;
_chemical_formula_sum "Si O2"
_cell_formula_units_Z 48
_cell_length_a 25.839905
_cell_length_b 5.062276
_cell_length_c 19.316457
_cell_angle_alpha 90.000000
_cell_angle_beta 90.000000
_cell_angle_gamma 90.000000
_cell_volume 2526.761226
_symmetry_space_group_name_H-M "P N N M"
_symmetry_group_IT_number 58
_symmetry_cell_setting 'orthorhombic'
loop_
_space_group_symop_operation_xyz
x,y,z
-x,-y,z
1/2+x,1/2-y,1/2-z
1/2-x,1/2+y,1/2-z
-x,-y,-z
x,y,-z
1/2-x,1/2+y,1/2+z
1/2+x,1/2-y,1/2+z
loop_
_atom_site_type_symbol
_atom_site_label
_atom_site_fract_x
_atom_site_fract_y
_atom_site_fract_z
Si Si1 0.737161 0.312094 0.578489
Si Si2 0.962423 0.748706 0.424035
Si Si3 0.390014 0.082384 0.282833
Si Si4 0.720692 0.961502 0.779350
Si Si5 0.665191 0.812248 0.578522
Si Si6 0.559204 0.400306 0.221913
O O1 0.757874 0.333784 0.500000
O O2 0.775918 0.380631 0.640240
O O3 0.690458 0.523470 0.585096
O O4 0.711524 0.025040 0.587596
O O5 0.937308 0.712336 0.500000
O O6 0.928453 0.802998 0.356429
O O7 0.000000 0.500000 0.410925
O O8 0.000000 0.000000 0.429032
O O9 0.336772 0.986938 0.247266
O O10 0.376656 0.136890 0.362570
O O11 0.406966 0.353113 0.246334
O O12 0.431225 0.851625 0.270376
O O13 0.744406 0.716072 0.736612
O O14 0.645678 0.844910 0.500000
O O15 0.500000 0.500000 0.222942
#
# Coordination Sequence:
#
# PCOD9442354 Si02
#       6
#     8   8   8   8   8   8
#     4  10  19  35  55  82 119 155 183 227 284 339
#     4   9  17  33  57  80 105 143 191 237 283 337
#     4  12  22  36  61  86 114 154 195 237 296 344
#     4  12  21  36  57  86 120 148 185 240 283 352
#     4  10  20  35  58  85 112 147 195 233 274 352
#     4  11  23  39  57  84 116 152 199 248 290 337
#
# _framework density 18.996652000000001
#
# number of rings (size 3 to 8) (size 9 to 14) (size 15 to 20)
#    0.000    1.333    3.333    4.500    0.000    0.000 
#    0.000    1.667    0.000    3.000    0.000    0.000 
#    0.000    0.000    0.000    0.000    0.000    0.000 
#
# Total GULP energy -267996.048007 kJ/mol
# GULP energy per Si atom -5583.251000 kJ/mol
# Density = 1.895341 g / cm^3
# Si number density = 18.996652 Si / 1000 Ang^3
#
#
#
# Elastic Constant Matrix: (Units=GPa)
#
#
# Indices 1 2 3 4 5 6 
#
# 1 30.3373 -1.2747 33.7792 0.0000 0.0000 0.0000
# 2 -1.2747 79.8050 -5.7349 0.0000 0.0000 0.0000
# 3 33.7792 -5.7349 129.4850 0.0000 0.0000 0.0000
# 4 0.0000 0.0000 0.0000 27.8467 0.0000 0.0000
# 5 0.0000 0.0000 0.0000 0.0000 29.8148 0.0000
# 6 0.0000 0.0000 0.0000 0.0000 0.0000 25.7302
#
#
#
# Elastic Compliance Matrix: (Units=1/GPa)
#
#
# Indices 1 2 3 4 5 6 
#
# 1 0.046458 -0.000129 -0.012125 0.000000 0.000000 0.000000
# 2 -0.000129 0.012571 0.000590 0.000000 0.000000 0.000000
# 3 -0.012125 0.000590 0.010912 0.000000 0.000000 0.000000
# 4 0.000000 0.000000 0.000000 0.035911 0.000000 0.000000
# 5 0.000000 0.000000 0.000000 0.000000 0.033540 0.000000
# 6 0.000000 0.000000 0.000000 0.000000 0.000000 0.038865
#
#
# Mechanical properties :
#
#
# Convention : Reuss Voigt Hill
#
# Bulk Modulus (GPa) = 21.45322 32.57405 27.01363
# Shear Modulus (GPa) = 23.02833 30.86887 26.94860
#
# Velocity S-wave (km/s) = 3.48549 4.03546 3.77051
# Velocity P-wave (km/s) = 5.24555 6.23680 5.76253
#
# Compressibility (1/GPa) = 0.04661306
#
# Stress axis : x y z
#
# Youngs Moduli (GPa) = 21.52463 79.54871 91.63990
#
# Poissons Ratio (x) = 0.01028 1.11118
# Poissons Ratio (y) = 0.00278 -0.05411
# Poissons Ratio (z) = 0.26100 -0.04697
#
# Static dielectric constant tensor:
#      x y z
#    x 1.641060 0.000000 0.000000 
#    y 0.000000 1.656290 0.000000 
#    z 0.000000 0.000000 1.717770 
# 
# From -- ./inp_files/27629.got.cif
#   From: 2010.05.17/outbox.cif.g08.bks.cpg/sg58_14_cif.got.tgz:27629.got - 2010.06.03 14:20:14.
