data_PCOD9442034
_publ_section_title
;
Structure prediction by ZEFSAII (Michael W. Deem and Ramdas Pophale) SiO2 
 PCOD9442034
Probable space group: P N N M
;
_chemical_formula_sum "Si O2"
_cell_formula_units_Z 40
_cell_length_a 13.979777
_cell_length_b 14.758982
_cell_length_c 7.327958
_cell_angle_alpha 90.000000
_cell_angle_beta 90.000000
_cell_angle_gamma 90.000000
_cell_volume 1511.957621
_symmetry_space_group_name_H-M "P N N M"
_symmetry_group_IT_number 58
_symmetry_cell_setting 'orthorhombic'
loop_
_space_group_symop_operation_xyz
x,y,z
-x,-y,z
1/2+x,1/2-y,1/2-z
1/2-x,1/2+y,1/2-z
-x,-y,-z
x,y,-z
1/2-x,1/2+y,1/2+z
1/2+x,1/2-y,1/2+z
loop_
_atom_site_type_symbol
_atom_site_label
_atom_site_fract_x
_atom_site_fract_y
_atom_site_fract_z
Si Si1 0.697551 0.068013 0.209957
Si Si2 0.220668 0.227072 0.279198
Si Si3 0.009365 0.228627 0.278083
Si Si4 0.406391 0.445345 0.779478
Si Si5 0.403108 0.103865 0.789623
O O1 0.715305 0.168306 0.286664
O O2 0.803447 0.024377 0.212116
O O3 0.625743 0.993407 0.290406
O O4 0.668415 0.083256 0.000000
O O5 0.228937 0.226044 0.500000
O O6 0.307747 0.166747 0.211022
O O7 0.114279 0.193373 0.230041
O O8 0.006677 0.231049 0.500000
O O9 0.929123 0.157508 0.220181
O O10 0.984213 0.329518 0.212667
O O11 0.500000 0.500000 0.722369
O O12 0.402382 0.449641 0.000000
O O13 0.428387 0.086945 0.000000
#
# Coordination Sequence:
#
# PCOD9442034 Si02
#       5
#     8   8   8   8   8
#     4  10  21  34  53  81 110 139 175 225 277 316
#     4  10  20  36  56  80 108 140 182 227 268 317
#     4   9  18  33  54  77 105 142 180 217 262 321
#     4  10  19  33  55  80 105 140 184 222 263 319
#     4  10  20  36  55  78 109 144 179 220 273 325
#
# _framework density 26.455767000000002
#
# number of rings (size 3 to 8) (size 9 to 14) (size 15 to 20)
#    0.000    2.200    2.000    1.200    0.000    3.600 
#    0.000    6.000    0.000    0.000    0.000    4.200 
#    0.000    0.000    0.000    0.000    0.000    0.000 
#
# Total GULP energy -223733.155610 kJ/mol
# GULP energy per Si atom -5593.328890 kJ/mol
# Density = 2.639555 g / cm^3
# Si number density = 26.455767 Si / 1000 Ang^3
#
#
#
# Elastic Constant Matrix: (Units=GPa)
#
#
# Indices 1 2 3 4 5 6 
#
# 1 100.6416 10.0555 -3.6448 0.0000 0.0000 0.0000
# 2 10.0555 117.2963 0.6552 0.0000 0.0000 0.0000
# 3 -3.6448 0.6552 110.4391 0.0000 0.0000 0.0000
# 4 0.0000 0.0000 0.0000 3.4937 0.0000 0.0000
# 5 0.0000 0.0000 0.0000 0.0000 5.7831 0.0000
# 6 0.0000 0.0000 0.0000 0.0000 0.0000 58.6153
#
#
#
# Elastic Compliance Matrix: (Units=1/GPa)
#
#
# Indices 1 2 3 4 5 6 
#
# 1 0.010035 -0.000862 0.000336 0.000000 0.000000 0.000000
# 2 -0.000862 0.008600 -0.000079 0.000000 0.000000 0.000000
# 3 0.000336 -0.000079 0.009066 0.000000 0.000000 0.000000
# 4 0.000000 0.000000 0.000000 0.286228 0.000000 0.000000
# 5 0.000000 0.000000 0.000000 0.000000 0.172917 0.000000
# 6 0.000000 0.000000 0.000000 0.000000 0.000000 0.017060
#
#
# Mechanical properties :
#
#
# Convention : Reuss Voigt Hill
#
# Bulk Modulus (GPa) = 37.75001 38.05654 37.90328
# Shear Modulus (GPa) = 9.72862 34.99916 22.36389
#
# Velocity S-wave (km/s) = 1.91971 3.64116 2.91061
# Velocity P-wave (km/s) = 4.38336 5.66512 5.06495
#
# Compressibility (1/GPa) = 0.02649006
#
# Stress axis : x y z
#
# Youngs Moduli (GPa) = 99.65549 116.28218 110.29819
#
# Poissons Ratio (x) = 0.10025 -0.03709
# Poissons Ratio (y) = 0.08591 0.00877
# Poissons Ratio (z) = -0.03351 0.00924
#
# Static dielectric constant tensor:
#      x y z
#    x 2.029880 0.000000 0.000000 
#    y 0.000000 2.116560 0.000000 
#    z 0.000000 0.000000 2.040100 
# 
# From -- ./inp_files/5361.got.cif
#   From: 2010.05.17/outbox.cif.g08.bks.cpg/sg58_3_cif.got.tgz:5361.got - 2010.06.03 14:20:14.
