data_PCOD9442845
_publ_section_title
;
Structure prediction by ZEFSAII (Michael W. Deem and Ramdas Pophale) SiO2 
 PCOD9442845
Probable space group: P N N M
;
_chemical_formula_sum "Si O2"
_cell_formula_units_Z 40
_cell_length_a 12.698326
_cell_length_b 11.630618
_cell_length_c 13.020337
_cell_angle_alpha 90.000000
_cell_angle_beta 90.000000
_cell_angle_gamma 90.000000
_cell_volume 1922.965485
_symmetry_space_group_name_H-M "P N N M"
_symmetry_group_IT_number 58
_symmetry_cell_setting 'orthorhombic'
loop_
_space_group_symop_operation_xyz
x,y,z
-x,-y,z
1/2+x,1/2-y,1/2-z
1/2-x,1/2+y,1/2-z
-x,-y,-z
x,y,-z
1/2-x,1/2+y,1/2+z
1/2+x,1/2-y,1/2+z
loop_
_atom_site_type_symbol
_atom_site_label
_atom_site_fract_x
_atom_site_fract_y
_atom_site_fract_z
Si Si1 0.918104 0.842600 0.877834
Si Si2 0.723195 0.155010 0.684137
Si Si3 0.391082 0.060370 0.334534
Si Si4 0.312579 0.116920 0.884115
Si Si5 0.648512 0.675519 0.616591
O O1 0.886789 0.725387 0.820019
O O2 0.811416 0.916440 0.864533
O O3 0.035649 0.878546 0.851370
O O4 0.921825 0.818859 0.000000
O O5 0.801037 0.243285 0.625657
O O6 0.763410 0.150985 0.799987
O O7 0.701321 0.030477 0.638778
O O8 0.381965 0.074289 0.210204
O O9 0.372184 0.186283 0.379646
O O10 0.500000 0.000000 0.364522
O O11 0.342859 0.085835 0.000000
O O12 0.673854 0.642721 0.500000
#
# Coordination Sequence:
#
# PCOD9442845 Si02
#       5
#     8   8   8   8   8
#     4   8  15  32  54  70  97 135 169 204 252 304
#     4   9  18  31  50  74 106 134 164 212 260 304
#     4  11  19  31  53  81 103 131 171 217 263 301
#     4   8  17  32  48  69 101 136 167 201 251 312
#     4  10  20  33  53  81 106 131 171 219 258 301
#
# _framework density 20.801206000000001
#
# number of rings (size 3 to 8) (size 9 to 14) (size 15 to 20)
#    1.200    1.600    2.000    0.000    0.000    3.200 
#    0.000    1.000    0.000    3.600    0.000    1.400 
#    0.000    0.000    0.000    0.000    0.000    0.000 
#
# Total GULP energy -222711.030051 kJ/mol
# GULP energy per Si atom -5567.775751 kJ/mol
# Density = 2.075386 g / cm^3
# Si number density = 20.801206 Si / 1000 Ang^3
#
#
#
# Elastic Constant Matrix: (Units=GPa)
#
#
# Indices 1 2 3 4 5 6 
#
# 1 45.6812 11.7592 14.9263 0.0000 0.0000 0.0000
# 2 11.7592 95.9956 -4.6862 0.0000 0.0000 0.0000
# 3 14.9263 -4.6862 59.0028 0.0000 0.0000 0.0000
# 4 0.0000 0.0000 0.0000 6.9390 0.0000 0.0000
# 5 0.0000 0.0000 0.0000 0.0000 26.1817 0.0000
# 6 0.0000 0.0000 0.0000 0.0000 0.0000 29.7535
#
#
#
# Elastic Compliance Matrix: (Units=1/GPa)
#
#
# Indices 1 2 3 4 5 6 
#
# 1 0.024905 -0.003371 -0.006568 0.000000 0.000000 0.000000
# 2 -0.003371 0.010914 0.001720 0.000000 0.000000 0.000000
# 3 -0.006568 0.001720 0.018747 0.000000 0.000000 0.000000
# 4 0.000000 0.000000 0.000000 0.144112 0.000000 0.000000
# 5 0.000000 0.000000 0.000000 0.000000 0.038195 0.000000
# 6 0.000000 0.000000 0.000000 0.000000 0.000000 0.033609
#
#
# Mechanical properties :
#
#
# Convention : Reuss Voigt Hill
#
# Bulk Modulus (GPa) = 26.22892 27.18646 26.70769
# Shear Modulus (GPa) = 16.68724 24.48686 20.58705
#
# Velocity S-wave (km/s) = 2.83543 3.43473 3.14937
# Velocity P-wave (km/s) = 4.83283 5.36916 5.10804
#
# Compressibility (1/GPa) = 0.03812585
#
# Stress axis : x y z
#
# Youngs Moduli (GPa) = 40.15281 91.62470 53.34327
#
# Poissons Ratio (x) = 0.30891 0.35036
# Poissons Ratio (y) = 0.13537 -0.09174
# Poissons Ratio (z) = 0.26373 -0.15757
#
# Static dielectric constant tensor:
#      x y z
#    x 1.755340 0.000000 0.000000 
#    y 0.000000 1.868160 0.000000 
#    z 0.000000 0.000000 1.702430 
# 
# From -- ./inp_files/20992.got.cif
#   From: 2010.05.17/outbox.cif.g08.bks.cpg/sg58_11_cif.got.tgz:20992.got - 2010.06.03 14:20:14.
