data_PCOD9442871
_publ_section_title
;
Structure prediction by ZEFSAII (Michael W. Deem and Ramdas Pophale) SiO2 
 PCOD9442871
Probable space group: P N N M
;
_chemical_formula_sum "Si O2"
_cell_formula_units_Z 52
_cell_length_a 5.224677
_cell_length_b 28.529284
_cell_length_c 18.628156
_cell_angle_alpha 90.000000
_cell_angle_beta 90.000000
_cell_angle_gamma 90.000000
_cell_volume 2776.643896
_symmetry_space_group_name_H-M "P N N M"
_symmetry_group_IT_number 58
_symmetry_cell_setting 'orthorhombic'
loop_
_space_group_symop_operation_xyz
x,y,z
-x,-y,z
1/2+x,1/2-y,1/2-z
1/2-x,1/2+y,1/2-z
-x,-y,-z
x,y,-z
1/2-x,1/2+y,1/2+z
1/2+x,1/2-y,1/2+z
loop_
_atom_site_type_symbol
_atom_site_label
_atom_site_fract_x
_atom_site_fract_y
_atom_site_fract_z
Si Si1 0.886005 0.552698 0.653157
Si Si2 0.138961 0.177214 0.579322
Si Si3 0.752173 0.032856 0.000000
Si Si4 0.922843 0.052377 0.698735
Si Si5 0.181479 0.623935 0.740361
Si Si6 0.630985 0.278156 0.769482
Si Si7 0.873620 0.625961 0.872637
O O1 0.759793 0.560306 0.575429
O O2 0.699716 0.552124 0.721581
O O3 0.000000 0.500000 0.652353
O O4 0.088987 0.593351 0.673104
O O5 0.143342 0.198200 0.500000
O O6 0.176114 0.211961 0.645992
O O7 0.370755 0.139595 0.585159
O O8 0.864760 0.153435 0.594131
O O9 0.500000 0.000000 0.000000
O O10 0.000000 0.000000 0.000000
O O11 0.159405 0.087932 0.709253
O O12 0.726245 0.073324 0.640577
O O13 0.000000 0.000000 0.680637
O O14 0.341677 0.671131 0.730418
O O15 0.940665 0.639787 0.789746
O O16 0.356838 0.255063 0.757996
#
# Coordination Sequence:
#
# PCOD9442871 Si02
#       7
#     8   8   4   8   8   8   8
#     4  10  20  33  57  87 121 162 207 252 304 361
#     4  11  22  41  67  93 121 160 205 249 302 371
#     4  10  22  36  52  80 122 166 214 246 288 368
#     4  11  19  33  60  89 124 155 204 255 306 359
#     4  10  21  37  59  89 122 155 203 255 312 353
#     4  11  23  40  65  92 119 154 203 259 307 360
#     4  10  20  36  58  92 121 152 200 242 295 350
#
# _framework density 18.727644000000002
#
# number of rings (size 3 to 8) (size 9 to 14) (size 15 to 20)
#    0.000    1.538    4.615    2.769    4.308    0.000 
#    0.000    0.000    3.385    2.769    0.000    0.000 
#    0.000    0.000    0.000    0.000    0.000    0.000 
#
# Total GULP energy -289752.302713 kJ/mol
# GULP energy per Si atom -5572.159668 kJ/mol
# Density = 1.868502 g / cm^3
# Si number density = 18.727644 Si / 1000 Ang^3
#
#
#
# Elastic Constant Matrix: (Units=GPa)
#
#
# Indices 1 2 3 4 5 6 
#
# 1 95.3258 22.5363 9.9776 0.0000 0.0000 0.0000
# 2 22.5363 84.3458 15.8989 0.0000 0.0000 0.0000
# 3 9.9776 15.8989 105.9890 0.0000 0.0000 0.0000
# 4 0.0000 0.0000 0.0000 20.1626 0.0000 0.0000
# 5 0.0000 0.0000 0.0000 0.0000 18.6221 0.0000
# 6 0.0000 0.0000 0.0000 0.0000 0.0000 32.5016
#
#
#
# Elastic Compliance Matrix: (Units=1/GPa)
#
#
# Indices 1 2 3 4 5 6 
#
# 1 0.011238 -0.002885 -0.000625 0.000000 0.000000 0.000000
# 2 -0.002885 0.012941 -0.001670 0.000000 0.000000 0.000000
# 3 -0.000625 -0.001670 0.009744 0.000000 0.000000 0.000000
# 4 0.000000 0.000000 0.000000 0.049597 0.000000 0.000000
# 5 0.000000 0.000000 0.000000 0.000000 0.053700 0.000000
# 6 0.000000 0.000000 0.000000 0.000000 0.000000 0.030768
#
#
# Mechanical properties :
#
#
# Convention : Reuss Voigt Hill
#
# Bulk Modulus (GPa) = 42.43730 42.49847 42.46789
# Shear Modulus (GPa) = 26.85261 30.07379 28.46320
#
# Velocity S-wave (km/s) = 3.79073 4.01165 3.90275
# Velocity P-wave (km/s) = 6.47062 6.64831 6.56007
#
# Compressibility (1/GPa) = 0.02356418
#
# Stress axis : x y z
#
# Youngs Moduli (GPa) = 88.98564 77.27098 102.62451
#
# Poissons Ratio (x) = 0.22291 0.06416
# Poissons Ratio (y) = 0.25670 0.17135
# Poissons Ratio (z) = 0.05563 0.12902
#
# Static dielectric constant tensor:
#      x y z
#    x 1.730760 0.000000 0.000000 
#    y 0.000000 1.682320 0.000000 
#    z 0.000000 0.000000 1.660000 
# 
# From -- ./inp_files/24397.got.cif
#   From: 2010.05.17/outbox.cif.g08.bks.cpg/sg58_13_cif.got.tgz:24397.got - 2010.06.03 14:20:14.
