data_PCOD9442302
_publ_section_title
;
Structure prediction by ZEFSAII (Michael W. Deem and Ramdas Pophale) SiO2 
 PCOD9442302
Probable space group: P N N M
;
_chemical_formula_sum "Si O2"
_cell_formula_units_Z 60
_cell_length_a 32.321624
_cell_length_b 12.012089
_cell_length_c 7.509903
_cell_angle_alpha 90.000000
_cell_angle_beta 90.000000
_cell_angle_gamma 90.000000
_cell_volume 2915.721523
_symmetry_space_group_name_H-M "P N N M"
_symmetry_group_IT_number 58
_symmetry_cell_setting 'orthorhombic'
loop_
_space_group_symop_operation_xyz
x,y,z
-x,-y,z
1/2+x,1/2-y,1/2-z
1/2-x,1/2+y,1/2-z
-x,-y,-z
x,y,-z
1/2-x,1/2+y,1/2+z
1/2+x,1/2-y,1/2+z
loop_
_atom_site_type_symbol
_atom_site_label
_atom_site_fract_x
_atom_site_fract_y
_atom_site_fract_z
Si Si1 0.636039 0.045952 0.714994
Si Si2 0.416058 0.168820 0.791246
Si Si3 0.809558 0.959165 0.716649
Si Si4 0.943054 0.768749 0.500000
Si Si5 0.334968 0.294696 0.785341
Si Si6 0.006481 0.370865 0.798138
Si Si7 0.716751 0.919962 0.710440
Si Si8 0.116155 0.203074 0.205863
O O1 0.636835 0.045790 0.500000
O O2 0.625969 0.170698 0.772123
O O3 0.601779 0.956511 0.772022
O O4 0.680407 0.000560 0.781390
O O5 0.379111 0.247219 0.721492
O O6 0.460230 0.179455 0.701328
O O7 0.422105 0.191485 0.000000
O O8 0.809635 0.956002 0.500000
O O9 0.762815 0.936649 0.780483
O O10 0.842089 0.868075 0.780526
O O11 0.823994 0.081900 0.773892
O O12 0.918031 0.838552 0.342763
O O13 0.966282 0.694649 0.657031
O O14 0.300258 0.204629 0.734860
O O15 0.336799 0.294872 0.000000
O O16 0.000000 0.500000 0.746444
O O17 0.023731 0.369634 0.000000
O O18 0.718965 0.942862 0.500000
O O19 0.103207 0.205397 0.000000
#
# Coordination Sequence:
#
# PCOD9442302 Si02
#       8
#     8   8   8   4   8   8   8   8
#     4   9  19  34  53  85 122 160 199 252 306 372
#     4  10  19  34  58  90 122 159 203 250 312 375
#     4  10  21  39  59  83 118 165 210 257 312 367
#     4  12  23  40  60  87 126 166 204 257 311 376
#     4   9  20  37  60  86 120 162 205 256 312 369
#     4  11  23  37  60  95 129 165 203 258 318 382
#     4   9  19  35  57  85 119 156 204 257 311 364
#     4  11  24  39  60  87 121 167 212 254 313 374
#
# _framework density 20.578095999999999
#
# number of rings (size 3 to 8) (size 9 to 14) (size 15 to 20)
#    0.000    2.000    1.333    1.800    4.667    3.733 
#    0.000    0.000    0.000    1.600    0.000    1.867 
#    0.000    0.000    0.000    0.000    0.000    0.000 
#
# Total GULP energy -334197.155858 kJ/mol
# GULP energy per Si atom -5569.952598 kJ/mol
# Density = 2.053126 g / cm^3
# Si number density = 20.578096 Si / 1000 Ang^3
#
#
#
# Elastic Constant Matrix: (Units=GPa)
#
#
# Indices 1 2 3 4 5 6 
#
# 1 105.4305 39.2768 14.4699 0.0000 0.0000 0.0000
# 2 39.2768 53.6482 0.0723 0.0000 0.0000 0.0000
# 3 14.4699 0.0723 90.9187 0.0000 0.0000 0.0000
# 4 0.0000 0.0000 0.0000 13.0720 0.0000 0.0000
# 5 0.0000 0.0000 0.0000 0.0000 27.5071 0.0000
# 6 0.0000 0.0000 0.0000 0.0000 0.0000 14.5385
#
#
#
# Elastic Compliance Matrix: (Units=1/GPa)
#
#
# Indices 1 2 3 4 5 6 
#
# 1 0.013443 -0.009839 -0.002132 0.000000 0.000000 0.000000
# 2 -0.009839 0.025841 0.001545 0.000000 0.000000 0.000000
# 3 -0.002132 0.001545 0.011337 0.000000 0.000000 0.000000
# 4 0.000000 0.000000 0.000000 0.076499 0.000000 0.000000
# 5 0.000000 0.000000 0.000000 0.000000 0.036354 0.000000
# 6 0.000000 0.000000 0.000000 0.000000 0.000000 0.068783
#
#
# Mechanical properties :
#
#
# Convention : Reuss Voigt Hill
#
# Bulk Modulus (GPa) = 33.59039 39.73728 36.66384
# Shear Modulus (GPa) = 19.00918 24.10209 21.55563
#
# Velocity S-wave (km/s) = 3.04264 3.42607 3.24003
# Velocity P-wave (km/s) = 5.35745 5.91633 5.64381
#
# Compressibility (1/GPa) = 0.02977042
#
# Stress axis : x y z
#
# Youngs Moduli (GPa) = 74.38922 38.69814 88.20784
#
# Poissons Ratio (x) = 0.38074 0.18803
# Poissons Ratio (y) = 0.73190 -0.13631
# Poissons Ratio (z) = 0.15857 -0.05980
#
# Static dielectric constant tensor:
#      x y z
#    x 1.762360 0.000000 0.000000 
#    y 0.000000 1.702840 0.000000 
#    z 0.000000 0.000000 2.718260 
# 
# From -- ./inp_files/10909.got.cif
#   From: 2010.05.17/outbox.cif.g08.bks.cpg/sg58_6_cif.got.tgz:10909.got - 2010.06.03 14:20:14.
