data_PCOD9442946
_publ_section_title
;
Structure prediction by ZEFSAII (Michael W. Deem and Ramdas Pophale) SiO2 
 PCOD9442946
Probable space group: P N N M
;
_chemical_formula_sum "Si O2"
_cell_formula_units_Z 56
_cell_length_a 23.315330
_cell_length_b 14.506389
_cell_length_c 8.022699
_cell_angle_alpha 90.000000
_cell_angle_beta 90.000000
_cell_angle_gamma 90.000000
_cell_volume 2713.447257
_symmetry_space_group_name_H-M "P N N M"
_symmetry_group_IT_number 58
_symmetry_cell_setting 'orthorhombic'
loop_
_space_group_symop_operation_xyz
x,y,z
-x,-y,z
1/2+x,1/2-y,1/2-z
1/2-x,1/2+y,1/2-z
-x,-y,-z
x,y,-z
1/2-x,1/2+y,1/2+z
1/2+x,1/2-y,1/2+z
loop_
_atom_site_type_symbol
_atom_site_label
_atom_site_fract_x
_atom_site_fract_y
_atom_site_fract_z
Si Si1 0.129690 0.191555 0.198447
Si Si2 0.987787 0.898523 0.304480
Si Si3 0.868534 0.412860 0.191577
Si Si4 0.097598 0.787270 0.197168
Si Si5 0.782277 0.149176 0.689350
Si Si6 0.247724 0.135221 0.191075
Si Si7 0.659764 0.103813 0.294161
O O1 0.068329 0.148475 0.229862
O O2 0.183235 0.129517 0.260535
O O3 0.135017 0.297224 0.259594
O O4 0.139372 0.195820 0.000000
O O5 0.976203 0.908659 0.500000
O O6 0.043927 0.836770 0.278695
O O7 0.000000 0.000000 0.232543
O O8 0.892745 0.317388 0.265171
O O9 0.799571 0.401852 0.199617
O O10 0.876553 0.515224 0.263559
O O11 0.887824 0.415155 0.000000
O O12 0.156509 0.844421 0.222762
O O13 0.087303 0.781147 0.000000
O O14 0.792067 0.117289 0.500000
O O15 0.759899 0.254818 0.682826
O O16 0.726596 0.097907 0.761432
O O17 0.252011 0.100262 0.000000
O O18 0.660739 0.102374 0.500000
#
# Coordination Sequence:
#
# PCOD9442946 Si02
#       7
#     8   8   8   8   8   8   8
#     4   9  18  35  57  78 103 135 171 213 256 297
#     4  11  25  42  57  72  93 128 173 217 262 311
#     4   9  17  30  51  80 110 139 171 203 241 299
#     4  10  20  34  53  77 105 136 171 214 256 294
#     4   8  14  28  50  73 102 139 170 199 241 292
#     4   8  15  28  47  73 104 136 167 202 248 293
#     4   8  15  30  53  80 109 140 170 200 244 304
#
# _framework density 20.637954000000001
#
# number of rings (size 3 to 8) (size 9 to 14) (size 15 to 20)
#    0.000    3.000    0.000    2.571    0.000    3.429 
#    0.000    8.571    0.000    4.286    0.000    0.000 
#    0.000    0.000    0.000    0.000    0.000    0.000 
#
# Total GULP energy -311958.872162 kJ/mol
# GULP energy per Si atom -5570.694146 kJ/mol
# Density = 2.059098 g / cm^3
# Si number density = 20.637954 Si / 1000 Ang^3
#
#
#
# Elastic Constant Matrix: (Units=GPa)
#
#
# Indices 1 2 3 4 5 6 
#
# 1 88.2382 21.7195 -12.1335 0.0000 0.0000 0.0000
# 2 21.7195 61.9162 -4.0563 0.0000 0.0000 0.0000
# 3 -12.1335 -4.0563 14.5782 0.0000 0.0000 0.0000
# 4 0.0000 0.0000 0.0000 14.6468 0.0000 0.0000
# 5 0.0000 0.0000 0.0000 0.0000 19.2511 0.0000
# 6 0.0000 0.0000 0.0000 0.0000 0.0000 20.5890
#
#
#
# Elastic Compliance Matrix: (Units=1/GPa)
#
#
# Indices 1 2 3 4 5 6 
#
# 1 0.013773 -0.004156 0.010307 0.000000 0.000000 0.000000
# 2 -0.004156 0.017705 0.001467 0.000000 0.000000 0.000000
# 3 0.010307 0.001467 0.077583 0.000000 0.000000 0.000000
# 4 0.000000 0.000000 0.000000 0.068274 0.000000 0.000000
# 5 0.000000 0.000000 0.000000 0.000000 0.051945 0.000000
# 6 0.000000 0.000000 0.000000 0.000000 0.000000 0.048570
#
#
# Mechanical properties :
#
#
# Convention : Reuss Voigt Hill
#
# Bulk Modulus (GPa) = 8.04525 19.53243 13.78884
# Shear Modulus (GPa) = 16.44485 21.51090 18.97788
#
# Velocity S-wave (km/s) = 2.82587 3.23197 3.03572
# Velocity P-wave (km/s) = 3.81499 4.83863 4.35698
#
# Compressibility (1/GPa) = 0.12429691
#
# Stress axis : x y z
#
# Youngs Moduli (GPa) = 72.60399 56.48138 12.88946
#
# Poissons Ratio (x) = 0.23475 -0.13285
# Poissons Ratio (y) = 0.30176 -0.01891
# Poissons Ratio (z) = -0.74835 -0.08286
#
# Static dielectric constant tensor:
#      x y z
#    x 1.713830 0.000000 0.000000 
#    y 0.000000 1.801790 0.000000 
#    z 0.000000 0.000000 1.743870 
# 
# From -- ./inp_files/9069.got.cif
#   From: 2010.05.17/outbox.cif.g08.bks.cpg/sg58_5_cif.got.tgz:9069.got - 2010.06.03 14:20:14.
