data_PCOD9442619
_publ_section_title
;
Structure prediction by ZEFSAII (Michael W. Deem and Ramdas Pophale) SiO2 
 PCOD9442619
Probable space group: P N N M
;
_chemical_formula_sum "Si O2"
_cell_formula_units_Z 64
_cell_length_a 7.416349
_cell_length_b 23.486743
_cell_length_c 18.220508
_cell_angle_alpha 90.000000
_cell_angle_beta 90.000000
_cell_angle_gamma 90.000000
_cell_volume 3173.755274
_symmetry_space_group_name_H-M "P N N M"
_symmetry_group_IT_number 58
_symmetry_cell_setting 'orthorhombic'
loop_
_space_group_symop_operation_xyz
x,y,z
-x,-y,z
1/2+x,1/2-y,1/2-z
1/2-x,1/2+y,1/2-z
-x,-y,-z
x,y,-z
1/2-x,1/2+y,1/2+z
1/2+x,1/2-y,1/2+z
loop_
_atom_site_type_symbol
_atom_site_label
_atom_site_fract_x
_atom_site_fract_y
_atom_site_fract_z
Si Si1 0.117214 0.873306 0.193476
Si Si2 0.033181 0.062191 0.321869
Si Si3 0.137061 0.544589 0.289126
Si Si4 0.306904 0.758188 0.415210
Si Si5 0.955229 0.826567 0.413639
Si Si6 0.302948 0.164535 0.820285
Si Si7 0.197442 0.971682 0.917143
Si Si8 0.828275 0.255525 0.179670
O O1 0.120550 0.911735 0.267237
O O2 0.903994 0.858070 0.184122
O O3 0.178661 0.912020 0.125635
O O4 0.205789 0.811054 0.196341
O O5 0.199958 0.051248 0.267293
O O6 0.073957 0.111109 0.380011
O O7 0.000000 0.000000 0.354769
O O8 0.076375 0.608574 0.309226
O O9 0.195588 0.514495 0.364694
O O10 0.000000 0.500000 0.254823
O O11 0.362186 0.757226 0.500000
O O12 0.196183 0.700835 0.394427
O O13 0.482394 0.761215 0.363819
O O14 0.163595 0.808443 0.403082
O O15 0.915624 0.823984 0.500000
O O16 0.828584 0.783313 0.369034
O O17 0.335593 0.208777 0.754615
O O18 0.267080 0.965653 0.000000
O O19 0.000000 0.000000 0.920816
#
# Coordination Sequence:
#
# PCOD9442619 Si02
#       8
#     8   8   8   8   8   8   8   8
#     4  10  19  37  60  91 118 160 213 249 308 377
#     4  11  20  42  65  85 125 163 213 266 313 376
#     4  11  22  38  58  91 124 163 208 257 314 371
#     4  10  24  42  62  94 133 170 209 263 327 387
#     4  11  24  43  66  93 128 165 211 268 326 387
#     4  10  21  38  61  92 124 164 210 258 315 378
#     4  11  21  38  62  86 120 167 210 251 306 380
#     4  11  22  39  66  93 130 167 211 263 324 384
#
# _framework density 20.165385000000001
#
# number of rings (size 3 to 8) (size 9 to 14) (size 15 to 20)
#    0.000    1.375    6.250    1.125    1.750    5.500 
#    0.000    1.250    0.000    0.375    0.000    0.000 
#    0.000    0.000    0.000    0.000    0.000    0.000 
#
# Total GULP energy -357351.598143 kJ/mol
# GULP energy per Si atom -5583.618721 kJ/mol
# Density = 2.011949 g / cm^3
# Si number density = 20.165385 Si / 1000 Ang^3
#
#
#
# Elastic Constant Matrix: (Units=GPa)
#
#
# Indices 1 2 3 4 5 6 
#
# 1 43.4256 22.6166 23.2418 0.0000 0.0000 0.0000
# 2 22.6166 164.1001 38.1888 0.0000 0.0000 0.0000
# 3 23.2418 38.1888 78.3425 0.0000 0.0000 0.0000
# 4 0.0000 0.0000 0.0000 28.0835 0.0000 0.0000
# 5 0.0000 0.0000 0.0000 0.0000 20.4918 0.0000
# 6 0.0000 0.0000 0.0000 0.0000 0.0000 55.5000
#
#
#
# Elastic Compliance Matrix: (Units=1/GPa)
#
#
# Indices 1 2 3 4 5 6 
#
# 1 0.028047 -0.002176 -0.007260 0.000000 0.000000 0.000000
# 2 -0.002176 0.007042 -0.002787 0.000000 0.000000 0.000000
# 3 -0.007260 -0.002787 0.016277 0.000000 0.000000 0.000000
# 4 0.000000 0.000000 0.000000 0.035608 0.000000 0.000000
# 5 0.000000 0.000000 0.000000 0.000000 0.048800 0.000000
# 6 0.000000 0.000000 0.000000 0.000000 0.000000 0.018018
#
#
# Mechanical properties :
#
#
# Convention : Reuss Voigt Hill
#
# Bulk Modulus (GPa) = 37.14757 50.44029 43.79393
# Shear Modulus (GPa) = 26.70772 34.26979 30.48876
#
# Velocity S-wave (km/s) = 3.64323 4.12689 3.89258
# Velocity P-wave (km/s) = 6.01323 6.91201 6.47823
#
# Compressibility (1/GPa) = 0.02691966
#
# Stress axis : x y z
#
# Youngs Moduli (GPa) = 35.65482 141.99707 61.43647
#
# Poissons Ratio (x) = 0.30898 0.44602
# Poissons Ratio (y) = 0.07758 0.17124
# Poissons Ratio (z) = 0.25885 0.39579
#
# Static dielectric constant tensor:
#      x y z
#    x 1.806330 0.000000 0.000000 
#    y 0.000000 2.256110 0.000000 
#    z 0.000000 0.000000 1.683040 
# 
# From -- ./inp_files/25656.got.cif
#   From: 2010.05.17/outbox.cif.g08.bks.cpg/sg58_13_cif.got.tgz:25656.got - 2010.06.03 14:20:14.
