data_PCOD9442598
_publ_section_title
;
Structure prediction by ZEFSAII (Michael W. Deem and Ramdas Pophale) SiO2 
 PCOD9442598
Probable space group: P N N M
;
_chemical_formula_sum "Si O2"
_cell_formula_units_Z 64
_cell_length_a 22.374867
_cell_length_b 9.530117
_cell_length_c 14.587324
_cell_angle_alpha 90.000000
_cell_angle_beta 90.000000
_cell_angle_gamma 90.000000
_cell_volume 3110.529497
_symmetry_space_group_name_H-M "P N N M"
_symmetry_group_IT_number 58
_symmetry_cell_setting 'orthorhombic'
loop_
_space_group_symop_operation_xyz
x,y,z
-x,-y,z
1/2+x,1/2-y,1/2-z
1/2-x,1/2+y,1/2-z
-x,-y,-z
x,y,-z
1/2-x,1/2+y,1/2+z
1/2+x,1/2-y,1/2+z
loop_
_atom_site_type_symbol
_atom_site_label
_atom_site_fract_x
_atom_site_fract_y
_atom_site_fract_z
Si Si1 0.006304 0.334497 0.765215
Si Si2 0.146333 0.340079 0.771382
Si Si3 0.289871 0.037623 0.397865
Si Si4 0.946249 0.112160 0.104804
Si Si5 0.233634 0.348327 0.608820
Si Si6 0.531865 0.645611 0.895641
Si Si7 0.841221 0.018395 0.398485
Si Si8 0.333540 0.548136 0.310112
O O1 0.076630 0.307833 0.774530
O O2 0.000000 0.500000 0.773581
O O3 0.967435 0.245985 0.837555
O O4 0.986290 0.272777 0.667838
O O5 0.164781 0.482703 0.822546
O O6 0.173566 0.346417 0.669202
O O7 0.174342 0.211993 0.830285
O O8 0.315870 0.031335 0.500000
O O9 0.228952 0.943740 0.396866
O O10 0.265761 0.195820 0.382268
O O11 0.888913 0.032523 0.144764
O O12 0.934185 0.151927 0.000000
O O13 0.000000 0.000000 0.107578
O O14 0.226062 0.375054 0.500000
O O15 0.276025 0.461752 0.658017
O O16 0.500000 0.500000 0.862480
O O17 0.603587 0.625705 0.896254
O O18 0.511478 0.664705 0.000000
O O19 0.848196 0.945386 0.500000
O O20 0.846574 0.948219 0.299084
#
# Coordination Sequence:
#
# PCOD9442598 Si02
#       8
#     8   8   8   8   8   8   8   8
#     4  12  27  43  65  95 135 175 217 274 341 401
#     4  12  24  42  66  94 128 173 214 269 329 390
#     4  10  23  41  62  92 129 165 210 263 326 391
#     4  11  24  45  70  96 127 167 220 279 329 391
#     4  11  24  42  65  96 128 171 218 267 323 386
#     4  10  21  39  68  98 127 170 222 269 323 394
#     4  10  19  36  65  95 124 166 211 260 317 383
#     4  12  22  41  71  94 131 165 221 272 327 388
#
# _framework density 20.575275000000001
#
# number of rings (size 3 to 8) (size 9 to 14) (size 15 to 20)
#    0.000    1.000    5.000    1.500    1.750    2.500 
#    2.250    0.000    0.000    0.000    0.000    0.000 
#    0.000    0.000    0.000    0.000    0.000    0.000 
#
# Total GULP energy -357062.380320 kJ/mol
# GULP energy per Si atom -5579.099693 kJ/mol
# Density = 2.052844 g / cm^3
# Si number density = 20.575275 Si / 1000 Ang^3
#
#
#
# Elastic Constant Matrix: (Units=GPa)
#
#
# Indices 1 2 3 4 5 6 
#
# 1 48.5452 3.7506 2.1527 0.0000 0.0000 0.0000
# 2 3.7506 83.9308 36.5993 0.0000 0.0000 0.0000
# 3 2.1527 36.5993 104.6535 0.0000 0.0000 0.0000
# 4 0.0000 0.0000 0.0000 14.2156 0.0000 0.0000
# 5 0.0000 0.0000 0.0000 0.0000 17.8159 0.0000
# 6 0.0000 0.0000 0.0000 0.0000 0.0000 23.2214
#
#
#
# Elastic Compliance Matrix: (Units=1/GPa)
#
#
# Indices 1 2 3 4 5 6 
#
# 1 0.020672 -0.000871 -0.000121 0.000000 0.000000 0.000000
# 2 -0.000871 0.014095 -0.004911 0.000000 0.000000 0.000000
# 3 -0.000121 -0.004911 0.011275 0.000000 0.000000 0.000000
# 4 0.000000 0.000000 0.000000 0.070345 0.000000 0.000000
# 5 0.000000 0.000000 0.000000 0.000000 0.056130 0.000000
# 6 0.000000 0.000000 0.000000 0.000000 0.000000 0.043064
#
#
# Mechanical properties :
#
#
# Convention : Reuss Voigt Hill
#
# Bulk Modulus (GPa) = 29.20877 35.79275 32.50076
# Shear Modulus (GPa) = 20.93805 24.02572 22.48189
#
# Velocity S-wave (km/s) = 3.19349 3.42087 3.30913
# Velocity P-wave (km/s) = 5.27492 5.74777 5.51641
#
# Compressibility (1/GPa) = 0.03423629
#
# Stress axis : x y z
#
# Youngs Moduli (GPa) = 48.37462 70.94603 88.68827
#
# Poissons Ratio (x) = 0.06181 0.01069
# Poissons Ratio (y) = 0.04214 0.43559
# Poissons Ratio (z) = 0.00583 0.34845
#
# Static dielectric constant tensor:
#      x y z
#    x 1.743560 0.000000 0.000000 
#    y 0.000000 1.755070 0.000000 
#    z 0.000000 0.000000 1.752490 
# 
# From -- ./inp_files/23523.got.cif
#   From: 2010.05.17/outbox.cif.g08.bks.cpg/sg58_12_cif.got.tgz:23523.got - 2010.06.03 14:20:14.
