data_PCOD9442009
_publ_section_title
;
Structure prediction by ZEFSAII (Michael W. Deem and Ramdas Pophale) SiO2 
 PCOD9442009
Probable space group: P N N M
;
_chemical_formula_sum "Si O2"
_cell_formula_units_Z 64
_cell_length_a 20.853409
_cell_length_b 16.807924
_cell_length_c 9.273211
_cell_angle_alpha 90.000000
_cell_angle_beta 90.000000
_cell_angle_gamma 90.000000
_cell_volume 3250.283765
_symmetry_space_group_name_H-M "P N N M"
_symmetry_group_IT_number 58
_symmetry_cell_setting 'orthorhombic'
loop_
_space_group_symop_operation_xyz
x,y,z
-x,-y,z
1/2+x,1/2-y,1/2-z
1/2-x,1/2+y,1/2-z
-x,-y,-z
x,y,-z
1/2-x,1/2+y,1/2+z
1/2+x,1/2-y,1/2+z
loop_
_atom_site_type_symbol
_atom_site_label
_atom_site_fract_x
_atom_site_fract_y
_atom_site_fract_z
Si Si1 0.848081 0.882628 0.827927
Si Si2 0.156656 0.934352 0.172236
Si Si3 0.387801 0.032960 0.663580
Si Si4 0.805192 0.596735 0.327823
Si Si5 0.022546 0.645850 0.668522
Si Si6 0.371229 0.283651 0.831255
Si Si7 0.894480 0.735738 0.327893
Si Si8 0.779392 0.329661 0.165019
O O1 0.895015 0.817740 0.758363
O O2 0.779992 0.863090 0.754390
O O3 0.863088 0.974914 0.798065
O O4 0.843984 0.872922 0.000000
O O5 0.231988 0.922727 0.213044
O O6 0.117108 0.868839 0.259310
O O7 0.151783 0.920333 0.000000
O O8 0.402505 0.009170 0.500000
O O9 0.448222 0.073974 0.740427
O O10 0.333572 0.102032 0.660196
O O11 0.354595 0.962392 0.751037
O O12 0.810205 0.584879 0.500000
O O13 0.829520 0.686114 0.297482
O O14 0.020808 0.622707 0.500000
O O15 0.070227 0.721677 0.681597
O O16 0.953164 0.678028 0.711748
O O17 0.312777 0.243886 0.744267
O O18 0.355902 0.291748 0.000000
O O19 0.898647 0.750414 0.500000
O O20 0.761148 0.310095 0.000000
#
# Coordination Sequence:
#
# PCOD9442009 Si02
#       8
#     8   8   8   8   8   8   8   8
#     4  11  22  36  56  82 112 145 181 231 287 336
#     4  10  21  36  55  83 116 145 180 229 287 346
#     4  10  20  33  55  85 113 146 183 226 275 326
#     4  10  20  36  57  81 113 147 181 225 279 339
#     4   9  20  39  58  79 111 150 195 234 274 331
#     4  10  20  34  57  83 108 143 187 236 281 327
#     4  10  22  39  59  81 108 151 195 233 278 333
#     4  10  19  33  54  80 111 145 181 221 276 340
#
# _framework density 19.690588999999999
#
# number of rings (size 3 to 8) (size 9 to 14) (size 15 to 20)
#    0.000    2.000    1.250    2.250    0.000    5.500 
#    0.000    3.125    0.000    3.750    0.000    0.000 
#    0.000    0.000    0.000    0.000    0.000    0.000 
#
# Total GULP energy -357550.049087 kJ/mol
# GULP energy per Si atom -5586.719517 kJ/mol
# Density = 1.964577 g / cm^3
# Si number density = 19.690589 Si / 1000 Ang^3
#
#
#
# Elastic Constant Matrix: (Units=GPa)
#
#
# Indices 1 2 3 4 5 6 
#
# 1 32.2285 -2.7199 6.2591 0.0000 0.0000 0.0000
# 2 -2.7199 86.6897 38.3090 0.0000 0.0000 0.0000
# 3 6.2591 38.3090 48.4865 0.0000 0.0000 0.0000
# 4 0.0000 0.0000 0.0000 34.8336 0.0000 0.0000
# 5 0.0000 0.0000 0.0000 0.0000 22.0138 0.0000
# 6 0.0000 0.0000 0.0000 0.0000 0.0000 21.0332
#
#
#
# Elastic Compliance Matrix: (Units=1/GPa)
#
#
# Indices 1 2 3 4 5 6 
#
# 1 0.032917 0.004472 -0.007783 0.000000 0.000000 0.000000
# 2 0.004472 0.018331 -0.015061 0.000000 0.000000 0.000000
# 3 -0.007783 -0.015061 0.033528 0.000000 0.000000 0.000000
# 4 0.000000 0.000000 0.000000 0.028708 0.000000 0.000000
# 5 0.000000 0.000000 0.000000 0.000000 0.045426 0.000000
# 6 0.000000 0.000000 0.000000 0.000000 0.000000 0.047544
#
#
# Mechanical properties :
#
#
# Convention : Reuss Voigt Hill
#
# Bulk Modulus (GPa) = 20.81846 27.90012 24.35929
# Shear Modulus (GPa) = 19.28945 23.94653 21.61799
#
# Velocity S-wave (km/s) = 3.13330 3.49110 3.31703
# Velocity P-wave (km/s) = 4.86681 5.51819 5.20270
#
# Compressibility (1/GPa) = 0.04803429
#
# Stress axis : x y z
#
# Youngs Moduli (GPa) = 30.37910 54.55185 29.82545
#
# Poissons Ratio (x) = -0.24396 0.23212
# Poissons Ratio (y) = -0.13586 0.44919
# Poissons Ratio (z) = 0.23643 0.82159
#
# Static dielectric constant tensor:
#      x y z
#    x 1.700870 0.000000 0.000000 
#    y 0.000000 1.692070 0.000000 
#    z 0.000000 0.000000 1.661280 
# 
# From -- ./inp_files/9329.got.cif
#   From: 2010.05.17/outbox.cif.g08.bks.cpg/sg58_5_cif.got.tgz:9329.got - 2010.06.03 14:20:14.
