data_PCOD9442940
_publ_section_title
;
Structure prediction by ZEFSAII (Michael W. Deem and Ramdas Pophale) SiO2 
 PCOD9442940
Probable space group: P N N M
;
_chemical_formula_sum "Si O2"
_cell_formula_units_Z 64
_cell_length_a 21.299913
_cell_length_b 18.756781
_cell_length_c 7.562619
_cell_angle_alpha 90.000000
_cell_angle_beta 90.000000
_cell_angle_gamma 90.000000
_cell_volume 3021.400931
_symmetry_space_group_name_H-M "P N N M"
_symmetry_group_IT_number 58
_symmetry_cell_setting 'orthorhombic'
loop_
_space_group_symop_operation_xyz
x,y,z
-x,-y,z
1/2+x,1/2-y,1/2-z
1/2-x,1/2+y,1/2-z
-x,-y,-z
x,y,-z
1/2-x,1/2+y,1/2+z
1/2+x,1/2-y,1/2+z
loop_
_atom_site_type_symbol
_atom_site_label
_atom_site_fract_x
_atom_site_fract_y
_atom_site_fract_z
Si Si1 0.063594 0.032286 0.204646
Si Si2 0.312512 0.292813 0.785753
Si Si3 0.670815 0.213657 0.707608
Si Si4 0.436407 0.210252 0.216450
Si Si5 0.674466 0.048286 0.785457
Si Si6 0.058975 0.547266 0.283845
Si Si7 0.552021 0.306469 0.203694
Si Si8 0.185837 0.957813 0.207961
O O1 0.061313 0.117331 0.207648
O O2 0.128024 0.002109 0.284838
O O3 0.064477 0.007490 0.000000
O O4 0.000000 0.000000 0.284711
O O5 0.241972 0.273284 0.724558
O O6 0.369093 0.241906 0.729404
O O7 0.326484 0.373551 0.727316
O O8 0.310791 0.292899 0.000000
O O9 0.670451 0.230251 0.500000
O O10 0.658894 0.129309 0.732053
O O11 0.615203 0.259724 0.789031
O O12 0.444877 0.128896 0.274390
O O13 0.493780 0.260325 0.275758
O O14 0.437664 0.210064 0.000000
O O15 0.744283 0.030278 0.718540
O O16 0.622357 0.992363 0.727373
O O17 0.675338 0.048228 0.000000
O O18 0.058780 0.548033 0.500000
O O19 0.000000 0.500000 0.227373
O O20 0.537232 0.322565 0.000000
O O21 0.190525 0.975624 0.000000
#
# Coordination Sequence:
#
# PCOD9442940 Si02
#       8
#     8   8   8   8   8   8   8   8
#     4  10  21  36  53  75 105 139 173 212 263 318
#     4   9  18  33  54  77 101 133 172 213 255 302
#     4  10  20  34  53  76 105 138 168 206 260 315
#     4   9  18  32  51  76 101 128 170 218 258 298
#     4   9  17  31  53  77  99 128 168 209 249 299
#     4   9  16  27  47  73  97 122 156 202 250 292
#     4  11  22  35  54  78 104 136 176 220 259 304
#     4   9  18  32  51  75 102 132 165 203 250 306
#
# _framework density 21.182227000000001
#
# number of rings (size 3 to 8) (size 9 to 14) (size 15 to 20)
#    0.000    2.500    0.000    2.250    0.000    4.250 
#    0.000    4.375    0.000    4.875    0.000    0.000 
#    0.000    0.000    0.000    0.000    0.000    0.000 
#
# Total GULP energy -357377.478010 kJ/mol
# GULP energy per Si atom -5584.023094 kJ/mol
# Density = 2.113402 g / cm^3
# Si number density = 21.182227 Si / 1000 Ang^3
#
#
#
# Elastic Constant Matrix: (Units=GPa)
#
#
# Indices 1 2 3 4 5 6 
#
# 1 136.9927 83.3363 -2.2669 0.0000 0.0000 0.0000
# 2 83.3363 93.1303 -13.0354 0.0000 0.0000 0.0000
# 3 -2.2669 -13.0354 48.4063 0.0000 0.0000 0.0000
# 4 0.0000 0.0000 0.0000 20.7144 0.0000 0.0000
# 5 0.0000 0.0000 0.0000 0.0000 3.6638 0.0000
# 6 0.0000 0.0000 0.0000 0.0000 0.0000 43.9413
#
#
#
# Elastic Compliance Matrix: (Units=1/GPa)
#
#
# Indices 1 2 3 4 5 6 
#
# 1 0.016522 -0.015251 -0.003333 0.000000 0.000000 0.000000
# 2 -0.015251 0.025236 0.006082 0.000000 0.000000 0.000000
# 3 -0.003333 0.006082 0.022140 0.000000 0.000000 0.000000
# 4 0.000000 0.000000 0.000000 0.048276 0.000000 0.000000
# 5 0.000000 0.000000 0.000000 0.000000 0.272943 0.000000
# 6 0.000000 0.000000 0.000000 0.000000 0.000000 0.022758
#
#
# Mechanical properties :
#
#
# Convention : Reuss Voigt Hill
#
# Bulk Modulus (GPa) = 25.71164 46.06636 35.88900
# Shear Modulus (GPa) = 11.21468 27.69692 19.45580
#
# Velocity S-wave (km/s) = 2.30345 3.61994 3.03396
# Velocity P-wave (km/s) = 4.38625 6.26632 5.40860
#
# Compressibility (1/GPa) = 0.03889289
#
# Stress axis : x y z
#
# Youngs Moduli (GPa) = 60.52458 39.62560 45.16691
#
# Poissons Ratio (x) = 0.60434 0.15055
# Poissons Ratio (y) = 0.92307 -0.27469
# Poissons Ratio (z) = 0.20174 -0.24099
#
# Static dielectric constant tensor:
#      x y z
#    x 1.726900 0.000000 0.000000 
#    y 0.000000 1.692820 0.000000 
#    z 0.000000 0.000000 1.798110 
# 
# From -- ./inp_files/9287.got.cif
#   From: 2010.05.17/outbox.cif.g08.bks.cpg/sg58_5_cif.got.tgz:9287.got - 2010.06.03 14:20:14.
