data_PCOD9442006
_publ_section_title
;
Structure prediction by ZEFSAII (Michael W. Deem and Ramdas Pophale) SiO2 
 PCOD9442006
Probable space group: P N N M
;
_chemical_formula_sum "Si O2"
_cell_formula_units_Z 48
_cell_length_a 25.554341
_cell_length_b 9.921218
_cell_length_c 7.375309
_cell_angle_alpha 90.000000
_cell_angle_beta 90.000000
_cell_angle_gamma 90.000000
_cell_volume 1869.863477
_symmetry_space_group_name_H-M "P N N M"
_symmetry_group_IT_number 58
_symmetry_cell_setting 'orthorhombic'
loop_
_space_group_symop_operation_xyz
x,y,z
-x,-y,z
1/2+x,1/2-y,1/2-z
1/2-x,1/2+y,1/2-z
-x,-y,-z
x,y,-z
1/2-x,1/2+y,1/2+z
1/2+x,1/2-y,1/2+z
loop_
_atom_site_type_symbol
_atom_site_label
_atom_site_fract_x
_atom_site_fract_y
_atom_site_fract_z
Si Si1 0.422264 0.984319 0.205309
Si Si2 0.760526 0.798070 0.718599
Si Si3 0.416860 0.286395 0.220595
Si Si4 0.864847 0.953016 0.278926
Si Si5 0.033104 0.213016 0.720951
Si Si6 0.309938 0.971982 0.289362
O O1 0.414904 0.132535 0.286284
O O2 0.363412 0.925252 0.198510
O O3 0.458402 0.867561 0.284158
O O4 0.440702 0.006796 0.000000
O O5 0.759506 0.802474 0.500000
O O6 0.812868 0.876501 0.781319
O O7 0.711770 0.886777 0.783722
O O8 0.766170 0.643453 0.772988
O O9 0.373429 0.392724 0.281358
O O10 0.475359 0.336429 0.268863
O O11 0.413550 0.283772 0.000000
O O12 0.863514 0.952164 0.500000
O O13 0.917241 0.873828 0.221501
O O14 0.034823 0.215089 0.500000
O O15 0.322153 0.986371 0.500000
#
# Coordination Sequence:
#
# PCOD9442006 Si02
#       6
#     8   8   8   8   8   8
#     4  10  19  33  54  79 113 147 179 223 274 326
#     4  10  22  40  59  82 110 142 183 228 276 328
#     4   9  17  26  47  82 112 140 179 226 272 318
#     4   9  16  29  49  76 108 138 171 222 278 322
#     4   9  15  27  48  77 110 142 179 225 273 318
#     4  11  24  39  59  84 111 143 185 229 274 332
#
# _framework density 25.670324000000001
#
# number of rings (size 3 to 8) (size 9 to 14) (size 15 to 20)
#    0.000    2.333    1.667    1.500    2.333    5.333 
#    0.000    0.000    0.000    2.000    0.000    1.167 
#    0.000    0.000    0.000    0.000    0.000    0.000 
#
# Total GULP energy -268494.777045 kJ/mol
# GULP energy per Si atom -5593.641188 kJ/mol
# Density = 2.561190 g / cm^3
# Si number density = 25.670324 Si / 1000 Ang^3
#
#
#
# Elastic Constant Matrix: (Units=GPa)
#
#
# Indices 1 2 3 4 5 6 
#
# 1 56.2837 -6.9889 2.3082 0.0000 0.0000 0.0000
# 2 -6.9889 96.4512 -3.5787 0.0000 0.0000 0.0000
# 3 2.3082 -3.5787 99.5283 0.0000 0.0000 0.0000
# 4 0.0000 0.0000 0.0000 -0.7036 0.0000 0.0000
# 5 0.0000 0.0000 0.0000 0.0000 -4.5937 0.0000
# 6 0.0000 0.0000 0.0000 0.0000 0.0000 50.1748
#
#
#
# Elastic Compliance Matrix: (Units=1/GPa)
#
#
# Indices 1 2 3 4 5 6 
#
# 1 0.017942 0.001286 -0.000370 0.000000 0.000000 0.000000
# 2 0.001286 0.010474 0.000347 0.000000 0.000000 0.000000
# 3 -0.000370 0.000347 0.010068 0.000000 0.000000 0.000000
# 4 0.000000 0.000000 0.000000 -1.421290 0.000000 0.000000
# 5 0.000000 0.000000 0.000000 0.000000 -0.217688 0.000000
# 6 0.000000 0.000000 0.000000 0.000000 0.000000 0.019930
#
#
# Mechanical properties :
#
#
# Convention : Reuss Voigt Hill
#
# Bulk Modulus (GPa) = 24.38364 26.19381 25.28872
# Shear Modulus (GPa) = -3.18589 26.34367 11.57889
#
# Velocity S-wave (km/s) = -1.11525 3.20696 2.12612
# Velocity P-wave (km/s) = 2.80375 4.89274 3.98747
#
# Compressibility (1/GPa) = 0.04101111
#
# Stress axis : x y z
#
# Youngs Moduli (GPa) = 55.73500 95.47434 99.32026
#
# Poissons Ratio (x) = -0.12282 0.03673
# Poissons Ratio (y) = -0.07170 -0.03444
# Poissons Ratio (z) = 0.02061 -0.03311
#
# Static dielectric constant tensor:
#      x y z
#    x 2.000880 0.000000 0.000000 
#    y 0.000000 2.035530 0.000000 
#    z 0.000000 0.000000 1.992290 
# 
# From -- ./inp_files/3011.got.cif
#   From: 2010.05.17/outbox.cif.g08.bks.cpg/sg58_2_cif.got.tgz:3011.got - 2010.06.03 14:20:14.
