data_PCOD9442552
_publ_section_title
;
Structure prediction by ZEFSAII (Michael W. Deem and Ramdas Pophale) SiO2 
 PCOD9442552
Probable space group: P N N M
;
_chemical_formula_sum "Si O2"
_cell_formula_units_Z 64
_cell_length_a 19.449509
_cell_length_b 9.230073
_cell_length_c 18.668933
_cell_angle_alpha 90.000000
_cell_angle_beta 90.000000
_cell_angle_gamma 90.000000
_cell_volume 3351.454094
_symmetry_space_group_name_H-M "P N N M"
_symmetry_group_IT_number 58
_symmetry_cell_setting 'orthorhombic'
loop_
_space_group_symop_operation_xyz
x,y,z
-x,-y,z
1/2+x,1/2-y,1/2-z
1/2-x,1/2+y,1/2-z
-x,-y,-z
x,y,-z
1/2-x,1/2+y,1/2+z
1/2+x,1/2-y,1/2+z
loop_
_atom_site_type_symbol
_atom_site_label
_atom_site_fract_x
_atom_site_fract_y
_atom_site_fract_z
Si Si1 0.814112 0.086008 0.789481
Si Si2 0.623601 0.955360 0.084182
Si Si3 0.715517 0.409487 0.583283
Si Si4 0.575708 0.003068 0.685938
Si Si5 0.574630 0.739454 0.799471
Si Si6 0.223955 0.131431 0.321691
Si Si7 0.920650 0.716627 0.683694
Si Si8 0.300299 0.928822 0.584159
O O1 0.877601 0.119096 0.736804
O O2 0.773844 0.232158 0.809547
O O3 0.830934 0.000809 0.862306
O O4 0.765283 0.977860 0.744806
O O5 0.585712 0.088902 0.123966
O O6 0.706470 0.969652 0.089828
O O7 0.605112 0.811012 0.128599
O O8 0.606291 0.947234 0.000000
O O9 0.695159 0.422347 0.500000
O O10 0.714912 0.239063 0.602960
O O11 0.583751 0.138236 0.739376
O O12 0.634317 0.013774 0.627661
O O13 0.500000 0.000000 0.652480
O O14 0.577889 0.865918 0.739030
O O15 0.494959 0.707420 0.816319
O O16 0.146236 0.186175 0.324118
O O17 0.240633 0.037015 0.391234
O O18 0.311263 0.935023 0.500000
#
# Coordination Sequence:
#
# PCOD9442552 Si02
#       8
#     8   8   8   8   8   8   8   8
#     4  12  22  38  63  87 121 161 205 253 311 365
#     4  10  19  36  60  88 124 164 205 252 306 370
#     4  10  22  39  62  92 124 159 206 259 313 372
#     4   9  18  37  59  84 118 161 207 254 304 370
#     4  10  21  36  56  89 122 158 207 256 303 367
#     4  12  23  36  61  88 118 161 204 251 312 369
#     4  10  21  36  57  87 122 157 209 257 300 368
#     4  11  23  39  60  92 127 160 206 262 317 373
#
# _framework density 19.096188999999999
#
# number of rings (size 3 to 8) (size 9 to 14) (size 15 to 20)
#    0.000    1.500    2.500    4.875    0.000    2.750 
#    0.000    0.000    0.000    0.000    0.000    9.625 
#    0.000    0.000    0.000    0.000    0.000    0.000 
#
# Total GULP energy -357326.504710 kJ/mol
# GULP energy per Si atom -5583.226636 kJ/mol
# Density = 1.905273 g / cm^3
# Si number density = 19.096189 Si / 1000 Ang^3
#
#
#
# Elastic Constant Matrix: (Units=GPa)
#
#
# Indices 1 2 3 4 5 6 
#
# 1 106.4297 46.2850 45.9612 0.0000 0.0000 0.0000
# 2 46.2850 84.7147 47.7854 0.0000 0.0000 0.0000
# 3 45.9612 47.7854 94.9394 0.0000 0.0000 0.0000
# 4 0.0000 0.0000 0.0000 29.7201 0.0000 0.0000
# 5 0.0000 0.0000 0.0000 0.0000 11.7348 0.0000
# 6 0.0000 0.0000 0.0000 0.0000 0.0000 24.4087
#
#
#
# Elastic Compliance Matrix: (Units=1/GPa)
#
#
# Indices 1 2 3 4 5 6 
#
# 1 0.013272 -0.005065 -0.003876 0.000000 0.000000 0.000000
# 2 -0.005065 0.018418 -0.006818 0.000000 0.000000 0.000000
# 3 -0.003876 -0.006818 0.015841 0.000000 0.000000 0.000000
# 4 0.000000 0.000000 0.000000 0.033647 0.000000 0.000000
# 5 0.000000 0.000000 0.000000 0.000000 0.085217 0.000000
# 6 0.000000 0.000000 0.000000 0.000000 0.000000 0.040969
#
#
# Mechanical properties :
#
#
# Convention : Reuss Voigt Hill
#
# Bulk Modulus (GPa) = 62.44930 62.90522 62.67726
# Shear Modulus (GPa) = 20.47336 22.90953 21.69144
#
# Velocity S-wave (km/s) = 3.27787 3.46741 3.37397
# Velocity P-wave (km/s) = 6.86290 7.00310 6.93335
#
# Compressibility (1/GPa) = 0.01601299
#
# Stress axis : x y z
#
# Youngs Moduli (GPa) = 75.34381 54.29586 63.12741
#
# Poissons Ratio (x) = 0.27503 0.24467
# Poissons Ratio (y) = 0.38164 0.43039
# Poissons Ratio (z) = 0.29202 0.37018
#
# Static dielectric constant tensor:
#      x y z
#    x 1.693230 0.000000 0.000000 
#    y 0.000000 1.692180 0.000000 
#    z 0.000000 0.000000 1.654320 
# 
# From -- ./inp_files/27520.got.cif
#   From: 2010.05.17/outbox.cif.g08.bks.cpg/sg58_14_cif.got.tgz:27520.got - 2010.06.03 14:20:14.
