data_PCOD9442078
_publ_section_title
;
Structure prediction by ZEFSAII (Michael W. Deem and Ramdas Pophale) SiO2 
 PCOD9442078
Probable space group: P N N M
;
_chemical_formula_sum "Si O2"
_cell_formula_units_Z 64
_cell_length_a 20.955433
_cell_length_b 19.703064
_cell_length_c 8.739876
_cell_angle_alpha 90.000000
_cell_angle_beta 90.000000
_cell_angle_gamma 90.000000
_cell_volume 3608.574518
_symmetry_space_group_name_H-M "P N N M"
_symmetry_group_IT_number 58
_symmetry_cell_setting 'orthorhombic'
loop_
_space_group_symop_operation_xyz
x,y,z
-x,-y,z
1/2+x,1/2-y,1/2-z
1/2-x,1/2+y,1/2-z
-x,-y,-z
x,y,-z
1/2-x,1/2+y,1/2+z
1/2+x,1/2-y,1/2+z
loop_
_atom_site_type_symbol
_atom_site_label
_atom_site_fract_x
_atom_site_fract_y
_atom_site_fract_z
Si Si1 0.315370 0.539922 0.183040
Si Si2 0.687629 0.041422 0.684814
Si Si3 0.937571 0.458757 0.815890
Si Si4 0.361229 0.821949 0.816421
Si Si5 0.864179 0.824700 0.817306
Si Si6 0.565534 0.540954 0.318005
Si Si7 0.493521 0.328567 0.183603
Si Si8 0.990234 0.326346 0.682926
O O1 0.251845 0.498526 0.225583
O O2 0.320450 0.613912 0.258936
O O3 0.376445 0.497093 0.237485
O O4 0.316744 0.547820 0.000000
O O5 0.685629 0.048459 0.500000
O O6 0.680705 0.115660 0.757665
O O7 0.626406 0.996876 0.734025
O O8 0.946071 0.382397 0.758745
O O9 0.000000 0.500000 0.761866
O O10 0.937988 0.458694 0.000000
O O11 0.344080 0.749097 0.745095
O O12 0.435373 0.836275 0.770841
O O13 0.359267 0.816799 0.000000
O O14 0.935448 0.838127 0.751624
O O15 0.866919 0.824201 0.000000
O O16 0.500000 0.500000 0.288971
O O17 0.576104 0.542368 0.500000
O O18 0.553244 0.615792 0.252981
O O19 0.473795 0.251403 0.220708
O O20 0.497220 0.335303 0.000000
O O21 0.987333 0.333881 0.500000
#
# Coordination Sequence:
#
# PCOD9442078 Si02
#       8
#     8   8   8   8   8   8   8   8
#     4  11  23  39  59  82 115 154 192 234 283 343
#     4  10  22  39  57  84 116 150 191 233 280 337
#     4  10  19  33  56  83 112 145 183 229 279 329
#     4  10  20  35  57  84 113 148 189 233 284 339
#     4  11  21  35  57  84 114 147 189 237 283 337
#     4  11  22  36  57  86 114 143 186 236 285 338
#     4  10  20  35  56  84 115 148 188 234 289 340
#     4   9  19  33  52  83 115 144 184 231 277 334
#
# _framework density 17.735534999999999
#
# number of rings (size 3 to 8) (size 9 to 14) (size 15 to 20)
#    0.000    1.750    2.500    3.375    0.000    4.750 
#    0.000    1.250    0.000    3.000    0.000    0.000 
#    0.000    0.000    0.000    0.000    0.000    0.000 
#
# Total GULP energy -357417.303284 kJ/mol
# GULP energy per Si atom -5584.645364 kJ/mol
# Density = 1.769517 g / cm^3
# Si number density = 17.735535 Si / 1000 Ang^3
#
#
#
# Elastic Constant Matrix: (Units=GPa)
#
#
# Indices 1 2 3 4 5 6 
#
# 1 83.6798 63.6354 35.5584 0.0000 0.0000 0.0000
# 2 63.6354 155.6110 43.1295 0.0000 0.0000 0.0000
# 3 35.5584 43.1295 41.1510 0.0000 0.0000 0.0000
# 4 0.0000 0.0000 0.0000 35.5137 0.0000 0.0000
# 5 0.0000 0.0000 0.0000 0.0000 -21.4129 0.0000
# 6 0.0000 0.0000 0.0000 0.0000 0.0000 28.3834
#
#
#
# Elastic Compliance Matrix: (Units=1/GPa)
#
#
# Indices 1 2 3 4 5 6 
#
# 1 0.021433 -0.005119 -0.013155 0.000000 0.000000 0.000000
# 2 -0.005119 0.010280 -0.006351 0.000000 0.000000 0.000000
# 3 -0.013155 -0.006351 0.042325 0.000000 0.000000 0.000000
# 4 0.000000 0.000000 0.000000 0.028158 0.000000 0.000000
# 5 0.000000 0.000000 0.000000 0.000000 -0.046701 0.000000
# 6 0.000000 0.000000 0.000000 0.000000 0.000000 0.035232
#
#
# Mechanical properties :
#
#
# Convention : Reuss Voigt Hill
#
# Bulk Modulus (GPa) = 40.34332 62.78762 51.56547
# Shear Modulus (GPa) = 33.72923 17.70473 25.71698
#
# Velocity S-wave (km/s) = 4.36568 3.16296 3.81205
# Velocity P-wave (km/s) = 6.94325 6.98699 6.96516
#
# Compressibility (1/GPa) = 0.02478725
#
# Stress axis : x y z
#
# Youngs Moduli (GPa) = 46.65691 97.27871 23.62686
#
# Poissons Ratio (x) = 0.49793 0.31082
# Poissons Ratio (y) = 0.23882 0.15005
# Poissons Ratio (z) = 0.61379 0.61782
#
# Static dielectric constant tensor:
#      x y z
#    x 1.585460 0.000000 0.000000 
#    y 0.000000 1.605090 0.000000 
#    z 0.000000 0.000000 1.594800 
# 
# From -- ./inp_files/9313.got.cif
#   From: 2010.05.17/outbox.cif.g08.bks.cpg/sg58_5_cif.got.tgz:9313.got - 2010.06.03 14:20:14.
