data_PCOD9442838
_publ_section_title
;
Structure prediction by ZEFSAII (Michael W. Deem and Ramdas Pophale) SiO2 
 PCOD9442838
Probable space group: P N N M
;
_chemical_formula_sum "Si O2"
_cell_formula_units_Z 64
_cell_length_a 16.373636
_cell_length_b 14.209656
_cell_length_c 13.158879
_cell_angle_alpha 90.000000
_cell_angle_beta 90.000000
_cell_angle_gamma 90.000000
_cell_volume 3061.593937
_symmetry_space_group_name_H-M "P N N M"
_symmetry_group_IT_number 58
_symmetry_cell_setting 'orthorhombic'
loop_
_space_group_symop_operation_xyz
x,y,z
-x,-y,z
1/2+x,1/2-y,1/2-z
1/2-x,1/2+y,1/2-z
-x,-y,-z
x,y,-z
1/2-x,1/2+y,1/2+z
1/2+x,1/2-y,1/2+z
loop_
_atom_site_type_symbol
_atom_site_label
_atom_site_fract_x
_atom_site_fract_y
_atom_site_fract_z
Si Si1 0.681050 0.366141 0.252645
Si Si2 0.848873 0.320276 0.320086
Si Si3 0.895624 0.124925 0.611315
Si Si4 0.771084 0.512355 0.116682
Si Si5 0.081143 0.959478 0.176576
Si Si6 0.907661 0.520927 0.284968
Si Si7 0.833191 0.227627 0.889186
Si Si8 0.136598 0.286444 0.384293
O O1 0.750002 0.318471 0.322855
O O2 0.729047 0.417139 0.159224
O O3 0.640507 0.452089 0.310665
O O4 0.619307 0.293006 0.200518
O O5 0.891538 0.237569 0.381642
O O6 0.877198 0.425787 0.340884
O O7 0.865383 0.291958 0.202198
O O8 0.925333 0.094800 0.500000
O O9 0.801557 0.089113 0.622677
O O10 0.938183 0.080054 0.709319
O O11 0.845418 0.535102 0.191245
O O12 0.795401 0.502890 0.000000
O O13 0.123278 0.872912 0.121305
O O14 0.000000 0.000000 0.128102
O O15 0.901020 0.613838 0.353566
O O16 0.000000 0.500000 0.252725
O O17 0.736023 0.207976 0.878794
O O18 0.848257 0.268982 0.000000
O O19 0.114606 0.260268 0.500000
#
# Coordination Sequence:
#
# PCOD9442838 Si02
#       8
#     8   8   8   8   8   8   8   8
#     4   9  17  33  56  77 100 131 173 217 258 306
#     4   9  18  34  54  73  97 135 177 218 258 300
#     4   9  18  34  55  77 101 131 172 219 261 303
#     4   9  17  33  57  80  99 125 168 219 265 310
#     4  10  20  33  52  81 114 139 161 202 264 325
#     4  11  23  35  49  74 110 144 174 210 257 310
#     4   9  18  35  58  80 100 130 176 221 260 306
#     4  10  20  35  55  75  98 135 183 226 256 294
#
# _framework density 20.904143999999999
#
# number of rings (size 3 to 8) (size 9 to 14) (size 15 to 20)
#    0.000    2.500    0.000    4.125    0.000    7.000 
#    0.000    1.875    0.000    2.250    0.000    0.000 
#    0.000    0.000    0.000    0.000    0.000    0.000 
#
# Total GULP energy -357153.954012 kJ/mol
# GULP energy per Si atom -5580.530531 kJ/mol
# Density = 2.085657 g / cm^3
# Si number density = 20.904144 Si / 1000 Ang^3
#
#
#
# Elastic Constant Matrix: (Units=GPa)
#
#
# Indices 1 2 3 4 5 6 
#
# 1 24.3608 1.1759 1.9093 0.0000 0.0000 0.0000
# 2 1.1759 81.8936 -12.4489 0.0000 0.0000 0.0000
# 3 1.9093 -12.4489 41.5779 0.0000 0.0000 0.0000
# 4 0.0000 0.0000 0.0000 10.7081 0.0000 0.0000
# 5 0.0000 0.0000 0.0000 0.0000 5.8736 0.0000
# 6 0.0000 0.0000 0.0000 0.0000 0.0000 15.0869
#
#
#
# Elastic Compliance Matrix: (Units=1/GPa)
#
#
# Indices 1 2 3 4 5 6 
#
# 1 0.041264 -0.000923 -0.002171 0.000000 0.000000 0.000000
# 2 -0.000923 0.012814 0.003879 0.000000 0.000000 0.000000
# 3 -0.002171 0.003879 0.025312 0.000000 0.000000 0.000000
# 4 0.000000 0.000000 0.000000 0.093387 0.000000 0.000000
# 5 0.000000 0.000000 0.000000 0.000000 0.170254 0.000000
# 6 0.000000 0.000000 0.000000 0.000000 0.000000 0.066283
#
#
# Mechanical properties :
#
#
# Convention : Reuss Voigt Hill
#
# Bulk Modulus (GPa) = 12.35161 14.34499 13.34830
# Shear Modulus (GPa) = 11.50137 16.81345 14.15741
#
# Velocity S-wave (km/s) = 2.34817 2.83912 2.60523
# Velocity P-wave (km/s) = 3.64327 4.19817 3.93052
#
# Compressibility (1/GPa) = 0.08096112
#
# Stress axis : x y z
#
# Youngs Moduli (GPa) = 24.23407 78.04050 39.50643
#
# Poissons Ratio (x) = 0.07199 0.08577
# Poissons Ratio (y) = 0.02236 -0.15324
# Poissons Ratio (z) = 0.05261 -0.30272
#
# Static dielectric constant tensor:
#      x y z
#    x 1.780430 0.000000 0.000000 
#    y 0.000000 1.775090 0.000000 
#    z 0.000000 0.000000 1.751230 
# 
# From -- ./inp_files/23040.got.cif
#   From: 2010.05.17/outbox.cif.g08.bks.cpg/sg58_12_cif.got.tgz:23040.got - 2010.06.03 14:20:14.
