data_PCOD9442852
_publ_section_title
;
Structure prediction by ZEFSAII (Michael W. Deem and Ramdas Pophale) SiO2 
 PCOD9442852
Probable space group: P N N M
;
_chemical_formula_sum "Si O2"
_cell_formula_units_Z 56
_cell_length_a 20.359438
_cell_length_b 16.745375
_cell_length_c 7.734527
_cell_angle_alpha 90.000000
_cell_angle_beta 90.000000
_cell_angle_gamma 90.000000
_cell_volume 2636.904632
_symmetry_space_group_name_H-M "P N N M"
_symmetry_group_IT_number 58
_symmetry_cell_setting 'orthorhombic'
loop_
_space_group_symop_operation_xyz
x,y,z
-x,-y,z
1/2+x,1/2-y,1/2-z
1/2-x,1/2+y,1/2-z
-x,-y,-z
x,y,-z
1/2-x,1/2+y,1/2+z
1/2+x,1/2-y,1/2+z
loop_
_atom_site_type_symbol
_atom_site_label
_atom_site_fract_x
_atom_site_fract_y
_atom_site_fract_z
Si Si1 0.463235 0.576147 0.200698
Si Si2 0.320924 0.018746 0.209466
Si Si3 0.530989 0.247114 0.205370
Si Si4 0.812436 0.173960 0.290269
Si Si5 0.671275 0.492973 0.703610
Si Si6 0.898877 0.326165 0.288527
Si Si7 0.164046 0.337884 0.203179
O O1 0.500000 0.500000 0.281443
O O2 0.475603 0.663302 0.278273
O O3 0.386189 0.556228 0.207526
O O4 0.485006 0.580017 0.000000
O O5 0.244956 0.025882 0.267292
O O6 0.365092 0.092162 0.270630
O O7 0.346148 0.932036 0.265026
O O8 0.319831 0.019033 0.000000
O O9 0.473316 0.189301 0.270421
O O10 0.603388 0.212440 0.228410
O O11 0.520436 0.253576 0.000000
O O12 0.812098 0.171677 0.500000
O O13 0.856191 0.248900 0.237320
O O14 0.737007 0.181749 0.227526
O O15 0.838551 0.087887 0.230591
O O16 0.668356 0.475227 0.500000
O O17 0.897841 0.329375 0.500000
O O18 0.166547 0.322816 0.000000
#
# Coordination Sequence:
#
# PCOD9442852 Si02
#       7
#     8   8   8   8   8   8   8
#     4  10  21  37  57  80 110 149 189 228 271 330
#     4   9  19  36  58  81 107 140 185 232 273 324
#     4  10  21  36  56  81 108 142 186 232 274 322
#     4   9  18  35  59  80 106 145 188 225 266 327
#     4  10  20  33  54  83 113 141 175 227 284 331
#     4   9  18  35  59  81 101 140 192 231 266 319
#     4  10  21  36  56  81 113 147 180 225 280 334
#
# _framework density 21.237020999999999
#
# number of rings (size 3 to 8) (size 9 to 14) (size 15 to 20)
#    0.000    2.429    0.000    1.714    2.000    4.857 
#    0.000    6.429    0.000    0.000    0.000    0.000 
#    0.000    0.000    0.000    0.000    0.000    0.000 
#
# Total GULP energy -312714.409988 kJ/mol
# GULP energy per Si atom -5584.185893 kJ/mol
# Density = 2.118868 g / cm^3
# Si number density = 21.237021 Si / 1000 Ang^3
#
#
#
# Elastic Constant Matrix: (Units=GPa)
#
#
# Indices 1 2 3 4 5 6 
#
# 1 49.3256 17.4128 -6.4804 0.0000 0.0000 0.0000
# 2 17.4128 33.9170 -9.2778 0.0000 0.0000 0.0000
# 3 -6.4804 -9.2778 30.6474 0.0000 0.0000 0.0000
# 4 0.0000 0.0000 0.0000 12.8857 0.0000 0.0000
# 5 0.0000 0.0000 0.0000 0.0000 20.9737 0.0000
# 6 0.0000 0.0000 0.0000 0.0000 0.0000 28.7045
#
#
#
# Elastic Compliance Matrix: (Units=1/GPa)
#
#
# Indices 1 2 3 4 5 6 
#
# 1 0.024826 -0.012331 0.001517 0.000000 0.000000 0.000000
# 2 -0.012331 0.038270 0.008978 0.000000 0.000000 0.000000
# 3 0.001517 0.008978 0.035668 0.000000 0.000000 0.000000
# 4 0.000000 0.000000 0.000000 0.077605 0.000000 0.000000
# 5 0.000000 0.000000 0.000000 0.000000 0.047679 0.000000
# 6 0.000000 0.000000 0.000000 0.000000 0.000000 0.034838
#
#
# Mechanical properties :
#
#
# Convention : Reuss Voigt Hill
#
# Bulk Modulus (GPa) = 10.51615 13.02215 11.76915
# Shear Modulus (GPa) = 16.99211 19.99514 18.49362
#
# Velocity S-wave (km/s) = 2.83170 3.07175 2.95417
# Velocity P-wave (km/s) = 3.95651 4.32736 4.14608
#
# Compressibility (1/GPa) = 0.09509183
#
# Stress axis : x y z
#
# Youngs Moduli (GPa) = 40.28100 26.13006 28.03651
#
# Poissons Ratio (x) = 0.32220 -0.04252
# Poissons Ratio (y) = 0.49669 -0.25171
# Poissons Ratio (z) = -0.06109 -0.23460
#
# Static dielectric constant tensor:
#      x y z
#    x 1.767490 0.000000 0.000000 
#    y 0.000000 1.739810 0.000000 
#    z 0.000000 0.000000 1.781790 
# 
# From -- ./inp_files/6322.got.cif
#   From: 2010.05.17/outbox.cif.g08.bks.cpg/sg58_4_cif.got.tgz:6322.got - 2010.06.03 14:20:14.
