data_PCOD9442358
_publ_section_title
;
Structure prediction by ZEFSAII (Michael W. Deem and Ramdas Pophale) SiO2 
 PCOD9442358
Probable space group: P N N M
;
_chemical_formula_sum "Si O2"
_cell_formula_units_Z 56
_cell_length_a 14.977986
_cell_length_b 22.247883
_cell_length_c 7.560094
_cell_angle_alpha 90.000000
_cell_angle_beta 90.000000
_cell_angle_gamma 90.000000
_cell_volume 2519.238633
_symmetry_space_group_name_H-M "P N N M"
_symmetry_group_IT_number 58
_symmetry_cell_setting 'orthorhombic'
loop_
_space_group_symop_operation_xyz
x,y,z
-x,-y,z
1/2+x,1/2-y,1/2-z
1/2-x,1/2+y,1/2-z
-x,-y,-z
x,y,-z
1/2-x,1/2+y,1/2+z
1/2+x,1/2-y,1/2+z
loop_
_atom_site_type_symbol
_atom_site_label
_atom_site_fract_x
_atom_site_fract_y
_atom_site_fract_z
Si Si1 0.804981 0.579980 0.292746
Si Si2 0.598789 0.828220 0.702358
Si Si3 0.911590 0.924325 0.715517
Si Si4 0.098622 0.303549 0.294139
Si Si5 0.109462 0.937903 0.713378
Si Si6 0.295976 0.687653 0.782416
Si Si7 0.905848 0.466923 0.287842
O O1 0.829055 0.575583 0.500000
O O2 0.862515 0.634564 0.215229
O O3 0.700305 0.592153 0.276027
O O4 0.831435 0.514164 0.221668
O O5 0.595086 0.808178 0.500000
O O6 0.507927 0.804709 0.786821
O O7 0.693813 0.807814 0.777872
O O8 0.598531 0.900863 0.708332
O O9 0.910729 0.924778 0.500000
O O10 0.842131 0.874402 0.775444
O O11 0.014079 0.911152 0.769126
O O12 0.889731 0.992212 0.771942
O O13 0.125130 0.304521 0.500000
O O14 0.144527 0.243759 0.222173
O O15 0.110958 0.937324 0.500000
O O16 0.294828 0.685802 0.000000
O O17 0.899038 0.457686 0.500000
O O18 0.000000 0.500000 0.253542
#
# Coordination Sequence:
#
# PCOD9442358 Si02
#       7
#     8   8   8   8   8   8   8
#     4  10  20  33  51  76 106 139 178 217 260 320
#     4  11  22  36  57  87 112 134 179 239 281 311
#     4   8  15  31  52  77 104 135 173 214 261 321
#     4  10  21  39  56  72 104 151 184 210 262 332
#     4   9  17  30  53  79 106 134 167 216 270 314
#     4   9  19  35  56  77 104 144 186 220 264 326
#     4  10  19  35  56  78 108 147 183 214 266 341
#
# _framework density 22.228940000000001
#
# number of rings (size 3 to 8) (size 9 to 14) (size 15 to 20)
#    0.000    2.429    1.429    2.143    0.000    3.714 
#    0.000    2.857    0.000    2.571    0.000    0.000 
#    0.000    0.000    0.000    0.000    0.000    0.000 
#
# Total GULP energy -312737.699345 kJ/mol
# GULP energy per Si atom -5584.601774 kJ/mol
# Density = 2.217835 g / cm^3
# Si number density = 22.228940 Si / 1000 Ang^3
#
#
#
# Elastic Constant Matrix: (Units=GPa)
#
#
# Indices 1 2 3 4 5 6 
#
# 1 142.4553 44.2200 -10.3357 0.0000 0.0000 0.0000
# 2 44.2200 65.5405 -1.1571 0.0000 0.0000 0.0000
# 3 -10.3357 -1.1571 46.2427 0.0000 0.0000 0.0000
# 4 0.0000 0.0000 0.0000 1.3176 0.0000 0.0000
# 5 0.0000 0.0000 0.0000 0.0000 23.0899 0.0000
# 6 0.0000 0.0000 0.0000 0.0000 0.0000 26.6991
#
#
#
# Elastic Compliance Matrix: (Units=1/GPa)
#
#
# Indices 1 2 3 4 5 6 
#
# 1 0.009038 -0.006065 0.001868 0.000000 0.000000 0.000000
# 2 -0.006065 0.019334 -0.000872 0.000000 0.000000 0.000000
# 3 0.001868 -0.000872 0.022021 0.000000 0.000000 0.000000
# 4 0.000000 0.000000 0.000000 0.758956 0.000000 0.000000
# 5 0.000000 0.000000 0.000000 0.000000 0.043309 0.000000
# 6 0.000000 0.000000 0.000000 0.000000 0.000000 0.037454
#
#
# Mechanical properties :
#
#
# Convention : Reuss Voigt Hill
#
# Bulk Modulus (GPa) = 24.84081 35.52144 30.18112
# Shear Modulus (GPa) = 5.47245 24.98875 15.23060
#
# Velocity S-wave (km/s) = 1.57073 3.35648 2.62041
# Velocity P-wave (km/s) = 3.80642 5.57098 4.77099
#
# Compressibility (1/GPa) = 0.04025634
#
# Stress axis : x y z
#
# Youngs Moduli (GPa) = 110.64489 51.72147 45.41164
#
# Poissons Ratio (x) = 0.31368 -0.08484
# Poissons Ratio (y) = 0.67105 0.03959
# Poissons Ratio (z) = -0.20672 0.04509
#
# Static dielectric constant tensor:
#      x y z
#    x 1.805220 0.000000 0.000000 
#    y 0.000000 1.800470 0.000000 
#    z 0.000000 0.000000 1.831700 
# 
# From -- ./inp_files/6237.got.cif
#   From: 2010.05.17/outbox.cif.g08.bks.cpg/sg58_4_cif.got.tgz:6237.got - 2010.06.03 14:20:14.
