data_PCOD9442939
_publ_section_title
;
Structure prediction by ZEFSAII (Michael W. Deem and Ramdas Pophale) SiO2 
 PCOD9442939
Probable space group: P N N M
;
_chemical_formula_sum "Si O2"
_cell_formula_units_Z 56
_cell_length_a 14.709550
_cell_length_b 23.425177
_cell_length_c 7.569819
_cell_angle_alpha 90.000000
_cell_angle_beta 90.000000
_cell_angle_gamma 90.000000
_cell_volume 2608.361392
_symmetry_space_group_name_H-M "P N N M"
_symmetry_group_IT_number 58
_symmetry_cell_setting 'orthorhombic'
loop_
_space_group_symop_operation_xyz
x,y,z
-x,-y,z
1/2+x,1/2-y,1/2-z
1/2-x,1/2+y,1/2-z
-x,-y,-z
x,y,-z
1/2-x,1/2+y,1/2+z
1/2+x,1/2-y,1/2+z
loop_
_atom_site_type_symbol
_atom_site_label
_atom_site_fract_x
_atom_site_fract_y
_atom_site_fract_z
Si Si1 0.922142 0.855608 0.285910
Si Si2 0.319349 0.888414 0.793570
Si Si3 0.645572 0.234566 0.786082
Si Si4 0.343075 0.225742 0.802189
Si Si5 0.600074 0.993189 0.703118
Si Si6 0.225463 0.605496 0.793669
Si Si7 0.116496 0.848268 0.284800
O O1 0.919588 0.860216 0.500000
O O2 0.918529 0.787711 0.247245
O O3 0.827261 0.882730 0.219490
O O4 0.021481 0.877333 0.229673
O O5 0.371830 0.830684 0.733710
O O6 0.211456 0.876210 0.772022
O O7 0.351375 0.945707 0.702227
O O8 0.338417 0.896033 0.000000
O O9 0.739021 0.252839 0.695473
O O10 0.659790 0.234198 0.000000
O O11 0.333684 0.163668 0.717538
O O12 0.386728 0.282320 0.720134
O O13 0.380344 0.217952 0.000000
O O14 0.584935 0.973922 0.500000
O O15 0.667319 0.946162 0.784972
O O16 0.500000 0.000000 0.784360
O O17 0.240743 0.592649 0.000000
O O18 0.119004 0.846168 0.500000
#
# Coordination Sequence:
#
# PCOD9442939 Si02
#       7
#     8   8   8   8   8   8   8
#     4   8  14  28  51  75  98 129 167 200 236 292
#     4  10  20  34  53  76 103 135 169 209 254 297
#     4   8  15  29  48  70  99 133 167 201 241 292
#     4   9  16  26  45  73 101 128 159 198 243 287
#     4  10  22  39  56  73  95 128 171 216 260 306
#     4   9  18  34  53  71  97 133 169 207 250 297
#     4   9  17  30  50  76 105 134 163 198 242 296
#
# _framework density 21.469418999999998
#
# number of rings (size 3 to 8) (size 9 to 14) (size 15 to 20)
#    0.000    3.000    0.000    1.714    0.000    3.143 
#    0.000    5.000    0.000    4.286    0.000    0.000 
#    0.000    0.000    0.000    0.000    0.000    0.000 
#
# Total GULP energy -311762.134661 kJ/mol
# GULP energy per Si atom -5567.180976 kJ/mol
# Density = 2.142055 g / cm^3
# Si number density = 21.469419 Si / 1000 Ang^3
#
#
#
# Elastic Constant Matrix: (Units=GPa)
#
#
# Indices 1 2 3 4 5 6 
#
# 1 120.0547 41.6395 -2.1466 0.0000 0.0000 0.0000
# 2 41.6395 102.6036 -2.7035 0.0000 0.0000 0.0000
# 3 -2.1466 -2.7035 42.5729 0.0000 0.0000 0.0000
# 4 0.0000 0.0000 0.0000 22.2130 0.0000 0.0000
# 5 0.0000 0.0000 0.0000 0.0000 4.6370 0.0000
# 6 0.0000 0.0000 0.0000 0.0000 0.0000 20.2949
#
#
#
# Elastic Compliance Matrix: (Units=1/GPa)
#
#
# Indices 1 2 3 4 5 6 
#
# 1 0.009696 -0.003929 0.000239 0.000000 0.000000 0.000000
# 2 -0.003929 0.011354 0.000523 0.000000 0.000000 0.000000
# 3 0.000239 0.000523 0.023534 0.000000 0.000000 0.000000
# 4 0.000000 0.000000 0.000000 0.045019 0.000000 0.000000
# 5 0.000000 0.000000 0.000000 0.000000 0.215657 0.000000
# 6 0.000000 0.000000 0.000000 0.000000 0.000000 0.049273
#
#
# Mechanical properties :
#
#
# Convention : Reuss Voigt Hill
#
# Bulk Modulus (GPa) = 26.14212 37.64555 31.89384
# Shear Modulus (GPa) = 13.38264 24.65842 19.02053
#
# Velocity S-wave (km/s) = 2.49938 3.39268 2.97970
# Velocity P-wave (km/s) = 4.53123 5.73756 5.16970
#
# Compressibility (1/GPa) = 0.03825244
#
# Stress axis : x y z
#
# Youngs Moduli (GPa) = 103.13026 88.07122 42.49098
#
# Poissons Ratio (x) = 0.34601 -0.01017
# Poissons Ratio (y) = 0.40518 -0.02222
# Poissons Ratio (z) = -0.02469 -0.04606
#
# Static dielectric constant tensor:
#      x y z
#    x 1.815530 0.000000 0.000000 
#    y 0.000000 1.772690 0.000000 
#    z 0.000000 0.000000 1.811370 
# 
# From -- ./inp_files/6463.got.cif
#   From: 2010.05.17/outbox.cif.g08.bks.cpg/sg58_4_cif.got.tgz:6463.got - 2010.06.03 14:20:14.
