data_PCOD9442291
_publ_section_title
;
Structure prediction by ZEFSAII (Michael W. Deem and Ramdas Pophale) SiO2 
 PCOD9442291
Probable space group: P N N M
;
_chemical_formula_sum "Si O2"
_cell_formula_units_Z 64
_cell_length_a 24.566720
_cell_length_b 7.337605
_cell_length_c 13.903692
_cell_angle_alpha 90.000000
_cell_angle_beta 90.000000
_cell_angle_gamma 90.000000
_cell_volume 2506.291860
_symmetry_space_group_name_H-M "P N N M"
_symmetry_group_IT_number 58
_symmetry_cell_setting 'orthorhombic'
loop_
_space_group_symop_operation_xyz
x,y,z
-x,-y,z
1/2+x,1/2-y,1/2-z
1/2-x,1/2+y,1/2-z
-x,-y,-z
x,y,-z
1/2-x,1/2+y,1/2+z
1/2+x,1/2-y,1/2+z
loop_
_atom_site_type_symbol
_atom_site_label
_atom_site_fract_x
_atom_site_fract_y
_atom_site_fract_z
Si Si1 0.547857 0.144028 0.896102
Si Si2 0.229444 0.768993 0.388173
Si Si3 0.115837 0.774412 0.888627
Si Si4 0.477087 0.317646 0.255430
Si Si5 0.260585 0.196214 0.387361
Si Si6 0.653666 0.316027 0.611818
Si Si7 0.880877 0.097579 0.384717
Si Si8 0.650196 0.189887 0.811902
O O1 0.529340 0.235690 0.796839
O O2 0.608418 0.071000 0.874807
O O3 0.500000 0.000000 0.905894
O O4 0.549088 0.243948 0.000000
O O5 0.221937 0.726468 0.500000
O O6 0.282338 0.651665 0.361905
O O7 0.168709 0.774946 0.347469
O O8 0.247599 0.981122 0.379791
O O9 0.063422 0.715478 0.827573
O O10 0.176664 0.716481 0.859263
O O11 0.120931 0.995818 0.881606
O O12 0.108920 0.723750 0.000000
O O13 0.500000 0.500000 0.304048
O O14 0.437495 0.360193 0.165357
O O15 0.256406 0.246291 0.500000
O O16 0.214553 0.315354 0.333538
O O17 0.651419 0.251975 0.500000
O O18 0.637631 0.183252 0.698482
O O19 0.883850 0.107793 0.500000
O O20 0.865129 0.892845 0.351908
#
# Coordination Sequence:
#
# PCOD9442291 Si02
#       8
#     8   8   8   8   8   8   8   8
#     4  11  25  44  62  89 126 154 193 259 323 369
#     4   8  17  33  53  80 115 153 191 237 296 357
#     4  10  22  40  58  88 126 159 206 259 304 358
#     4  12  23  39  63  88 114 165 214 249 303 363
#     4   9  19  35  58  85 116 156 203 249 303 371
#     4  10  20  35  55  85 126 159 192 246 300 351
#     4  10  19  34  58  87 112 147 206 253 287 355
#     4  11  20  36  63  85 117 162 200 240 304 376
#
# _framework density 25.535734000000001
#
# number of rings (size 3 to 8) (size 9 to 14) (size 15 to 20)
#    0.000    1.875    2.500    2.250    1.750    1.750 
#    2.250    0.625    0.000    0.750    0.000    0.000 
#    0.000    0.000    0.000    0.000    0.000    0.000 
#
# Total GULP energy -357419.186826 kJ/mol
# GULP energy per Si atom -5584.674794 kJ/mol
# Density = 2.547761 g / cm^3
# Si number density = 25.535734 Si / 1000 Ang^3
#
#
#
# Elastic Constant Matrix: (Units=GPa)
#
#
# Indices 1 2 3 4 5 6 
#
# 1 146.4478 24.7558 51.6959 0.0000 0.0000 0.0000
# 2 24.7558 24.6803 12.0164 0.0000 0.0000 0.0000
# 3 51.6959 12.0164 154.0433 0.0000 0.0000 0.0000
# 4 0.0000 0.0000 0.0000 5.3352 0.0000 0.0000
# 5 0.0000 0.0000 0.0000 0.0000 40.9179 0.0000
# 6 0.0000 0.0000 0.0000 0.0000 0.0000 41.6082
#
#
#
# Elastic Compliance Matrix: (Units=1/GPa)
#
#
# Indices 1 2 3 4 5 6 
#
# 1 0.009008 -0.007862 -0.002410 0.000000 0.000000 0.000000
# 2 -0.007862 0.048980 -0.001182 0.000000 0.000000 0.000000
# 3 -0.002410 -0.001182 0.007393 0.000000 0.000000 0.000000
# 4 0.000000 0.000000 0.000000 0.187434 0.000000 0.000000
# 5 0.000000 0.000000 0.000000 0.000000 0.024439 0.000000
# 6 0.000000 0.000000 0.000000 0.000000 0.000000 0.024034
#
#
# Mechanical properties :
#
#
# Convention : Reuss Voigt Hill
#
# Bulk Modulus (GPa) = 23.54481 55.78976 39.66728
# Shear Modulus (GPa) = 14.77745 33.35249 24.06497
#
# Velocity S-wave (km/s) = 2.40822 3.61794 3.07319
# Velocity P-wave (km/s) = 4.11984 6.27278 5.30664
#
# Compressibility (1/GPa) = 0.04247221
#
# Stress axis : x y z
#
# Youngs Moduli (GPa) = 111.01146 20.41639 135.27054
#
# Poissons Ratio (x) = 0.16052 0.32597
# Poissons Ratio (y) = 0.87282 0.15992
# Poissons Ratio (z) = 0.26751 0.02414
#
# Static dielectric constant tensor:
#      x y z
#    x 2.007790 0.000000 0.000000 
#    y 0.000000 2.116700 0.000000 
#    z 0.000000 0.000000 2.008850 
# 
# From -- ./inp_files/23568.got.cif
#   From: 2010.05.17/outbox.cif.g08.bks.cpg/sg58_12_cif.got.tgz:23568.got - 2010.06.03 14:20:14.
