data_PCOD9442176
_publ_section_title
;
Structure prediction by ZEFSAII (Michael W. Deem and Ramdas Pophale) SiO2 
 PCOD9442176
Probable space group: P N N M
;
_chemical_formula_sum "Si O2"
_cell_formula_units_Z 40
_cell_length_a 16.303790
_cell_length_b 9.564797
_cell_length_c 13.863261
_cell_angle_alpha 90.000000
_cell_angle_beta 90.000000
_cell_angle_gamma 90.000000
_cell_volume 2161.870770
_symmetry_space_group_name_H-M "P N N M"
_symmetry_group_IT_number 58
_symmetry_cell_setting 'orthorhombic'
loop_
_space_group_symop_operation_xyz
x,y,z
-x,-y,z
1/2+x,1/2-y,1/2-z
1/2-x,1/2+y,1/2-z
-x,-y,-z
x,y,-z
1/2-x,1/2+y,1/2+z
1/2+x,1/2-y,1/2+z
loop_
_atom_site_type_symbol
_atom_site_label
_atom_site_fract_x
_atom_site_fract_y
_atom_site_fract_z
Si Si1 0.014186 0.332078 0.607026
Si Si2 0.907623 0.054214 0.113019
Si Si3 0.303986 0.725647 0.390596
Si Si4 0.411365 0.930920 0.289221
Si Si5 0.857480 0.275193 0.726374
O O1 0.037796 0.282406 0.500000
O O2 0.077158 0.327705 0.696530
O O3 0.000000 0.500000 0.599750
O O4 0.929443 0.266949 0.645524
O O5 0.883036 0.177343 0.185106
O O6 0.845473 0.924809 0.126399
O O7 0.904712 0.096731 0.000000
O O8 0.000000 0.000000 0.132562
O O9 0.273196 0.727740 0.500000
O O10 0.373810 0.841205 0.374042
O O11 0.229920 0.758190 0.318891
O O12 0.500000 0.000000 0.310941
O O13 0.356874 0.063131 0.259702
#
# Coordination Sequence:
#
# PCOD9442176 Si02
#       5
#     8   8   8   8   8
#     4   8  15  30  53  77  99 129 169 210 254 308
#     4  10  21  37  57  80 109 145 181 219 270 330
#     4  11  22  35  53  77 106 141 177 217 268 319
#     4   9  19  34  54  77 102 135 175 218 256 308
#     4  10  19  34  55  80 108 134 172 221 266 312
#
# _framework density 18.502493000000001
#
# number of rings (size 3 to 8) (size 9 to 14) (size 15 to 20)
#    0.000    2.800    0.000    4.200    0.000    2.000 
#    0.000    1.000    0.000   13.800    0.000    0.000 
#    0.000    0.000    0.000    0.000    0.000    0.000 
#
# Total GULP energy -222906.114763 kJ/mol
# GULP energy per Si atom -5572.652869 kJ/mol
# Density = 1.846038 g / cm^3
# Si number density = 18.502493 Si / 1000 Ang^3
#
#
#
# Elastic Constant Matrix: (Units=GPa)
#
#
# Indices 1 2 3 4 5 6 
#
# 1 75.9901 30.2056 53.2524 0.0000 0.0000 0.0000
# 2 30.2056 40.9720 36.2079 0.0000 0.0000 0.0000
# 3 53.2524 36.2079 88.1976 0.0000 0.0000 0.0000
# 4 0.0000 0.0000 0.0000 11.0062 0.0000 0.0000
# 5 0.0000 0.0000 0.0000 0.0000 8.5182 0.0000
# 6 0.0000 0.0000 0.0000 0.0000 0.0000 20.1275
#
#
#
# Elastic Compliance Matrix: (Units=1/GPa)
#
#
# Indices 1 2 3 4 5 6 
#
# 1 0.024289 -0.007763 -0.011479 0.000000 0.000000 0.000000
# 2 -0.007763 0.040784 -0.012056 0.000000 0.000000 0.000000
# 3 -0.011479 -0.012056 0.023218 0.000000 0.000000 0.000000
# 4 0.000000 0.000000 0.000000 0.090858 0.000000 0.000000
# 5 0.000000 0.000000 0.000000 0.000000 0.117395 0.000000
# 6 0.000000 0.000000 0.000000 0.000000 0.000000 0.049683
#
#
# Mechanical properties :
#
#
# Convention : Reuss Voigt Hill
#
# Bulk Modulus (GPa) = 38.91568 49.38794 44.15181
# Shear Modulus (GPa) = 11.97924 13.62997 12.80460
#
# Velocity S-wave (km/s) = 2.54724 2.71708 2.63353
# Velocity P-wave (km/s) = 5.45249 6.04929 5.75863
#
# Compressibility (1/GPa) = 0.02569658
#
# Stress axis : x y z
#
# Youngs Moduli (GPa) = 41.17052 24.51932 43.06952
#
# Poissons Ratio (x) = 0.19034 0.49438
# Poissons Ratio (y) = 0.31959 0.51926
# Poissons Ratio (z) = 0.47258 0.29561
#
# Static dielectric constant tensor:
#      x y z
#    x 1.651480 0.000000 0.000000 
#    y 0.000000 1.623540 0.000000 
#    z 0.000000 0.000000 1.663890 
# 
# From -- ./inp_files/21899.got.cif
#   From: 2010.05.17/outbox.cif.g08.bks.cpg/sg58_11_cif.got.tgz:21899.got - 2010.06.03 14:20:14.
