data_PCOD9442185
_publ_section_title
;
Structure prediction by ZEFSAII (Michael W. Deem and Ramdas Pophale) SiO2 
 PCOD9442185
Probable space group: P N N M
;
_chemical_formula_sum "Si O2"
_cell_formula_units_Z 64
_cell_length_a 11.978487
_cell_length_b 29.636487
_cell_length_c 7.821668
_cell_angle_alpha 90.000000
_cell_angle_beta 90.000000
_cell_angle_gamma 90.000000
_cell_volume 2776.694285
_symmetry_space_group_name_H-M "P N N M"
_symmetry_group_IT_number 58
_symmetry_cell_setting 'orthorhombic'
loop_
_space_group_symop_operation_xyz
x,y,z
-x,-y,z
1/2+x,1/2-y,1/2-z
1/2-x,1/2+y,1/2-z
-x,-y,-z
x,y,-z
1/2-x,1/2+y,1/2+z
1/2+x,1/2-y,1/2+z
loop_
_atom_site_type_symbol
_atom_site_label
_atom_site_fract_x
_atom_site_fract_y
_atom_site_fract_z
Si Si1 0.457867 0.449920 0.690476
Si Si2 0.550185 0.125888 0.192704
Si Si3 0.909161 0.167131 0.794936
Si Si4 0.823121 0.713824 0.291978
Si Si5 0.083761 0.540050 0.198456
Si Si6 0.156870 0.185669 0.302078
Si Si7 0.301483 0.587274 0.206373
Si Si8 0.765293 0.085848 0.688495
O O1 0.500000 0.500000 0.675339
O O2 0.428915 0.432856 0.500000
O O3 0.570687 0.425173 0.754007
O O4 0.339615 0.457584 0.789758
O O5 0.587361 0.175226 0.265233
O O6 0.475207 0.089416 0.289953
O O7 0.668945 0.099691 0.185778
O O8 0.506602 0.131779 0.000000
O O9 0.801764 0.197398 0.753581
O O10 0.868568 0.119471 0.721840
O O11 0.023846 0.179523 0.707787
O O12 0.923592 0.167761 0.000000
O O13 0.835479 0.714039 0.500000
O O14 0.828778 0.764601 0.224037
O O15 0.206335 0.552645 0.272825
O O16 0.000000 0.500000 0.268398
O O17 0.100009 0.527105 0.000000
O O18 0.193593 0.188801 0.500000
O O19 0.211696 0.139653 0.230977
O O20 0.290106 0.588469 0.000000
O O21 0.718032 0.090233 0.500000
#
# Coordination Sequence:
#
# PCOD9442185 Si02
#       8
#     8   8   8   8   8   8   8   8
#     4  11  24  39  58  88 122 152 189 243 300 358
#     4  10  21  39  61  86 118 158 204 255 306 358
#     4  10  19  34  55  82 116 152 191 243 296 350
#     4   8  18  35  55  81 115 153 195 243 300 359
#     4  10  23  42  61  86 121 163 210 259 306 364
#     4  10  19  35  58  83 114 155 196 241 299 363
#     4  10  22  39  60  87 119 158 203 246 298 364
#     4  11  21  36  60  86 115 153 193 240 297 357
#
# _framework density 23.048991000000001
#
# number of rings (size 3 to 8) (size 9 to 14) (size 15 to 20)
#    0.000    2.000    1.250    3.000    1.750    2.750 
#    0.000    5.000    0.000    0.000    0.000    0.000 
#    0.000    0.000    0.000    0.000    0.000    0.000 
#
# Total GULP energy -356340.755677 kJ/mol
# GULP energy per Si atom -5567.824307 kJ/mol
# Density = 2.299653 g / cm^3
# Si number density = 23.048991 Si / 1000 Ang^3
#
#
#
# Elastic Constant Matrix: (Units=GPa)
#
#
# Indices 1 2 3 4 5 6 
#
# 1 71.4883 22.3020 -9.8210 0.0000 0.0000 0.0000
# 2 22.3020 106.0110 -2.7363 0.0000 0.0000 0.0000
# 3 -9.8210 -2.7363 49.5037 0.0000 0.0000 0.0000
# 4 0.0000 0.0000 0.0000 10.7782 0.0000 0.0000
# 5 0.0000 0.0000 0.0000 0.0000 20.8053 0.0000
# 6 0.0000 0.0000 0.0000 0.0000 0.0000 25.4370
#
#
#
# Elastic Compliance Matrix: (Units=1/GPa)
#
#
# Indices 1 2 3 4 5 6 
#
# 1 0.015369 -0.003159 0.002874 0.000000 0.000000 0.000000
# 2 -0.003159 0.010096 -0.000069 0.000000 0.000000 0.000000
# 3 0.002874 -0.000069 0.020767 0.000000 0.000000 0.000000
# 4 0.000000 0.000000 0.000000 0.092780 0.000000 0.000000
# 5 0.000000 0.000000 0.000000 0.000000 0.048065 0.000000
# 6 0.000000 0.000000 0.000000 0.000000 0.000000 0.039313
#
#
# Mechanical properties :
#
#
# Convention : Reuss Voigt Hill
#
# Bulk Modulus (GPa) = 21.96603 27.38804 24.67703
# Shear Modulus (GPa) = 20.63809 25.88797 23.26303
#
# Velocity S-wave (km/s) = 2.99557 3.35501 3.18037
# Velocity P-wave (km/s) = 4.63847 5.18811 4.92097
#
# Compressibility (1/GPa) = 0.04552484
#
# Stress axis : x y z
#
# Youngs Moduli (GPa) = 65.06744 99.05126 48.15340
#
# Poissons Ratio (x) = 0.31290 -0.13841
# Poissons Ratio (y) = 0.20555 0.00331
# Poissons Ratio (z) = -0.18703 0.00680
#
# Static dielectric constant tensor:
#      x y z
#    x 2.239550 0.000000 0.000000 
#    y 0.000000 -22.768710 0.000000 
#    z 0.000000 0.000000 3.624050 
# 
# From -- ./inp_files/4707.got.cif
#   From: 2010.05.17/outbox.cif.g08.bks.cpg/sg58_3_cif.got.tgz:4707.got - 2010.06.03 14:20:14.
