data_PCOD9442026
_publ_section_title
;
Structure prediction by ZEFSAII (Michael W. Deem and Ramdas Pophale) SiO2 
 PCOD9442026
Probable space group: P N N M
;
_chemical_formula_sum "Si O2"
_cell_formula_units_Z 58
_cell_length_a 14.168183
_cell_length_b 26.181717
_cell_length_c 7.400570
_cell_angle_alpha 90.000000
_cell_angle_beta 90.000000
_cell_angle_gamma 90.000000
_cell_volume 2745.221887
_symmetry_space_group_name_H-M "P N N M"
_symmetry_group_IT_number 58
_symmetry_cell_setting 'orthorhombic'
loop_
_space_group_symop_operation_xyz
x,y,z
-x,-y,z
1/2+x,1/2-y,1/2-z
1/2-x,1/2+y,1/2-z
-x,-y,-z
x,y,-z
1/2-x,1/2+y,1/2+z
1/2+x,1/2-y,1/2+z
loop_
_atom_site_type_symbol
_atom_site_label
_atom_site_fract_x
_atom_site_fract_y
_atom_site_fract_z
Si Si1 0.174579 0.002228 0.789138
Si Si2 0.785480 0.796704 0.220811
Si Si3 0.822060 0.199138 0.710543
Si Si4 0.698742 0.902286 0.783589
Si Si5 0.487632 0.745154 0.717556
Si Si6 0.711269 0.100060 0.279955
Si Si7 0.492797 0.862364 0.714402
Si Si8 0.500000 0.500000 0.000000
O O1 0.244835 0.047675 0.724886
O O2 0.237319 0.950878 0.783196
O O3 0.147438 0.011631 0.000000
O O4 0.084173 0.998460 0.658840
O O5 0.715799 0.752442 0.285981
O O6 0.752364 0.851728 0.284599
O O7 0.887826 0.777332 0.275253
O O8 0.783452 0.798739 0.000000
O O9 0.795154 0.199295 0.500000
O O10 0.773084 0.148741 0.782989
O O11 0.933176 0.204952 0.725469
O O12 0.588095 0.894443 0.742457
O O13 0.704024 0.902576 0.000000
O O14 0.488517 0.747086 0.500000
O O15 0.502398 0.803643 0.784148
O O16 0.712080 0.098003 0.500000
O O17 0.603288 0.110484 0.220493
O O18 0.480209 0.856942 0.500000
#
# Coordination Sequence:
#
# PCOD9442026 Si02
#       8
#     8   8   8   8   8   8   8   2
#     4  11  26  47  73 104 133 175 224 274 333 396
#     4   9  17  34  57  82 123 168 206 263 328 392
#     4  10  19  34  58  85 121 165 215 264 324 395
#     4  10  22  40  63  93 130 169 216 272 333 398
#     4  10  19  33  54  87 122 166 214 264 331 396
#     4  10  21  41  64  93 130 175 223 275 332 393
#     4  10  20  34  61  93 130 172 216 268 329 403
#     4  12  26  52  80  96 136 168 226 284 336 382
#
# _framework density 21.127618999999999
#
# number of rings (size 3 to 8) (size 9 to 14) (size 15 to 20)
#    0.000    1.931    3.448    0.207    0.966    2.759 
#    0.000    5.517    0.000    0.000    0.000    0.000 
#    0.000    0.000    0.000    0.000    0.000    0.000 
#
# Total GULP energy -323230.501990 kJ/mol
# GULP energy per Si atom -5572.939689 kJ/mol
# Density = 2.107953 g / cm^3
# Si number density = 21.127619 Si / 1000 Ang^3
#
#
#
# Elastic Constant Matrix: (Units=GPa)
#
#
# Indices 1 2 3 4 5 6 
#
# 1 141.4611 63.3992 14.2285 0.0000 0.0000 0.0000
# 2 63.3992 132.3633 19.7661 0.0000 0.0000 0.0000
# 3 14.2285 19.7661 94.7368 0.0000 0.0000 0.0000
# 4 0.0000 0.0000 0.0000 15.0941 0.0000 0.0000
# 5 0.0000 0.0000 0.0000 0.0000 15.7796 0.0000
# 6 0.0000 0.0000 0.0000 0.0000 0.0000 18.1924
#
#
#
# Elastic Compliance Matrix: (Units=1/GPa)
#
#
# Indices 1 2 3 4 5 6 
#
# 1 0.009021 -0.004251 -0.000468 0.000000 0.000000 0.000000
# 2 -0.004251 0.009801 -0.001406 0.000000 0.000000 0.000000
# 3 -0.000468 -0.001406 0.010919 0.000000 0.000000 0.000000
# 4 0.000000 0.000000 0.000000 0.066251 0.000000 0.000000
# 5 0.000000 0.000000 0.000000 0.000000 0.063373 0.000000
# 6 0.000000 0.000000 0.000000 0.000000 0.000000 0.054968
#
#
# Mechanical properties :
#
#
# Convention : Reuss Voigt Hill
#
# Bulk Modulus (GPa) = 57.17311 62.59429 59.88370
# Shear Modulus (GPa) = 21.51319 27.89105 24.70212
#
# Velocity S-wave (km/s) = 3.19446 3.63729 3.42305
# Velocity P-wave (km/s) = 6.38167 6.87975 6.63538
#
# Compressibility (1/GPa) = 0.01749074
#
# Stress axis : x y z
#
# Youngs Moduli (GPa) = 110.84735 102.02814 91.58107
#
# Poissons Ratio (x) = 0.43374 0.04285
# Poissons Ratio (y) = 0.47123 0.12881
# Poissons Ratio (z) = 0.05187 0.14350
#
# Static dielectric constant tensor:
#      x y z
#    x 1.750010 0.000000 0.000000 
#    y 0.000000 1.740370 0.000000 
#    z 0.000000 0.000000 1.824550 
# 
# From -- ./inp_files/4467.got.cif
#   From: 2010.05.17/outbox.cif.g08.bks.cpg/sg58_3_cif.got.tgz:4467.got - 2010.06.03 14:20:14.
