data_PCOD9442834
_publ_section_title
;
Structure prediction by ZEFSAII (Michael W. Deem and Ramdas Pophale) SiO2 
 PCOD9442834
Probable space group: P N N M
;
_chemical_formula_sum "Si O2"
_cell_formula_units_Z 64
_cell_length_a 41.119278
_cell_length_b 10.443071
_cell_length_c 7.625635
_cell_angle_alpha 90.000000
_cell_angle_beta 90.000000
_cell_angle_gamma 90.000000
_cell_volume 3274.535666
_symmetry_space_group_name_H-M "P N N M"
_symmetry_group_IT_number 58
_symmetry_cell_setting 'orthorhombic'
loop_
_space_group_symop_operation_xyz
x,y,z
-x,-y,z
1/2+x,1/2-y,1/2-z
1/2-x,1/2+y,1/2-z
-x,-y,-z
x,y,-z
1/2-x,1/2+y,1/2+z
1/2+x,1/2-y,1/2+z
loop_
_atom_site_type_symbol
_atom_site_label
_atom_site_fract_x
_atom_site_fract_y
_atom_site_fract_z
Si Si1 0.974929 0.605571 0.709884
Si Si2 0.721990 0.600716 0.791496
Si Si3 0.025871 0.103938 0.288310
Si Si4 0.899679 0.896626 0.790295
Si Si5 0.400442 0.892608 0.288582
Si Si6 0.151969 0.598985 0.784700
Si Si7 0.147353 0.885413 0.794440
Si Si8 0.773973 0.394674 0.211195
O O1 0.979277 0.611246 0.500000
O O2 0.980059 0.750789 0.776995
O O3 0.937415 0.570478 0.744033
O O4 0.000000 0.500000 0.779417
O O5 0.685620 0.584428 0.719041
O O6 0.747428 0.495700 0.723013
O O7 0.732913 0.746645 0.755705
O O8 0.719544 0.585425 0.000000
O O9 0.023768 0.107232 0.500000
O O10 0.062822 0.068322 0.242088
O O11 0.000000 0.000000 0.223933
O O12 0.894787 0.752099 0.721710
O O13 0.875092 0.002951 0.718312
O O14 0.894748 0.889253 0.000000
O O15 0.398337 0.889568 0.500000
O O16 0.373638 0.993043 0.225819
O O17 0.142797 0.741932 0.723045
O O18 0.189220 0.574885 0.729250
O O19 0.152002 0.599954 0.000000
O O20 0.139066 0.876866 0.000000
O O21 0.774269 0.403403 0.000000
#
# Coordination Sequence:
#
# PCOD9442834 Si02
#       8
#     8   8   8   8   8   8   8   8
#     4   9  18  32  47  64  90 121 150 182 226 279
#     4  10  20  33  52  77 101 130 169 207 245 292
#     4   9  18  32  48  66  91 123 154 188 234 282
#     4   9  18  31  48  70  93 121 157 195 236 282
#     4   9  17  30  48  69  91 116 153 195 230 273
#     4   8  15  30  49  66  89 122 154 186 229 279
#     4   9  18  33  50  68  96 130 159 194 243 290
#     4   9  19  35  52  72 101 133 164 202 247 293
#
# _framework density 19.544754000000001
#
# number of rings (size 3 to 8) (size 9 to 14) (size 15 to 20)
#    0.000    3.000    0.000    1.125    0.000    4.000 
#    0.000    5.000    0.000    0.000    0.000    0.000 
#    0.000    0.000    0.000    0.000    0.000    0.000 
#
# Total GULP energy -356883.605513 kJ/mol
# GULP energy per Si atom -5576.306336 kJ/mol
# Density = 1.950027 g / cm^3
# Si number density = 19.544754 Si / 1000 Ang^3
#
#
#
# Elastic Constant Matrix: (Units=GPa)
#
#
# Indices 1 2 3 4 5 6 
#
# 1 125.1529 129.0064 -12.9725 0.0000 0.0000 0.0000
# 2 129.0064 152.9190 -5.7264 0.0000 0.0000 0.0000
# 3 -12.9725 -5.7264 34.1763 0.0000 0.0000 0.0000
# 4 0.0000 0.0000 0.0000 6.5241 0.0000 0.0000
# 5 0.0000 0.0000 0.0000 0.0000 18.2878 0.0000
# 6 0.0000 0.0000 0.0000 0.0000 0.0000 44.1538
#
#
#
# Elastic Compliance Matrix: (Units=1/GPa)
#
#
# Indices 1 2 3 4 5 6 
#
# 1 0.069599 -0.058091 0.016685 0.000000 0.000000 0.000000
# 2 -0.058091 0.055066 -0.012823 0.000000 0.000000 0.000000
# 3 0.016685 -0.012823 0.033445 0.000000 0.000000 0.000000
# 4 0.000000 0.000000 0.000000 0.153279 0.000000 0.000000
# 5 0.000000 0.000000 0.000000 0.000000 0.054681 0.000000
# 6 0.000000 0.000000 0.000000 0.000000 0.000000 0.022648
#
#
# Mechanical properties :
#
#
# Convention : Reuss Voigt Hill
#
# Bulk Modulus (GPa) = 20.14051 59.20702 39.67376
# Shear Modulus (GPa) = 9.73279 27.25584 18.49432
#
# Velocity S-wave (km/s) = 2.23396 3.73840 3.07946
# Velocity P-wave (km/s) = 4.12083 6.99950 5.74344
#
# Compressibility (1/GPa) = 0.04965119
#
# Stress axis : x y z
#
# Youngs Moduli (GPa) = 14.36799 18.15999 29.90019
#
# Poissons Ratio (x) = 1.05493 -0.49888
# Poissons Ratio (y) = 0.83465 0.38342
# Poissons Ratio (z) = -0.23973 0.23287
#
# Static dielectric constant tensor:
#      x y z
#    x 1.650750 0.000000 0.000000 
#    y 0.000000 1.691680 0.000000 
#    z 0.000000 0.000000 1.720850 
# 
# From -- ./inp_files/10951.got.cif
#   From: 2010.05.17/outbox.cif.g08.bks.cpg/sg58_6_cif.got.tgz:10951.got - 2010.06.03 14:20:14.
