data_PCOD9442984
_publ_section_title
;
Structure prediction by ZEFSAII (Michael W. Deem and Ramdas Pophale) SiO2 
 PCOD9442984
Probable space group: P N N M
;
_chemical_formula_sum "Si O2"
_cell_formula_units_Z 64
_cell_length_a 20.780319
_cell_length_b 16.841567
_cell_length_c 7.737990
_cell_angle_alpha 90.000000
_cell_angle_beta 90.000000
_cell_angle_gamma 90.000000
_cell_volume 2708.088617
_symmetry_space_group_name_H-M "P N N M"
_symmetry_group_IT_number 58
_symmetry_cell_setting 'orthorhombic'
loop_
_space_group_symop_operation_xyz
x,y,z
-x,-y,z
1/2+x,1/2-y,1/2-z
1/2-x,1/2+y,1/2-z
-x,-y,-z
x,y,-z
1/2-x,1/2+y,1/2+z
1/2+x,1/2-y,1/2+z
loop_
_atom_site_type_symbol
_atom_site_label
_atom_site_fract_x
_atom_site_fract_y
_atom_site_fract_z
Si Si1 0.283199 0.114275 0.696745
Si Si2 0.648752 0.449589 0.795319
Si Si3 0.632027 0.024196 0.196735
Si Si4 0.975867 0.637547 0.791026
Si Si5 0.224111 0.330009 0.790893
Si Si6 0.384484 0.717450 0.707849
Si Si7 0.866886 0.124491 0.291530
Si Si8 0.104971 0.709323 0.206454
O O1 0.266412 0.136478 0.500000
O O2 0.219023 0.076079 0.778086
O O3 0.325165 0.184679 0.781429
O O4 0.336965 0.044911 0.691355
O O5 0.605488 0.371817 0.770485
O O6 0.622888 0.534147 0.729543
O O7 0.658382 0.462141 0.000000
O O8 0.561689 0.058753 0.236445
O O9 0.678278 0.099509 0.227681
O O10 0.635614 0.997959 0.000000
O O11 0.934488 0.715081 0.735106
O O12 0.047873 0.653194 0.727763
O O13 0.976192 0.637274 0.000000
O O14 0.186579 0.249762 0.738754
O O15 0.295370 0.350215 0.730031
O O16 0.224633 0.332091 0.000000
O O17 0.386074 0.715925 0.500000
O O18 0.868247 0.124866 0.500000
O O19 0.910568 0.198248 0.235883
O O20 0.109058 0.698750 0.000000
#
# Coordination Sequence:
#
# PCOD9442984 Si02
#       8
#     8   8   8   8   8   8   8   8
#     4  10  20  37  57  80 114 146 176 220 277 335
#     4  10  20  34  54  81 113 144 174 216 277 338
#     4  11  21  32  54  86 112 142 182 226 267 317
#     4   9  20  40  58  76 109 150 190 227 277 329
#     4   9  17  34  55  76 109 148 178 212 275 339
#     4   9  18  32  55  79 102 138 181 227 269 316
#     4  10  20  35  55  78 111 148 174 218 285 334
#     4  10  22  38  59  82 104 144 195 236 267 319
#
# _framework density 23.632902999999999
#
# number of rings (size 3 to 8) (size 9 to 14) (size 15 to 20)
#    0.000    2.250    1.250    2.625    0.000    5.000 
#    0.000    3.125    0.000    3.750    0.000    0.000 
#    0.000    0.000    0.000    0.000    0.000    0.000 
#
# Total GULP energy -357357.067301 kJ/mol
# GULP energy per Si atom -5583.704177 kJ/mol
# Density = 2.357911 g / cm^3
# Si number density = 23.632903 Si / 1000 Ang^3
#
#
#
# Elastic Constant Matrix: (Units=GPa)
#
#
# Indices 1 2 3 4 5 6 
#
# 1 28.7985 -21.7311 -0.1428 0.0000 0.0000 0.0000
# 2 -21.7311 94.3846 2.9519 0.0000 0.0000 0.0000
# 3 -0.1428 2.9519 51.7524 0.0000 0.0000 0.0000
# 4 0.0000 0.0000 0.0000 26.9628 0.0000 0.0000
# 5 0.0000 0.0000 0.0000 0.0000 10.2433 0.0000
# 6 0.0000 0.0000 0.0000 0.0000 0.0000 29.4889
#
#
#
# Elastic Compliance Matrix: (Units=1/GPa)
#
#
# Indices 1 2 3 4 5 6 
#
# 1 0.042035 0.009692 -0.000437 0.000000 0.000000 0.000000
# 2 0.009692 0.012848 -0.000706 0.000000 0.000000 0.000000
# 3 -0.000437 -0.000706 0.019362 0.000000 0.000000 0.000000
# 4 0.000000 0.000000 0.000000 0.037088 0.000000 0.000000
# 5 0.000000 0.000000 0.000000 0.000000 0.097625 0.000000
# 6 0.000000 0.000000 0.000000 0.000000 0.000000 0.033911
#
#
# Mechanical properties :
#
#
# Convention : Reuss Voigt Hill
#
# Bulk Modulus (GPa) = 10.94770 15.23239 13.09004
# Shear Modulus (GPa) = 19.51448 26.26283 22.88866
#
# Velocity S-wave (km/s) = 2.87668 3.33721 3.11546
# Velocity P-wave (km/s) = 3.95931 4.61613 4.30028
#
# Compressibility (1/GPa) = 0.09134342
#
# Stress axis : x y z
#
# Youngs Moduli (GPa) = 23.78954 77.83020 51.64800
#
# Poissons Ratio (x) = -0.75432 0.02256
# Poissons Ratio (y) = -0.23056 0.03647
# Poissons Ratio (z) = 0.01039 0.05496
#
# Static dielectric constant tensor:
#      x y z
#    x 1.931960 0.000000 0.000000 
#    y 0.000000 1.939220 0.000000 
#    z 0.000000 0.000000 1.862640 
# 
# From -- ./inp_files/9926.got.cif
#   From: 2010.05.17/outbox.cif.g08.bks.cpg/sg58_5_cif.got.tgz:9926.got - 2010.06.03 14:20:14.
