data_PCOD9442971
_publ_section_title
;
Structure prediction by ZEFSAII (Michael W. Deem and Ramdas Pophale) SiO2 
 PCOD9442971
Probable space group: P N N M
;
_chemical_formula_sum "Si O2"
_cell_formula_units_Z 58
_cell_length_a 25.908298
_cell_length_b 9.913745
_cell_length_c 12.816471
_cell_angle_alpha 90.000000
_cell_angle_beta 90.000000
_cell_angle_gamma 90.000000
_cell_volume 3291.888273
_symmetry_space_group_name_H-M "P N N M"
_symmetry_group_IT_number 58
_symmetry_cell_setting 'orthorhombic'
loop_
_space_group_symop_operation_xyz
x,y,z
-x,-y,z
1/2+x,1/2-y,1/2-z
1/2-x,1/2+y,1/2-z
-x,-y,-z
x,y,-z
1/2-x,1/2+y,1/2+z
1/2+x,1/2-y,1/2+z
loop_
_atom_site_type_symbol
_atom_site_label
_atom_site_fract_x
_atom_site_fract_y
_atom_site_fract_z
Si Si1 0.756791 0.902515 0.374581
Si Si2 0.657860 0.620523 0.125921
Si Si3 0.046078 0.599271 0.877977
Si Si4 0.577680 0.384469 0.832891
Si Si5 0.348341 0.099144 0.249864
Si Si6 0.025216 0.146527 0.115272
Si Si7 0.500000 0.500000 0.000000
Si Si8 0.165222 0.327398 0.620334
O O1 0.754987 0.898484 0.500000
O O2 0.700247 0.899987 0.327561
O O3 0.789300 0.771081 0.339123
O O4 0.790338 0.035753 0.347204
O O5 0.610922 0.522639 0.159710
O O6 0.654107 0.764523 0.181134
O O7 0.655152 0.634284 0.000000
O O8 0.097638 0.591474 0.811139
O O9 0.000000 0.500000 0.842910
O O10 0.020613 0.746350 0.871939
O O11 0.057157 0.568413 0.000000
O O12 0.562222 0.349451 0.714650
O O13 0.614341 0.265439 0.873515
O O14 0.529328 0.410227 0.908024
O O15 0.342099 0.964968 0.181433
O O16 0.049201 0.172024 0.000000
O O17 0.000000 0.000000 0.114405
O O18 0.176391 0.358592 0.500000
#
# Coordination Sequence:
#
# PCOD9442971 Si02
#       8
#     8   8   8   8   8   8   2   8
#     4   9  20  39  61  79 107 145 191 225 276 346
#     4  10  21  38  56  84 114 147 181 231 286 336
#     4  10  22  38  53  76 113 149 182 222 278 337
#     4  11  20  37  59  81 111 154 196 231 264 341
#     4  12  21  34  59  85 109 143 184 232 281 338
#     4  10  20  34  54  78 107 144 185 233 276 313
#     4  12  20  32  66  82 108 156 220 212 262 344
#     4  10  21  38  55  82 115 143 177 235 292 321
#
# _framework density 17.619066
#
# number of rings (size 3 to 8) (size 9 to 14) (size 15 to 20)
#    0.000    1.655    2.069    4.138    0.000    0.000 
#    0.000    1.379    0.000    9.103    0.000    0.000 
#    0.000    0.000    0.000    0.000    0.000    0.000 
#
# Total GULP energy -323101.710221 kJ/mol
# GULP energy per Si atom -5570.719142 kJ/mol
# Density = 1.757896 g / cm^3
# Si number density = 17.619066 Si / 1000 Ang^3
#
#
#
# Elastic Constant Matrix: (Units=GPa)
#
#
# Indices 1 2 3 4 5 6 
#
# 1 100.4513 56.0773 63.4907 0.0000 0.0000 0.0000
# 2 56.0773 142.4421 46.8099 0.0000 0.0000 0.0000
# 3 63.4907 46.8099 92.3544 0.0000 0.0000 0.0000
# 4 0.0000 0.0000 0.0000 28.6186 0.0000 0.0000
# 5 0.0000 0.0000 0.0000 0.0000 -163.5093 0.0000
# 6 0.0000 0.0000 0.0000 0.0000 0.0000 12.9977
#
#
#
# Elastic Compliance Matrix: (Units=1/GPa)
#
#
# Indices 1 2 3 4 5 6 
#
# 1 0.019233 -0.003872 -0.011260 0.000000 0.000000 0.000000
# 2 -0.003872 0.009203 -0.002003 0.000000 0.000000 0.000000
# 3 -0.011260 -0.002003 0.019584 0.000000 0.000000 0.000000
# 4 0.000000 0.000000 0.000000 0.034942 0.000000 0.000000
# 5 0.000000 0.000000 0.000000 0.000000 -0.006116 0.000000
# 6 0.000000 0.000000 0.000000 0.000000 0.000000 0.076937
#
#
# Mechanical properties :
#
#
# Convention : Reuss Voigt Hill
#
# Bulk Modulus (GPa) = 72.72115 74.22263 73.47189
# Shear Modulus (GPa) = 25.95572 -13.12061 6.41756
#
# Velocity S-wave (km/s) = 3.84234 -2.73185 1.91058
# Velocity P-wave (km/s) = 7.81335 5.68041 6.83065
#
# Compressibility (1/GPa) = 0.01375116
#
# Stress axis : x y z
#
# Youngs Moduli (GPa) = 51.99316 108.66310 51.06240
#
# Poissons Ratio (x) = 0.42070 0.57496
# Poissons Ratio (y) = 0.20129 0.10227
# Poissons Ratio (z) = 0.58544 0.21764
#
# Static dielectric constant tensor:
#      x y z
#    x 1.589510 0.000000 0.000000 
#    y 0.000000 1.579270 0.000000 
#    z 0.000000 0.000000 1.610260 
# 
# From -- ./inp_files/17783.got.cif
#   From: 2010.05.17/outbox.cif.g08.bks.cpg/sg58_9_cif.got.tgz:17783.got - 2010.06.03 14:20:14.
