data_PCOD9442964
_publ_section_title
;
Structure prediction by ZEFSAII (Michael W. Deem and Ramdas Pophale) SiO2 
 PCOD9442964
Probable space group: P N N M
;
_chemical_formula_sum "Si O2"
_cell_formula_units_Z 64
_cell_length_a 29.703284
_cell_length_b 12.880203
_cell_length_c 7.594521
_cell_angle_alpha 90.000000
_cell_angle_beta 90.000000
_cell_angle_gamma 90.000000
_cell_volume 2905.544711
_symmetry_space_group_name_H-M "P N N M"
_symmetry_group_IT_number 58
_symmetry_cell_setting 'orthorhombic'
loop_
_space_group_symop_operation_xyz
x,y,z
-x,-y,z
1/2+x,1/2-y,1/2-z
1/2-x,1/2+y,1/2-z
-x,-y,-z
x,y,-z
1/2-x,1/2+y,1/2+z
1/2+x,1/2-y,1/2+z
loop_
_atom_site_type_symbol
_atom_site_label
_atom_site_fract_x
_atom_site_fract_y
_atom_site_fract_z
Si Si1 0.550614 0.523957 0.213501
Si Si2 0.062977 0.739516 0.204753
Si Si3 0.624248 0.150811 0.791999
Si Si4 0.479556 0.888665 0.287611
Si Si5 0.204139 0.940631 0.210391
Si Si6 0.132200 0.117246 0.287722
Si Si7 0.301574 0.009000 0.212937
Si Si8 0.660650 0.772533 0.709874
O O1 0.500000 0.500000 0.269980
O O2 0.564134 0.636723 0.281444
O O3 0.586094 0.437673 0.273031
O O4 0.551483 0.527713 0.000000
O O5 0.110613 0.702833 0.282685
O O6 0.016159 0.695429 0.278465
O O7 0.062356 0.707126 0.000000
O O8 0.571316 0.128417 0.772958
O O9 0.635469 0.265401 0.719662
O O10 0.656435 0.060102 0.721311
O O11 0.633752 0.155275 0.000000
O O12 0.477005 0.884851 0.500000
O O13 0.500000 0.000000 0.236983
O O14 0.254328 0.962410 0.277355
O O15 0.181081 0.835211 0.280535
O O16 0.172677 0.039988 0.242769
O O17 0.207843 0.927306 0.000000
O O18 0.129861 0.122370 0.500000
O O19 0.308002 0.128641 0.262966
O O20 0.301150 0.006618 0.000000
O O21 0.654866 0.757736 0.500000
#
# Coordination Sequence:
#
# PCOD9442964 Si02
#       8
#     8   8   8   8   8   8   8   8
#     4  10  20  34  53  81 114 149 189 232 280 338
#     4  10  20  35  56  83 112 148 190 236 288 341
#     4  10  22  40  60  85 119 157 196 238 290 348
#     4  10  21  37  58  84 117 154 197 243 287 342
#     4  10  22  40  61  86 115 150 193 243 295 348
#     4  10  21  37  59  85 116 154 194 237 289 347
#     4  10  23  40  60  87 117 149 192 245 293 344
#     4  10  21  39  63  87 115 152 194 238 292 352
#
# _framework density 22.026851000000001
#
# number of rings (size 3 to 8) (size 9 to 14) (size 15 to 20)
#    0.000    2.000    1.250    1.500    1.750    5.500 
#    0.000    0.000    0.000    0.000    0.000    0.000 
#    0.000    0.000    0.000    0.000    0.000    0.000 
#
# Total GULP energy -357596.928081 kJ/mol
# GULP energy per Si atom -5587.452001 kJ/mol
# Density = 2.197672 g / cm^3
# Si number density = 22.026851 Si / 1000 Ang^3
#
#
#
# Elastic Constant Matrix: (Units=GPa)
#
#
# Indices 1 2 3 4 5 6 
#
# 1 154.6819 55.6506 -3.3520 0.0000 0.0000 0.0000
# 2 55.6506 123.2994 -10.0395 0.0000 0.0000 0.0000
# 3 -3.3520 -10.0395 39.8121 0.0000 0.0000 0.0000
# 4 0.0000 0.0000 0.0000 17.9393 0.0000 0.0000
# 5 0.0000 0.0000 0.0000 0.0000 17.9165 0.0000
# 6 0.0000 0.0000 0.0000 0.0000 0.0000 37.1708
#
#
#
# Elastic Compliance Matrix: (Units=1/GPa)
#
#
# Indices 1 2 3 4 5 6 
#
# 1 0.007720 -0.003504 -0.000233 0.000000 0.000000 0.000000
# 2 -0.003504 0.009870 0.002194 0.000000 0.000000 0.000000
# 3 -0.000233 0.002194 0.025652 0.000000 0.000000 0.000000
# 4 0.000000 0.000000 0.000000 0.055743 0.000000 0.000000
# 5 0.000000 0.000000 0.000000 0.000000 0.055815 0.000000
# 6 0.000000 0.000000 0.000000 0.000000 0.000000 0.026903
#
#
# Mechanical properties :
#
#
# Convention : Reuss Voigt Hill
#
# Bulk Modulus (GPa) = 24.90274 44.70127 34.80201
# Shear Modulus (GPa) = 25.23030 32.97428 29.10229
#
# Velocity S-wave (km/s) = 3.38810 3.87331 3.63880
# Velocity P-wave (km/s) = 5.16099 6.35149 5.78693
#
# Compressibility (1/GPa) = 0.04015622
#
# Stress axis : x y z
#
# Youngs Moduli (GPa) = 129.52855 101.31413 38.98395
#
# Poissons Ratio (x) = 0.35496 0.00910
# Poissons Ratio (y) = 0.45381 -0.08553
# Poissons Ratio (z) = 0.03024 -0.22229
#
# Static dielectric constant tensor:
#      x y z
#    x 1.800760 0.000000 0.000000 
#    y 0.000000 1.791150 0.000000 
#    z 0.000000 0.000000 1.838050 
# 
# From -- ./inp_files/10990.got.cif
#   From: 2010.05.17/outbox.cif.g08.bks.cpg/sg58_6_cif.got.tgz:10990.got - 2010.06.03 14:20:14.
