data_PCOD9442123
_publ_section_title
;
Structure prediction by ZEFSAII (Michael W. Deem and Ramdas Pophale) SiO2 
 PCOD9442123
Probable space group: P N N M
;
_chemical_formula_sum "Si O2"
_cell_formula_units_Z 56
_cell_length_a 19.620551
_cell_length_b 14.372662
_cell_length_c 8.656138
_cell_angle_alpha 90.000000
_cell_angle_beta 90.000000
_cell_angle_gamma 90.000000
_cell_volume 2441.027001
_symmetry_space_group_name_H-M "P N N M"
_symmetry_group_IT_number 58
_symmetry_cell_setting 'orthorhombic'
loop_
_space_group_symop_operation_xyz
x,y,z
-x,-y,z
1/2+x,1/2-y,1/2-z
1/2-x,1/2+y,1/2-z
-x,-y,-z
x,y,-z
1/2-x,1/2+y,1/2+z
1/2+x,1/2-y,1/2+z
loop_
_atom_site_type_symbol
_atom_site_label
_atom_site_fract_x
_atom_site_fract_y
_atom_site_fract_z
Si Si1 0.151423 0.726824 0.317051
Si Si2 0.571955 0.382571 0.182317
Si Si3 0.487341 0.223276 0.678052
Si Si4 0.434705 0.934079 0.175336
Si Si5 0.647744 0.556412 0.187764
Si Si6 0.790165 0.762609 0.680315
Si Si7 0.201546 0.442364 0.182713
O O1 0.162623 0.721487 0.500000
O O2 0.077744 0.688283 0.273941
O O3 0.142883 0.835940 0.268943
O O4 0.218456 0.691490 0.230037
O O5 0.515036 0.322754 0.266750
O O6 0.589282 0.486088 0.240077
O O7 0.643971 0.327577 0.197329
O O8 0.554044 0.385650 0.000000
O O9 0.469101 0.224514 0.500000
O O10 0.547797 0.150876 0.712222
O O11 0.363843 0.979559 0.226745
O O12 0.500000 0.000000 0.181199
O O13 0.427500 0.898347 0.000000
O O14 0.723725 0.523817 0.233675
O O15 0.646330 0.553474 0.000000
O O16 0.785657 0.736361 0.500000
O O17 0.797094 0.668835 0.781138
O O18 0.194146 0.458014 0.000000
#
# Coordination Sequence:
#
# PCOD9442123 Si02
#       7
#     8   8   8   8   8   8   8
#     4  10  21  39  61  84 119 160 204 253 303 360
#     4  10  20  37  61  87 119 158 203 245 296 360
#     4  12  25  40  60  87 121 159 202 248 304 367
#     4  11  24  41  61  87 119 156 198 247 305 363
#     4   8  18  36  59  87 115 154 199 244 293 351
#     4  10  19  33  58  86 115 154 200 249 299 356
#     4  10  19  35  59  85 117 153 194 240 293 355
#
# _framework density 22.941163
#
# number of rings (size 3 to 8) (size 9 to 14) (size 15 to 20)
#    0.000    1.857    1.429    3.857    0.000    3.429 
#    0.000    8.571    0.000    0.000    0.000    0.000 
#    0.000    0.000    0.000    0.000    0.000    0.000 
#
# Total GULP energy -313147.207459 kJ/mol
# GULP energy per Si atom -5591.914419 kJ/mol
# Density = 2.288895 g / cm^3
# Si number density = 22.941163 Si / 1000 Ang^3
#
#
#
# Elastic Constant Matrix: (Units=GPa)
#
#
# Indices 1 2 3 4 5 6 
#
# 1 107.6220 -3.2253 8.3127 0.0000 0.0000 0.0000
# 2 -3.2253 44.7889 -1.0109 0.0000 0.0000 0.0000
# 3 8.3127 -1.0109 46.6732 0.0000 0.0000 0.0000
# 4 0.0000 0.0000 0.0000 0.2657 0.0000 0.0000
# 5 0.0000 0.0000 0.0000 0.0000 7.6865 0.0000
# 6 0.0000 0.0000 0.0000 0.0000 0.0000 35.2670
#
#
#
# Elastic Compliance Matrix: (Units=1/GPa)
#
#
# Indices 1 2 3 4 5 6 
#
# 1 0.009440 0.000642 -0.001667 0.000000 0.000000 0.000000
# 2 0.000642 0.022382 0.000370 0.000000 0.000000 0.000000
# 3 -0.001667 0.000370 0.021731 0.000000 0.000000 0.000000
# 4 0.000000 0.000000 0.000000 3.763259 0.000000 0.000000
# 5 0.000000 0.000000 0.000000 0.000000 0.130098 0.000000
# 6 0.000000 0.000000 0.000000 0.000000 0.000000 0.028355
#
#
# Mechanical properties :
#
#
# Convention : Reuss Voigt Hill
#
# Bulk Modulus (GPa) = 19.14160 23.02636 21.08398
# Shear Modulus (GPa) = 1.25188 21.64435 11.44811
#
# Velocity S-wave (km/s) = 0.73951 3.07493 2.23630
# Velocity P-wave (km/s) = 3.01514 4.76087 3.98478
#
# Compressibility (1/GPa) = 0.05224223
#
# Stress axis : x y z
#
# Youngs Moduli (GPa) = 105.93435 44.67963 46.01818
#
# Poissons Ratio (x) = -0.02869 0.07673
# Poissons Ratio (y) = -0.06802 -0.01704
# Poissons Ratio (z) = 0.17663 -0.01655
#
# Static dielectric constant tensor:
#      x y z
#    x 1.866710 0.000000 0.000000 
#    y 0.000000 1.915510 0.000000 
#    z 0.000000 0.000000 1.761920 
# 
# From -- ./inp_files/9054.got.cif
#   From: 2010.05.17/outbox.cif.g08.bks.cpg/sg58_5_cif.got.tgz:9054.got - 2010.06.03 14:20:14.
