data_PCOD9442958
_publ_section_title
;
Structure prediction by ZEFSAII (Michael W. Deem and Ramdas Pophale) SiO2 
 PCOD9442958
Probable space group: P N N M
;
_chemical_formula_sum "Si O2"
_cell_formula_units_Z 40
_cell_length_a 20.917189
_cell_length_b 7.273297
_cell_length_c 13.937093
_cell_angle_alpha 90.000000
_cell_angle_beta 90.000000
_cell_angle_gamma 90.000000
_cell_volume 2120.346514
_symmetry_space_group_name_H-M "P N N M"
_symmetry_group_IT_number 58
_symmetry_cell_setting 'orthorhombic'
loop_
_space_group_symop_operation_xyz
x,y,z
-x,-y,z
1/2+x,1/2-y,1/2-z
1/2-x,1/2+y,1/2-z
-x,-y,-z
x,y,-z
1/2-x,1/2+y,1/2+z
1/2+x,1/2-y,1/2+z
loop_
_atom_site_type_symbol
_atom_site_label
_atom_site_fract_x
_atom_site_fract_y
_atom_site_fract_z
Si Si1 0.869801 0.578202 0.708725
Si Si2 0.935457 0.888523 0.613990
Si Si3 0.792391 0.612211 0.108671
Si Si4 0.162835 0.831300 0.295502
Si Si5 0.736171 0.673841 0.609141
O O1 0.928023 0.694726 0.667541
O O2 0.848880 0.638088 0.815509
O O3 0.876082 0.358541 0.709201
O O4 0.807703 0.626870 0.643142
O O5 0.930404 0.861038 0.500000
O O6 0.877401 0.014718 0.651170
O O7 0.000000 0.000000 0.634253
O O8 0.728514 0.709814 0.147136
O O9 0.773860 0.394999 0.111794
O O10 0.807577 0.661836 0.000000
O O11 0.187059 0.895601 0.190534
O O12 0.725151 0.612490 0.500000
#
# Coordination Sequence:
#
# PCOD9442958 Si02
#       5
#     8   8   8   8   8
#     4  10  20  34  53  80 108 138 177 216 262 314
#     4  11  24  40  55  73 105 145 181 220 262 310
#     4   9  17  31  53  81 113 140 165 212 271 320
#     4  10  20  34  53  80 108 138 177 216 262 314
#     4   9  17  31  53  81 113 140 165 212 271 320
#
# _framework density 18.864840000000001
#
# number of rings (size 3 to 8) (size 9 to 14) (size 15 to 20)
#    0.000    2.200    2.000    1.200    2.800    4.000 
#    0.000    2.000    0.000    2.400    0.000    5.600 
#    0.000    0.000    0.000    0.000    0.000    0.000 
#
# Total GULP energy -223351.755250 kJ/mol
# GULP energy per Si atom -5583.793881 kJ/mol
# Density = 1.882190 g / cm^3
# Si number density = 18.864840 Si / 1000 Ang^3
#
#
#
# Elastic Constant Matrix: (Units=GPa)
#
#
# Indices 1 2 3 4 5 6 
#
# 1 19.2899 -9.9369 6.1743 0.0000 0.0000 0.0000
# 2 -9.9369 44.1105 -6.4231 0.0000 0.0000 0.0000
# 3 6.1743 -6.4231 97.9992 0.0000 0.0000 0.0000
# 4 0.0000 0.0000 0.0000 21.4916 0.0000 0.0000
# 5 0.0000 0.0000 0.0000 0.0000 11.1259 0.0000
# 6 0.0000 0.0000 0.0000 0.0000 0.0000 14.0885
#
#
#
# Elastic Compliance Matrix: (Units=1/GPa)
#
#
# Indices 1 2 3 4 5 6 
#
# 1 0.059449 0.012971 -0.002895 0.000000 0.000000 0.000000
# 2 0.012971 0.025719 0.000868 0.000000 0.000000 0.000000
# 3 -0.002895 0.000868 0.010444 0.000000 0.000000 0.000000
# 4 0.000000 0.000000 0.000000 0.046530 0.000000 0.000000
# 5 0.000000 0.000000 0.000000 0.000000 0.089880 0.000000
# 6 0.000000 0.000000 0.000000 0.000000 0.000000 0.070980
#
#
# Mechanical properties :
#
#
# Convention : Reuss Voigt Hill
#
# Bulk Modulus (GPa) = 8.51073 15.66981 12.09027
# Shear Modulus (GPa) = 15.61133 20.78021 18.19577
#
# Velocity S-wave (km/s) = 2.87981 3.32253 3.10906
# Velocity P-wave (km/s) = 3.94702 4.80035 4.39445
#
# Compressibility (1/GPa) = 0.11749873
#
# Stress axis : x y z
#
# Youngs Moduli (GPa) = 16.82113 38.88217 95.75327
#
# Poissons Ratio (x) = -0.50433 0.27724
# Poissons Ratio (y) = -0.21818 -0.08316
# Poissons Ratio (z) = 0.04870 -0.03377
#
# Static dielectric constant tensor:
#      x y z
#    x 1.623030 0.000000 0.000000 
#    y 0.000000 1.721870 0.000000 
#    z 0.000000 0.000000 1.655280 
# 
# From -- ./inp_files/5591.got.cif
#   From: 2010.05.17/outbox.cif.g08.bks.cpg/sg58_3_cif.got.tgz:5591.got - 2010.06.03 14:20:14.
