data_PCOD9442210
_publ_section_title
;
Structure prediction by ZEFSAII (Michael W. Deem and Ramdas Pophale) SiO2 
 PCOD9442210
Probable space group: P N N M
;
_chemical_formula_sum "Si O2"
_cell_formula_units_Z 48
_cell_length_a 27.602985
_cell_length_b 9.324112
_cell_length_c 8.453393
_cell_angle_alpha 90.000000
_cell_angle_beta 90.000000
_cell_angle_gamma 90.000000
_cell_volume 2175.677853
_symmetry_space_group_name_H-M "P N N M"
_symmetry_group_IT_number 58
_symmetry_cell_setting 'orthorhombic'
loop_
_space_group_symop_operation_xyz
x,y,z
-x,-y,z
1/2+x,1/2-y,1/2-z
1/2-x,1/2+y,1/2-z
-x,-y,-z
x,y,-z
1/2-x,1/2+y,1/2+z
1/2+x,1/2-y,1/2+z
loop_
_atom_site_type_symbol
_atom_site_label
_atom_site_fract_x
_atom_site_fract_y
_atom_site_fract_z
Si Si1 0.131260 0.566326 0.688732
Si Si2 0.444112 0.852677 0.679345
Si Si3 0.927391 0.031702 0.500000
Si Si4 0.505595 0.250340 0.000000
Si Si5 0.863629 0.888328 0.757908
Si Si6 0.182060 0.823779 0.176408
Si Si7 0.712343 0.148717 0.181656
O O1 0.125273 0.539288 0.500000
O O2 0.085852 0.496457 0.778614
O O3 0.144140 0.728533 0.726829
O O4 0.179069 0.478649 0.746164
O O5 0.465100 0.858036 0.500000
O O6 0.478588 0.824856 0.833931
O O7 0.403809 0.723691 0.676622
O O8 0.894745 0.990155 0.646340
O O9 0.951006 0.188901 0.500000
O O10 0.965364 0.899774 0.500000
O O11 0.833417 0.011415 0.843115
O O12 0.823008 0.785221 0.684202
O O13 0.235399 0.821651 0.255392
O O14 0.184207 0.758627 0.000000
O O15 0.723205 0.109932 0.000000
#
# Coordination Sequence:
#
# PCOD9442210 Si02
#       7
#     8   8   4   4   8   8   8
#     4  10  20  35  54  78 108 153 198 237 289 349
#     4  10  19  36  61  86 116 152 190 237 293 353
#     4   9  18  34  59  85 119 147 195 239 301 352
#     4   9  18  36  59  93 115 151 193 243 293 361
#     4  10  19  34  56  82 113 156 189 235 296 344
#     4  11  22  33  49  80 117 149 192 244 287 341
#     4   9  18  34  53  76 109 150 198 243 284 337
#
# _framework density 22.062090999999999
#
# number of rings (size 3 to 8) (size 9 to 14) (size 15 to 20)
#    0.000    2.167    1.667    2.000    1.167    0.000 
#    0.000   11.667    0.000    2.000    0.000    2.333 
#    0.000    0.000    0.000    0.000    0.000    0.000 
#
# Total GULP energy -267277.043499 kJ/mol
# GULP energy per Si atom -5568.271740 kJ/mol
# Density = 2.201188 g / cm^3
# Si number density = 22.062091 Si / 1000 Ang^3
#
#
#
# Elastic Constant Matrix: (Units=GPa)
#
#
# Indices 1 2 3 4 5 6 
#
# 1 75.6136 30.2996 26.8154 0.0000 0.0000 0.0000
# 2 30.2996 111.1345 8.8154 0.0000 0.0000 0.0000
# 3 26.8154 8.8154 92.4705 0.0000 0.0000 0.0000
# 4 0.0000 0.0000 0.0000 24.7831 0.0000 0.0000
# 5 0.0000 0.0000 0.0000 0.0000 -2.8271 0.0000
# 6 0.0000 0.0000 0.0000 0.0000 0.0000 29.6969
#
#
#
# Elastic Compliance Matrix: (Units=1/GPa)
#
#
# Indices 1 2 3 4 5 6 
#
# 1 0.016431 -0.004133 -0.004371 0.000000 0.000000 0.000000
# 2 -0.004133 0.010106 0.000235 0.000000 0.000000 0.000000
# 3 -0.004371 0.000235 0.012059 0.000000 0.000000 0.000000
# 4 0.000000 0.000000 0.000000 0.040350 0.000000 0.000000
# 5 0.000000 0.000000 0.000000 0.000000 -0.353724 0.000000
# 6 0.000000 0.000000 0.000000 0.000000 0.000000 0.033674
#
#
# Mechanical properties :
#
#
# Convention : Reuss Voigt Hill
#
# Bulk Modulus (GPa) = 45.33250 45.67549 45.50399
# Shear Modulus (GPa) = -23.01893 24.54982 0.76544
#
# Velocity S-wave (km/s) = -3.23363 3.33942 0.58966
# Velocity P-wave (km/s) = 2.57886 5.96801 4.59715
#
# Compressibility (1/GPa) = 0.02205923
#
# Stress axis : x y z
#
# Youngs Moduli (GPa) = 60.85902 98.94805 82.92313
#
# Poissons Ratio (x) = 0.40897 0.36245
# Poissons Ratio (y) = 0.25154 -0.01950
# Poissons Ratio (z) = 0.26601 -0.02326
#
# Static dielectric constant tensor:
#      x y z
#    x 1.909050 0.000000 0.000000 
#    y 0.000000 1.769240 0.000000 
#    z 0.000000 0.000000 1.512220 
# 
# From -- ./inp_files/10800.got.cif
#   From: 2010.05.17/outbox.cif.g08.bks.cpg/sg58_6_cif.got.tgz:10800.got - 2010.06.03 14:20:14.
