data_PCOD9442575
_publ_section_title
;
Structure prediction by ZEFSAII (Michael W. Deem and Ramdas Pophale) SiO2 
 PCOD9442575
Probable space group: P N N M
;
_chemical_formula_sum "Si O2"
_cell_formula_units_Z 48
_cell_length_a 20.871065
_cell_length_b 15.347643
_cell_length_c 7.560697
_cell_angle_alpha 90.000000
_cell_angle_beta 90.000000
_cell_angle_gamma 90.000000
_cell_volume 2421.854973
_symmetry_space_group_name_H-M "P N N M"
_symmetry_group_IT_number 58
_symmetry_cell_setting 'orthorhombic'
loop_
_space_group_symop_operation_xyz
x,y,z
-x,-y,z
1/2+x,1/2-y,1/2-z
1/2-x,1/2+y,1/2-z
-x,-y,-z
x,y,-z
1/2-x,1/2+y,1/2+z
1/2+x,1/2-y,1/2+z
loop_
_atom_site_type_symbol
_atom_site_label
_atom_site_fract_x
_atom_site_fract_y
_atom_site_fract_z
Si Si1 0.765799 0.717198 0.285779
Si Si2 0.305503 0.109166 0.297198
Si Si3 0.702928 0.535047 0.284990
Si Si4 0.431668 0.536110 0.284735
Si Si5 0.599709 0.955015 0.000000
Si Si6 0.911335 0.762951 0.203695
Si Si7 0.463389 0.860755 0.000000
O O1 0.770930 0.717254 0.500000
O O2 0.718909 0.796262 0.236917
O O3 0.735749 0.625338 0.230034
O O4 0.836632 0.736349 0.215192
O O5 0.327175 0.114544 0.500000
O O6 0.244786 0.044962 0.284462
O O7 0.359249 0.071061 0.170361
O O8 0.705084 0.531717 0.500000
O O9 0.629402 0.521428 0.229592
O O10 0.500000 0.500000 0.222930
O O11 0.432494 0.534169 0.500000
O O12 0.419686 0.636821 0.236173
O O13 0.533376 0.902725 0.000000
O O14 0.585537 0.057859 0.000000
O O15 0.950141 0.698731 0.329940
O O16 0.932347 0.756768 0.000000
#
# Coordination Sequence:
#
# PCOD9442575 Si02
#       7
#     8   8   8   8   4   8   4
#     4  10  21  36  62  94 129 165 211 266 317 376
#     4  11  23  40  64  94 127 162 211 271 320 375
#     4  10  19  36  61  91 126 166 208 262 321 377
#     4   9  19  36  62  92 127 171 215 257 318 392
#     4  11  26  46  66  90 125 172 214 268 325 380
#     4  11  22  39  67  95 125 171 216 260 323 393
#     4  11  26  46  65  90 130 168 217 266 321 396
#
# _framework density 19.819517999999999
#
# number of rings (size 3 to 8) (size 9 to 14) (size 15 to 20)
#    0.000    1.667    3.333    1.000    1.167    4.667 
#    0.000    5.417    0.000    0.000    0.000    0.000 
#    0.000    0.000    0.000    0.000    0.000    0.000 
#
# Total GULP energy -268372.045293 kJ/mol
# GULP energy per Si atom -5591.084277 kJ/mol
# Density = 1.977441 g / cm^3
# Si number density = 19.819518 Si / 1000 Ang^3
#
#
#
# Elastic Constant Matrix: (Units=GPa)
#
#
# Indices 1 2 3 4 5 6 
#
# 1 84.9444 37.7665 21.4990 0.0000 0.0000 0.0000
# 2 37.7665 126.8868 18.8156 0.0000 0.0000 0.0000
# 3 21.4990 18.8156 70.1228 0.0000 0.0000 0.0000
# 4 0.0000 0.0000 0.0000 24.9812 0.0000 0.0000
# 5 0.0000 0.0000 0.0000 0.0000 0.2882 0.0000
# 6 0.0000 0.0000 0.0000 0.0000 0.0000 33.1071
#
#
#
# Elastic Compliance Matrix: (Units=1/GPa)
#
#
# Indices 1 2 3 4 5 6 
#
# 1 0.014296 -0.003755 -0.003376 0.000000 0.000000 0.000000
# 2 -0.003755 0.009194 -0.001316 0.000000 0.000000 0.000000
# 3 -0.003376 -0.001316 0.015649 0.000000 0.000000 0.000000
# 4 0.000000 0.000000 0.000000 0.040030 0.000000 0.000000
# 5 0.000000 0.000000 0.000000 0.000000 3.469947 0.000000
# 6 0.000000 0.000000 0.000000 0.000000 0.000000 0.030205
#
#
# Mechanical properties :
#
#
# Convention : Reuss Voigt Hill
#
# Bulk Modulus (GPa) = 44.95076 48.67960 46.81518
# Shear Modulus (GPa) = 1.38749 25.26682 13.32716
#
# Velocity S-wave (km/s) = 0.83761 3.57437 2.59593
# Velocity P-wave (km/s) = 4.86464 6.45365 5.71464
#
# Compressibility (1/GPa) = 0.02224657
#
# Stress axis : x y z
#
# Youngs Moduli (GPa) = 69.94952 108.77085 63.90312
#
# Poissons Ratio (x) = 0.40838 0.21571
# Poissons Ratio (y) = 0.26263 0.08408
# Poissons Ratio (z) = 0.23612 0.14312
#
# Static dielectric constant tensor:
#      x y z
#    x 1.663850 0.000000 0.000000 
#    y 0.000000 1.667080 0.000000 
#    z 0.000000 0.000000 1.724600 
# 
# From -- ./inp_files/5949.got.cif
#   From: 2010.05.17/outbox.cif.g08.bks.cpg/sg58_3_cif.got.tgz:5949.got - 2010.06.03 14:20:14.
