data_PCOD9442864
_publ_section_title
;
Structure prediction by ZEFSAII (Michael W. Deem and Ramdas Pophale) SiO2 
 PCOD9442864
Probable space group: P N N M
;
_chemical_formula_sum "Si O2"
_cell_formula_units_Z 44
_cell_length_a 8.247890
_cell_length_b 17.802550
_cell_length_c 15.277592
_cell_angle_alpha 90.000000
_cell_angle_beta 90.000000
_cell_angle_gamma 90.000000
_cell_volume 2243.261910
_symmetry_space_group_name_H-M "P N N M"
_symmetry_group_IT_number 58
_symmetry_cell_setting 'orthorhombic'
loop_
_space_group_symop_operation_xyz
x,y,z
-x,-y,z
1/2+x,1/2-y,1/2-z
1/2-x,1/2+y,1/2-z
-x,-y,-z
x,y,-z
1/2-x,1/2+y,1/2+z
1/2+x,1/2-y,1/2+z
loop_
_atom_site_type_symbol
_atom_site_label
_atom_site_fract_x
_atom_site_fract_y
_atom_site_fract_z
Si Si1 0.259761 0.044529 0.395720
Si Si2 0.064259 0.178434 0.328704
Si Si3 0.784965 0.177466 0.190618
Si Si4 0.390566 0.890735 0.650179
Si Si5 0.088985 0.268589 0.000000
Si Si6 0.274842 0.333358 0.500000
Si Si7 0.066818 0.746037 0.500000
O O1 0.251783 0.058348 0.500000
O O2 0.127805 0.095095 0.347666
O O3 0.431424 0.074567 0.359815
O O4 0.264817 0.955552 0.379560
O O5 0.211551 0.238716 0.323488
O O6 0.961508 0.205106 0.412848
O O7 0.952931 0.182384 0.243079
O O8 0.658542 0.135677 0.253882
O O9 0.801210 0.135292 0.097621
O O10 0.392867 0.821182 0.584291
O O11 0.249108 0.215955 0.000000
O O12 0.912204 0.232145 0.000000
O O13 0.085398 0.310183 0.500000
#
# Coordination Sequence:
#
# PCOD9442864 Si02
#       7
#     8   8   8   8   4   4   4
#     4  11  21  37  61  93 130 159 187 252 331 383
#     4  11  21  36  57  85 123 157 203 248 308 373
#     4  11  23  38  56  85 118 167 206 256 297 360
#     4  11  21  36  60  89 127 162 196 240 315 390
#     4  12  18  36  61  90 126 163 191 246 318 385
#     4  10  24  40  58  80 129 161 217 267 293 340
#     4  10  20  33  55  91 116 157 195 248 305 377
#
# _framework density 19.614294999999998
#
# number of rings (size 3 to 8) (size 9 to 14) (size 15 to 20)
#    0.000    1.091    4.545    4.909    0.000    0.727 
#    0.000    1.818    0.000    4.364    0.000    0.000 
#    0.000    0.000    0.000    0.000    0.000    0.000 
#
# Total GULP energy -245540.825101 kJ/mol
# GULP energy per Si atom -5580.473298 kJ/mol
# Density = 1.956965 g / cm^3
# Si number density = 19.614295 Si / 1000 Ang^3
#
#
#
# Elastic Constant Matrix: (Units=GPa)
#
#
# Indices 1 2 3 4 5 6 
#
# 1 75.9244 18.1163 21.8560 0.0000 0.0000 0.0000
# 2 18.1163 32.9519 13.0677 0.0000 0.0000 0.0000
# 3 21.8560 13.0677 158.0411 0.0000 0.0000 0.0000
# 4 0.0000 0.0000 0.0000 16.9466 0.0000 0.0000
# 5 0.0000 0.0000 0.0000 0.0000 33.7229 0.0000
# 6 0.0000 0.0000 0.0000 0.0000 0.0000 15.2890
#
#
#
# Elastic Compliance Matrix: (Units=1/GPa)
#
#
# Indices 1 2 3 4 5 6 
#
# 1 0.015490 -0.007927 -0.001487 0.000000 0.000000 0.000000
# 2 -0.007927 0.035432 -0.001834 0.000000 0.000000 0.000000
# 3 -0.001487 -0.001834 0.006685 0.000000 0.000000 0.000000
# 4 0.000000 0.000000 0.000000 0.059009 0.000000 0.000000
# 5 0.000000 0.000000 0.000000 0.000000 0.029653 0.000000
# 6 0.000000 0.000000 0.000000 0.000000 0.000000 0.065406
#
#
# Mechanical properties :
#
#
# Convention : Reuss Voigt Hill
#
# Bulk Modulus (GPa) = 28.47915 41.44414 34.96165
# Shear Modulus (GPa) = 20.33558 27.45022 23.89290
#
# Velocity S-wave (km/s) = 3.22339 3.74505 3.49397
# Velocity P-wave (km/s) = 5.32961 6.31474 5.84297
#
# Compressibility (1/GPa) = 0.03511340
#
# Stress axis : x y z
#
# Youngs Moduli (GPa) = 64.55626 28.22280 149.59567
#
# Poissons Ratio (x) = 0.22371 0.22242
# Poissons Ratio (y) = 0.51172 0.27429
# Poissons Ratio (z) = 0.09598 0.05175
#
# Static dielectric constant tensor:
#      x y z
#    x 1.758110 0.000000 0.000000 
#    y 0.000000 1.692020 0.000000 
#    z 0.000000 0.000000 1.669100 
# 
# From -- ./inp_files/19752.got.cif
#   From: 2010.05.17/outbox.cif.g08.bks.cpg/sg58_10_cif.got.tgz:19752.got - 2010.06.03 14:20:14.
