data_PCOD9442825
_publ_section_title
;
Structure prediction by ZEFSAII (Michael W. Deem and Ramdas Pophale) SiO2 
 PCOD9442825
Probable space group: P N N M
;
_chemical_formula_sum "Si O2"
_cell_formula_units_Z 64
_cell_length_a 9.806577
_cell_length_b 14.191652
_cell_length_c 22.519792
_cell_angle_alpha 90.000000
_cell_angle_beta 90.000000
_cell_angle_gamma 90.000000
_cell_volume 3134.113865
_symmetry_space_group_name_H-M "P N N M"
_symmetry_group_IT_number 58
_symmetry_cell_setting 'orthorhombic'
loop_
_space_group_symop_operation_xyz
x,y,z
-x,-y,z
1/2+x,1/2-y,1/2-z
1/2-x,1/2+y,1/2-z
-x,-y,-z
x,y,-z
1/2-x,1/2+y,1/2+z
1/2+x,1/2-y,1/2+z
loop_
_atom_site_type_symbol
_atom_site_label
_atom_site_fract_x
_atom_site_fract_y
_atom_site_fract_z
Si Si1 0.723398 0.854186 0.750159
Si Si2 0.270447 0.359167 0.567117
Si Si3 0.779171 0.939989 0.374308
Si Si4 0.470612 0.727282 0.899244
Si Si5 0.571423 0.194353 0.767181
Si Si6 0.759213 0.139093 0.430510
Si Si7 0.655087 0.015068 0.836325
Si Si8 0.548775 0.816908 0.428484
O O1 0.779507 0.915690 0.695361
O O2 0.570063 0.821024 0.733402
O O3 0.819755 0.764904 0.760568
O O4 0.707609 0.919918 0.807152
O O5 0.301738 0.388217 0.500000
O O6 0.126933 0.302084 0.568624
O O7 0.250466 0.443367 0.612928
O O8 0.380256 0.281828 0.588692
O O9 0.894578 0.873548 0.403488
O O10 0.636365 0.900881 0.400175
O O11 0.793880 0.048207 0.390866
O O12 0.468536 0.759406 0.830707
O O13 0.622527 0.715646 0.922195
O O14 0.637723 0.094186 0.784646
O O15 0.755215 0.110600 0.500000
O O16 0.609715 0.175872 0.413740
O O17 0.500000 0.000000 0.858983
O O18 0.563018 0.823399 0.500000
#
# Coordination Sequence:
#
# PCOD9442825 Si02
#       8
#     8   8   8   8   8   8   8   8
#     4  10  21  38  60  84 112 148 190 233 282 336
#     4   9  17  34  58  81 111 150 190 233 280 333
#     4  10  20  33  51  77 110 150 190 231 284 343
#     4   9  19  34  52  77 110 147 191 237 284 333
#     4   9  20  38  57  80 114 148 185 237 281 326
#     4  11  21  32  51  81 115 148 186 235 285 337
#     4   9  19  36  58  86 116 145 189 238 280 337
#     4   9  19  33  49  75 110 148 191 233 279 340
#
# _framework density 20.420445999999998
#
# number of rings (size 3 to 8) (size 9 to 14) (size 15 to 20)
#    0.000    2.500    0.000    2.250    0.000    8.250 
#    0.000    1.875    0.000    6.000    0.000    1.750 
#    0.000   43.000    0.000    0.000    0.000    0.000 
#
# Total GULP energy -357491.717779 kJ/mol
# GULP energy per Si atom -5585.808090 kJ/mol
# Density = 2.037397 g / cm^3
# Si number density = 20.420446 Si / 1000 Ang^3
#
#
#
# Elastic Constant Matrix: (Units=GPa)
#
#
# Indices 1 2 3 4 5 6 
#
# 1 77.7925 25.9022 1.9730 0.0000 0.0000 0.0000
# 2 25.9022 72.0463 7.2365 0.0000 0.0000 0.0000
# 3 1.9730 7.2365 22.6699 0.0000 0.0000 0.0000
# 4 0.0000 0.0000 0.0000 22.7466 0.0000 0.0000
# 5 0.0000 0.0000 0.0000 0.0000 21.3925 0.0000
# 6 0.0000 0.0000 0.0000 0.0000 0.0000 17.9369
#
#
#
# Elastic Compliance Matrix: (Units=1/GPa)
#
#
# Indices 1 2 3 4 5 6 
#
# 1 0.014607 -0.005293 0.000419 0.000000 0.000000 0.000000
# 2 -0.005293 0.016258 -0.004729 0.000000 0.000000 0.000000
# 3 0.000419 -0.004729 0.045585 0.000000 0.000000 0.000000
# 4 0.000000 0.000000 0.000000 0.043963 0.000000 0.000000
# 5 0.000000 0.000000 0.000000 0.000000 0.046745 0.000000
# 6 0.000000 0.000000 0.000000 0.000000 0.000000 0.055751
#
#
# Mechanical properties :
#
#
# Convention : Reuss Voigt Hill
#
# Bulk Modulus (GPa) = 17.46992 26.97022 22.22007
# Shear Modulus (GPa) = 19.14268 21.57501 20.35885
#
# Velocity S-wave (km/s) = 3.06506 3.25397 3.16093
# Velocity P-wave (km/s) = 4.59346 5.23010 4.92208
#
# Compressibility (1/GPa) = 0.05724125
#
# Stress axis : x y z
#
# Youngs Moduli (GPa) = 68.46202 61.50795 21.93727
#
# Poissons Ratio (x) = 0.32559 -0.00918
# Poissons Ratio (y) = 0.36240 0.10374
# Poissons Ratio (z) = -0.02865 0.29087
#
# Static dielectric constant tensor:
#      x y z
#    x 1.729490 0.000000 0.000000 
#    y 0.000000 1.705960 0.000000 
#    z 0.000000 0.000000 1.742510 
# 
# From -- ./inp_files/31620.got.cif
#   From: 2010.05.17/outbox.cif.g08.bks.cpg/sg58_16_cif.got.tgz:31620.got - 2010.06.03 14:20:14.
