data_PCOD9442665
_publ_section_title
;
Structure prediction by ZEFSAII (Michael W. Deem and Ramdas Pophale) SiO2 
 PCOD9442665
Probable space group: P N N M
;
_chemical_formula_sum "Si O2"
_cell_formula_units_Z 58
_cell_length_a 8.929896
_cell_length_b 20.194628
_cell_length_c 16.580570
_cell_angle_alpha 90.000000
_cell_angle_beta 90.000000
_cell_angle_gamma 90.000000
_cell_volume 2990.072474
_symmetry_space_group_name_H-M "P N N M"
_symmetry_group_IT_number 58
_symmetry_cell_setting 'orthorhombic'
loop_
_space_group_symop_operation_xyz
x,y,z
-x,-y,z
1/2+x,1/2-y,1/2-z
1/2-x,1/2+y,1/2-z
-x,-y,-z
x,y,-z
1/2-x,1/2+y,1/2+z
1/2+x,1/2-y,1/2+z
loop_
_atom_site_type_symbol
_atom_site_label
_atom_site_fract_x
_atom_site_fract_y
_atom_site_fract_z
Si Si1 0.271939 0.781569 0.173207
Si Si2 0.815444 0.794343 0.905954
Si Si3 0.500000 0.500000 0.500000
Si Si4 0.502996 0.808559 0.316197
Si Si5 0.525994 0.706735 0.092706
Si Si6 0.915964 0.569188 0.906857
Si Si7 0.912326 0.066151 0.671620
Si Si8 0.957638 0.103442 0.145906
O O1 0.384200 0.805433 0.243385
O O2 0.155813 0.727283 0.207082
O O3 0.371753 0.744552 0.107599
O O4 0.173453 0.841614 0.139849
O O5 0.656606 0.759998 0.887647
O O6 0.931628 0.735765 0.887388
O O7 0.883497 0.856222 0.856393
O O8 0.815204 0.813457 0.000000
O O9 0.457406 0.445882 0.428636
O O10 0.514224 0.880525 0.353833
O O11 0.530776 0.638868 0.143135
O O12 0.547321 0.687977 0.000000
O O13 0.755787 0.563307 0.863054
O O14 0.000000 0.500000 0.908748
O O15 0.895174 0.591662 0.000000
O O16 0.926889 0.069179 0.768365
O O17 0.000000 0.000000 0.643289
#
# Coordination Sequence:
#
# PCOD9442665 Si02
#       8
#     8   8   2   8   8   8   8   8
#     4  11  24  40  67 100 131 175 228 289 336 407
#     4  10  19  37  66  95 126 171 218 274 335 396
#     4  12  24  44  72 106 134 180 226 282 338 426
#     4  11  21  40  65  94 133 170 225 277 343 392
#     4  11  24  41  66 102 141 175 225 285 344 403
#     4  11  25  45  66  95 137 182 224 277 339 415
#     4  12  25  44  65  97 134 183 227 277 338 413
#     4  11  23  43  72  97 133 177 230 280 341 413
#
# _framework density 19.397524000000001
#
# number of rings (size 3 to 8) (size 9 to 14) (size 15 to 20)
#    0.000    0.966    4.138    3.310    2.897    2.207 
#    0.000    0.000    0.000    0.828    0.000    0.000 
#    0.000    0.000    0.000    0.000    0.000    0.000 
#
# Total GULP energy -323223.554564 kJ/mol
# GULP energy per Si atom -5572.819906 kJ/mol
# Density = 1.935337 g / cm^3
# Si number density = 19.397524 Si / 1000 Ang^3
#
#
#
# Elastic Constant Matrix: (Units=GPa)
#
#
# Indices 1 2 3 4 5 6 
#
# 1 53.1568 29.6839 22.9746 0.0000 0.0000 0.0000
# 2 29.6839 80.3072 41.3853 0.0000 0.0000 0.0000
# 3 22.9746 41.3853 122.9066 0.0000 0.0000 0.0000
# 4 0.0000 0.0000 0.0000 -12.6435 0.0000 0.0000
# 5 0.0000 0.0000 0.0000 0.0000 48.4487 0.0000
# 6 0.0000 0.0000 0.0000 0.0000 0.0000 20.6036
#
#
#
# Elastic Compliance Matrix: (Units=1/GPa)
#
#
# Indices 1 2 3 4 5 6 
#
# 1 0.024036 -0.007948 -0.001817 0.000000 0.000000 0.000000
# 2 -0.007948 0.017695 -0.004473 0.000000 0.000000 0.000000
# 3 -0.001817 -0.004473 0.009982 0.000000 0.000000 0.000000
# 4 0.000000 0.000000 0.000000 -0.079092 0.000000 0.000000
# 5 0.000000 0.000000 0.000000 0.000000 0.020640 0.000000
# 6 0.000000 0.000000 0.000000 0.000000 0.000000 0.048535
#
#
# Mechanical properties :
#
#
# Convention : Reuss Voigt Hill
#
# Bulk Modulus (GPa) = 43.03308 49.38423 46.20866
# Shear Modulus (GPa) = 64.08911 22.10358 43.09634
#
# Velocity S-wave (km/s) = 5.75427 3.37932 4.71865
# Velocity P-wave (km/s) = 8.14750 6.38284 7.31855
#
# Compressibility (1/GPa) = 0.02323794
#
# Stress axis : x y z
#
# Youngs Moduli (GPa) = 41.60451 56.51344 100.18200
#
# Poissons Ratio (x) = 0.44918 0.18199
# Poissons Ratio (y) = 0.33068 0.44807
# Poissons Ratio (z) = 0.07558 0.25276
#
# Static dielectric constant tensor:
#      x y z
#    x 1.752270 0.000000 0.000000 
#    y 0.000000 1.678210 0.000000 
#    z 0.000000 0.000000 1.685280 
# 
# From -- ./inp_files/25516.got.cif
#   From: 2010.05.17/outbox.cif.g08.bks.cpg/sg58_13_cif.got.tgz:25516.got - 2010.06.03 14:20:14.
