data_PCOD9442957
_publ_section_title
;
Structure prediction by ZEFSAII (Michael W. Deem and Ramdas Pophale) SiO2 
 PCOD9442957
Probable space group: P N N M
;
_chemical_formula_sum "Si O2"
_cell_formula_units_Z 56
_cell_length_a 23.966382
_cell_length_b 13.764933
_cell_length_c 9.286774
_cell_angle_alpha 90.000000
_cell_angle_beta 90.000000
_cell_angle_gamma 90.000000
_cell_volume 3063.666275
_symmetry_space_group_name_H-M "P N N M"
_symmetry_group_IT_number 58
_symmetry_cell_setting 'orthorhombic'
loop_
_space_group_symop_operation_xyz
x,y,z
-x,-y,z
1/2+x,1/2-y,1/2-z
1/2-x,1/2+y,1/2-z
-x,-y,-z
x,y,-z
1/2-x,1/2+y,1/2+z
1/2+x,1/2-y,1/2+z
loop_
_atom_site_type_symbol
_atom_site_label
_atom_site_fract_x
_atom_site_fract_y
_atom_site_fract_z
Si Si1 0.473598 0.605904 0.670451
Si Si2 0.538753 0.778017 0.826777
Si Si3 0.837322 0.512529 0.828808
Si Si4 0.063013 0.399072 0.336289
Si Si5 0.626062 0.310645 0.164887
Si Si6 0.723170 0.212193 0.328409
Si Si7 0.166777 0.682878 0.328484
O O1 0.500000 0.500000 0.691241
O O2 0.468019 0.624782 0.500000
O O3 0.512925 0.687132 0.742747
O O4 0.413739 0.617308 0.747281
O O5 0.500336 0.872691 0.794790
O O6 0.603339 0.790867 0.790177
O O7 0.533457 0.762742 0.000000
O O8 0.898806 0.537597 0.767374
O O9 0.797757 0.604069 0.791694
O O10 0.817269 0.414711 0.754240
O O11 0.839125 0.502589 0.000000
O O12 0.064749 0.438035 0.500000
O O13 0.092868 0.292696 0.337486
O O14 0.683763 0.287018 0.243572
O O15 0.633757 0.341676 0.000000
O O16 0.714071 0.224529 0.500000
O O17 0.787553 0.234644 0.297181
O O18 0.167743 0.664707 0.500000
#
# Coordination Sequence:
#
# PCOD9442957 Si02
#       7
#     8   8   8   8   8   8   8
#     4  10  20  34  53  79 113 146 180 223 276 334
#     4   9  19  35  55  79 108 143 185 227 272 324
#     4  10  20  34  54  80 107 139 182 228 272 328
#     4   8  15  30  52  76 102 133 172 215 264 322
#     4   9  17  31  54  79 102 136 182 225 265 314
#     4   9  19  37  57  76 107 146 183 226 277 327
#     4  10  21  38  57  78 110 149 183 226 279 329
#
# _framework density 18.278753999999999
#
# number of rings (size 3 to 8) (size 9 to 14) (size 15 to 20)
#    0.000    2.714    0.000    2.143    0.000    6.857 
#    2.571    2.857    0.000    0.000    0.000    0.000 
#    0.000    0.000    0.000    0.000    0.000    0.000 
#
# Total GULP energy -312387.983957 kJ/mol
# GULP energy per Si atom -5578.356856 kJ/mol
# Density = 1.823715 g / cm^3
# Si number density = 18.278754 Si / 1000 Ang^3
#
#
#
# Elastic Constant Matrix: (Units=GPa)
#
#
# Indices 1 2 3 4 5 6 
#
# 1 117.6570 30.6584 30.7441 0.0000 0.0000 0.0000
# 2 30.6584 59.7098 33.9822 0.0000 0.0000 0.0000
# 3 30.7441 33.9822 40.0816 0.0000 0.0000 0.0000
# 4 0.0000 0.0000 0.0000 27.5627 0.0000 0.0000
# 5 0.0000 0.0000 0.0000 0.0000 21.8709 0.0000
# 6 0.0000 0.0000 0.0000 0.0000 0.0000 23.4805
#
#
#
# Elastic Compliance Matrix: (Units=1/GPa)
#
#
# Indices 1 2 3 4 5 6 
#
# 1 0.010708 -0.001592 -0.006864 0.000000 0.000000 0.000000
# 2 -0.001592 0.032600 -0.026419 0.000000 0.000000 0.000000
# 3 -0.006864 -0.026419 0.052612 0.000000 0.000000 0.000000
# 4 0.000000 0.000000 0.000000 0.036281 0.000000 0.000000
# 5 0.000000 0.000000 0.000000 0.000000 0.045723 0.000000
# 6 0.000000 0.000000 0.000000 0.000000 0.000000 0.042588
#
#
# Mechanical properties :
#
#
# Convention : Reuss Voigt Hill
#
# Bulk Modulus (GPa) = 38.20832 45.35754 41.78293
# Shear Modulus (GPa) = 16.72331 22.72040 19.72185
#
# Velocity S-wave (km/s) = 3.02802 3.52944 3.28830
# Velocity P-wave (km/s) = 5.75966 6.44030 6.10947
#
# Compressibility (1/GPa) = 0.02617231
#
# Stress axis : x y z
#
# Youngs Moduli (GPa) = 93.39244 30.67458 19.00700
#
# Poissons Ratio (x) = 0.04882 0.13046
# Poissons Ratio (y) = 0.14864 0.50214
# Poissons Ratio (z) = 0.64102 0.81038
#
# Static dielectric constant tensor:
#      x y z
#    x 1.646090 0.000000 0.000000 
#    y 0.000000 1.623420 0.000000 
#    z 0.000000 0.000000 1.610530 
# 
# From -- ./inp_files/9013.got.cif
#   From: 2010.05.17/outbox.cif.g08.bks.cpg/sg58_5_cif.got.tgz:9013.got - 2010.06.03 14:20:14.
