data_PCOD9442058
_publ_section_title
;
Structure prediction by ZEFSAII (Michael W. Deem and Ramdas Pophale) SiO2 
 PCOD9442058
Probable space group: P N N M
;
_chemical_formula_sum "Si O2"
_cell_formula_units_Z 64
_cell_length_a 14.797410
_cell_length_b 24.475322
_cell_length_c 8.836164
_cell_angle_alpha 90.000000
_cell_angle_beta 90.000000
_cell_angle_gamma 90.000000
_cell_volume 3200.205661
_symmetry_space_group_name_H-M "P N N M"
_symmetry_group_IT_number 58
_symmetry_cell_setting 'orthorhombic'
loop_
_space_group_symop_operation_xyz
x,y,z
-x,-y,z
1/2+x,1/2-y,1/2-z
1/2-x,1/2+y,1/2-z
-x,-y,-z
x,y,-z
1/2-x,1/2+y,1/2+z
1/2+x,1/2-y,1/2+z
loop_
_atom_site_type_symbol
_atom_site_label
_atom_site_fract_x
_atom_site_fract_y
_atom_site_fract_z
Si Si1 0.233620 0.976964 0.318330
Si Si2 0.442263 0.139625 0.825504
Si Si3 0.448113 0.444953 0.318331
Si Si4 0.674380 0.294688 0.820840
Si Si5 0.494018 0.324839 0.319878
Si Si6 0.756369 0.905570 0.175618
Si Si7 0.651236 0.747098 0.182022
Si Si8 0.062709 0.448951 0.181929
O O1 0.232255 0.980502 0.500000
O O2 0.149508 0.942137 0.259402
O O3 0.333157 0.956340 0.270513
O O4 0.220038 0.036608 0.245661
O O5 0.351887 0.102411 0.821156
O O6 0.406786 0.198738 0.772143
O O7 0.518680 0.107537 0.735981
O O8 0.470414 0.145512 0.000000
O O9 0.500000 0.500000 0.269514
O O10 0.436057 0.448071 0.500000
O O11 0.502219 0.389396 0.285491
O O12 0.573313 0.290454 0.758365
O O13 0.704622 0.355505 0.770781
O O14 0.747654 0.255635 0.742374
O O15 0.677042 0.288222 0.000000
O O16 0.498051 0.317928 0.500000
O O17 0.399484 0.303610 0.254973
O O18 0.786093 0.901117 0.000000
O O19 0.652172 0.744889 0.000000
O O20 0.000000 0.500000 0.235170
O O21 0.061042 0.450206 0.000000
#
# Coordination Sequence:
#
# PCOD9442058 Si02
#       8
#     8   8   8   8   8   8   8   8
#     4  11  22  35  55  86 120 160 204 247 305 366
#     4   9  19  34  55  82 112 155 204 249 295 352
#     4  10  23  43  65  89 121 160 201 254 316 379
#     4  11  22  38  64  94 121 156 201 254 311 368
#     4  11  23  42  67  95 125 164 209 255 317 382
#     4  10  19  33  55  84 119 157 202 251 298 356
#     4  10  22  42  64  91 124 159 206 259 308 367
#     4  10  20  34  52  81 123 162 199 247 303 365
#
# _framework density 19.998715000000001
#
# number of rings (size 3 to 8) (size 9 to 14) (size 15 to 20)
#    0.000    1.750    1.250    4.125    0.000    6.000 
#    2.250    0.000    0.000    0.000    0.000    0.000 
#    0.000    0.000    0.000    0.000    0.000    0.000 
#
# Total GULP energy -357547.860357 kJ/mol
# GULP energy per Si atom -5586.685318 kJ/mol
# Density = 1.995320 g / cm^3
# Si number density = 19.998715 Si / 1000 Ang^3
#
#
#
# Elastic Constant Matrix: (Units=GPa)
#
#
# Indices 1 2 3 4 5 6 
#
# 1 106.0551 18.7526 31.7264 0.0000 0.0000 0.0000
# 2 18.7526 49.4589 18.6084 0.0000 0.0000 0.0000
# 3 31.7264 18.6084 54.1809 0.0000 0.0000 0.0000
# 4 0.0000 0.0000 0.0000 19.3604 0.0000 0.0000
# 5 0.0000 0.0000 0.0000 0.0000 32.4460 0.0000
# 6 0.0000 0.0000 0.0000 0.0000 0.0000 31.5210
#
#
#
# Elastic Compliance Matrix: (Units=1/GPa)
#
#
# Indices 1 2 3 4 5 6 
#
# 1 0.011622 -0.002120 -0.006077 0.000000 0.000000 0.000000
# 2 -0.002120 0.023606 -0.006866 0.000000 0.000000 0.000000
# 3 -0.006077 -0.006866 0.024373 0.000000 0.000000 0.000000
# 4 0.000000 0.000000 0.000000 0.051652 0.000000 0.000000
# 5 0.000000 0.000000 0.000000 0.000000 0.030820 0.000000
# 6 0.000000 0.000000 0.000000 0.000000 0.000000 0.031725
#
#
# Mechanical properties :
#
#
# Convention : Reuss Voigt Hill
#
# Bulk Modulus (GPa) = 33.92743 38.65218 36.28980
# Shear Modulus (GPa) = 23.39183 26.03932 24.71557
#
# Velocity S-wave (km/s) = 3.42375 3.61231 3.51929
# Velocity P-wave (km/s) = 5.71236 6.06363 5.89061
#
# Compressibility (1/GPa) = 0.02947467
#
# Stress axis : x y z
#
# Youngs Moduli (GPa) = 86.04422 42.36237 41.02828
#
# Poissons Ratio (x) = 0.08981 0.24934
# Poissons Ratio (y) = 0.18241 0.28170
# Poissons Ratio (z) = 0.52291 0.29086
#
# Static dielectric constant tensor:
#      x y z
#    x 1.726270 0.000000 0.000000 
#    y 0.000000 1.713550 0.000000 
#    z 0.000000 0.000000 1.666310 
# 
# From -- ./inp_files/6991.got.cif
#   From: 2010.05.17/outbox.cif.g08.bks.cpg/sg58_4_cif.got.tgz:6991.got - 2010.06.03 14:20:14.
