data_PCOD9442039
_publ_section_title
;
Structure prediction by ZEFSAII (Michael W. Deem and Ramdas Pophale) SiO2 
 PCOD9442039
Probable space group: P N N M
;
_chemical_formula_sum "Si O2"
_cell_formula_units_Z 40
_cell_length_a 18.506802
_cell_length_b 4.882478
_cell_length_c 22.871022
_cell_angle_alpha 90.000000
_cell_angle_beta 90.000000
_cell_angle_gamma 90.000000
_cell_volume 2066.603903
_symmetry_space_group_name_H-M "P N N M"
_symmetry_group_IT_number 58
_symmetry_cell_setting 'orthorhombic'
loop_
_space_group_symop_operation_xyz
x,y,z
-x,-y,z
1/2+x,1/2-y,1/2-z
1/2-x,1/2+y,1/2-z
-x,-y,-z
x,y,-z
1/2-x,1/2+y,1/2+z
1/2+x,1/2-y,1/2+z
loop_
_atom_site_type_symbol
_atom_site_label
_atom_site_fract_x
_atom_site_fract_y
_atom_site_fract_z
Si Si1 0.811078 0.066865 0.313387
Si Si2 0.755690 0.966593 0.566245
Si Si3 0.546858 0.754851 0.656278
Si Si4 0.654702 0.466091 0.433897
Si Si5 0.347421 0.938395 0.256377
O O1 0.811960 0.002931 0.381662
O O2 0.727047 0.042075 0.293293
O O3 0.853609 0.865640 0.269280
O O4 0.835353 0.371799 0.299885
O O5 0.780077 0.028843 0.500000
O O6 0.724720 0.661174 0.567840
O O7 0.686398 0.165464 0.578038
O O8 0.500000 0.500000 0.680621
O O9 0.599501 0.595343 0.611758
O O10 0.590635 0.926842 0.704744
O O11 0.500000 0.000000 0.626654
O O12 0.624901 0.472202 0.500000
#
# Coordination Sequence:
#
# PCOD9442039 Si02
#       5
#     8   8   8   8   8
#     4  10  19  33  56  74 104 131 168 227 263 335
#     4  10  19  33  55  80 107 136 171 220 274 317
#     4  12  24  36  53  72 108 147 189 230 254 306
#     4  10  21  35  51  73 106 144 188 224 254 300
#     4  10  21  33  51  78  99 135 180 215 272 311
#
# _framework density 19.355426000000001
#
# number of rings (size 3 to 8) (size 9 to 14) (size 15 to 20)
#    0.000    1.600    2.000    3.600    5.600    0.800 
#    0.000    0.000    0.000    0.000    0.000    0.000 
#    0.000   16.000    0.000    0.000    0.000    0.000 
#
# Total GULP energy -223225.716576 kJ/mol
# GULP energy per Si atom -5580.642914 kJ/mol
# Density = 1.931137 g / cm^3
# Si number density = 19.355426 Si / 1000 Ang^3
#
#
#
# Elastic Constant Matrix: (Units=GPa)
#
#
# Indices 1 2 3 4 5 6 
#
# 1 12.4677 -6.5736 14.9342 0.0000 0.0000 0.0000
# 2 -6.5736 60.2390 -8.7186 0.0000 0.0000 0.0000
# 3 14.9342 -8.7186 99.9799 0.0000 0.0000 0.0000
# 4 0.0000 0.0000 0.0000 26.6829 0.0000 0.0000
# 5 0.0000 0.0000 0.0000 0.0000 10.9567 0.0000
# 6 0.0000 0.0000 0.0000 0.0000 0.0000 13.2159
#
#
#
# Elastic Compliance Matrix: (Units=1/GPa)
#
#
# Indices 1 2 3 4 5 6 
#
# 1 0.102356 0.009071 -0.014498 0.000000 0.000000 0.000000
# 2 0.009071 0.017617 0.000181 0.000000 0.000000 0.000000
# 3 -0.014498 0.000181 0.012183 0.000000 0.000000 0.000000
# 4 0.000000 0.000000 0.000000 0.037477 0.000000 0.000000
# 5 0.000000 0.000000 0.000000 0.000000 0.091268 0.000000
# 6 0.000000 0.000000 0.000000 0.000000 0.000000 0.075667
#
#
# Mechanical properties :
#
#
# Convention : Reuss Voigt Hill
#
# Bulk Modulus (GPa) = 8.21924 19.10781 13.66353
# Shear Modulus (GPa) = 12.89940 21.70741 17.30341
#
# Velocity S-wave (km/s) = 2.58437 3.35254 2.99320
# Velocity P-wave (km/s) = 3.62781 4.98794 4.36122
#
# Compressibility (1/GPa) = 0.12166568
#
# Stress axis : x y z
#
# Youngs Moduli (GPa) = 9.76978 56.76429 82.07874
#
# Poissons Ratio (x) = -0.51493 1.18999
# Poissons Ratio (y) = -0.08863 -0.01488
# Poissons Ratio (z) = 0.14164 -0.01029
#
# Static dielectric constant tensor:
#      x y z
#    x 1.695080 0.000000 0.000000 
#    y 0.000000 1.675490 0.000000 
#    z 0.000000 0.000000 1.706100 
# 
# From -- ./inp_files/28079.got.cif
#   From: 2010.05.17/outbox.cif.g08.bks.cpg/sg58_15_cif.got.tgz:28079.got - 2010.06.03 14:20:14.
