data_PCOD9442564
_publ_section_title
;
Structure prediction by ZEFSAII (Michael W. Deem and Ramdas Pophale) SiO2 
 PCOD9442564
Probable space group: P N N M
;
_chemical_formula_sum "Si O2"
_cell_formula_units_Z 64
_cell_length_a 24.440023
_cell_length_b 15.873764
_cell_length_c 8.532978
_cell_angle_alpha 90.000000
_cell_angle_beta 90.000000
_cell_angle_gamma 90.000000
_cell_volume 3310.412822
_symmetry_space_group_name_H-M "P N N M"
_symmetry_group_IT_number 58
_symmetry_cell_setting 'orthorhombic'
loop_
_space_group_symop_operation_xyz
x,y,z
-x,-y,z
1/2+x,1/2-y,1/2-z
1/2-x,1/2+y,1/2-z
-x,-y,-z
x,y,-z
1/2-x,1/2+y,1/2+z
1/2+x,1/2-y,1/2+z
loop_
_atom_site_type_symbol
_atom_site_label
_atom_site_fract_x
_atom_site_fract_y
_atom_site_fract_z
Si Si1 0.627992 0.899806 0.812532
Si Si2 0.863295 0.907366 0.313014
Si Si3 0.250316 0.653015 0.310771
Si Si4 0.070428 0.252305 0.810932
Si Si5 0.136319 0.418724 0.189745
Si Si6 0.372443 0.405068 0.189839
Si Si7 0.555168 0.747344 0.312277
Si Si8 0.248404 0.849234 0.309649
O O1 0.690441 0.878832 0.762928
O O2 0.588076 0.828929 0.745689
O O3 0.614816 0.993470 0.755326
O O4 0.626259 0.895443 0.000000
O O5 0.866628 0.903669 0.500000
O O6 0.800099 0.897801 0.263255
O O7 0.896711 0.829631 0.243445
O O8 0.884585 0.999144 0.261661
O O9 0.254394 0.648139 0.500000
O O10 0.255611 0.751415 0.265762
O O11 0.100937 0.337824 0.760386
O O12 0.007675 0.249754 0.757174
O O13 0.071020 0.252665 0.000000
O O14 0.199027 0.402315 0.242456
O O15 0.135747 0.422318 0.000000
O O16 0.413988 0.335768 0.252567
O O17 0.310669 0.381967 0.242472
O O18 0.373036 0.401146 0.000000
O O19 0.555270 0.747067 0.500000
O O20 0.248196 0.851689 0.500000
#
# Coordination Sequence:
#
# PCOD9442564 Si02
#       8
#     8   8   8   8   8   8   8   8
#     4  11  23  39  61  89 123 157 189 239 301 353
#     4  11  23  37  61  93 121 152 194 244 293 351
#     4  10  19  36  61  86 118 160 194 230 293 358
#     4  10  23  43  63  83 116 160 201 246 297 346
#     4  10  20  38  63  86 114 154 198 241 287 350
#     4  10  21  39  60  87 122 156 191 237 300 356
#     4  11  24  41  62  87 113 153 208 252 288 343
#     4   9  16  33  61  85 113 156 193 229 288 352
#
# _framework density 19.332934999999999
#
# number of rings (size 3 to 8) (size 9 to 14) (size 15 to 20)
#    0.000    1.750    2.500    1.875    0.000    5.500 
#    0.000    5.625    0.000    0.000    0.000    0.000 
#    0.000    0.000    0.000    0.000    0.000    0.000 
#
# Total GULP energy -357609.095330 kJ/mol
# GULP energy per Si atom -5587.642115 kJ/mol
# Density = 1.928893 g / cm^3
# Si number density = 19.332935 Si / 1000 Ang^3
#
#
#
# Elastic Constant Matrix: (Units=GPa)
#
#
# Indices 1 2 3 4 5 6 
#
# 1 125.7569 44.5818 21.1356 0.0000 0.0000 0.0000
# 2 44.5818 124.2877 21.7459 0.0000 0.0000 0.0000
# 3 21.1356 21.7459 10.2357 0.0000 0.0000 0.0000
# 4 0.0000 0.0000 0.0000 35.3500 0.0000 0.0000
# 5 0.0000 0.0000 0.0000 0.0000 40.2975 0.0000
# 6 0.0000 0.0000 0.0000 0.0000 0.0000 0.1880
#
#
#
# Elastic Compliance Matrix: (Units=1/GPa)
#
#
# Indices 1 2 3 4 5 6 
#
# 1 0.012178 0.000050 -0.025254 0.000000 0.000000 0.000000
# 2 0.000050 0.012806 -0.027311 0.000000 0.000000 0.000000
# 3 -0.025254 -0.027311 0.207865 0.000000 0.000000 0.000000
# 4 0.000000 0.000000 0.000000 0.028289 0.000000 0.000000
# 5 0.000000 0.000000 0.000000 0.000000 0.024815 0.000000
# 6 0.000000 0.000000 0.000000 0.000000 0.000000 5.318355
#
#
# Mechanical properties :
#
#
# Convention : Reuss Voigt Hill
#
# Bulk Modulus (GPa) = 7.82338 48.35632 28.08985
# Shear Modulus (GPa) = 0.86927 26.68824 13.77875
#
# Velocity S-wave (km/s) = 0.67127 3.71948 2.67256
# Velocity P-wave (km/s) = 2.15784 6.59642 4.90760
#
# Compressibility (1/GPa) = 0.12782199
#
# Stress axis : x y z
#
# Youngs Moduli (GPa) = 82.11263 78.08687 4.81080
#
# Poissons Ratio (x) = -0.00391 0.12149
# Poissons Ratio (y) = -0.00411 0.13139
# Poissons Ratio (z) = 2.07364 2.13260
#
# Static dielectric constant tensor:
#      x y z
#    x 1.661120 0.000000 0.000000 
#    y 0.000000 1.657610 0.000000 
#    z 0.000000 0.000000 1.659770 
# 
# From -- ./inp_files/10024.got.cif
#   From: 2010.05.17/outbox.cif.g08.bks.cpg/sg58_6_cif.got.tgz:10024.got - 2010.06.03 14:20:14.
