data_PCOD9442131
_publ_section_title
;
Structure prediction by ZEFSAII (Michael W. Deem and Ramdas Pophale) SiO2 
 PCOD9442131
Probable space group: P N N M
;
_chemical_formula_sum "Si O2"
_cell_formula_units_Z 48
_cell_length_a 10.847419
_cell_length_b 16.584119
_cell_length_c 13.186391
_cell_angle_alpha 90.000000
_cell_angle_beta 90.000000
_cell_angle_gamma 90.000000
_cell_volume 2372.164326
_symmetry_space_group_name_H-M "P N N M"
_symmetry_group_IT_number 58
_symmetry_cell_setting 'orthorhombic'
loop_
_space_group_symop_operation_xyz
x,y,z
-x,-y,z
1/2+x,1/2-y,1/2-z
1/2-x,1/2+y,1/2-z
-x,-y,-z
x,y,-z
1/2-x,1/2+y,1/2+z
1/2+x,1/2-y,1/2+z
loop_
_atom_site_type_symbol
_atom_site_label
_atom_site_fract_x
_atom_site_fract_y
_atom_site_fract_z
Si Si1 0.465152 0.680258 0.190293
Si Si2 0.444061 0.858685 0.255859
Si Si3 0.549415 0.590082 0.385561
Si Si4 0.783620 0.365235 0.246679
Si Si5 0.725497 0.702842 0.883224
Si Si6 0.315304 0.978357 0.117350
O O1 0.443328 0.775774 0.191669
O O2 0.500275 0.652509 0.304349
O O3 0.333974 0.637507 0.172212
O O4 0.588996 0.663892 0.127484
O O5 0.580650 0.866012 0.302201
O O6 0.333412 0.852092 0.336066
O O7 0.419182 0.930180 0.177559
O O8 0.500000 0.500000 0.363650
O O9 0.510797 0.610705 0.500000
O O10 0.696483 0.580986 0.381220
O O11 0.776470 0.284106 0.315178
O O12 0.778852 0.441357 0.321873
O O13 0.749639 0.721655 0.000000
O O14 0.343667 0.996027 0.000000
#
# Coordination Sequence:
#
# PCOD9442131 Si02
#       6
#     8   8   8   8   8   8
#     4  10  20  37  58  82 117 156 197 236 279 343
#     4  10  22  36  55  84 121 159 190 232 286 355
#     4  10  19  33  58  91 119 146 186 240 297 349
#     4  10  21  36  60  88 122 148 184 241 309 351
#     4  10  21  39  60  82 115 161 204 234 275 342
#     4  11  21  35  60  93 122 147 182 240 309 359
#
# _framework density 20.234687000000001
#
# number of rings (size 3 to 8) (size 9 to 14) (size 15 to 20)
#    0.000    1.833    3.333    1.000    0.000    6.667 
#    0.000    0.833    0.000    6.500    0.000    0.000 
#    0.000    0.000    0.000    0.000    0.000    0.000 
#
# Total GULP energy -267849.513628 kJ/mol
# GULP energy per Si atom -5580.198201 kJ/mol
# Density = 2.018863 g / cm^3
# Si number density = 20.234687 Si / 1000 Ang^3
#
#
#
# Elastic Constant Matrix: (Units=GPa)
#
#
# Indices 1 2 3 4 5 6 
#
# 1 162.1217 16.5918 20.1806 0.0000 0.0000 0.0000
# 2 16.5918 65.4211 15.9701 0.0000 0.0000 0.0000
# 3 20.1806 15.9701 35.4065 0.0000 0.0000 0.0000
# 4 0.0000 0.0000 0.0000 13.6738 0.0000 0.0000
# 5 0.0000 0.0000 0.0000 0.0000 -7.2721 0.0000
# 6 0.0000 0.0000 0.0000 0.0000 0.0000 31.9725
#
#
#
# Elastic Compliance Matrix: (Units=1/GPa)
#
#
# Indices 1 2 3 4 5 6 
#
# 1 0.006682 -0.000860 -0.003421 0.000000 0.000000 0.000000
# 2 -0.000860 0.017287 -0.007308 0.000000 0.000000 0.000000
# 3 -0.003421 -0.007308 0.033489 0.000000 0.000000 0.000000
# 4 0.000000 0.000000 0.000000 0.073132 0.000000 0.000000
# 5 0.000000 0.000000 0.000000 0.000000 -0.137512 0.000000
# 6 0.000000 0.000000 0.000000 0.000000 0.000000 0.031277
#
#
# Mechanical properties :
#
#
# Convention : Reuss Voigt Hill
#
# Bulk Modulus (GPa) = 29.16921 40.93715 35.05318
# Shear Modulus (GPa) = 84.80397 21.68863 53.24630
#
# Velocity S-wave (km/s) = 6.48083 3.27747 5.13532
# Velocity P-wave (km/s) = 8.39335 5.88196 7.24727
#
# Compressibility (1/GPa) = 0.03428273
#
# Stress axis : x y z
#
# Youngs Moduli (GPa) = 149.65595 57.84539 29.86034
#
# Poissons Ratio (x) = 0.04972 0.10215
# Poissons Ratio (y) = 0.12864 0.21821
# Poissons Ratio (z) = 0.51194 0.42271
#
# Static dielectric constant tensor:
#      x y z
#    x 1.846400 0.000000 0.000000 
#    y 0.000000 1.701740 0.000000 
#    z 0.000000 0.000000 1.652840 
# 
# From -- ./inp_files/21150.got.cif
#   From: 2010.05.17/outbox.cif.g08.bks.cpg/sg58_11_cif.got.tgz:21150.got - 2010.06.03 14:20:14.
