data_PCOD9442308
_publ_section_title
;
Structure prediction by ZEFSAII (Michael W. Deem and Ramdas Pophale) SiO2 
 PCOD9442308
Probable space group: P N N M
;
_chemical_formula_sum "Si O2"
_cell_formula_units_Z 64
_cell_length_a 25.095225
_cell_length_b 14.316577
_cell_length_c 7.805211
_cell_angle_alpha 90.000000
_cell_angle_beta 90.000000
_cell_angle_gamma 90.000000
_cell_volume 2804.238420
_symmetry_space_group_name_H-M "P N N M"
_symmetry_group_IT_number 58
_symmetry_cell_setting 'orthorhombic'
loop_
_space_group_symop_operation_xyz
x,y,z
-x,-y,z
1/2+x,1/2-y,1/2-z
1/2-x,1/2+y,1/2-z
-x,-y,-z
x,y,-z
1/2-x,1/2+y,1/2+z
1/2+x,1/2-y,1/2+z
loop_
_atom_site_type_symbol
_atom_site_label
_atom_site_fract_x
_atom_site_fract_y
_atom_site_fract_z
Si Si1 0.217531 0.570923 0.204308
Si Si2 0.897380 0.425503 0.309791
Si Si3 0.660536 0.212677 0.208639
Si Si4 0.039502 0.737350 0.805698
Si Si5 0.665895 0.429884 0.794071
Si Si6 0.277614 0.293722 0.706262
Si Si7 0.615191 0.610940 0.294625
Si Si8 0.053727 0.389289 0.800902
O O1 0.162276 0.536595 0.281834
O O2 0.275254 0.537724 0.269953
O O3 0.217813 0.682788 0.236963
O O4 0.214921 0.556357 0.000000
O O5 0.901330 0.387609 0.500000
O O6 0.912848 0.339186 0.190080
O O7 0.937879 0.510362 0.283687
O O8 0.657532 0.322525 0.255669
O O9 0.718784 0.176578 0.266666
O O10 0.610635 0.160592 0.286487
O O11 0.657974 0.205778 0.000000
O O12 0.064842 0.830598 0.727258
O O13 0.990586 0.680436 0.724706
O O14 0.022280 0.759770 0.000000
O O15 0.620592 0.501449 0.738596
O O16 0.668837 0.430378 0.000000
O O17 0.277241 0.305373 0.500000
O O18 0.329698 0.344836 0.775625
O O19 0.614783 0.625488 0.500000
O O20 0.040265 0.406155 0.000000
#
# Coordination Sequence:
#
# PCOD9442308 Si02
#       8
#     8   8   8   8   8   8   8   8
#     4   9  17  35  57  79 114 154 188 224 272 333
#     4  12  24  36  56  87 118 149 186 231 286 342
#     4   9  19  38  59  82 115 151 187 233 286 335
#     4  10  22  42  62  81 111 152 195 235 282 335
#     4   9  20  36  57  85 118 153 188 232 285 339
#     4   8  15  31  56  80 108 147 184 224 278 331
#     4  10  19  34  59  85 112 149 190 235 283 332
#     4  11  24  40  60  83 109 149 197 239 279 336
#
# _framework density 22.822596000000001
#
# number of rings (size 3 to 8) (size 9 to 14) (size 15 to 20)
#    0.000    2.250    1.250    3.375    1.750    4.000 
#    0.000    2.500    0.000    3.750    0.000    0.000 
#    0.000    0.000    0.000    0.000    0.000    0.000 
#
# Total GULP energy -357484.133819 kJ/mol
# GULP energy per Si atom -5585.689591 kJ/mol
# Density = 2.277065 g / cm^3
# Si number density = 22.822596 Si / 1000 Ang^3
#
#
#
# Elastic Constant Matrix: (Units=GPa)
#
#
# Indices 1 2 3 4 5 6 
#
# 1 58.8316 -1.2559 -2.2296 0.0000 0.0000 0.0000
# 2 -1.2559 36.5691 -3.1509 0.0000 0.0000 0.0000
# 3 -2.2296 -3.1509 43.2816 0.0000 0.0000 0.0000
# 4 0.0000 0.0000 0.0000 34.2642 0.0000 0.0000
# 5 0.0000 0.0000 0.0000 0.0000 31.5970 0.0000
# 6 0.0000 0.0000 0.0000 0.0000 0.0000 38.6881
#
#
#
# Elastic Compliance Matrix: (Units=1/GPa)
#
#
# Indices 1 2 3 4 5 6 
#
# 1 0.017047 0.000665 0.000927 0.000000 0.000000 0.000000
# 2 0.000665 0.027544 0.002040 0.000000 0.000000 0.000000
# 3 0.000927 0.002040 0.023301 0.000000 0.000000 0.000000
# 4 0.000000 0.000000 0.000000 0.029185 0.000000 0.000000
# 5 0.000000 0.000000 0.000000 0.000000 0.031649 0.000000
# 6 0.000000 0.000000 0.000000 0.000000 0.000000 0.025848
#
#
# Mechanical properties :
#
#
# Convention : Reuss Voigt Hill
#
# Bulk Modulus (GPa) = 13.30591 13.93437 13.62014
# Shear Modulus (GPa) = 29.00875 30.59778 29.80326
#
# Velocity S-wave (km/s) = 3.56905 3.66550 3.61760
# Velocity P-wave (km/s) = 4.77776 4.90238 4.84047
#
# Compressibility (1/GPa) = 0.07515459
#
# Stress axis : x y z
#
# Youngs Moduli (GPa) = 58.66136 36.30542 42.91715
#
# Poissons Ratio (x) = -0.02415 -0.03977
# Poissons Ratio (y) = -0.03903 -0.08753
# Poissons Ratio (z) = -0.05436 -0.07405
#
# Static dielectric constant tensor:
#      x y z
#    x 1.884400 0.000000 0.000000 
#    y 0.000000 1.852840 0.000000 
#    z 0.000000 0.000000 1.843810 
# 
# From -- ./inp_files/10013.got.cif
#   From: 2010.05.17/outbox.cif.g08.bks.cpg/sg58_6_cif.got.tgz:10013.got - 2010.06.03 14:20:14.
