data_PCOD9442458
_publ_section_title
;
Structure prediction by ZEFSAII (Michael W. Deem and Ramdas Pophale) SiO2 
 PCOD9442458
Probable space group: P N N M
;
_chemical_formula_sum "Si O2"
_cell_formula_units_Z 48
_cell_length_a 16.723258
_cell_length_b 7.339919
_cell_length_c 17.228108
_cell_angle_alpha 90.000000
_cell_angle_beta 90.000000
_cell_angle_gamma 90.000000
_cell_volume 2114.704760
_symmetry_space_group_name_H-M "P N N M"
_symmetry_group_IT_number 58
_symmetry_cell_setting 'orthorhombic'
loop_
_space_group_symop_operation_xyz
x,y,z
-x,-y,z
1/2+x,1/2-y,1/2-z
1/2-x,1/2+y,1/2-z
-x,-y,-z
x,y,-z
1/2-x,1/2+y,1/2+z
1/2+x,1/2-y,1/2+z
loop_
_atom_site_type_symbol
_atom_site_label
_atom_site_fract_x
_atom_site_fract_y
_atom_site_fract_z
Si Si1 0.254992 0.095055 0.861435
Si Si2 0.930009 0.647947 0.754475
Si Si3 0.240304 0.491668 0.195339
Si Si4 0.583178 0.113307 0.912056
Si Si5 0.507610 0.285434 0.585227
Si Si6 0.823839 0.229394 0.915900
O O1 0.218293 0.037485 0.776427
O O2 0.340145 0.015272 0.891757
O O3 0.191324 0.987382 0.914067
O O4 0.263774 0.312376 0.852551
O O5 0.847928 0.546337 0.771802
O O6 0.924587 0.734519 0.667493
O O7 0.000000 0.500000 0.748431
O O8 0.946660 0.750578 0.834951
O O9 0.233766 0.671487 0.144260
O O10 0.500000 0.000000 0.915845
O O11 0.594903 0.190249 0.000000
O O12 0.500000 0.500000 0.577864
O O13 0.536507 0.214791 0.500000
O O14 0.415990 0.219385 0.597055
O O15 0.801688 0.299811 0.000000
#
# Coordination Sequence:
#
# PCOD9442458 Si02
#       6
#     8   8   8   8   8   8
#     4  11  22  39  64  88 122 163 210 264 316 381
#     4  10  19  35  60  87 121 166 202 247 304 371
#     4  11  22  38  61  91 123 167 212 256 316 380
#     4   9  20  38  62  87 114 156 208 259 312 369
#     4  10  21  37  58  89 130 169 206 251 309 382
#     4  11  23  38  60  93 129 162 204 259 317 379
#
# _framework density 22.698205000000002
#
# number of rings (size 3 to 8) (size 9 to 14) (size 15 to 20)
#    0.000    1.667    3.333    1.500    0.000    2.333 
#    0.000    0.000    0.000    0.500    0.000    0.000 
#    0.000    0.000    0.000    0.000    0.000    0.000 
#
# Total GULP energy -267262.522712 kJ/mol
# GULP energy per Si atom -5567.969223 kJ/mol
# Density = 2.264654 g / cm^3
# Si number density = 22.698205 Si / 1000 Ang^3
#
#
#
# Elastic Constant Matrix: (Units=GPa)
#
#
# Indices 1 2 3 4 5 6 
#
# 1 65.1296 -16.1027 20.8351 0.0000 0.0000 0.0000
# 2 -16.1027 61.7172 35.2357 0.0000 0.0000 0.0000
# 3 20.8351 35.2357 220.5553 0.0000 0.0000 0.0000
# 4 0.0000 0.0000 0.0000 2.4121 0.0000 0.0000
# 5 0.0000 0.0000 0.0000 0.0000 28.2586 0.0000
# 6 0.0000 0.0000 0.0000 0.0000 0.0000 18.0832
#
#
#
# Elastic Compliance Matrix: (Units=1/GPa)
#
#
# Indices 1 2 3 4 5 6 
#
# 1 0.017721 0.006139 -0.002655 0.000000 0.000000 0.000000
# 2 0.006139 0.019956 -0.003768 0.000000 0.000000 0.000000
# 3 -0.002655 -0.003768 0.005387 0.000000 0.000000 0.000000
# 4 0.000000 0.000000 0.000000 0.414570 0.000000 0.000000
# 5 0.000000 0.000000 0.000000 0.000000 0.035387 0.000000
# 6 0.000000 0.000000 0.000000 0.000000 0.000000 0.055300
#
#
# Mechanical properties :
#
#
# Convention : Reuss Voigt Hill
#
# Bulk Modulus (GPa) = 23.53117 47.48203 35.50660
# Shear Modulus (GPa) = 8.88013 30.24638 19.56326
#
# Velocity S-wave (km/s) = 1.98009 3.65436 2.93897
# Velocity P-wave (km/s) = 3.95185 6.22656 5.21475
#
# Compressibility (1/GPa) = 0.04249682
#
# Stress axis : x y z
#
# Youngs Moduli (GPa) = 56.42960 50.11006 185.63896
#
# Poissons Ratio (x) = -0.30764 0.49285
# Poissons Ratio (y) = -0.34644 0.69951
# Poissons Ratio (z) = 0.14981 0.18882
#
# Static dielectric constant tensor:
#      x y z
#    x 1.958980 0.000000 0.000000 
#    y 0.000000 1.854080 0.000000 
#    z 0.000000 0.000000 2.018460 
# 
# From -- ./inp_files/22751.got.cif
#   From: 2010.05.17/outbox.cif.g08.bks.cpg/sg58_12_cif.got.tgz:22751.got - 2010.06.03 14:20:14.
