data_PCOD9442068
_publ_section_title
;
Structure prediction by ZEFSAII (Michael W. Deem and Ramdas Pophale) SiO2 
 PCOD9442068
Probable space group: P N N M
;
_chemical_formula_sum "Si O2"
_cell_formula_units_Z 48
_cell_length_a 30.055777
_cell_length_b 10.432111
_cell_length_c 8.881086
_cell_angle_alpha 90.000000
_cell_angle_beta 90.000000
_cell_angle_gamma 90.000000
_cell_volume 2784.621903
_symmetry_space_group_name_H-M "P N N M"
_symmetry_group_IT_number 58
_symmetry_cell_setting 'orthorhombic'
loop_
_space_group_symop_operation_xyz
x,y,z
-x,-y,z
1/2+x,1/2-y,1/2-z
1/2-x,1/2+y,1/2-z
-x,-y,-z
x,y,-z
1/2-x,1/2+y,1/2+z
1/2+x,1/2-y,1/2+z
loop_
_atom_site_type_symbol
_atom_site_label
_atom_site_fract_x
_atom_site_fract_y
_atom_site_fract_z
Si Si1 0.780949 0.014354 0.180297
Si Si2 0.473521 0.369586 0.680014
Si Si3 0.117695 0.272567 0.319688
Si Si4 0.023417 0.370545 0.318476
Si Si5 0.786674 0.716735 0.180401
Si Si6 0.883235 0.005859 0.180475
O O1 0.748234 0.113101 0.260107
O O2 0.832692 0.046538 0.213226
O O3 0.774773 0.864360 0.224170
O O4 0.774565 0.023012 0.000000
O O5 0.500000 0.500000 0.717102
O O6 0.476897 0.351363 0.500000
O O7 0.496015 0.250951 0.760908
O O8 0.421890 0.394243 0.718869
O O9 0.121839 0.275852 0.500000
O O10 0.074997 0.355898 0.272567
O O11 0.164409 0.311262 0.246258
O O12 0.108434 0.127479 0.265239
O O13 0.022818 0.369910 0.500000
O O14 0.000000 0.500000 0.264523
O O15 0.788787 0.713994 0.000000
O O16 0.885963 0.980952 0.000000
#
# Coordination Sequence:
#
# PCOD9442068 Si02
#       6
#     8   8   8   8   8   8
#     4   9  19  36  56  78 109 141 175 219 265 318
#     4  10  19  33  57  83 108 139 178 223 266 313
#     4  10  19  33  56  79 105 143 183 218 265 321
#     4  10  22  38  53  76 112 147 180 222 268 318
#     4  10  21  37  58  82 108 139 177 222 270 319
#     4   9  18  34  55  81 111 139 176 225 270 314
#
# _framework density 17.237528000000001
#
# number of rings (size 3 to 8) (size 9 to 14) (size 15 to 20)
#    0.000    2.333    1.667    2.000    0.000    5.333 
#    3.000    0.000    0.000    0.000    0.000    0.000 
#    0.000    0.000    0.000    0.000    0.000    0.000 
#
# Total GULP energy -267735.551680 kJ/mol
# GULP energy per Si atom -5577.823993 kJ/mol
# Density = 1.719830 g / cm^3
# Si number density = 17.237528 Si / 1000 Ang^3
#
#
#
# Elastic Constant Matrix: (Units=GPa)
#
#
# Indices 1 2 3 4 5 6 
#
# 1 154.9859 89.0937 46.3652 0.0000 0.0000 0.0000
# 2 89.0937 100.8646 31.9171 0.0000 0.0000 0.0000
# 3 46.3652 31.9171 24.6611 0.0000 0.0000 0.0000
# 4 0.0000 0.0000 0.0000 15.4955 0.0000 0.0000
# 5 0.0000 0.0000 0.0000 0.0000 -26.1728 0.0000
# 6 0.0000 0.0000 0.0000 0.0000 0.0000 33.5513
#
#
#
# Elastic Compliance Matrix: (Units=1/GPa)
#
#
# Indices 1 2 3 4 5 6 
#
# 1 0.018653 -0.009110 -0.023280 0.000000 0.000000 0.000000
# 2 -0.009110 0.021240 -0.010362 0.000000 0.000000 0.000000
# 3 -0.023280 -0.010362 0.097728 0.000000 0.000000 0.000000
# 4 0.000000 0.000000 0.000000 0.064535 0.000000 0.000000
# 5 0.000000 0.000000 0.000000 0.000000 -0.038208 0.000000
# 6 0.000000 0.000000 0.000000 0.000000 0.000000 0.029805
#
#
# Mechanical properties :
#
#
# Convention : Reuss Voigt Hill
#
# Bulk Modulus (GPa) = 19.18702 68.36263 43.77482
# Shear Modulus (GPa) = 16.85608 12.11717 14.48663
#
# Velocity S-wave (km/s) = 3.13049 2.65420 2.90213
# Velocity P-wave (km/s) = 4.92156 7.00987 6.05640
#
# Compressibility (1/GPa) = 0.05211857
#
# Stress axis : x y z
#
# Youngs Moduli (GPa) = 53.60952 47.08104 10.23251
#
# Poissons Ratio (x) = 0.42891 0.23821
# Poissons Ratio (y) = 0.48839 0.10603
# Poissons Ratio (z) = 1.24801 0.48783
#
# Static dielectric constant tensor:
#      x y z
#    x 1.594380 0.000000 0.000000 
#    y 0.000000 1.556520 0.000000 
#    z 0.000000 0.000000 1.577820 
# 
# From -- ./inp_files/10747.got.cif
#   From: 2010.05.17/outbox.cif.g08.bks.cpg/sg58_6_cif.got.tgz:10747.got - 2010.06.03 14:20:14.
