data_PCOD9442188
_publ_section_title
;
Structure prediction by ZEFSAII (Michael W. Deem and Ramdas Pophale) SiO2 
 PCOD9442188
Probable space group: P N N M
;
_chemical_formula_sum "Si O2"
_cell_formula_units_Z 52
_cell_length_a 23.680303
_cell_length_b 15.014784
_cell_length_c 7.759414
_cell_angle_alpha 90.000000
_cell_angle_beta 90.000000
_cell_angle_gamma 90.000000
_cell_volume 2758.895609
_symmetry_space_group_name_H-M "P N N M"
_symmetry_group_IT_number 58
_symmetry_cell_setting 'orthorhombic'
loop_
_space_group_symop_operation_xyz
x,y,z
-x,-y,z
1/2+x,1/2-y,1/2-z
1/2-x,1/2+y,1/2-z
-x,-y,-z
x,y,-z
1/2-x,1/2+y,1/2+z
1/2+x,1/2-y,1/2+z
loop_
_atom_site_type_symbol
_atom_site_label
_atom_site_fract_x
_atom_site_fract_y
_atom_site_fract_z
Si Si1 0.181756 0.901420 0.207912
Si Si2 0.911716 0.230774 0.307229
Si Si3 0.569386 0.979660 0.500000
Si Si4 0.794356 0.710162 0.699563
Si Si5 0.855199 0.414077 0.305272
Si Si6 0.116163 0.322001 0.000000
Si Si7 0.008910 0.701846 0.000000
Si Si8 0.272231 0.588069 0.291137
O O1 0.123930 0.858004 0.273108
O O2 0.237567 0.843401 0.255281
O O3 0.190168 0.003939 0.261267
O O4 0.179981 0.898649 0.000000
O O5 0.936113 0.231179 0.500000
O O6 0.863677 0.307746 0.301974
O O7 0.957659 0.258268 0.164766
O O8 0.591632 0.079890 0.500000
O O9 0.598778 0.948358 0.324016
O O10 0.516144 0.908628 0.500000
O O11 0.806410 0.685224 0.500000
O O12 0.844967 0.691649 0.832230
O O13 0.784209 0.816376 0.710070
O O14 0.864436 0.445501 0.500000
O O15 0.792320 0.437701 0.250546
O O16 0.056535 0.268925 0.000000
O O17 0.275554 0.598647 0.500000
#
# Coordination Sequence:
#
# PCOD9442188 Si02
#       8
#     8   8   4   8   8   4   4   8
#     4  10  20  34  58  91 124 152 195 248 298 356
#     4  10  19  34  60  86 113 152 200 249 293 346
#     4  10  21  36  62  86 112 160 211 243 292 351
#     4  11  24  39  58  88 127 163 194 242 300 365
#     4   9  18  32  52  84 123 153 189 241 291 353
#     4  12  25  42  59  84 123 165 202 245 307 360
#     4  10  23  42  61  84 117 161 209 257 290 342
#     4  10  19  34  55  84 124 162 191 233 303 364
#
# _framework density 18.848122
#
# number of rings (size 3 to 8) (size 9 to 14) (size 15 to 20)
#    0.000    1.846    3.077    1.154    2.154    3.077 
#    0.000    0.000    0.000    6.462    0.000    2.154 
#    0.000    0.000    0.000    0.000    0.000    0.000 
#
# Total GULP energy -289733.656657 kJ/mol
# GULP energy per Si atom -5571.801090 kJ/mol
# Density = 1.880522 g / cm^3
# Si number density = 18.848122 Si / 1000 Ang^3
#
#
#
# Elastic Constant Matrix: (Units=GPa)
#
#
# Indices 1 2 3 4 5 6 
#
# 1 86.7991 7.9084 53.0689 0.0000 0.0000 0.0000
# 2 7.9084 69.6879 12.3654 0.0000 0.0000 0.0000
# 3 53.0689 12.3654 91.2635 0.0000 0.0000 0.0000
# 4 0.0000 0.0000 0.0000 65.1515 0.0000 0.0000
# 5 0.0000 0.0000 0.0000 0.0000 75.9864 0.0000
# 6 0.0000 0.0000 0.0000 0.0000 0.0000-1987.5856
#
#
#
# Elastic Compliance Matrix: (Units=1/GPa)
#
#
# Indices 1 2 3 4 5 6 
#
# 1 0.017879 -0.000189 -0.010371 0.000000 0.000000 0.000000
# 2 -0.000189 0.014705 -0.001883 0.000000 0.000000 0.000000
# 3 -0.010371 -0.001883 0.017243 0.000000 0.000000 0.000000
# 4 0.000000 0.000000 0.000000 0.015349 0.000000 0.000000
# 5 0.000000 0.000000 0.000000 0.000000 0.013160 0.000000
# 6 0.000000 0.000000 0.000000 0.000000 0.000000 -0.000503
#
#
# Mechanical properties :
#
#
# Convention : Reuss Voigt Hill
#
# Bulk Modulus (GPa) = 40.09231 43.82620 41.95925
# Shear Modulus (GPa) = 45.03241 -357.66235 -156.31497
#
# Velocity S-wave (km/s) = 4.89327 -13.79029 -9.11669
# Velocity P-wave (km/s) = 7.29677 15.17432 9.40790
#
# Compressibility (1/GPa) = 0.02494244
#
# Stress axis : x y z
#
# Youngs Moduli (GPa) = 55.93245 68.00331 57.99503
#
# Poissons Ratio (x) = 0.01284 0.60145
# Poissons Ratio (y) = 0.01056 0.10918
# Poissons Ratio (z) = 0.58006 0.12803
#
# Static dielectric constant tensor:
#      x y z
#    x 1.652020 0.000000 0.000000 
#    y 0.000000 1.702670 0.000000 
#    z 0.000000 0.000000 1.668800 
# 
# From -- ./inp_files/8959.got.cif
#   From: 2010.05.17/outbox.cif.g08.bks.cpg/sg58_5_cif.got.tgz:8959.got - 2010.06.03 14:20:14.
