data_PCOD9442154
_publ_section_title
;
Structure prediction by ZEFSAII (Michael W. Deem and Ramdas Pophale) SiO2 
 PCOD9442154
Probable space group: P N N M
;
_chemical_formula_sum "Si O2"
_cell_formula_units_Z 42
_cell_length_a 5.028420
_cell_length_b 22.529598
_cell_length_c 23.309258
_cell_angle_alpha 90.000000
_cell_angle_beta 90.000000
_cell_angle_gamma 90.000000
_cell_volume 2640.665774
_symmetry_space_group_name_H-M "P N N M"
_symmetry_group_IT_number 58
_symmetry_cell_setting 'orthorhombic'
loop_
_space_group_symop_operation_xyz
x,y,z
-x,-y,z
1/2+x,1/2-y,1/2-z
1/2-x,1/2+y,1/2-z
-x,-y,-z
x,y,-z
1/2-x,1/2+y,1/2+z
1/2+x,1/2-y,1/2+z
loop_
_atom_site_type_symbol
_atom_site_label
_atom_site_fract_x
_atom_site_fract_y
_atom_site_fract_z
Si Si1 0.844946 0.780278 0.321012
Si Si2 0.000000 0.500000 0.000000
Si Si3 0.154655 0.329379 0.756149
Si Si4 0.185822 0.919631 0.589003
Si Si5 0.739294 0.540173 0.219822
Si Si6 0.189224 0.660132 0.934327
O O1 0.819214 0.712827 0.299260
O O2 0.633624 0.818719 0.284070
O O3 0.781616 0.792744 0.387018
O O4 0.132650 0.803617 0.301842
O O5 0.804655 0.529077 0.950407
O O6 0.210909 0.398346 0.747161
O O7 0.172051 0.940049 0.654632
O O8 0.403015 0.866916 0.581695
O O9 0.901985 0.893830 0.569742
O O10 0.500000 0.500000 0.242380
O O11 0.000000 0.500000 0.218319
O O12 0.184488 0.680953 0.000000
#
# Coordination Sequence:
#
# PCOD9442154 Si02
#       6
#     8   2   8   8   8   8
#     4  10  19  34  54  70  94 120 165 208 252 293
#     4  12  24  34  40  62  96 142 168 198 214 266
#     4  10  20  34  52  72  91 126 161 206 254 294
#     4  12  24  33  45  65  96 132 175 198 235 268
#     4  12  22  33  49  68  97 127 165 204 238 285
#     4  12  21  35  49  70  94 126 164 211 241 281
#
# _framework density 15.905079000000001
#
# number of rings (size 3 to 8) (size 9 to 14) (size 15 to 20)
#    0.000    0.762    6.667    2.286    0.000    0.762 
#    0.000    0.000    0.000    0.000    0.000    0.000 
#    0.000    1.524    0.000    0.000    0.000    4.571 
#
# Total GULP energy -234222.851976 kJ/mol
# GULP energy per Si atom -5576.734571 kJ/mol
# Density = 1.586888 g / cm^3
# Si number density = 15.905079 Si / 1000 Ang^3
#
#
#
# Elastic Constant Matrix: (Units=GPa)
#
#
# Indices 1 2 3 4 5 6 
#
# 1 40.9561 -6.7245 -2.8569 0.0000 0.0000 0.0000
# 2 -6.7245 87.9044 37.7549 0.0000 0.0000 0.0000
# 3 -2.8569 37.7549 63.8383 0.0000 0.0000 0.0000
# 4 0.0000 0.0000 0.0000 59.3696 0.0000 0.0000
# 5 0.0000 0.0000 0.0000 0.0000 7.6928 0.0000
# 6 0.0000 0.0000 0.0000 0.0000 0.0000 22.0220
#
#
#
# Elastic Compliance Matrix: (Units=1/GPa)
#
#
# Indices 1 2 3 4 5 6 
#
# 1 0.024727 0.001899 -0.000016 0.000000 0.000000 0.000000
# 2 0.001899 0.015395 -0.009020 0.000000 0.000000 0.000000
# 3 -0.000016 -0.009020 0.020998 0.000000 0.000000 0.000000
# 4 0.000000 0.000000 0.000000 0.016844 0.000000 0.000000
# 5 0.000000 0.000000 0.000000 0.000000 0.129993 0.000000
# 6 0.000000 0.000000 0.000000 0.000000 0.000000 0.045409
#
#
# Mechanical properties :
#
#
# Convention : Reuss Voigt Hill
#
# Bulk Modulus (GPa) = 21.34688 27.67174 24.50931
# Shear Modulus (GPa) = 17.65183 28.78523 23.21853
#
# Velocity S-wave (km/s) = 3.33502 4.25881 3.82490
# Velocity P-wave (km/s) = 5.31793 6.45128 5.91183
#
# Compressibility (1/GPa) = 0.04684524
#
# Stress axis : x y z
#
# Youngs Moduli (GPa) = 40.44169 64.95465 47.62252
#
# Poissons Ratio (x) = -0.12332 0.00077
# Poissons Ratio (y) = -0.07678 0.42956
# Poissons Ratio (z) = 0.00066 0.58590
#
# Static dielectric constant tensor:
#      x y z
#    x 1.576870 0.000000 0.000000 
#    y 0.000000 1.559920 0.000000 
#    z 0.000000 0.000000 1.519420 
# 
# From -- ./inp_files/28130.got.cif
#   From: 2010.05.17/outbox.cif.g08.bks.cpg/sg58_15_cif.got.tgz:28130.got - 2010.06.03 14:20:14.
