data_PCOD9442092
_publ_section_title
;
Structure prediction by ZEFSAII (Michael W. Deem and Ramdas Pophale) SiO2 
 PCOD9442092
Probable space group: P N N M
;
_chemical_formula_sum "Si O2"
_cell_formula_units_Z 64
_cell_length_a 21.004433
_cell_length_b 20.088221
_cell_length_c 8.641348
_cell_angle_alpha 90.000000
_cell_angle_beta 90.000000
_cell_angle_gamma 90.000000
_cell_volume 3646.144997
_symmetry_space_group_name_H-M "P N N M"
_symmetry_group_IT_number 58
_symmetry_cell_setting 'orthorhombic'
loop_
_space_group_symop_operation_xyz
x,y,z
-x,-y,z
1/2+x,1/2-y,1/2-z
1/2-x,1/2+y,1/2-z
-x,-y,-z
x,y,-z
1/2-x,1/2+y,1/2+z
1/2+x,1/2-y,1/2+z
loop_
_atom_site_type_symbol
_atom_site_label
_atom_site_fract_x
_atom_site_fract_y
_atom_site_fract_z
Si Si1 0.236743 0.080033 0.686477
Si Si2 0.264737 0.431599 0.812683
Si Si3 0.064054 0.709915 0.816158
Si Si4 0.930645 0.704464 0.684039
Si Si5 0.811411 0.785167 0.184963
Si Si6 0.115659 0.433026 0.186094
Si Si7 0.619597 0.924272 0.184934
Si Si8 0.819277 0.206684 0.686924
O O1 0.237687 0.084213 0.500000
O O2 0.195933 0.139639 0.756022
O O3 0.309175 0.085966 0.747443
O O4 0.214525 0.005764 0.733201
O O5 0.190385 0.423636 0.769168
O O6 0.306008 0.368988 0.760345
O O7 0.265400 0.429705 0.000000
O O8 0.078708 0.637899 0.741955
O O9 0.120359 0.758821 0.763352
O O10 0.995595 0.732774 0.755104
O O11 0.063566 0.703663 0.000000
O O12 0.934395 0.703585 0.500000
O O13 0.869856 0.746677 0.738632
O O14 0.921698 0.629441 0.747059
O O15 0.744940 0.747976 0.222551
O O16 0.818832 0.783105 0.000000
O O17 0.877573 0.425373 0.500000
O O18 0.095779 0.504725 0.251591
O O19 0.611670 0.066370 0.500000
O O20 0.827187 0.208074 0.500000
#
# Coordination Sequence:
#
# PCOD9442092 Si02
#       8
#     8   8   8   8   8   8   8   8
#     4  10  19  33  56  86 116 150 192 236 285 338
#     4   8  16  32  56  83 113 147 183 228 281 337
#     4  12  25  40  57  81 114 154 196 239 290 344
#     4  12  25  40  58  83 115 152 195 240 287 346
#     4  11  21  36  60  86 117 153 190 237 290 339
#     4  10  19  36  57  82 115 153 192 232 283 341
#     4  11  21  35  54  82 116 153 194 236 282 336
#     4  10  19  36  60  85 114 150 190 234 287 340
#
# _framework density 17.552783999999999
#
# number of rings (size 3 to 8) (size 9 to 14) (size 15 to 20)
#    0.000    1.500    2.500    5.250    0.000    1.000 
#    0.000    3.750    0.000    0.750    0.000    5.250 
#    0.000    0.000    0.000    0.000    0.000    0.000 
#
# Total GULP energy -357577.892924 kJ/mol
# GULP energy per Si atom -5587.154577 kJ/mol
# Density = 1.751283 g / cm^3
# Si number density = 17.552784 Si / 1000 Ang^3
#
#
#
# Elastic Constant Matrix: (Units=GPa)
#
#
# Indices 1 2 3 4 5 6 
#
# 1 65.9009 28.5951 15.5481 0.0000 0.0000 0.0000
# 2 28.5951 95.3677 17.1037 0.0000 0.0000 0.0000
# 3 15.5481 17.1037 59.4203 0.0000 0.0000 0.0000
# 4 0.0000 0.0000 0.0000 30.1594 0.0000 0.0000
# 5 0.0000 0.0000 0.0000 0.0000 18.3154 0.0000
# 6 0.0000 0.0000 0.0000 0.0000 0.0000 18.5178
#
#
#
# Elastic Compliance Matrix: (Units=1/GPa)
#
#
# Indices 1 2 3 4 5 6 
#
# 1 0.018050 -0.004814 -0.003338 0.000000 0.000000 0.000000
# 2 -0.004814 0.012340 -0.002292 0.000000 0.000000 0.000000
# 3 -0.003338 -0.002292 0.018362 0.000000 0.000000 0.000000
# 4 0.000000 0.000000 0.000000 0.033157 0.000000 0.000000
# 5 0.000000 0.000000 0.000000 0.000000 0.054599 0.000000
# 6 0.000000 0.000000 0.000000 0.000000 0.000000 0.054002
#
#
# Mechanical properties :
#
#
# Convention : Reuss Voigt Hill
#
# Bulk Modulus (GPa) = 35.88642 38.13140 37.00891
# Shear Modulus (GPa) = 22.65649 24.02797 23.34223
#
# Velocity S-wave (km/s) = 3.59662 3.70388 3.65064
# Velocity P-wave (km/s) = 6.14303 6.32950 6.23696
#
# Compressibility (1/GPa) = 0.02786569
#
# Stress axis : x y z
#
# Youngs Moduli (GPa) = 55.40027 81.03585 54.45894
#
# Poissons Ratio (x) = 0.39008 0.18176
# Poissons Ratio (y) = 0.26668 0.12485
# Poissons Ratio (z) = 0.18490 0.18577
#
# Static dielectric constant tensor:
#      x y z
#    x 1.589210 0.000000 0.000000 
#    y 0.000000 1.606680 0.000000 
#    z 0.000000 0.000000 1.584100 
# 
# From -- ./inp_files/8269.got.cif
#   From: 2010.05.17/outbox.cif.g08.bks.cpg/sg58_5_cif.got.tgz:8269.got - 2010.06.03 14:20:14.
