data_PCOD9442894
_publ_section_title
;
Structure prediction by ZEFSAII (Michael W. Deem and Ramdas Pophale) SiO2 
 PCOD9442894
Probable space group: P N N M
;
_chemical_formula_sum "Si O2"
_cell_formula_units_Z 64
_cell_length_a 14.412342
_cell_length_b 17.164789
_cell_length_c 14.594694
_cell_angle_alpha 90.000000
_cell_angle_beta 90.000000
_cell_angle_gamma 90.000000
_cell_volume 3610.505594
_symmetry_space_group_name_H-M "P N N M"
_symmetry_group_IT_number 58
_symmetry_cell_setting 'orthorhombic'
loop_
_space_group_symop_operation_xyz
x,y,z
-x,-y,z
1/2+x,1/2-y,1/2-z
1/2-x,1/2+y,1/2-z
-x,-y,-z
x,y,-z
1/2-x,1/2+y,1/2+z
1/2+x,1/2-y,1/2+z
loop_
_atom_site_type_symbol
_atom_site_label
_atom_site_fract_x
_atom_site_fract_y
_atom_site_fract_z
Si Si1 0.879422 0.922963 0.284699
Si Si2 0.300083 0.714009 0.890860
Si Si3 0.407362 0.399922 0.211091
Si Si4 0.330042 0.353119 0.396809
Si Si5 0.721021 0.390672 0.390483
Si Si6 0.346690 0.250078 0.109229
Si Si7 0.464699 0.833223 0.888423
Si Si8 0.347563 0.970012 0.104967
O O1 0.809203 0.865801 0.336442
O O2 0.863294 0.910589 0.176199
O O3 0.983996 0.900492 0.313254
O O4 0.867928 0.013978 0.306367
O O5 0.209615 0.767094 0.875207
O O6 0.387237 0.769029 0.864022
O O7 0.306704 0.700403 0.000000
O O8 0.397584 0.382123 0.318704
O O9 0.352571 0.332479 0.158723
O O10 0.367580 0.354424 0.500000
O O11 0.239972 0.410187 0.396276
O O12 0.705314 0.402724 0.500000
O O13 0.756572 0.302927 0.375540
O O14 0.804014 0.449813 0.360089
O O15 0.435804 0.198889 0.139485
O O16 0.355670 0.261816 0.000000
O O17 0.430654 0.918035 0.854132
O O18 0.464022 0.838345 0.000000
O O19 0.374575 0.988124 0.000000
#
# Coordination Sequence:
#
# PCOD9442894 Si02
#       8
#     8   8   8   8   8   8   8   8
#     4  11  22  33  48  72 101 133 167 198 235 289
#     4   9  17  32  53  71  91 124 164 204 241 277
#     4  11  22  33  48  72 101 133 167 198 235 289
#     4   9  17  32  53  71  91 124 164 204 241 277
#     4  10  20  34  51  72 101 131 161 202 250 296
#     4  10  20  34  51  72 101 131 161 202 250 296
#     4   8  14  27  48  71  93 118 152 196 244 288
#     4   8  14  27  48  71  93 118 152 196 244 288
#
# _framework density 17.726049
#
# number of rings (size 3 to 8) (size 9 to 14) (size 15 to 20)
#    0.000    2.500    2.500    2.250    0.000    1.500 
#    0.000    5.000    0.000    0.000    0.000    0.000 
#    0.000    0.000    0.000   16.500    0.000    0.250 
#
# Total GULP energy -356553.459222 kJ/mol
# GULP energy per Si atom -5571.147800 kJ/mol
# Density = 1.768570 g / cm^3
# Si number density = 17.726049 Si / 1000 Ang^3
#
#
#
# Elastic Constant Matrix: (Units=GPa)
#
#
# Indices 1 2 3 4 5 6 
#
# 1 8.4889 10.6058 -0.9217 0.0000 0.0000 0.0000
# 2 10.6058 124.1432 31.9075 0.0000 0.0000 0.0000
# 3 -0.9217 31.9075 25.7520 0.0000 0.0000 0.0000
# 4 0.0000 0.0000 0.0000 24.0214 0.0000 0.0000
# 5 0.0000 0.0000 0.0000 0.0000 17.7338 0.0000
# 6 0.0000 0.0000 0.0000 0.0000 0.0000 16.7074
#
#
#
# Elastic Compliance Matrix: (Units=1/GPa)
#
#
# Indices 1 2 3 4 5 6 
#
# 1 0.146526 -0.020345 0.030452 0.000000 0.000000 0.000000
# 2 -0.020345 0.014644 -0.018872 0.000000 0.000000 0.000000
# 3 0.030452 -0.018872 0.063305 0.000000 0.000000 0.000000
# 4 0.000000 0.000000 0.000000 0.041630 0.000000 0.000000
# 5 0.000000 0.000000 0.000000 0.000000 0.056390 0.000000
# 6 0.000000 0.000000 0.000000 0.000000 0.000000 0.059854
#
#
# Mechanical properties :
#
#
# Convention : Reuss Voigt Hill
#
# Bulk Modulus (GPa) = 4.83222 26.84082 15.83652
# Shear Modulus (GPa) = 10.66418 19.47869 15.07143
#
# Velocity S-wave (km/s) = 2.45544 3.31852 2.91905
# Velocity P-wave (km/s) = 3.28190 5.46428 4.50717
#
# Compressibility (1/GPa) = 0.20694425
#
# Stress axis : x y z
#
# Youngs Moduli (GPa) = 6.82473 68.28775 15.79652
#
# Poissons Ratio (x) = 1.38930 -0.48103
# Poissons Ratio (y) = 0.13885 0.29812
# Poissons Ratio (z) = -0.20783 1.28875
#
# Static dielectric constant tensor:
#      x y z
#    x 1.631030 0.000000 0.000000 
#    y 0.000000 1.635480 0.000000 
#    z 0.000000 0.000000 1.602370 
# 
# From -- ./inp_files/22432.got.cif
#   From: 2010.05.17/outbox.cif.g08.bks.cpg/sg58_12_cif.got.tgz:22432.got - 2010.06.03 14:20:14.
