data_PCOD9442456
_publ_section_title
;
Structure prediction by ZEFSAII (Michael W. Deem and Ramdas Pophale) SiO2 
 PCOD9442456
Probable space group: P N N M
;
_chemical_formula_sum "Si O2"
_cell_formula_units_Z 64
_cell_length_a 27.664273
_cell_length_b 13.044029
_cell_length_c 8.892463
_cell_angle_alpha 90.000000
_cell_angle_beta 90.000000
_cell_angle_gamma 90.000000
_cell_volume 3208.877102
_symmetry_space_group_name_H-M "P N N M"
_symmetry_group_IT_number 58
_symmetry_cell_setting 'orthorhombic'
loop_
_space_group_symop_operation_xyz
x,y,z
-x,-y,z
1/2+x,1/2-y,1/2-z
1/2-x,1/2+y,1/2-z
-x,-y,-z
x,y,-z
1/2-x,1/2+y,1/2+z
1/2+x,1/2-y,1/2+z
loop_
_atom_site_type_symbol
_atom_site_label
_atom_site_fract_x
_atom_site_fract_y
_atom_site_fract_z
Si Si1 0.841269 0.419427 0.182258
Si Si2 0.717253 0.113455 0.179172
Si Si3 0.828145 0.806311 0.832424
Si Si4 0.936557 0.727248 0.166311
Si Si5 0.056226 0.498941 0.817623
Si Si6 0.533164 0.415179 0.827048
Si Si7 0.686097 0.701504 0.820577
Si Si8 0.142296 0.001004 0.327176
O O1 0.811364 0.516349 0.249894
O O2 0.898394 0.429902 0.228292
O O3 0.820589 0.310867 0.240486
O O4 0.838298 0.424920 0.000000
O O5 0.690674 0.221058 0.217883
O O6 0.768156 0.136908 0.259847
O O7 0.722063 0.099751 0.000000
O O8 0.884714 0.780245 0.845674
O O9 0.825674 0.922331 0.773508
O O10 0.806380 0.795068 0.000000
O O11 0.927909 0.615168 0.229104
O O12 0.969625 0.803634 0.256939
O O13 0.957466 0.713722 0.000000
O O14 0.000000 0.500000 0.767206
O O15 0.055173 0.508176 0.000000
O O16 0.500000 0.500000 0.750431
O O17 0.587723 0.457354 0.822053
O O18 0.518565 0.404547 0.000000
O O19 0.643731 0.618927 0.788293
O O20 0.689336 0.718147 0.000000
O O21 0.159309 0.010471 0.500000
#
# Coordination Sequence:
#
# PCOD9442456 Si02
#       8
#     8   8   8   8   8   8   8   8
#     4  11  23  43  66  93 130 167 212 266 319 376
#     4  12  25  41  64  90 119 159 207 254 313 377
#     4  10  19  35  60  87 115 149 194 253 306 358
#     4   9  17  32  53  81 112 148 196 248 299 354
#     4   9  18  35  60  89 123 165 208 255 313 374
#     4   9  18  33  54  81 114 155 197 243 302 359
#     4  11  25  43  62  88 125 166 208 257 316 379
#     4   9  20  38  58  83 119 159 198 245 300 364
#
# _framework density 19.944671
#
# number of rings (size 3 to 8) (size 9 to 14) (size 15 to 20)
#    0.000    2.000    1.250    2.250    1.750    2.750 
#    0.000    0.000    0.000    2.625    0.000    0.000 
#    0.000    0.000    0.000    0.000    0.000    0.000 
#
# Total GULP energy -356459.149299 kJ/mol
# GULP energy per Si atom -5569.674208 kJ/mol
# Density = 1.989928 g / cm^3
# Si number density = 19.944671 Si / 1000 Ang^3
#
#
#
# Elastic Constant Matrix: (Units=GPa)
#
#
# Indices 1 2 3 4 5 6 
#
# 1 44.5632 23.8811 17.2143 0.0000 0.0000 0.0000
# 2 23.8811 117.8436 33.3823 0.0000 0.0000 0.0000
# 3 17.2143 33.3823 66.3680 0.0000 0.0000 0.0000
# 4 0.0000 0.0000 0.0000 32.2896 0.0000 0.0000
# 5 0.0000 0.0000 0.0000 0.0000 21.4563 0.0000
# 6 0.0000 0.0000 0.0000 0.0000 0.0000 30.7876
#
#
#
# Elastic Compliance Matrix: (Units=1/GPa)
#
#
# Indices 1 2 3 4 5 6 
#
# 1 0.026451 -0.003985 -0.004857 0.000000 0.000000 0.000000
# 2 -0.003985 0.010496 -0.004246 0.000000 0.000000 0.000000
# 3 -0.004857 -0.004246 0.018463 0.000000 0.000000 0.000000
# 4 0.000000 0.000000 0.000000 0.030970 0.000000 0.000000
# 5 0.000000 0.000000 0.000000 0.000000 0.046606 0.000000
# 6 0.000000 0.000000 0.000000 0.000000 0.000000 0.032481
#
#
# Mechanical properties :
#
#
# Convention : Reuss Voigt Hill
#
# Bulk Modulus (GPa) = 34.20438 41.97001 38.08719
# Shear Modulus (GPa) = 24.82785 27.19317 26.01051
#
# Velocity S-wave (km/s) = 3.53205 3.69647 3.61520
# Velocity P-wave (km/s) = 5.81556 6.26956 6.04682
#
# Compressibility (1/GPa) = 0.02923602
#
# Stress axis : x y z
#
# Youngs Moduli (GPa) = 37.80508 95.27381 54.16287
#
# Poissons Ratio (x) = 0.37963 0.26305
# Poissons Ratio (y) = 0.15064 0.22997
# Poissons Ratio (z) = 0.18361 0.40452
#
# Static dielectric constant tensor:
#      x y z
#    x 1.778290 0.000000 0.000000 
#    y 0.000000 1.733730 0.000000 
#    z 0.000000 0.000000 1.710390 
# 
# From -- ./inp_files/11018.got.cif
#   From: 2010.05.17/outbox.cif.g08.bks.cpg/sg58_6_cif.got.tgz:11018.got - 2010.06.03 14:20:14.
