data_PCOD9442725
_publ_section_title
;
Structure prediction by ZEFSAII (Michael W. Deem and Ramdas Pophale) SiO2 
 PCOD9442725
Probable space group: P N N M
;
_chemical_formula_sum "Si O2"
_cell_formula_units_Z 56
_cell_length_a 20.981585
_cell_length_b 8.110524
_cell_length_c 16.457313
_cell_angle_alpha 90.000000
_cell_angle_beta 90.000000
_cell_angle_gamma 90.000000
_cell_volume 2800.568086
_symmetry_space_group_name_H-M "P N N M"
_symmetry_group_IT_number 58
_symmetry_cell_setting 'orthorhombic'
loop_
_space_group_symop_operation_xyz
x,y,z
-x,-y,z
1/2+x,1/2-y,1/2-z
1/2-x,1/2+y,1/2-z
-x,-y,-z
x,y,-z
1/2-x,1/2+y,1/2+z
1/2+x,1/2-y,1/2+z
loop_
_atom_site_type_symbol
_atom_site_label
_atom_site_fract_x
_atom_site_fract_y
_atom_site_fract_z
Si Si1 0.704059 0.871230 0.904533
Si Si2 0.616725 0.554713 0.237820
Si Si3 0.436951 0.772670 0.792912
Si Si4 0.248982 0.962879 0.328738
Si Si5 0.379230 0.085866 0.248879
Si Si6 0.687128 0.234068 0.908952
Si Si7 0.043052 0.838292 0.590000
O O1 0.744908 0.721301 0.866235
O O2 0.641809 0.886132 0.846031
O O3 0.726170 0.062517 0.901472
O O4 0.693146 0.835107 0.000000
O O5 0.573212 0.396933 0.257856
O O6 0.692494 0.527866 0.238862
O O7 0.602962 0.731024 0.278987
O O8 0.600997 0.586493 0.141698
O O9 0.372838 0.768591 0.848450
O O10 0.499124 0.769986 0.849847
O O11 0.430344 0.941901 0.744845
O O12 0.315884 0.014023 0.290980
O O13 0.229477 0.106680 0.391041
O O14 0.660992 0.240578 0.000000
O O15 0.055782 0.770382 0.500000
O O16 0.000000 0.000000 0.579515
#
# Coordination Sequence:
#
# PCOD9442725 Si02
#       7
#     8   8   8   8   8   8   8
#     4   9  19  31  45  66  95 124 164 210 249 297
#     4   9  20  30  45  67  92 125 171 215 249 285
#     4   9  18  31  48  68  98 133 171 213 250 285
#     4  10  20  30  48  67  97 133 172 213 259 307
#     4  10  21  31  47  72  95 132 180 212 256 311
#     4   9  17  29  46  69  95 129 171 207 250 296
#     4   9  17  32  51  72  99 138 180 214 247 295
#
# _framework density 19.995943
#
# number of rings (size 3 to 8) (size 9 to 14) (size 15 to 20)
#    0.000    2.714    0.000    0.857   12.000    6.857 
#    0.000    0.714    0.000    0.000    0.000    0.000 
#    0.000    0.000    0.000   14.143    3.429    6.000 
#
# Total GULP energy -311764.265538 kJ/mol
# GULP energy per Si atom -5567.219027 kJ/mol
# Density = 1.995043 g / cm^3
# Si number density = 19.995943 Si / 1000 Ang^3
#
#
#
# Elastic Constant Matrix: (Units=GPa)
#
#
# Indices 1 2 3 4 5 6 
#
# 1 73.3362 28.8036 17.1247 0.0000 0.0000 0.0000
# 2 28.8036 174.9433 8.1811 0.0000 0.0000 0.0000
# 3 17.1247 8.1811 23.2714 0.0000 0.0000 0.0000
# 4 0.0000 0.0000 0.0000 19.2078 0.0000 0.0000
# 5 0.0000 0.0000 0.0000 0.0000 -5.6410 0.0000
# 6 0.0000 0.0000 0.0000 0.0000 0.0000 22.0758
#
#
#
# Elastic Compliance Matrix: (Units=1/GPa)
#
#
# Indices 1 2 3 4 5 6 
#
# 1 0.017326 -0.002294 -0.011943 0.000000 0.000000 0.000000
# 2 -0.002294 0.006115 -0.000462 0.000000 0.000000 0.000000
# 3 -0.011943 -0.000462 0.051922 0.000000 0.000000 0.000000
# 4 0.000000 0.000000 0.000000 0.052062 0.000000 0.000000
# 5 0.000000 0.000000 0.000000 0.000000 -0.177274 0.000000
# 6 0.000000 0.000000 0.000000 0.000000 0.000000 0.045298
#
#
# Mechanical properties :
#
#
# Convention : Reuss Voigt Hill
#
# Bulk Modulus (GPa) = 21.75542 42.19664 31.97603
# Shear Modulus (GPa) = 124.47496 21.62462 73.04979
#
# Velocity S-wave (km/s) = 7.89843 3.29211 6.05075
# Velocity P-wave (km/s) = 9.69968 5.96649 8.05242
#
# Compressibility (1/GPa) = 0.04596556
#
# Stress axis : x y z
#
# Youngs Moduli (GPa) = 57.71783 163.52044 19.25965
#
# Poissons Ratio (x) = 0.37513 0.23002
# Poissons Ratio (y) = 0.13241 0.00889
# Poissons Ratio (z) = 0.68932 0.07550
#
# Static dielectric constant tensor:
#      x y z
#    x 1.758790 0.000000 0.000000 
#    y 0.000000 1.885650 0.000000 
#    z 0.000000 0.000000 1.716550 
# 
# From -- ./inp_files/27504.got.cif
#   From: 2010.05.17/outbox.cif.g08.bks.cpg/sg58_14_cif.got.tgz:27504.got - 2010.06.03 14:20:14.
