data_PCOD9442387
_publ_section_title
;
Structure prediction by ZEFSAII (Michael W. Deem and Ramdas Pophale) SiO2 
 PCOD9442387
Probable space group: P N N M
;
_chemical_formula_sum "Si O2"
_cell_formula_units_Z 56
_cell_length_a 14.808933
_cell_length_b 21.665489
_cell_length_c 7.816533
_cell_angle_alpha 90.000000
_cell_angle_beta 90.000000
_cell_angle_gamma 90.000000
_cell_volume 2507.878139
_symmetry_space_group_name_H-M "P N N M"
_symmetry_group_IT_number 58
_symmetry_cell_setting 'orthorhombic'
loop_
_space_group_symop_operation_xyz
x,y,z
-x,-y,z
1/2+x,1/2-y,1/2-z
1/2-x,1/2+y,1/2-z
-x,-y,-z
x,y,-z
1/2-x,1/2+y,1/2+z
1/2+x,1/2-y,1/2+z
loop_
_atom_site_type_symbol
_atom_site_label
_atom_site_fract_x
_atom_site_fract_y
_atom_site_fract_z
Si Si1 0.547670 0.850036 0.699204
Si Si2 0.235359 0.614136 0.296149
Si Si3 0.922433 0.546285 0.209111
Si Si4 0.221560 0.983632 0.293971
Si Si5 0.708386 0.250648 0.701961
Si Si6 0.007877 0.228028 0.306752
Si Si7 0.649726 0.646397 0.789346
O O1 0.539380 0.834256 0.500000
O O2 0.634876 0.893210 0.720321
O O3 0.459222 0.886656 0.757187
O O4 0.557793 0.787471 0.802878
O O5 0.228349 0.617120 0.500000
O O6 0.296239 0.554689 0.254110
O O7 0.266100 0.681189 0.228888
O O8 0.823133 0.530848 0.269353
O O9 0.000000 0.500000 0.268236
O O10 0.921454 0.544712 0.000000
O O11 0.221815 0.981906 0.500000
O O12 0.164074 0.924505 0.236122
O O13 0.726171 0.251388 0.500000
O O14 0.600315 0.249241 0.723072
O O15 0.768764 0.192919 0.766926
O O16 0.030919 0.211069 0.500000
O O17 0.946252 0.174057 0.230372
O O18 0.649385 0.647401 0.000000
#
# Coordination Sequence:
#
# PCOD9442387 Si02
#       7
#     8   8   8   8   8   8   8
#     4  11  20  34  58  83 112 153 196 232 285 357
#     4  11  22  37  57  83 119 152 187 242 299 341
#     4   9  16  28  49  79 108 140 186 229 267 339
#     4  10  19  35  58  80 110 153 198 235 283 354
#     4  10  21  41  63  83 113 159 200 234 292 358
#     4  11  22  38  59  88 118 146 193 253 298 337
#     4   9  19  38  61  83 115 157 193 236 294 354
#
# _framework density 22.329633999999999
#
# number of rings (size 3 to 8) (size 9 to 14) (size 15 to 20)
#    0.000    1.857    2.857    2.143    0.000    3.429 
#    0.000    6.429    0.000    4.286    0.000    0.000 
#    0.000    0.000    0.000    0.000    0.000    0.000 
#
# Total GULP energy -312443.461235 kJ/mol
# GULP energy per Si atom -5579.347522 kJ/mol
# Density = 2.227881 g / cm^3
# Si number density = 22.329634 Si / 1000 Ang^3
#
#
#
# Elastic Constant Matrix: (Units=GPa)
#
#
# Indices 1 2 3 4 5 6 
#
# 1 32.9922 6.4424 -1.1439 0.0000 0.0000 0.0000
# 2 6.4424 98.6637 2.3877 0.0000 0.0000 0.0000
# 3 -1.1439 2.3877 34.1033 0.0000 0.0000 0.0000
# 4 0.0000 0.0000 0.0000 34.4236 0.0000 0.0000
# 5 0.0000 0.0000 0.0000 0.0000 20.5330 0.0000
# 6 0.0000 0.0000 0.0000 0.0000 0.0000 33.1203
#
#
#
# Elastic Compliance Matrix: (Units=1/GPa)
#
#
# Indices 1 2 3 4 5 6 
#
# 1 0.030749 -0.002036 0.001174 0.000000 0.000000 0.000000
# 2 -0.002036 0.010287 -0.000789 0.000000 0.000000 0.000000
# 3 0.001174 -0.000789 0.029417 0.000000 0.000000 0.000000
# 4 0.000000 0.000000 0.000000 0.029050 0.000000 0.000000
# 5 0.000000 0.000000 0.000000 0.000000 0.048702 0.000000
# 6 0.000000 0.000000 0.000000 0.000000 0.000000 0.030193
#
#
# Mechanical properties :
#
#
# Convention : Reuss Voigt Hill
#
# Bulk Modulus (GPa) = 14.89168 20.12575 17.50871
# Shear Modulus (GPa) = 24.49975 28.15356 26.32666
#
# Velocity S-wave (km/s) = 3.31597 3.55465 3.43738
# Velocity P-wave (km/s) = 4.62000 5.08724 4.85924
#
# Compressibility (1/GPa) = 0.06715160
#
# Stress axis : x y z
#
# Youngs Moduli (GPa) = 32.52186 97.20553 33.99364
#
# Poissons Ratio (x) = 0.19793 -0.03991
# Poissons Ratio (y) = 0.06622 0.02681
# Poissons Ratio (z) = -0.03818 0.07665
#
# Static dielectric constant tensor:
#      x y z
#    x 1.847750 0.000000 0.000000 
#    y 0.000000 1.897770 0.000000 
#    z 0.000000 0.000000 1.817780 
# 
# From -- ./inp_files/6332.got.cif
#   From: 2010.05.17/outbox.cif.g08.bks.cpg/sg58_4_cif.got.tgz:6332.got - 2010.06.03 14:20:14.
