data_PCOD9442322
_publ_section_title
;
Structure prediction by ZEFSAII (Michael W. Deem and Ramdas Pophale) SiO2 
 PCOD9442322
Probable space group: P N N M
;
_chemical_formula_sum "Si O2"
_cell_formula_units_Z 64
_cell_length_a 13.963692
_cell_length_b 8.756441
_cell_length_c 26.069586
_cell_angle_alpha 90.000000
_cell_angle_beta 90.000000
_cell_angle_gamma 90.000000
_cell_volume 3187.586810
_symmetry_space_group_name_H-M "P N N M"
_symmetry_group_IT_number 58
_symmetry_cell_setting 'orthorhombic'
loop_
_space_group_symop_operation_xyz
x,y,z
-x,-y,z
1/2+x,1/2-y,1/2-z
1/2-x,1/2+y,1/2-z
-x,-y,-z
x,y,-z
1/2-x,1/2+y,1/2+z
1/2+x,1/2-y,1/2+z
loop_
_atom_site_type_symbol
_atom_site_label
_atom_site_fract_x
_atom_site_fract_y
_atom_site_fract_z
Si Si1 0.357815 0.682346 0.400281
Si Si2 0.695960 0.623875 0.055861
Si Si3 0.695493 0.881482 0.814636
Si Si4 0.100622 0.569743 0.414235
Si Si5 0.792678 0.120707 0.940201
Si Si6 0.418078 0.882197 0.321099
Si Si7 0.710812 0.207951 0.766619
Si Si8 0.753349 0.394665 0.864413
O O1 0.301674 0.797500 0.438193
O O2 0.278642 0.659224 0.355186
O O3 0.366503 0.516511 0.425605
O O4 0.440772 0.767582 0.368592
O O5 0.623785 0.765145 0.062153
O O6 0.686314 0.499846 0.100268
O O7 0.686848 0.553374 0.000000
O O8 0.606517 0.905971 0.852354
O O9 0.700308 0.757634 0.769674
O O10 0.722064 0.038688 0.787664
O O11 0.187911 0.458224 0.430987
O O12 0.000000 0.500000 0.429364
O O13 0.796632 0.263310 0.901488
O O14 0.802920 0.161644 0.000000
O O15 0.380588 0.794185 0.270968
O O16 0.500000 0.000000 0.307271
O O17 0.332851 0.990868 0.341957
O O18 0.704242 0.315930 0.815770
#
# Coordination Sequence:
#
# PCOD9442322 Si02
#       8
#     8   8   8   8   8   8   8   8
#     4   8  16  33  55  80 111 140 185 227 278 338
#     4   9  18  33  56  83 110 153 198 233 279 341
#     4   9  18  31  54  79 106 147 185 228 271 338
#     4  10  20  35  55  85 119 149 188 239 289 338
#     4  10  19  34  60  86 107 149 196 231 279 341
#     4  10  22  37  59  84 112 146 184 235 291 344
#     4  11  18  34  58  82 110 148 193 225 281 337
#     4  11  20  36  58  83 114 147 192 240 279 338
#
# _framework density 20.077884000000001
#
# number of rings (size 3 to 8) (size 9 to 14) (size 15 to 20)
#    0.000    2.500    3.750    2.625    0.000    1.500 
#    0.000    1.250    0.000   17.250    0.000    0.000 
#    0.000    0.000    0.000    0.000    0.000    0.000 
#
# Total GULP energy -356537.432198 kJ/mol
# GULP energy per Si atom -5570.897378 kJ/mol
# Density = 2.003219 g / cm^3
# Si number density = 20.077884 Si / 1000 Ang^3
#
#
#
# Elastic Constant Matrix: (Units=GPa)
#
#
# Indices 1 2 3 4 5 6 
#
# 1 16.7715 9.2182 19.2691 0.0000 0.0000 0.0000
# 2 9.2182 69.5570 38.2132 0.0000 0.0000 0.0000
# 3 19.2691 38.2132 145.8380 0.0000 0.0000 0.0000
# 4 0.0000 0.0000 0.0000 26.5109 0.0000 0.0000
# 5 0.0000 0.0000 0.0000 0.0000 2.3728 0.0000
# 6 0.0000 0.0000 0.0000 0.0000 0.0000 17.6214
#
#
#
# Elastic Compliance Matrix: (Units=1/GPa)
#
#
# Indices 1 2 3 4 5 6 
#
# 1 0.071769 -0.005025 -0.008166 0.000000 0.000000 0.000000
# 2 -0.005025 0.017146 -0.003829 0.000000 0.000000 0.000000
# 3 -0.008166 -0.003829 0.008939 0.000000 0.000000 0.000000
# 4 0.000000 0.000000 0.000000 0.037720 0.000000 0.000000
# 5 0.000000 0.000000 0.000000 0.000000 0.421442 0.000000
# 6 0.000000 0.000000 0.000000 0.000000 0.000000 0.056749
#
#
# Mechanical properties :
#
#
# Convention : Reuss Voigt Hill
#
# Bulk Modulus (GPa) = 15.67042 40.61862 28.14452
# Shear Modulus (GPa) = 7.47298 20.33209 13.90253
#
# Velocity S-wave (km/s) = 1.93134 3.18569 2.63426
# Velocity P-wave (km/s) = 3.57704 5.81428 4.82706
#
# Compressibility (1/GPa) = 0.06381450
#
# Stress axis : x y z
#
# Youngs Moduli (GPa) = 13.93362 58.32235 111.86819
#
# Poissons Ratio (x) = 0.29308 0.91351
# Poissons Ratio (y) = 0.07002 0.42832
# Poissons Ratio (z) = 0.11378 0.22330
#
# Static dielectric constant tensor:
#      x y z
#    x 1.731680 0.000000 0.000000 
#    y 0.000000 1.742230 0.000000 
#    z 0.000000 0.000000 1.768420 
# 
# From -- ./inp_files/32232.got.cif
#   From: 2010.05.17/outbox.cif.g08.bks.cpg/sg58_17_cif.got.tgz:32232.got - 2010.06.03 14:20:14.
