data_PCOD9442309
_publ_section_title
;
Structure prediction by ZEFSAII (Michael W. Deem and Ramdas Pophale) SiO2 
 PCOD9442309
Probable space group: P N N M
;
_chemical_formula_sum "Si O2"
_cell_formula_units_Z 48
_cell_length_a 9.659747
_cell_length_b 9.527373
_cell_length_c 26.391328
_cell_angle_alpha 90.000000
_cell_angle_beta 90.000000
_cell_angle_gamma 90.000000
_cell_volume 2428.847035
_symmetry_space_group_name_H-M "P N N M"
_symmetry_group_IT_number 58
_symmetry_cell_setting 'orthorhombic'
loop_
_space_group_symop_operation_xyz
x,y,z
-x,-y,z
1/2+x,1/2-y,1/2-z
1/2-x,1/2+y,1/2-z
-x,-y,-z
x,y,-z
1/2-x,1/2+y,1/2+z
1/2+x,1/2-y,1/2+z
loop_
_atom_site_type_symbol
_atom_site_label
_atom_site_fract_x
_atom_site_fract_y
_atom_site_fract_z
Si Si1 0.350222 0.072025 0.752348
Si Si2 0.888330 0.188041 0.604702
Si Si3 0.674438 0.222197 0.943287
Si Si4 0.885890 0.107761 0.719053
Si Si5 0.846130 0.496255 0.942012
Si Si6 0.666545 0.983724 0.134339
O O1 0.360627 0.242639 0.752200
O O2 0.288006 0.029095 0.807664
O O3 0.500000 0.000000 0.748105
O O4 0.249875 0.989928 0.714361
O O5 0.931695 0.154110 0.662566
O O6 0.810766 0.337044 0.606824
O O7 0.027173 0.206264 0.571764
O O8 0.776589 0.078775 0.585329
O O9 0.792326 0.338138 0.944098
O O10 0.712615 0.110751 0.900273
O O11 0.659432 0.160842 0.000000
O O12 0.000000 0.000000 0.740726
O O13 0.000000 0.500000 0.919176
O O14 0.855823 0.550862 0.000000
O O15 0.500000 0.000000 0.137306
#
# Coordination Sequence:
#
# PCOD9442309 Si02
#       6
#     8   8   8   8   8   8
#     4  10  21  38  57  79 111 150 187 230 285 339
#     4  10  20  35  57  82 107 139 181 229 277 328
#     4  10  19  34  59  86 111 145 186 229 281 335
#     4  11  22  37  58  84 112 144 187 236 284 336
#     4  10  21  35  50  74 110 146 180 220 267 323
#     4   8  18  35  55  81 109 136 177 230 277 326
#
# _framework density 19.762464000000001
#
# number of rings (size 3 to 8) (size 9 to 14) (size 15 to 20)
#    0.000    2.167    0.000    4.000    0.000    7.000 
#    0.000    4.167    0.000    3.000    0.000    0.000 
#    0.000    0.000    0.000    0.000    0.000    0.000 
#
# Total GULP energy -267543.918170 kJ/mol
# GULP energy per Si atom -5573.831629 kJ/mol
# Density = 1.971748 g / cm^3
# Si number density = 19.762464 Si / 1000 Ang^3
#
#
#
# Elastic Constant Matrix: (Units=GPa)
#
#
# Indices 1 2 3 4 5 6 
#
# 1 59.5703 26.8075 1.2893 0.0000 0.0000 0.0000
# 2 26.8075 118.8782 14.9733 0.0000 0.0000 0.0000
# 3 1.2893 14.9733 34.3204 0.0000 0.0000 0.0000
# 4 0.0000 0.0000 0.0000 22.3454 0.0000 0.0000
# 5 0.0000 0.0000 0.0000 0.0000 6.7806 0.0000
# 6 0.0000 0.0000 0.0000 0.0000 0.0000 15.4079
#
#
#
# Elastic Compliance Matrix: (Units=1/GPa)
#
#
# Indices 1 2 3 4 5 6 
#
# 1 0.018730 -0.004375 0.001205 0.000000 0.000000 0.000000
# 2 -0.004375 0.009923 -0.004165 0.000000 0.000000 0.000000
# 3 0.001205 -0.004165 0.030909 0.000000 0.000000 0.000000
# 4 0.000000 0.000000 0.000000 0.044752 0.000000 0.000000
# 5 0.000000 0.000000 0.000000 0.000000 0.147480 0.000000
# 6 0.000000 0.000000 0.000000 0.000000 0.000000 0.064902
#
#
# Mechanical properties :
#
#
# Convention : Reuss Voigt Hill
#
# Bulk Modulus (GPa) = 22.27576 33.21213 27.74394
# Shear Modulus (GPa) = 14.43712 20.22003 17.32858
#
# Velocity S-wave (km/s) = 2.70577 3.20215 2.96437
# Velocity P-wave (km/s) = 4.58888 5.52393 5.07797
#
# Compressibility (1/GPa) = 0.04489185
#
# Stress axis : x y z
#
# Youngs Moduli (GPa) = 53.39076 100.77348 32.35309
#
# Poissons Ratio (x) = 0.44093 -0.03900
# Poissons Ratio (y) = 0.23361 0.13475
# Poissons Ratio (z) = -0.06435 0.41971
#
# Static dielectric constant tensor:
#      x y z
#    x 1.696490 0.000000 0.000000 
#    y 0.000000 1.738630 0.000000 
#    z 0.000000 0.000000 1.741600 
# 
# From -- ./inp_files/34530.got.cif
#   From: 2010.05.17/outbox.cif.g08.bks.cpg/sg58_18_cif.got.tgz:34530.got - 2010.06.03 14:20:14.
