data_PCOD9442218
_publ_section_title
;
Structure prediction by ZEFSAII (Michael W. Deem and Ramdas Pophale) SiO2 
 PCOD9442218
Probable space group: P N N M
;
_chemical_formula_sum "Si O2"
_cell_formula_units_Z 56
_cell_length_a 14.185771
_cell_length_b 18.649773
_cell_length_c 9.324763
_cell_angle_alpha 90.000000
_cell_angle_beta 90.000000
_cell_angle_gamma 90.000000
_cell_volume 2466.972438
_symmetry_space_group_name_H-M "P N N M"
_symmetry_group_IT_number 58
_symmetry_cell_setting 'orthorhombic'
loop_
_space_group_symop_operation_xyz
x,y,z
-x,-y,z
1/2+x,1/2-y,1/2-z
1/2-x,1/2+y,1/2-z
-x,-y,-z
x,y,-z
1/2-x,1/2+y,1/2+z
1/2+x,1/2-y,1/2+z
loop_
_atom_site_type_symbol
_atom_site_label
_atom_site_fract_x
_atom_site_fract_y
_atom_site_fract_z
Si Si1 0.887517 0.006801 0.834980
Si Si2 0.553540 0.861976 0.662943
Si Si3 0.272946 0.783739 0.832370
Si Si4 0.105563 0.853195 0.329630
Si Si5 0.283909 0.080845 0.166446
Si Si6 0.438605 0.711950 0.332826
Si Si7 0.606910 0.068850 0.162010
O O1 0.863851 0.067739 0.720479
O O2 0.825654 0.936257 0.803662
O O3 0.861056 0.028695 0.000000
O O4 0.000000 0.000000 0.834000
O O5 0.569586 0.882049 0.500000
O O6 0.653648 0.865405 0.741750
O O7 0.499453 0.786129 0.667796
O O8 0.480625 0.916875 0.735490
O O9 0.177336 0.799215 0.747743
O O10 0.340898 0.730430 0.745221
O O11 0.327297 0.860677 0.830988
O O12 0.258345 0.764030 0.000000
O O13 0.105583 0.844732 0.500000
O O14 0.003259 0.840177 0.260742
O O15 0.333541 0.002750 0.187992
O O16 0.292465 0.100879 0.000000
O O17 0.428333 0.690094 0.500000
O O18 0.569394 0.065564 0.000000
#
# Coordination Sequence:
#
# PCOD9442218 Si02
#       7
#     8   8   8   8   8   8   8
#     4  10  22  43  67  89 117 158 207 257 309 365
#     4  10  21  34  52  84 121 154 189 241 297 349
#     4  10  19  37  63  89 119 155 201 255 306 369
#     4  12  24  40  65  93 122 162 206 254 310 369
#     4  10  19  34  56  84 115 155 196 236 296 363
#     4  10  22  41  61  87 124 164 208 256 308 369
#     4   9  17  31  54  82 114 152 190 231 287 357
#
# _framework density 22.699888999999999
#
# number of rings (size 3 to 8) (size 9 to 14) (size 15 to 20)
#    0.000    1.857    1.429    3.000    0.000    5.429 
#    2.571    0.000    0.000    0.000    0.000    0.000 
#    0.000    0.000    0.000    0.000    0.000    0.000 
#
# Total GULP energy -313350.860143 kJ/mol
# GULP energy per Si atom -5595.551074 kJ/mol
# Density = 2.264822 g / cm^3
# Si number density = 22.699889 Si / 1000 Ang^3
#
#
#
# Elastic Constant Matrix: (Units=GPa)
#
#
# Indices 1 2 3 4 5 6 
#
# 1 147.0520 14.6399 83.4546 0.0000 0.0000 0.0000
# 2 14.6399 54.1797 36.2255 0.0000 0.0000 0.0000
# 3 83.4546 36.2255 161.2512 0.0000 0.0000 0.0000
# 4 0.0000 0.0000 0.0000 -1.6801 0.0000 0.0000
# 5 0.0000 0.0000 0.0000 0.0000 19.3163 0.0000
# 6 0.0000 0.0000 0.0000 0.0000 0.0000 41.5255
#
#
#
# Elastic Compliance Matrix: (Units=1/GPa)
#
#
# Indices 1 2 3 4 5 6 
#
# 1 0.009662 0.000862 -0.005194 0.000000 0.000000 0.000000
# 2 0.000862 0.021796 -0.005343 0.000000 0.000000 0.000000
# 3 -0.005194 -0.005343 0.010090 0.000000 0.000000 0.000000
# 4 0.000000 0.000000 0.000000 -0.595197 0.000000 0.000000
# 5 0.000000 0.000000 0.000000 0.000000 0.051770 0.000000
# 6 0.000000 0.000000 0.000000 0.000000 0.000000 0.024082
#
#
# Mechanical properties :
#
#
# Convention : Reuss Voigt Hill
#
# Bulk Modulus (GPa) = 45.04741 70.12476 57.58608
# Shear Modulus (GPa) = -11.08531 27.04320 7.97894
#
# Velocity S-wave (km/s) = -2.21224 3.45532 1.87686
# Velocity P-wave (km/s) = 3.65547 6.84676 5.48820
#
# Compressibility (1/GPa) = 0.02219883
#
# Stress axis : x y z
#
# Youngs Moduli (GPa) = 103.49399 45.87905 99.10687
#
# Poissons Ratio (x) = -0.03956 0.51480
# Poissons Ratio (y) = -0.08923 0.52951
# Poissons Ratio (z) = 0.53759 0.24512
#
# Static dielectric constant tensor:
#      x y z
#    x 1.862250 0.000000 0.000000 
#    y 0.000000 1.915180 0.000000 
#    z 0.000000 0.000000 1.760040 
# 
# From -- ./inp_files/6285.got.cif
#   From: 2010.05.17/outbox.cif.g08.bks.cpg/sg58_4_cif.got.tgz:6285.got - 2010.06.03 14:20:14.
