data_PCOD9442004
_publ_section_title
;
Structure prediction by ZEFSAII (Michael W. Deem and Ramdas Pophale) SiO2 
 PCOD9442004
Probable space group: P N N M
;
_chemical_formula_sum "Si O2"
_cell_formula_units_Z 64
_cell_length_a 21.324561
_cell_length_b 16.966136
_cell_length_c 9.703637
_cell_angle_alpha 90.000000
_cell_angle_beta 90.000000
_cell_angle_gamma 90.000000
_cell_volume 3510.731250
_symmetry_space_group_name_H-M "P N N M"
_symmetry_group_IT_number 58
_symmetry_cell_setting 'orthorhombic'
loop_
_space_group_symop_operation_xyz
x,y,z
-x,-y,z
1/2+x,1/2-y,1/2-z
1/2-x,1/2+y,1/2-z
-x,-y,-z
x,y,-z
1/2-x,1/2+y,1/2+z
1/2+x,1/2-y,1/2+z
loop_
_atom_site_type_symbol
_atom_site_label
_atom_site_fract_x
_atom_site_fract_y
_atom_site_fract_z
Si Si1 0.735807 0.781307 0.841702
Si Si2 0.596875 0.176894 0.842425
Si Si3 0.072419 0.998641 0.667334
Si Si4 0.876443 0.405463 0.343922
Si Si5 0.295639 0.941980 0.839261
Si Si6 0.493442 0.094337 0.661032
Si Si7 0.815713 0.108733 0.334466
Si Si8 0.648896 0.345094 0.837968
O O1 0.679139 0.842947 0.843629
O O2 0.704887 0.697866 0.797819
O O3 0.790649 0.818518 0.749150
O O4 0.758942 0.771162 0.000000
O O5 0.665740 0.139003 0.821741
O O6 0.550076 0.138020 0.735940
O O7 0.602113 0.270482 0.829479
O O8 0.578516 0.156736 0.000000
O O9 0.069469 0.000499 0.500000
O O10 0.114999 0.922474 0.704599
O O11 0.112750 0.075994 0.708161
O O12 0.000000 0.000000 0.716414
O O13 0.902385 0.411097 0.500000
O O14 0.845031 0.489093 0.308867
O O15 0.929794 0.383054 0.237808
O O16 0.236044 0.944586 0.741187
O O17 0.277202 0.949461 0.000000
O O18 0.492011 0.112577 0.500000
O O19 0.500000 0.000000 0.677353
O O20 0.810752 0.101328 0.500000
O O21 0.666160 0.354577 0.000000
#
# Coordination Sequence:
#
# PCOD9442004 Si02
#       8
#     8   8   8   8   8   8   8   8
#     4  10  21  35  54  83 114 143 178 226 280 330
#     4  10  20  34  55  80 106 145 187 220 266 329
#     4   9  19  36  58  83 111 144 187 236 280 330
#     4  10  21  36  54  76 108 148 184 217 262 326
#     4  10  19  33  54  79 107 143 182 219 266 325
#     4  11  23  36  52  78 110 144 181 223 271 319
#     4  10  20  34  56  84 110 140 180 229 284 328
#     4  10  20  36  59  84 108 142 187 233 278 327
#
# _framework density 18.229821000000001
#
# number of rings (size 3 to 8) (size 9 to 14) (size 15 to 20)
#    0.000    2.000    2.500    1.125    0.000    3.500 
#    0.000    3.750    0.000    1.500    0.000    0.000 
#    0.000    0.000    0.000    0.000    0.000    0.000 
#
# Total GULP energy -356918.354062 kJ/mol
# GULP energy per Si atom -5576.849282 kJ/mol
# Density = 1.818833 g / cm^3
# Si number density = 18.229821 Si / 1000 Ang^3
#
#
#
# Elastic Constant Matrix: (Units=GPa)
#
#
# Indices 1 2 3 4 5 6 
#
# 1 109.3835 40.9141 51.4148 0.0000 0.0000 0.0000
# 2 40.9141 74.9765 23.4488 0.0000 0.0000 0.0000
# 3 51.4148 23.4488 48.2544 0.0000 0.0000 0.0000
# 4 0.0000 0.0000 0.0000 17.0345 0.0000 0.0000
# 5 0.0000 0.0000 0.0000 0.0000 25.1727 0.0000
# 6 0.0000 0.0000 0.0000 0.0000 0.0000 21.0602
#
#
#
# Elastic Compliance Matrix: (Units=1/GPa)
#
#
# Indices 1 2 3 4 5 6 
#
# 1 0.019759 -0.004950 -0.018647 0.000000 0.000000 0.000000
# 2 -0.004950 0.016968 -0.002971 0.000000 0.000000 0.000000
# 3 -0.018647 -0.002971 0.042036 0.000000 0.000000 0.000000
# 4 0.000000 0.000000 0.000000 0.058704 0.000000 0.000000
# 5 0.000000 0.000000 0.000000 0.000000 0.039726 0.000000
# 6 0.000000 0.000000 0.000000 0.000000 0.000000 0.047483
#
#
# Mechanical properties :
#
#
# Convention : Reuss Voigt Hill
#
# Bulk Modulus (GPa) = 39.02362 51.57441 45.29902
# Shear Modulus (GPa) = 17.46089 20.44261 18.95175
#
# Velocity S-wave (km/s) = 3.09822 3.35234 3.22778
# Velocity P-wave (km/s) = 5.85249 6.58308 6.22850
#
# Compressibility (1/GPa) = 0.02562550
#
# Stress axis : x y z
#
# Youngs Moduli (GPa) = 50.61042 58.93450 23.78923
#
# Poissons Ratio (x) = 0.29174 0.44361
# Poissons Ratio (y) = 0.25054 0.07068
# Poissons Ratio (z) = 0.94375 0.17509
#
# Static dielectric constant tensor:
#      x y z
#    x 1.613350 0.000000 0.000000 
#    y 0.000000 1.659740 0.000000 
#    z 0.000000 0.000000 1.617980 
# 
# From -- ./inp_files/9221.got.cif
#   From: 2010.05.17/outbox.cif.g08.bks.cpg/sg58_5_cif.got.tgz:9221.got - 2010.06.03 14:20:14.
