data_PCOD9442427
_publ_section_title
;
Structure prediction by ZEFSAII (Michael W. Deem and Ramdas Pophale) SiO2 
 PCOD9442427
Probable space group: P N N M
;
_chemical_formula_sum "Si O2"
_cell_formula_units_Z 48
_cell_length_a 18.016224
_cell_length_b 16.862847
_cell_length_c 9.036778
_cell_angle_alpha 90.000000
_cell_angle_beta 90.000000
_cell_angle_gamma 90.000000
_cell_volume 2745.416793
_symmetry_space_group_name_H-M "P N N M"
_symmetry_group_IT_number 58
_symmetry_cell_setting 'orthorhombic'
loop_
_space_group_symop_operation_xyz
x,y,z
-x,-y,z
1/2+x,1/2-y,1/2-z
1/2-x,1/2+y,1/2-z
-x,-y,-z
x,y,-z
1/2-x,1/2+y,1/2+z
1/2+x,1/2-y,1/2+z
loop_
_atom_site_type_symbol
_atom_site_label
_atom_site_fract_x
_atom_site_fract_y
_atom_site_fract_z
Si Si1 0.484777 0.909103 0.322535
Si Si2 0.911913 0.998436 0.675418
Si Si3 0.602554 0.316506 0.825778
Si Si4 0.671294 0.643280 0.324055
Si Si5 0.327311 0.830691 0.675466
Si Si6 0.558203 0.760249 0.175150
O O1 0.495261 0.901057 0.500000
O O2 0.399870 0.883892 0.289772
O O3 0.537292 0.845885 0.241064
O O4 0.500000 0.000000 0.281369
O O5 0.901450 0.015428 0.500000
O O6 0.870233 0.064248 0.769004
O O7 0.885587 0.908891 0.705212
O O8 0.000000 0.000000 0.703505
O O9 0.650477 0.257621 0.726938
O O10 0.515984 0.293515 0.802898
O O11 0.618158 0.302052 0.000000
O O12 0.671215 0.648352 0.500000
O O13 0.754343 0.643048 0.261124
O O14 0.625816 0.717185 0.255867
O O15 0.314504 0.833717 0.500000
O O16 0.572043 0.764947 0.000000
#
# Coordination Sequence:
#
# PCOD9442427 Si02
#       6
#     8   8   8   8   8   8
#     4   9  19  38  62  87 113 146 190 237 284 339
#     4  10  19  36  60  86 116 151 188 227 283 345
#     4   9  18  35  59  83 110 146 184 225 277 341
#     4  12  24  37  55  83 118 152 192 239 286 334
#     4  10  21  38  59  81 112 151 189 234 288 340
#     4  10  19  35  59  84 111 147 188 230 282 338
#
# _framework density 17.483685000000001
#
# number of rings (size 3 to 8) (size 9 to 14) (size 15 to 20)
#    0.000    2.000    1.667    2.500    0.000    2.667 
#    3.000    0.000    0.000    0.000    0.000    0.000 
#    0.000    0.000    0.000    0.000    0.000    0.000 
#
# Total GULP energy -268019.777018 kJ/mol
# GULP energy per Si atom -5583.745355 kJ/mol
# Density = 1.744389 g / cm^3
# Si number density = 17.483685 Si / 1000 Ang^3
#
#
#
# Elastic Constant Matrix: (Units=GPa)
#
#
# Indices 1 2 3 4 5 6 
#
# 1 85.6028 63.2948 67.9227 0.0000 0.0000 0.0000
# 2 63.2948 134.6140 73.9965 0.0000 0.0000 0.0000
# 3 67.9227 73.9965 92.9739 0.0000 0.0000 0.0000
# 4 0.0000 0.0000 0.0000 32.9893 0.0000 0.0000
# 5 0.0000 0.0000 0.0000 0.0000 25.5341 0.0000
# 6 0.0000 0.0000 0.0000 0.0000 0.0000 13.2637
#
#
#
# Elastic Compliance Matrix: (Units=1/GPa)
#
#
# Indices 1 2 3 4 5 6 
#
# 1 0.028690 -0.003500 -0.018175 0.000000 0.000000 0.000000
# 2 -0.003500 0.013633 -0.008294 0.000000 0.000000 0.000000
# 3 -0.018175 -0.008294 0.030634 0.000000 0.000000 0.000000
# 4 0.000000 0.000000 0.000000 0.030313 0.000000 0.000000
# 5 0.000000 0.000000 0.000000 0.000000 0.039163 0.000000
# 6 0.000000 0.000000 0.000000 0.000000 0.000000 0.075394
#
#
# Mechanical properties :
#
#
# Convention : Reuss Voigt Hill
#
# Bulk Modulus (GPa) = 76.79494 80.40208 78.59851
# Shear Modulus (GPa) = 17.72388 21.55584 19.63986
#
# Velocity S-wave (km/s) = 3.18738 3.51509 3.35524
# Velocity P-wave (km/s) = 7.58716 7.90957 7.75004
#
# Compressibility (1/GPa) = 0.01302169
#
# Stress axis : x y z
#
# Youngs Moduli (GPa) = 34.85477 73.35041 32.64301
#
# Poissons Ratio (x) = 0.25669 0.59328
# Poissons Ratio (y) = 0.12197 0.27074
# Poissons Ratio (z) = 0.63348 0.60836
#
# Static dielectric constant tensor:
#      x y z
#    x 1.575820 0.000000 0.000000 
#    y 0.000000 1.581280 0.000000 
#    z 0.000000 0.000000 1.580550 
# 
# From -- ./inp_files/5868.got.cif
#   From: 2010.05.17/outbox.cif.g08.bks.cpg/sg58_3_cif.got.tgz:5868.got - 2010.06.03 14:20:14.
