data_PCOD9442920
_publ_section_title
;
Structure prediction by ZEFSAII (Michael W. Deem and Ramdas Pophale) SiO2 
 PCOD9442920
Probable space group: P N N M
;
_chemical_formula_sum "Si O2"
_cell_formula_units_Z 56
_cell_length_a 14.265338
_cell_length_b 18.681347
_cell_length_c 9.484151
_cell_angle_alpha 90.000000
_cell_angle_beta 90.000000
_cell_angle_gamma 90.000000
_cell_volume 2527.485737
_symmetry_space_group_name_H-M "P N N M"
_symmetry_group_IT_number 58
_symmetry_cell_setting 'orthorhombic'
loop_
_space_group_symop_operation_xyz
x,y,z
-x,-y,z
1/2+x,1/2-y,1/2-z
1/2-x,1/2+y,1/2-z
-x,-y,-z
x,y,-z
1/2-x,1/2+y,1/2+z
1/2+x,1/2-y,1/2+z
loop_
_atom_site_type_symbol
_atom_site_label
_atom_site_fract_x
_atom_site_fract_y
_atom_site_fract_z
Si Si1 0.166263 0.984133 0.663597
Si Si2 0.565854 0.789459 0.161811
Si Si3 0.530259 0.920943 0.340443
Si Si4 0.839768 0.740698 0.657449
Si Si5 0.086110 0.849956 0.837664
Si Si6 0.637844 0.373383 0.659321
Si Si7 0.682424 0.118556 0.651679
O O1 0.136409 0.989981 0.500000
O O2 0.117941 0.917133 0.742191
O O3 0.274917 0.960059 0.666458
O O4 0.151214 0.056250 0.747647
O O5 0.582334 0.866856 0.235194
O O6 0.452669 0.773710 0.154261
O O7 0.603805 0.725464 0.259546
O O8 0.599409 0.787527 0.000000
O O9 0.570801 0.926544 0.500000
O O10 0.428577 0.884125 0.356710
O O11 0.500000 0.000000 0.288754
O O12 0.809851 0.758269 0.500000
O O13 0.819110 0.804895 0.763540
O O14 0.794491 0.668676 0.718051
O O15 0.973272 0.857915 0.846481
O O16 0.120258 0.852880 0.000000
O O17 0.672221 0.383175 0.500000
O O18 0.718649 0.146478 0.500000
#
# Coordination Sequence:
#
# PCOD9442920 Si02
#       7
#     8   8   8   8   8   8   8
#     4  11  22  34  50  74 106 139 170 211 261 310
#     4   9  17  30  50  76 102 127 161 206 253 300
#     4   9  17  32  55  78 100 131 171 213 256 303
#     4   9  17  31  53  76  96 125 166 207 247 297
#     4  10  20  34  52  74 101 135 174 213 255 306
#     4  10  20  34  53  76 102 134 173 214 254 301
#     4   9  19  35  52  73 102 134 168 207 255 307
#
# _framework density 22.156406
#
# number of rings (size 3 to 8) (size 9 to 14) (size 15 to 20)
#    0.000    2.429    0.000    2.571    0.000    8.286 
#    0.000    1.429    0.000    5.143    0.000    0.000 
#    0.000    0.000    0.000    0.000    0.000    0.000 
#
# Total GULP energy -312626.342706 kJ/mol
# GULP energy per Si atom -5582.613263 kJ/mol
# Density = 2.210598 g / cm^3
# Si number density = 22.156406 Si / 1000 Ang^3
#
#
#
# Elastic Constant Matrix: (Units=GPa)
#
#
# Indices 1 2 3 4 5 6 
#
# 1 24.1495 -16.6645 1.8136 0.0000 0.0000 0.0000
# 2 -16.6645 137.5985 88.9639 0.0000 0.0000 0.0000
# 3 1.8136 88.9639 192.8164 0.0000 0.0000 0.0000
# 4 0.0000 0.0000 0.0000 36.9142 0.0000 0.0000
# 5 0.0000 0.0000 0.0000 0.0000 15.0621 0.0000
# 6 0.0000 0.0000 0.0000 0.0000 0.0000 20.1160
#
#
#
# Elastic Compliance Matrix: (Units=1/GPa)
#
#
# Indices 1 2 3 4 5 6 
#
# 1 0.047710 0.008648 -0.004439 0.000000 0.000000 0.000000
# 2 0.008648 0.011925 -0.005583 0.000000 0.000000 0.000000
# 3 -0.004439 -0.005583 0.007804 0.000000 0.000000 0.000000
# 4 0.000000 0.000000 0.000000 0.027090 0.000000 0.000000
# 5 0.000000 0.000000 0.000000 0.000000 0.066392 0.000000
# 6 0.000000 0.000000 0.000000 0.000000 0.000000 0.049712
#
#
# Mechanical properties :
#
#
# Convention : Reuss Voigt Hill
#
# Bulk Modulus (GPa) = 15.45827 55.86561 35.66194
# Shear Modulus (GPa) = 21.28169 33.11521 27.19845
#
# Velocity S-wave (km/s) = 3.10259 3.87021 3.50746
# Velocity P-wave (km/s) = 4.45273 6.72609 5.70382
#
# Compressibility (1/GPa) = 0.06469028
#
# Stress axis : x y z
#
# Youngs Moduli (GPa) = 20.96008 83.85914 128.13724
#
# Poissons Ratio (x) = -0.72522 0.56879
# Poissons Ratio (y) = -0.18126 0.71543
# Poissons Ratio (z) = 0.09304 0.46821
#
# Static dielectric constant tensor:
#      x y z
#    x 1.901660 0.000000 0.000000 
#    y 0.000000 1.762930 0.000000 
#    z 0.000000 0.000000 1.802710 
# 
# From -- ./inp_files/9186.got.cif
#   From: 2010.05.17/outbox.cif.g08.bks.cpg/sg58_5_cif.got.tgz:9186.got - 2010.06.03 14:20:14.
