data_PCOD9442278
_publ_section_title
;
Structure prediction by ZEFSAII (Michael W. Deem and Ramdas Pophale) SiO2 
 PCOD9442278
Probable space group: P N N M
;
_chemical_formula_sum "Si O2"
_cell_formula_units_Z 56
_cell_length_a 14.880683
_cell_length_b 22.728906
_cell_length_c 8.764565
_cell_angle_alpha 90.000000
_cell_angle_beta 90.000000
_cell_angle_gamma 90.000000
_cell_volume 2964.365593
_symmetry_space_group_name_H-M "P N N M"
_symmetry_group_IT_number 58
_symmetry_cell_setting 'orthorhombic'
loop_
_space_group_symop_operation_xyz
x,y,z
-x,-y,z
1/2+x,1/2-y,1/2-z
1/2-x,1/2+y,1/2-z
-x,-y,-z
x,y,-z
1/2-x,1/2+y,1/2+z
1/2+x,1/2-y,1/2+z
loop_
_atom_site_type_symbol
_atom_site_label
_atom_site_fract_x
_atom_site_fract_y
_atom_site_fract_z
Si Si1 0.103123 0.498762 0.814074
Si Si2 0.713764 0.116342 0.682267
Si Si3 0.900213 0.720688 0.681275
Si Si4 0.722000 0.889668 0.683810
Si Si5 0.104212 0.854180 0.817517
Si Si6 0.407490 0.216130 0.316974
Si Si7 0.098922 0.149036 0.182580
O O1 0.155204 0.439822 0.767886
O O2 0.159295 0.556144 0.767792
O O3 0.000000 0.500000 0.761129
O O4 0.100873 0.499208 0.000000
O O5 0.708254 0.121013 0.500000
O O6 0.671369 0.174494 0.756138
O O7 0.816853 0.111772 0.733606
O O8 0.894173 0.724385 0.500000
O O9 0.887296 0.785441 0.751182
O O10 0.999561 0.700724 0.734158
O O11 0.730486 0.890963 0.500000
O O12 0.670881 0.829022 0.724678
O O13 0.820283 0.890313 0.756146
O O14 0.114056 0.784205 0.783402
O O15 0.002124 0.870324 0.773542
O O16 0.113726 0.861168 0.000000
O O17 0.422364 0.211652 0.500000
O O18 0.101201 0.152452 0.000000
#
# Coordination Sequence:
#
# PCOD9442278 Si02
#       7
#     8   8   8   8   8   8   8
#     4   9  19  36  57  81 109 142 179 218 263 316
#     4  11  21  34  55  80 107 143 185 226 268 316
#     4  11  21  33  53  81 112 144 178 220 270 323
#     4  10  19  34  58  83 109 143 182 224 268 316
#     4   9  19  35  53  77 109 141 176 221 272 324
#     4   9  18  33  54  80 109 141 176 217 269 325
#     4  10  21  37  56  79 109 142 177 220 270 325
#
# _framework density 18.891057
#
# number of rings (size 3 to 8) (size 9 to 14) (size 15 to 20)
#    0.000    2.143    0.000    4.714    0.000    6.857 
#    0.000    2.143    0.000    7.286    0.000    0.000 
#    0.000    0.000    0.000    0.000    0.000    0.000 
#
# Total GULP energy -312749.605967 kJ/mol
# GULP energy per Si atom -5584.814392 kJ/mol
# Density = 1.884806 g / cm^3
# Si number density = 18.891057 Si / 1000 Ang^3
#
#
#
# Elastic Constant Matrix: (Units=GPa)
#
#
# Indices 1 2 3 4 5 6 
#
# 1 180.7301 66.6371 44.7363 0.0000 0.0000 0.0000
# 2 66.6371 44.6773 18.2430 0.0000 0.0000 0.0000
# 3 44.7363 18.2430 33.1399 0.0000 0.0000 0.0000
# 4 0.0000 0.0000 0.0000 10.6488 0.0000 0.0000
# 5 0.0000 0.0000 0.0000 0.0000 35.3127 0.0000
# 6 0.0000 0.0000 0.0000 0.0000 0.0000 31.5399
#
#
#
# Elastic Compliance Matrix: (Units=1/GPa)
#
#
# Indices 1 2 3 4 5 6 
#
# 1 0.014413 -0.017482 -0.009833 0.000000 0.000000 0.000000
# 2 -0.017482 0.050078 -0.003968 0.000000 0.000000 0.000000
# 3 -0.009833 -0.003968 0.045632 0.000000 0.000000 0.000000
# 4 0.000000 0.000000 0.000000 0.093908 0.000000 0.000000
# 5 0.000000 0.000000 0.000000 0.000000 0.028318 0.000000
# 6 0.000000 0.000000 0.000000 0.000000 0.000000 0.031706
#
#
# Mechanical properties :
#
#
# Convention : Reuss Voigt Hill
#
# Bulk Modulus (GPa) = 21.02671 57.53112 39.27892
# Shear Modulus (GPa) = 14.59973 24.09566 19.34769
#
# Velocity S-wave (km/s) = 2.78301 3.57530 3.20374
# Velocity P-wave (km/s) = 4.63482 6.89666 5.87561
#
# Compressibility (1/GPa) = 0.04755856
#
# Stress axis : x y z
#
# Youngs Moduli (GPa) = 69.38269 19.96897 21.91422
#
# Poissons Ratio (x) = 0.34910 0.21547
# Poissons Ratio (y) = 1.21295 0.08695
# Poissons Ratio (z) = 0.68221 0.07923
#
# Static dielectric constant tensor:
#      x y z
#    x 1.664660 0.000000 0.000000 
#    y 0.000000 1.638400 0.000000 
#    z 0.000000 0.000000 1.635890 
# 
# From -- ./inp_files/6423.got.cif
#   From: 2010.05.17/outbox.cif.g08.bks.cpg/sg58_4_cif.got.tgz:6423.got - 2010.06.03 14:20:14.
