data_PCOD9442601
_publ_section_title
;
Structure prediction by ZEFSAII (Michael W. Deem and Ramdas Pophale) SiO2 
 PCOD9442601
Probable space group: P N N M
;
_chemical_formula_sum "Si O2"
_cell_formula_units_Z 32
_cell_length_a 7.470544
_cell_length_b 12.302379
_cell_length_c 13.990557
_cell_angle_alpha 90.000000
_cell_angle_beta 90.000000
_cell_angle_gamma 90.000000
_cell_volume 1285.808627
_symmetry_space_group_name_H-M "P N N M"
_symmetry_group_IT_number 58
_symmetry_cell_setting 'orthorhombic'
loop_
_space_group_symop_operation_xyz
x,y,z
-x,-y,z
1/2+x,1/2-y,1/2-z
1/2-x,1/2+y,1/2-z
-x,-y,-z
x,y,-z
1/2-x,1/2+y,1/2+z
1/2+x,1/2-y,1/2+z
loop_
_atom_site_type_symbol
_atom_site_label
_atom_site_fract_x
_atom_site_fract_y
_atom_site_fract_z
Si Si1 0.700978 0.991497 0.650182
Si Si2 0.485802 0.331058 0.174398
Si Si3 0.988158 0.869124 0.101925
Si Si4 0.900995 0.400133 0.358994
O O1 0.805748 0.105522 0.642001
O O2 0.500000 0.000000 0.608293
O O3 0.664862 0.954127 0.759672
O O4 0.851470 0.900494 0.628115
O O5 0.462996 0.331843 0.291104
O O6 0.520976 0.205642 0.152459
O O7 0.776504 0.850834 0.096883
O O8 0.070464 0.831260 0.000000
O O9 0.000000 0.000000 0.104075
O O10 0.000000 0.500000 0.406350
#
# Coordination Sequence:
#
# PCOD9442601 Si02
#       4
#     8   8   8   8
#     4   9  19  32  52  86 112 150 192 240 307 330
#     4  10  19  37  55  84 123 145 203 249 283 361
#     4  10  20  36  56  83 124 158 189 245 310 358
#     4  10  21  33  56  87 115 154 198 240 297 349
#
# _framework density 24.887062
#
# number of rings (size 3 to 8) (size 9 to 14) (size 15 to 20)
#    0.000    2.250    5.000    0.000   14.000    0.500 
#    0.000    0.000    0.000    1.500    0.000    3.500 
#    0.000    1.000    0.000    0.000    0.000    0.000 
#
# Total GULP energy -178154.103865 kJ/mol
# GULP energy per Si atom -5567.315746 kJ/mol
# Density = 2.483042 g / cm^3
# Si number density = 24.887062 Si / 1000 Ang^3
#
#
#
# Elastic Constant Matrix: (Units=GPa)
#
#
# Indices 1 2 3 4 5 6 
#
# 1 145.2165 49.8697 7.3717 0.0000 0.0000 0.0000
# 2 49.8697 193.8370 25.9592 0.0000 0.0000 0.0000
# 3 7.3717 25.9592 62.1723 0.0000 0.0000 0.0000
# 4 0.0000 0.0000 0.0000 -78.1700 0.0000 0.0000
# 5 0.0000 0.0000 0.0000 0.0000 -6.7437 0.0000
# 6 0.0000 0.0000 0.0000 0.0000 0.0000 15.5117
#
#
#
# Elastic Compliance Matrix: (Units=1/GPa)
#
#
# Indices 1 2 3 4 5 6 
#
# 1 0.007554 -0.001932 -0.000089 0.000000 0.000000 0.000000
# 2 -0.001932 0.005958 -0.002259 0.000000 0.000000 0.000000
# 3 -0.000089 -0.002259 0.017038 0.000000 0.000000 0.000000
# 4 0.000000 0.000000 0.000000 -0.012793 0.000000 0.000000
# 5 0.000000 0.000000 0.000000 0.000000 -0.148288 0.000000
# 6 0.000000 0.000000 0.000000 0.000000 0.000000 0.064467
#
#
# Mechanical properties :
#
#
# Convention : Reuss Voigt Hill
#
# Bulk Modulus (GPa) = 45.47220 63.06966 54.27093
# Shear Modulus (GPa) = -99.65626 7.32129 -46.16748
#
# Velocity S-wave (km/s) = -6.33485 1.71703 -4.31174
# Velocity P-wave (km/s) = 5.93262 5.41556 1.71285
#
# Compressibility (1/GPa) = 0.02199146
#
# Stress axis : x y z
#
# Youngs Moduli (GPa) = 132.37798 167.82946 58.69208
#
# Poissons Ratio (x) = 0.32417 0.00523
# Poissons Ratio (y) = 0.25570 0.13258
# Poissons Ratio (z) = 0.01181 0.37910
#
# Static dielectric constant tensor:
#      x y z
#    x 2.108620 0.000000 0.000000 
#    y 0.000000 2.032920 0.000000 
#    z 0.000000 0.000000 2.040310 
# 
# From -- ./inp_files/19179.got.cif
#   From: 2010.05.17/outbox.cif.g08.bks.cpg/sg58_10_cif.got.tgz:19179.got - 2010.06.03 14:20:14.
