data_PCOD9442195
_publ_section_title
;
Structure prediction by ZEFSAII (Michael W. Deem and Ramdas Pophale) SiO2 
 PCOD9442195
Probable space group: P N N M
;
_chemical_formula_sum "Si O2"
_cell_formula_units_Z 56
_cell_length_a 21.276318
_cell_length_b 14.878275
_cell_length_c 9.861869
_cell_angle_alpha 90.000000
_cell_angle_beta 90.000000
_cell_angle_gamma 90.000000
_cell_volume 3121.823056
_symmetry_space_group_name_H-M "P N N M"
_symmetry_group_IT_number 58
_symmetry_cell_setting 'orthorhombic'
loop_
_space_group_symop_operation_xyz
x,y,z
-x,-y,z
1/2+x,1/2-y,1/2-z
1/2-x,1/2+y,1/2-z
-x,-y,-z
x,y,-z
1/2-x,1/2+y,1/2+z
1/2+x,1/2-y,1/2+z
loop_
_atom_site_type_symbol
_atom_site_label
_atom_site_fract_x
_atom_site_fract_y
_atom_site_fract_z
Si Si1 0.057156 0.071005 0.655750
Si Si2 0.333965 0.833653 0.660376
Si Si3 0.032414 0.242762 0.839700
Si Si4 0.866309 0.046669 0.150597
Si Si5 0.277237 0.980991 0.845296
Si Si6 0.723530 0.807666 0.837936
Si Si7 0.894027 0.251627 0.843750
O O1 0.071813 0.092977 0.500000
O O2 0.039528 0.157689 0.742318
O O3 0.112941 0.020618 0.733435
O O4 0.000000 0.000000 0.657186
O O5 0.325394 0.849824 0.500000
O O6 0.405475 0.802081 0.681889
O O7 0.318748 0.922997 0.744103
O O8 0.284050 0.754114 0.698296
O O9 0.964163 0.286982 0.812864
O O10 0.031811 0.216797 0.000000
O O11 0.792094 0.062020 0.157108
O O12 0.898831 0.143111 0.163549
O O13 0.880948 0.009095 0.000000
O O14 0.267472 0.086090 0.812351
O O15 0.301286 0.975631 0.000000
O O16 0.661389 0.779663 0.756216
O O17 0.714110 0.796464 0.000000
O O18 0.877883 0.274421 0.000000
#
# Coordination Sequence:
#
# PCOD9442195 Si02
#       7
#     8   8   8   8   8   8   8
#     4  11  22  32  48  80 116 146 181 226 278 338
#     4  10  21  38  60  85 113 147 187 235 285 335
#     4  10  21  38  57  79 112 152 191 231 284 340
#     4  10  19  34  56  79 108 147 187 228 278 338
#     4  10  21  38  59  84 113 147 189 235 285 341
#     4  10  21  37  58  83 115 150 183 229 288 339
#     4  10  20  35  58  83 107 145 191 233 274 329
#
# _framework density 17.938234999999999
#
# number of rings (size 3 to 8) (size 9 to 14) (size 15 to 20)
#    0.000    1.857    2.857    1.286    0.000    5.714 
#    0.000    2.143    0.000    4.286    0.000    0.000 
#    0.000    0.000    0.000    0.000    0.000    0.000 
#
# Total GULP energy -312322.254035 kJ/mol
# GULP energy per Si atom -5577.183108 kJ/mol
# Density = 1.789741 g / cm^3
# Si number density = 17.938235 Si / 1000 Ang^3
#
#
#
# Elastic Constant Matrix: (Units=GPa)
#
#
# Indices 1 2 3 4 5 6 
#
# 1 94.7698 6.9699 29.4935 0.0000 0.0000 0.0000
# 2 6.9699 31.9916 13.7245 0.0000 0.0000 0.0000
# 3 29.4935 13.7245 46.6058 0.0000 0.0000 0.0000
# 4 0.0000 0.0000 0.0000 29.1402 0.0000 0.0000
# 5 0.0000 0.0000 0.0000 0.0000 21.0892 0.0000
# 6 0.0000 0.0000 0.0000 0.0000 0.0000 25.1347
#
#
#
# Elastic Compliance Matrix: (Units=1/GPa)
#
#
# Indices 1 2 3 4 5 6 
#
# 1 0.013158 0.000808 -0.008565 0.000000 0.000000 0.000000
# 2 0.000808 0.035828 -0.011062 0.000000 0.000000 0.000000
# 3 -0.008565 -0.011062 0.030134 0.000000 0.000000 0.000000
# 4 0.000000 0.000000 0.000000 0.034317 0.000000 0.000000
# 5 0.000000 0.000000 0.000000 0.000000 0.047418 0.000000
# 6 0.000000 0.000000 0.000000 0.000000 0.000000 0.039786
#
#
# Mechanical properties :
#
#
# Convention : Reuss Voigt Hill
#
# Bulk Modulus (GPa) = 24.10664 30.41590 27.26127
# Shear Modulus (GPa) = 19.83307 23.28477 21.55892
#
# Velocity S-wave (km/s) = 3.32871 3.60676 3.47052
# Velocity P-wave (km/s) = 5.31428 5.85983 5.59371
#
# Compressibility (1/GPa) = 0.04148234
#
# Stress axis : x y z
#
# Youngs Moduli (GPa) = 76.00013 27.91131 33.18525
#
# Poissons Ratio (x) = -0.02254 0.28422
# Poissons Ratio (y) = -0.06137 0.36708
# Poissons Ratio (z) = 0.65090 0.30874
#
# Static dielectric constant tensor:
#      x y z
#    x 1.631750 0.000000 0.000000 
#    y 0.000000 1.614730 0.000000 
#    z 0.000000 0.000000 1.610810 
# 
# From -- ./inp_files/6259.got.cif
#   From: 2010.05.17/outbox.cif.g08.bks.cpg/sg58_4_cif.got.tgz:6259.got - 2010.06.03 14:20:14.
