data_PCOD9442323
_publ_section_title
;
Structure prediction by ZEFSAII (Michael W. Deem and Ramdas Pophale) SiO2 
 PCOD9442323
Probable space group: P N N M
;
_chemical_formula_sum "Si O2"
_cell_formula_units_Z 32
_cell_length_a 10.129963
_cell_length_b 9.179375
_cell_length_c 15.007116
_cell_angle_alpha 90.000000
_cell_angle_beta 90.000000
_cell_angle_gamma 90.000000
_cell_volume 1395.462630
_symmetry_space_group_name_H-M "P N N M"
_symmetry_group_IT_number 58
_symmetry_cell_setting 'orthorhombic'
loop_
_space_group_symop_operation_xyz
x,y,z
-x,-y,z
1/2+x,1/2-y,1/2-z
1/2-x,1/2+y,1/2-z
-x,-y,-z
x,y,-z
1/2-x,1/2+y,1/2+z
1/2+x,1/2-y,1/2+z
loop_
_atom_site_type_symbol
_atom_site_label
_atom_site_fract_x
_atom_site_fract_y
_atom_site_fract_z
Si Si1 0.244940 0.955021 0.000000
Si Si2 0.765637 0.477158 0.854401
Si Si3 0.500000 0.000000 0.780171
Si Si4 0.567825 0.243626 0.103518
Si Si5 0.239619 0.298163 0.000000
Si Si6 0.428049 0.203167 0.500000
O O1 0.322019 0.881642 0.917626
O O2 0.105145 0.874258 0.000000
O O3 0.258240 0.126232 0.000000
O O4 0.636365 0.375417 0.843643
O O5 0.866785 0.523901 0.777935
O O6 0.716931 0.614839 0.912025
O O7 0.857733 0.374976 0.917158
O O8 0.527488 0.853179 0.836784
O O9 0.530127 0.285280 0.000000
O O10 0.081477 0.320987 0.000000
#
# Coordination Sequence:
#
# PCOD9442323 Si02
#       6
#     4   8   4   8   4   4
#     4   8  19  31  55  82 114 161 196 238 284 385
#     4  10  19  34  60  88 111 157 207 255 294 367
#     4  12  21  35  66  88 120 162 204 257 311 342
#     4   9  21  41  57  83 122 162 201 237 305 383
#     4  11  15  31  61  85 115 153 202 248 317 346
#     4   9  15  33  52  82 117 150 199 242 309 355
#
# _framework density 22.931463000000001
#
# number of rings (size 3 to 8) (size 9 to 14) (size 15 to 20)
#    0.750    1.500    5.000    1.500    0.000    2.000 
#    0.000    0.000    0.000    6.000    0.000    0.000 
#    0.000    0.000    0.000    0.000    0.000    0.000 
#
# Total GULP energy -178363.268704 kJ/mol
# GULP energy per Si atom -5573.852147 kJ/mol
# Density = 2.287927 g / cm^3
# Si number density = 22.931463 Si / 1000 Ang^3
#
#
#
# Elastic Constant Matrix: (Units=GPa)
#
#
# Indices 1 2 3 4 5 6 
#
# 1 33.6780 30.1535 21.1793 0.0000 0.0000 0.0000
# 2 30.1535 173.6843 24.9088 0.0000 0.0000 0.0000
# 3 21.1793 24.9088 77.8544 0.0000 0.0000 0.0000
# 4 0.0000 0.0000 0.0000 16.3543 0.0000 0.0000
# 5 0.0000 0.0000 0.0000 0.0000 27.7932 0.0000
# 6 0.0000 0.0000 0.0000 0.0000 0.0000 47.4282
#
#
#
# Elastic Compliance Matrix: (Units=1/GPa)
#
#
# Indices 1 2 3 4 5 6 
#
# 1 0.040620 -0.005730 -0.009217 0.000000 0.000000 0.000000
# 2 -0.005730 0.006843 -0.000630 0.000000 0.000000 0.000000
# 3 -0.009217 -0.000630 0.015553 0.000000 0.000000 0.000000
# 4 0.000000 0.000000 0.000000 0.061146 0.000000 0.000000
# 5 0.000000 0.000000 0.000000 0.000000 0.035980 0.000000
# 6 0.000000 0.000000 0.000000 0.000000 0.000000 0.021085
#
#
# Mechanical properties :
#
#
# Convention : Reuss Voigt Hill
#
# Bulk Modulus (GPa) = 31.38617 48.63331 40.00974
# Shear Modulus (GPa) = 22.42133 32.24680 27.33406
#
# Velocity S-wave (km/s) = 3.13030 3.75404 3.45627
# Velocity P-wave (km/s) = 5.17510 6.32807 5.78041
#
# Compressibility (1/GPa) = 0.03186117
#
# Stress axis : x y z
#
# Youngs Moduli (GPa) = 24.61860 146.13867 64.29423
#
# Poissons Ratio (x) = 0.83740 0.59258
# Poissons Ratio (y) = 0.14107 0.04054
# Poissons Ratio (z) = 0.22690 0.09213
#
# Static dielectric constant tensor:
#      x y z
#    x 1.965820 0.000000 0.000000 
#    y 0.000000 1.882370 0.000000 
#    z 0.000000 0.000000 1.923240 
# 
# From -- ./inp_files/26621.got.cif
#   From: 2010.05.17/outbox.cif.g08.bks.cpg/sg58_14_cif.got.tgz:26621.got - 2010.06.03 14:20:14.
