data_PCOD9442581
_publ_section_title
;
Structure prediction by ZEFSAII (Michael W. Deem and Ramdas Pophale) SiO2 
 PCOD9442581
Probable space group: P N N M
;
_chemical_formula_sum "Si O2"
_cell_formula_units_Z 56
_cell_length_a 14.680102
_cell_length_b 21.014732
_cell_length_c 9.432637
_cell_angle_alpha 90.000000
_cell_angle_beta 90.000000
_cell_angle_gamma 90.000000
_cell_volume 2909.953510
_symmetry_space_group_name_H-M "P N N M"
_symmetry_group_IT_number 58
_symmetry_cell_setting 'orthorhombic'
loop_
_space_group_symop_operation_xyz
x,y,z
-x,-y,z
1/2+x,1/2-y,1/2-z
1/2-x,1/2+y,1/2-z
-x,-y,-z
x,y,-z
1/2-x,1/2+y,1/2+z
1/2+x,1/2-y,1/2+z
loop_
_atom_site_type_symbol
_atom_site_label
_atom_site_fract_x
_atom_site_fract_y
_atom_site_fract_z
Si Si1 0.385737 0.929215 0.666287
Si Si2 0.894210 0.980316 0.336099
Si Si3 0.793495 0.087098 0.830757
Si Si4 0.910099 0.190350 0.665393
Si Si5 0.905046 0.418627 0.834188
Si Si6 0.791864 0.317075 0.335939
Si Si7 0.116604 0.171698 0.334159
O O1 0.367089 0.915449 0.500000
O O2 0.306875 0.902779 0.765604
O O3 0.488351 0.906612 0.699239
O O4 0.387923 0.006032 0.681967
O O5 0.868489 0.995002 0.500000
O O6 0.885283 0.904926 0.316026
O O7 0.831944 0.020487 0.230657
O O8 0.000000 0.000000 0.318201
O O9 0.860406 0.139912 0.765106
O O10 0.792774 0.087941 0.000000
O O11 0.906382 0.168000 0.500000
O O12 0.859029 0.257145 0.674752
O O13 0.016213 0.196220 0.702584
O O14 0.838857 0.376588 0.740661
O O15 0.890419 0.403448 0.000000
O O16 0.776018 0.331594 0.500000
O O17 0.697169 0.301395 0.260062
O O18 0.133836 0.184851 0.500000
#
# Coordination Sequence:
#
# PCOD9442581 Si02
#       7
#     8   8   8   8   8   8   8
#     4   9  19  37  61  86 116 155 196 235 279 346
#     4  10  19  36  62  86 113 157 198 235 289 355
#     4  12  24  35  55  90 124 151 186 245 304 349
#     4  10  23  44  61  78 111 159 204 237 279 348
#     4   9  19  38  62  86 113 153 201 238 276 340
#     4  11  24  39  60  88 120 153 191 246 302 347
#     4  10  21  40  65  86 112 155 203 241 283 351
#
# _framework density 19.244292999999999
#
# number of rings (size 3 to 8) (size 9 to 14) (size 15 to 20)
#    0.000    1.857    1.429    3.429    0.000    8.286 
#    0.000    4.286    0.000    0.000    0.000    0.000 
#    0.000    0.000    0.000    0.000    0.000    0.000 
#
# Total GULP energy -313038.298423 kJ/mol
# GULP energy per Si atom -5589.969615 kJ/mol
# Density = 1.920049 g / cm^3
# Si number density = 19.244293 Si / 1000 Ang^3
#
#
#
# Elastic Constant Matrix: (Units=GPa)
#
#
# Indices 1 2 3 4 5 6 
#
# 1 144.9719 26.7584 89.5326 0.0000 0.0000 0.0000
# 2 26.7584 19.6101 24.5473 0.0000 0.0000 0.0000
# 3 89.5326 24.5473 98.7466 0.0000 0.0000 0.0000
# 4 0.0000 0.0000 0.0000 5.6667 0.0000 0.0000
# 5 0.0000 0.0000 0.0000 0.0000 11.8987 0.0000
# 6 0.0000 0.0000 0.0000 0.0000 0.0000 14.2396
#
#
#
# Elastic Compliance Matrix: (Units=1/GPa)
#
#
# Indices 1 2 3 4 5 6 
#
# 1 0.016053 -0.005350 -0.013225 0.000000 0.000000 0.000000
# 2 -0.005350 0.075814 -0.013996 0.000000 0.000000 0.000000
# 3 -0.013225 -0.013996 0.025597 0.000000 0.000000 0.000000
# 4 0.000000 0.000000 0.000000 0.176469 0.000000 0.000000
# 5 0.000000 0.000000 0.000000 0.000000 0.084043 0.000000
# 6 0.000000 0.000000 0.000000 0.000000 0.000000 0.070226
#
#
# Mechanical properties :
#
#
# Convention : Reuss Voigt Hill
#
# Bulk Modulus (GPa) = 19.11227 60.55614 39.83420
# Shear Modulus (GPa) = 9.42001 14.52703 11.97352
#
# Velocity S-wave (km/s) = 2.21486 2.75048 2.49707
# Velocity P-wave (km/s) = 4.06125 6.45153 5.39055
#
# Compressibility (1/GPa) = 0.05232241
#
# Stress axis : x y z
#
# Youngs Moduli (GPa) = 62.29338 13.19019 39.06648
#
# Poissons Ratio (x) = 0.07056 0.51666
# Poissons Ratio (y) = 0.33326 0.54677
# Poissons Ratio (z) = 0.82385 0.18461
#
# Static dielectric constant tensor:
#      x y z
#    x 1.676410 0.000000 0.000000 
#    y 0.000000 1.657600 0.000000 
#    z 0.000000 0.000000 1.640140 
# 
# From -- ./inp_files/6459.got.cif
#   From: 2010.05.17/outbox.cif.g08.bks.cpg/sg58_4_cif.got.tgz:6459.got - 2010.06.03 14:20:14.
