data_PCOD9442428
_publ_section_title
;
Structure prediction by ZEFSAII (Michael W. Deem and Ramdas Pophale) SiO2 
 PCOD9442428
Probable space group: P N N M
;
_chemical_formula_sum "Si O2"
_cell_formula_units_Z 48
_cell_length_a 8.579237
_cell_length_b 18.630117
_cell_length_c 15.313744
_cell_angle_alpha 90.000000
_cell_angle_beta 90.000000
_cell_angle_gamma 90.000000
_cell_volume 2447.629227
_symmetry_space_group_name_H-M "P N N M"
_symmetry_group_IT_number 58
_symmetry_cell_setting 'orthorhombic'
loop_
_space_group_symop_operation_xyz
x,y,z
-x,-y,z
1/2+x,1/2-y,1/2-z
1/2-x,1/2+y,1/2-z
-x,-y,-z
x,y,-z
1/2-x,1/2+y,1/2+z
1/2+x,1/2-y,1/2+z
loop_
_atom_site_type_symbol
_atom_site_label
_atom_site_fract_x
_atom_site_fract_y
_atom_site_fract_z
Si Si1 0.043610 0.592382 0.094048
Si Si2 0.483210 0.314785 0.220436
Si Si3 0.688355 0.085942 0.247426
Si Si4 0.941328 0.237625 0.093468
Si Si5 0.414938 0.815897 0.899741
Si Si6 0.347895 0.540647 0.828490
O O1 0.071780 0.677212 0.096547
O O2 0.207023 0.552464 0.105427
O O3 0.935660 0.577496 0.175967
O O4 0.970594 0.576852 0.000000
O O5 0.311958 0.351656 0.224918
O O6 0.521290 0.288223 0.318163
O O7 0.498422 0.248155 0.153545
O O8 0.598502 0.380000 0.198403
O O9 0.599251 0.112912 0.160768
O O10 0.785453 0.011260 0.250065
O O11 0.765585 0.208295 0.094257
O O12 0.014810 0.216730 0.000000
O O13 0.471234 0.825082 0.000000
O O14 0.500000 0.500000 0.864798
#
# Coordination Sequence:
#
# PCOD9442428 Si02
#       6
#     8   8   8   8   8   8
#     4  11  21  36  58  84 116 151 189 237 291 343
#     4  10  19  36  60  84 114 152 196 242 291 343
#     4  10  22  37  55  86 120 154 190 243 291 350
#     4   9  18  33  57  86 112 144 190 240 291 339
#     4  10  19  35  59  84 113 154 198 242 287 342
#     4  10  22  38  58  84 118 157 194 232 291 351
#
# _framework density 19.610813
#
# number of rings (size 3 to 8) (size 9 to 14) (size 15 to 20)
#    0.000    2.000    3.333    0.500    0.000    2.333 
#    0.000    4.167    0.000    7.000    0.000    0.000 
#    0.000    0.000    0.000    0.000    0.000    0.000 
#
# Total GULP energy -267465.881667 kJ/mol
# GULP energy per Si atom -5572.205868 kJ/mol
# Density = 1.956618 g / cm^3
# Si number density = 19.610813 Si / 1000 Ang^3
#
#
#
# Elastic Constant Matrix: (Units=GPa)
#
#
# Indices 1 2 3 4 5 6 
#
# 1 48.8244 19.6255 44.1762 0.0000 0.0000 0.0000
# 2 19.6255 65.0226 33.8636 0.0000 0.0000 0.0000
# 3 44.1762 33.8636 145.9452 0.0000 0.0000 0.0000
# 4 0.0000 0.0000 0.0000 19.9444 0.0000 0.0000
# 5 0.0000 0.0000 0.0000 0.0000 21.0169 0.0000
# 6 0.0000 0.0000 0.0000 0.0000 0.0000 13.2523
#
#
#
# Elastic Compliance Matrix: (Units=1/GPa)
#
#
# Indices 1 2 3 4 5 6 
#
# 1 0.029485 -0.004836 -0.007803 0.000000 0.000000 0.000000
# 2 -0.004836 0.018286 -0.002779 0.000000 0.000000 0.000000
# 3 -0.007803 -0.002779 0.009859 0.000000 0.000000 0.000000
# 4 0.000000 0.000000 0.000000 0.050139 0.000000 0.000000
# 5 0.000000 0.000000 0.000000 0.000000 0.047581 0.000000
# 6 0.000000 0.000000 0.000000 0.000000 0.000000 0.075459
#
#
# Mechanical properties :
#
#
# Convention : Reuss Voigt Hill
#
# Bulk Modulus (GPa) = 37.32104 50.56921 43.94513
# Shear Modulus (GPa) = 18.47907 21.65117 20.06512
#
# Velocity S-wave (km/s) = 3.07300 3.32632 3.20217
# Velocity P-wave (km/s) = 5.62702 6.37141 6.01075
#
# Compressibility (1/GPa) = 0.02679454
#
# Stress axis : x y z
#
# Youngs Moduli (GPa) = 33.91508 54.68603 101.43404
#
# Poissons Ratio (x) = 0.26444 0.79148
# Poissons Ratio (y) = 0.16400 0.28191
# Poissons Ratio (z) = 0.26464 0.15198
#
# Static dielectric constant tensor:
#      x y z
#    x 1.707050 0.000000 0.000000 
#    y 0.000000 1.726060 0.000000 
#    z 0.000000 0.000000 1.704500 
# 
# From -- ./inp_files/19815.got.cif
#   From: 2010.05.17/outbox.cif.g08.bks.cpg/sg58_10_cif.got.tgz:19815.got - 2010.06.03 14:20:14.
