data_PCOD9442015
_publ_section_title
;
Structure prediction by ZEFSAII (Michael W. Deem and Ramdas Pophale) SiO2 
 PCOD9442015
Probable space group: P N N M
;
_chemical_formula_sum "Si O2"
_cell_formula_units_Z 64
_cell_length_a 27.298428
_cell_length_b 13.378412
_cell_length_c 7.568424
_cell_angle_alpha 90.000000
_cell_angle_beta 90.000000
_cell_angle_gamma 90.000000
_cell_volume 2764.061228
_symmetry_space_group_name_H-M "P N N M"
_symmetry_group_IT_number 58
_symmetry_cell_setting 'orthorhombic'
loop_
_space_group_symop_operation_xyz
x,y,z
-x,-y,z
1/2+x,1/2-y,1/2-z
1/2-x,1/2+y,1/2-z
-x,-y,-z
x,y,-z
1/2-x,1/2+y,1/2+z
1/2+x,1/2-y,1/2+z
loop_
_atom_site_type_symbol
_atom_site_label
_atom_site_fract_x
_atom_site_fract_y
_atom_site_fract_z
Si Si1 0.442446 0.314497 0.206158
Si Si2 0.450135 0.745009 0.294342
Si Si3 0.743198 0.876575 0.213735
Si Si4 0.192392 0.944810 0.698016
Si Si5 0.368795 0.146626 0.211270
Si Si6 0.778143 0.670709 0.784734
Si Si7 0.589385 0.473724 0.785479
Si Si8 0.879237 0.579346 0.212837
O O1 0.495712 0.265995 0.217794
O O2 0.401672 0.238364 0.281856
O O3 0.442461 0.429397 0.272817
O O4 0.430594 0.325502 0.000000
O O5 0.456954 0.766604 0.500000
O O6 0.425131 0.635908 0.278471
O O7 0.417018 0.835827 0.221936
O O8 0.687607 0.856475 0.271992
O O9 0.780886 0.787362 0.253393
O O10 0.765657 0.971953 0.305520
O O11 0.742679 0.890978 0.000000
O O12 0.178529 0.911397 0.500000
O O13 0.224256 0.858579 0.785296
O O14 0.143774 0.992949 0.774010
O O15 0.390519 0.035885 0.245554
O O16 0.366876 0.158501 0.000000
O O17 0.824704 0.608807 0.720683
O O18 0.776021 0.661521 0.000000
O O19 0.587596 0.465286 0.000000
O O20 0.877404 0.587775 0.000000
#
# Coordination Sequence:
#
# PCOD9442015 Si02
#       8
#     8   8   8   8   8   8   8   8
#     4  10  22  41  62  85 114 152 196 244 300 352
#     4  11  24  40  60  87 115 151 196 245 301 352
#     4  10  19  33  54  81 113 148 186 230 277 330
#     4  10  19  33  55  82 110 145 186 221 267 334
#     4  10  21  37  59  86 116 151 196 245 289 340
#     4   9  17  32  54  77 108 149 183 217 271 335
#     4  10  21  38  61  88 117 151 193 240 290 353
#     4  10  21  38  58  81 116 157 194 234 288 351
#
# _framework density 23.154335
#
# number of rings (size 3 to 8) (size 9 to 14) (size 15 to 20)
#    0.000    2.000    1.250    2.250    0.000    8.500 
#    0.000    3.750    0.000    3.000    0.000    0.000 
#    0.000    0.000    0.000    0.000    0.000    0.000 
#
# Total GULP energy -357236.725423 kJ/mol
# GULP energy per Si atom -5581.823835 kJ/mol
# Density = 2.310164 g / cm^3
# Si number density = 23.154335 Si / 1000 Ang^3
#
#
#
# Elastic Constant Matrix: (Units=GPa)
#
#
# Indices 1 2 3 4 5 6 
#
# 1 81.3036 10.2439 -1.2311 0.0000 0.0000 0.0000
# 2 10.2439 108.8836 -2.1876 0.0000 0.0000 0.0000
# 3 -1.2311 -2.1876 52.8254 0.0000 0.0000 0.0000
# 4 0.0000 0.0000 0.0000 -24.8120 0.0000 0.0000
# 5 0.0000 0.0000 0.0000 0.0000 3.0919 0.0000
# 6 0.0000 0.0000 0.0000 0.0000 0.0000 41.8840
#
#
#
# Elastic Compliance Matrix: (Units=1/GPa)
#
#
# Indices 1 2 3 4 5 6 
#
# 1 0.012450 -0.001166 0.000242 0.000000 0.000000 0.000000
# 2 -0.001166 0.009301 0.000358 0.000000 0.000000 0.000000
# 3 0.000242 0.000358 0.018951 0.000000 0.000000 0.000000
# 4 0.000000 0.000000 0.000000 -0.040303 0.000000 0.000000
# 5 0.000000 0.000000 0.000000 0.000000 0.323426 0.000000
# 6 0.000000 0.000000 0.000000 0.000000 0.000000 0.023875
#
#
# Mechanical properties :
#
#
# Convention : Reuss Voigt Hill
#
# Bulk Modulus (GPa) = 25.27247 28.51811 26.89529
# Shear Modulus (GPa) = 13.81126 19.77861 16.79493
#
# Velocity S-wave (km/s) = 2.44496 2.92585 2.69615
# Velocity P-wave (km/s) = 4.34844 4.87416 4.61878
#
# Compressibility (1/GPa) = 0.03956875
#
# Stress axis : x y z
#
# Youngs Moduli (GPa) = 80.31992 107.51473 52.76837
#
# Poissons Ratio (x) = 0.12541 -0.01276
# Poissons Ratio (y) = 0.09369 -0.01889
# Poissons Ratio (z) = -0.01943 -0.03849
#
# Static dielectric constant tensor:
#      x y z
#    x 1.865090 0.000000 0.000000 
#    y 0.000000 1.870490 0.000000 
#    z 0.000000 0.000000 1.886050 
# 
# From -- ./inp_files/10019.got.cif
#   From: 2010.05.17/outbox.cif.g08.bks.cpg/sg58_6_cif.got.tgz:10019.got - 2010.06.03 14:20:14.
