data_PCOD9442959
_publ_section_title
;
Structure prediction by ZEFSAII (Michael W. Deem and Ramdas Pophale) SiO2 
 PCOD9442959
Probable space group: P N N M
;
_chemical_formula_sum "Si O2"
_cell_formula_units_Z 64
_cell_length_a 21.040209
_cell_length_b 19.035906
_cell_length_c 7.661548
_cell_angle_alpha 90.000000
_cell_angle_beta 90.000000
_cell_angle_gamma 90.000000
_cell_volume 3068.598920
_symmetry_space_group_name_H-M "P N N M"
_symmetry_group_IT_number 58
_symmetry_cell_setting 'orthorhombic'
loop_
_space_group_symop_operation_xyz
x,y,z
-x,-y,z
1/2+x,1/2-y,1/2-z
1/2-x,1/2+y,1/2-z
-x,-y,-z
x,y,-z
1/2-x,1/2+y,1/2+z
1/2+x,1/2-y,1/2+z
loop_
_atom_site_type_symbol
_atom_site_label
_atom_site_fract_x
_atom_site_fract_y
_atom_site_fract_z
Si Si1 0.058773 0.048661 0.214376
Si Si2 0.330743 0.305570 0.793466
Si Si3 0.686473 0.209962 0.791000
Si Si4 0.439873 0.202956 0.204478
Si Si5 0.679384 0.049369 0.786211
Si Si6 0.061167 0.544101 0.285989
Si Si7 0.560794 0.291516 0.295000
Si Si8 0.180473 0.966257 0.203470
O O1 0.053454 0.129115 0.272893
O O2 0.123909 0.012845 0.277305
O O3 0.059326 0.048962 0.000000
O O4 0.000000 0.000000 0.267616
O O5 0.259184 0.276956 0.765641
O O6 0.385090 0.253930 0.722428
O O7 0.334959 0.383373 0.713611
O O8 0.340382 0.314902 0.000000
O O9 0.669572 0.130378 0.732266
O O10 0.632120 0.262908 0.729954
O O11 0.685969 0.210419 0.000000
O O12 0.440654 0.124222 0.276874
O O13 0.508476 0.239368 0.216758
O O14 0.424100 0.195342 0.000000
O O15 0.748833 0.025921 0.722324
O O16 0.624006 0.997518 0.731461
O O17 0.680398 0.050042 0.000000
O O18 0.060219 0.544912 0.500000
O O19 0.000000 0.500000 0.230115
O O20 0.547132 0.293363 0.500000
O O21 0.184975 0.985559 0.000000
#
# Coordination Sequence:
#
# PCOD9442959 Si02
#       8
#     8   8   8   8   8   8   8   8
#     4   9  18  32  51  75 101 133 176 221 261 309
#     4  10  20  34  53  80 112 141 174 217 266 319
#     4  10  20  36  57  79 107 142 179 218 265 321
#     4  10  21  35  53  78 107 139 174 216 266 320
#     4   8  15  28  50  76  96 124 168 214 253 297
#     4   9  16  28  49  74  97 126 171 219 255 295
#     4  11  22  35  55  81 108 139 178 225 270 315
#     4   9  17  32  54  76 100 134 176 216 258 311
#
# _framework density 20.856422999999999
#
# number of rings (size 3 to 8) (size 9 to 14) (size 15 to 20)
#    0.000    2.500    0.000    3.375    0.000    5.000 
#    0.000    5.000    0.000    9.750    0.000    0.000 
#    0.000    0.000    0.000    0.000    0.000    0.000 
#
# Total GULP energy -357334.144550 kJ/mol
# GULP energy per Si atom -5583.346009 kJ/mol
# Density = 2.080895 g / cm^3
# Si number density = 20.856423 Si / 1000 Ang^3
#
#
#
# Elastic Constant Matrix: (Units=GPa)
#
#
# Indices 1 2 3 4 5 6 
#
# 1 94.2208 49.9888 -6.7535 0.0000 0.0000 0.0000
# 2 49.9888 72.5130 -4.3621 0.0000 0.0000 0.0000
# 3 -6.7535 -4.3621 35.8330 0.0000 0.0000 0.0000
# 4 0.0000 0.0000 0.0000 21.4756 0.0000 0.0000
# 5 0.0000 0.0000 0.0000 0.0000 15.3001 0.0000
# 6 0.0000 0.0000 0.0000 0.0000 0.0000 44.1709
#
#
#
# Elastic Compliance Matrix: (Units=1/GPa)
#
#
# Indices 1 2 3 4 5 6 
#
# 1 0.016845 -0.011506 0.001774 0.000000 0.000000 0.000000
# 2 -0.011506 0.021751 0.000479 0.000000 0.000000 0.000000
# 3 0.001774 0.000479 0.028300 0.000000 0.000000 0.000000
# 4 0.000000 0.000000 0.000000 0.046565 0.000000 0.000000
# 5 0.000000 0.000000 0.000000 0.000000 0.065359 0.000000
# 6 0.000000 0.000000 0.000000 0.000000 0.000000 0.022639
#
#
# Mechanical properties :
#
#
# Convention : Reuss Voigt Hill
#
# Bulk Modulus (GPa) = 20.66473 31.14591 25.90532
# Shear Modulus (GPa) = 21.17798 27.10222 24.14010
#
# Velocity S-wave (km/s) = 3.19002 3.60872 3.40581
# Velocity P-wave (km/s) = 4.84746 5.68592 5.28335
#
# Compressibility (1/GPa) = 0.04839164
#
# Stress axis : x y z
#
# Youngs Moduli (GPa) = 59.36518 45.97438 35.33570
#
# Poissons Ratio (x) = 0.52897 -0.06269
# Poissons Ratio (y) = 0.68304 -0.01694
# Poissons Ratio (z) = -0.10532 -0.02204
#
# Static dielectric constant tensor:
#      x y z
#    x 1.723610 0.000000 0.000000 
#    y 0.000000 1.722800 0.000000 
#    z 0.000000 0.000000 1.790970 
# 
# From -- ./inp_files/9288.got.cif
#   From: 2010.05.17/outbox.cif.g08.bks.cpg/sg58_5_cif.got.tgz:9288.got - 2010.06.03 14:20:14.
