data_PCOD9442429
_publ_section_title
;
Structure prediction by ZEFSAII (Michael W. Deem and Ramdas Pophale) SiO2 
 PCOD9442429
Probable space group: P N N M
;
_chemical_formula_sum "Si O2"
_cell_formula_units_Z 56
_cell_length_a 11.660335
_cell_length_b 11.091591
_cell_length_c 20.977076
_cell_angle_alpha 90.000000
_cell_angle_beta 90.000000
_cell_angle_gamma 90.000000
_cell_volume 2713.000202
_symmetry_space_group_name_H-M "P N N M"
_symmetry_group_IT_number 58
_symmetry_cell_setting 'orthorhombic'
loop_
_space_group_symop_operation_xyz
x,y,z
-x,-y,z
1/2+x,1/2-y,1/2-z
1/2-x,1/2+y,1/2-z
-x,-y,-z
x,y,-z
1/2-x,1/2+y,1/2+z
1/2+x,1/2-y,1/2+z
loop_
_atom_site_type_symbol
_atom_site_label
_atom_site_fract_x
_atom_site_fract_y
_atom_site_fract_z
Si Si1 0.119136 0.040901 0.881648
Si Si2 0.825799 0.182949 0.802923
Si Si3 0.448149 0.780803 0.687560
Si Si4 0.618883 0.322306 0.823589
Si Si5 0.758718 0.072586 0.325772
Si Si6 0.380796 0.046493 0.071753
Si Si7 0.922434 0.167752 0.427159
O O1 0.103746 0.177961 0.858756
O O2 0.248314 0.027306 0.908070
O O3 0.122266 0.944139 0.824255
O O4 0.000000 0.000000 0.917136
O O5 0.708628 0.215961 0.838735
O O6 0.802119 0.168856 0.727815
O O7 0.916650 0.284319 0.822085
O O8 0.438478 0.725289 0.758811
O O9 0.376346 0.901702 0.677853
O O10 0.693165 0.441520 0.808701
O O11 0.529972 0.350049 0.879557
O O12 0.814680 0.104462 0.393342
O O13 0.397155 0.190102 0.071817
O O14 0.500000 0.000000 0.104962
O O15 0.384960 0.995278 0.000000
O O16 0.942103 0.129067 0.500000
#
# Coordination Sequence:
#
# PCOD9442429 Si02
#       7
#     8   8   8   8   8   8   8
#     4  10  19  35  59  84 115 154 192 241 299 359
#     4  10  21  36  56  85 116 148 191 243 302 348
#     4  10  20  36  57  84 114 151 188 243 298 351
#     4  11  22  36  56  84 117 154 192 242 292 352
#     4  11  21  36  58  82 117 154 194 239 290 353
#     4  10  21  38  59  87 123 156 196 248 296 349
#     4  11  23  38  59  87 119 158 200 238 287 353
#
# _framework density 20.641355000000001
#
# number of rings (size 3 to 8) (size 9 to 14) (size 15 to 20)
#    0.000    1.571    4.286    1.286    0.000    2.000 
#    0.000    0.000    0.000    1.714    0.000    2.000 
#    0.000    0.000    0.000    0.000    0.000    0.000 
#
# Total GULP energy -311895.811056 kJ/mol
# GULP energy per Si atom -5569.568055 kJ/mol
# Density = 2.059437 g / cm^3
# Si number density = 20.641355 Si / 1000 Ang^3
#
#
#
# Elastic Constant Matrix: (Units=GPa)
#
#
# Indices 1 2 3 4 5 6 
#
# 1 143.2607 4.2162 32.8623 0.0000 0.0000 0.0000
# 2 4.2162 36.9793 -2.0763 0.0000 0.0000 0.0000
# 3 32.8623 -2.0763 69.3844 0.0000 0.0000 0.0000
# 4 0.0000 0.0000 0.0000 11.7158 0.0000 0.0000
# 5 0.0000 0.0000 0.0000 0.0000 23.7354 0.0000
# 6 0.0000 0.0000 0.0000 0.0000 0.0000 36.4825
#
#
#
# Elastic Compliance Matrix: (Units=1/GPa)
#
#
# Indices 1 2 3 4 5 6 
#
# 1 0.007876 -0.001109 -0.003764 0.000000 0.000000 0.000000
# 2 -0.001109 0.027244 0.001341 0.000000 0.000000 0.000000
# 3 -0.003764 0.001341 0.016235 0.000000 0.000000 0.000000
# 4 0.000000 0.000000 0.000000 0.085355 0.000000 0.000000
# 5 0.000000 0.000000 0.000000 0.000000 0.042131 0.000000
# 6 0.000000 0.000000 0.000000 0.000000 0.000000 0.027410
#
#
# Mechanical properties :
#
#
# Convention : Reuss Voigt Hill
#
# Bulk Modulus (GPa) = 22.57808 35.51431 29.04620
# Shear Modulus (GPa) = 21.92214 28.69488 25.30851
#
# Velocity S-wave (km/s) = 3.26245 3.73254 3.50538
# Velocity P-wave (km/s) = 5.01532 5.98486 5.52141
#
# Compressibility (1/GPa) = 0.04429074
#
# Stress axis : x y z
#
# Youngs Moduli (GPa) = 126.96389 36.70547 61.59486
#
# Poissons Ratio (x) = 0.04072 0.23182
# Poissons Ratio (y) = 0.14084 -0.08258
# Poissons Ratio (z) = 0.47784 -0.04921
#
# Static dielectric constant tensor:
#      x y z
#    x 1.824040 0.000000 0.000000 
#    y 0.000000 1.748150 0.000000 
#    z 0.000000 0.000000 1.741730 
# 
# From -- ./inp_files/29609.got.cif
#   From: 2010.05.17/outbox.cif.g08.bks.cpg/sg58_15_cif.got.tgz:29609.got - 2010.06.03 14:20:14.
