data_PCOD9442782
_publ_section_title
;
Structure prediction by ZEFSAII (Michael W. Deem and Ramdas Pophale) SiO2 
 PCOD9442782
Probable space group: P N N M
;
_chemical_formula_sum "Si O2"
_cell_formula_units_Z 52
_cell_length_a 8.416792
_cell_length_b 17.188076
_cell_length_c 18.304254
_cell_angle_alpha 90.000000
_cell_angle_beta 90.000000
_cell_angle_gamma 90.000000
_cell_volume 2648.048248
_symmetry_space_group_name_H-M "P N N M"
_symmetry_group_IT_number 58
_symmetry_cell_setting 'orthorhombic'
loop_
_space_group_symop_operation_xyz
x,y,z
-x,-y,z
1/2+x,1/2-y,1/2-z
1/2-x,1/2+y,1/2-z
-x,-y,-z
x,y,-z
1/2-x,1/2+y,1/2+z
1/2+x,1/2-y,1/2+z
loop_
_atom_site_type_symbol
_atom_site_label
_atom_site_fract_x
_atom_site_fract_y
_atom_site_fract_z
Si Si1 0.335774 0.220841 0.580665
Si Si2 0.558339 0.372936 0.579618
Si Si3 0.664481 0.043707 0.737636
Si Si4 0.000000 0.000000 0.801106
Si Si5 0.866957 0.612261 0.917179
Si Si6 0.880340 0.720900 0.710703
Si Si7 0.225891 0.735556 0.355512
O O1 0.257604 0.213852 0.500000
O O2 0.447610 0.296903 0.577208
O O3 0.455613 0.148547 0.590071
O O4 0.223632 0.236545 0.648988
O O5 0.552815 0.410614 0.500000
O O6 0.505518 0.426938 0.644836
O O7 0.732548 0.338773 0.596131
O O8 0.660706 0.054995 0.649941
O O9 0.661044 0.130045 0.774494
O O10 0.500000 0.000000 0.758803
O O11 0.832424 0.004039 0.758247
O O12 0.751046 0.686166 0.902180
O O13 0.847177 0.583248 0.000000
O O14 0.852330 0.760385 0.789043
O O15 0.058787 0.729299 0.683525
#
# Coordination Sequence:
#
# PCOD9442782 Si02
#       7
#     8   8   8   4   8   8   8
#     4   9  18  35  60  86 114 148 189 240 303 356
#     4  10  20  37  57  81 113 153 192 231 292 352
#     4  11  24  40  59  88 120 161 208 244 289 359
#     4  12  23  38  63  84 118 166 198 240 285 356
#     4   9  20  40  61  86 117 151 194 250 310 356
#     4  11  20  36  56  88 120 149 196 248 299 352
#     4  10  20  32  61  85 116 149 191 248 303 353
#
# _framework density 19.637104999999998
#
# number of rings (size 3 to 8) (size 9 to 14) (size 15 to 20)
#    0.000    1.846    1.538    5.308    2.154    1.538 
#    0.000    0.385    0.000    2.308    0.000    0.000 
#    0.000    0.000    0.000    0.000    0.000    0.000 
#
# Total GULP energy -290098.682756 kJ/mol
# GULP energy per Si atom -5578.820822 kJ/mol
# Density = 1.959241 g / cm^3
# Si number density = 19.637105 Si / 1000 Ang^3
#
#
#
# Elastic Constant Matrix: (Units=GPa)
#
#
# Indices 1 2 3 4 5 6 
#
# 1 87.9082 9.9696 38.9337 0.0000 0.0000 0.0000
# 2 9.9696 30.3813 21.6892 0.0000 0.0000 0.0000
# 3 38.9337 21.6892 133.8446 0.0000 0.0000 0.0000
# 4 0.0000 0.0000 0.0000 13.4614 0.0000 0.0000
# 5 0.0000 0.0000 0.0000 0.0000 8.7228 0.0000
# 6 0.0000 0.0000 0.0000 0.0000 0.0000 13.3097
#
#
#
# Elastic Compliance Matrix: (Units=1/GPa)
#
#
# Indices 1 2 3 4 5 6 
#
# 1 0.013143 -0.001791 -0.003533 0.000000 0.000000 0.000000
# 2 -0.001791 0.037465 -0.005550 0.000000 0.000000 0.000000
# 3 -0.003533 -0.005550 0.009398 0.000000 0.000000 0.000000
# 4 0.000000 0.000000 0.000000 0.074286 0.000000 0.000000
# 5 0.000000 0.000000 0.000000 0.000000 0.114643 0.000000
# 6 0.000000 0.000000 0.000000 0.000000 0.000000 0.075133
#
#
# Mechanical properties :
#
#
# Convention : Reuss Voigt Hill
#
# Bulk Modulus (GPa) = 26.13783 43.70213 34.91998
# Shear Modulus (GPa) = 13.94429 19.20155 16.57292
#
# Velocity S-wave (km/s) = 2.66766 3.13040 2.90825
# Velocity P-wave (km/s) = 4.77785 5.94719 5.39430
#
# Compressibility (1/GPa) = 0.03825872
#
# Stress axis : x y z
#
# Youngs Moduli (GPa) = 76.08413 26.69168 106.40032
#
# Poissons Ratio (x) = 0.04780 0.37592
# Poissons Ratio (y) = 0.13625 0.59054
# Poissons Ratio (z) = 0.26881 0.14814
#
# Static dielectric constant tensor:
#      x y z
#    x 1.703080 0.000000 0.000000 
#    y 0.000000 1.711030 0.000000 
#    z 0.000000 0.000000 1.695130 
# 
# From -- ./inp_files/25471.got.cif
#   From: 2010.05.17/outbox.cif.g08.bks.cpg/sg58_13_cif.got.tgz:25471.got - 2010.06.03 14:20:14.
