data_PCOD9442421
_publ_section_title
;
Structure prediction by ZEFSAII (Michael W. Deem and Ramdas Pophale) SiO2 
 PCOD9442421
Probable space group: P N N M
;
_chemical_formula_sum "Si O2"
_cell_formula_units_Z 64
_cell_length_a 21.008454
_cell_length_b 19.882401
_cell_length_c 9.095306
_cell_angle_alpha 90.000000
_cell_angle_beta 90.000000
_cell_angle_gamma 90.000000
_cell_volume 3799.095735
_symmetry_space_group_name_H-M "P N N M"
_symmetry_group_IT_number 58
_symmetry_cell_setting 'orthorhombic'
loop_
_space_group_symop_operation_xyz
x,y,z
-x,-y,z
1/2+x,1/2-y,1/2-z
1/2-x,1/2+y,1/2-z
-x,-y,-z
x,y,-z
1/2-x,1/2+y,1/2+z
1/2+x,1/2-y,1/2+z
loop_
_atom_site_type_symbol
_atom_site_label
_atom_site_fract_x
_atom_site_fract_y
_atom_site_fract_z
Si Si1 0.739353 0.570197 0.324414
Si Si2 0.061450 0.284578 0.175541
Si Si3 0.309215 0.299367 0.176221
Si Si4 0.377399 0.925976 0.676670
Si Si5 0.111871 0.576053 0.828334
Si Si6 0.431512 0.209983 0.175056
Si Si7 0.265293 0.569352 0.827202
Si Si8 0.811182 0.796667 0.823894
O O1 0.740314 0.569313 0.500000
O O2 0.697498 0.631122 0.262093
O O3 0.810665 0.581076 0.260560
O O4 0.717972 0.498387 0.259938
O O5 0.078951 0.362238 0.209824
O O6 0.122613 0.239499 0.214180
O O7 0.997326 0.264845 0.256908
O O8 0.052441 0.280179 0.000000
O O9 0.371762 0.256989 0.216358
O O10 0.247145 0.253888 0.208616
O O11 0.309553 0.311756 0.000000
O O12 0.364067 0.925681 0.500000
O O13 0.406010 0.999323 0.711341
O O14 0.081684 0.635062 0.734530
O O15 0.188702 0.579135 0.812376
O O16 0.095863 0.586786 0.000000
O O17 0.435193 0.208656 0.000000
O O18 0.299375 0.634254 0.760690
O O19 0.278555 0.561328 0.000000
O O20 0.810182 0.808629 0.000000
#
# Coordination Sequence:
#
# PCOD9442421 Si02
#       8
#     8   8   8   8   8   8   8   8
#     4  11  21  32  54  85 112 139 179 229 272 320
#     4  10  21  37  56  76 108 148 183 223 271 328
#     4  10  20  37  57  78 109 145 182 224 275 324
#     4   9  18  35  54  76 107 148 186 219 268 321
#     4   9  18  32  52  76 106 144 186 220 258 319
#     4  11  23  36  53  77 110 146 181 227 273 319
#     4  10  20  34  55  82 113 144 177 223 274 326
#     4  10  19  35  59  82 107 142 184 227 271 319
#
# _framework density 16.846115000000001
#
# number of rings (size 3 to 8) (size 9 to 14) (size 15 to 20)
#    0.000    2.000    2.500    2.625    0.000    5.000 
#    0.000    2.500    0.000    0.750    0.000    5.250 
#    0.000    0.000    0.000    0.000    0.000    0.000 
#
# Total GULP energy -357308.510377 kJ/mol
# GULP energy per Si atom -5582.945475 kJ/mol
# Density = 1.680777 g / cm^3
# Si number density = 16.846115 Si / 1000 Ang^3
#
#
#
# Elastic Constant Matrix: (Units=GPa)
#
#
# Indices 1 2 3 4 5 6 
#
# 1 95.6767 51.1769 46.8454 0.0000 0.0000 0.0000
# 2 51.1769 106.2668 55.5213 0.0000 0.0000 0.0000
# 3 46.8454 55.5213 53.8835 0.0000 0.0000 0.0000
# 4 0.0000 0.0000 0.0000 30.5939 0.0000 0.0000
# 5 0.0000 0.0000 0.0000 0.0000 27.0490 0.0000
# 6 0.0000 0.0000 0.0000 0.0000 0.0000 15.7130
#
#
#
# Elastic Compliance Matrix: (Units=1/GPa)
#
#
# Indices 1 2 3 4 5 6 
#
# 1 0.018256 -0.001082 -0.014756 0.000000 0.000000 0.000000
# 2 -0.001082 0.020448 -0.020129 0.000000 0.000000 0.000000
# 3 -0.014756 -0.020129 0.052128 0.000000 0.000000 0.000000
# 4 0.000000 0.000000 0.000000 0.032686 0.000000 0.000000
# 5 0.000000 0.000000 0.000000 0.000000 0.036970 0.000000
# 6 0.000000 0.000000 0.000000 0.000000 0.000000 0.063642
#
#
# Mechanical properties :
#
#
# Convention : Reuss Voigt Hill
#
# Bulk Modulus (GPa) = 52.91709 62.54603 57.73156
# Shear Modulus (GPa) = 16.53639 21.49006 19.01323
#
# Velocity S-wave (km/s) = 3.13647 3.57553 3.36317
# Velocity P-wave (km/s) = 6.67809 7.36575 7.03033
#
# Compressibility (1/GPa) = 0.01889749
#
# Stress axis : x y z
#
# Youngs Moduli (GPa) = 54.77782 48.90401 19.18348
#
# Poissons Ratio (x) = 0.05291 0.28307
# Poissons Ratio (y) = 0.05927 0.38615
# Poissons Ratio (z) = 0.80831 0.98439
#
# Static dielectric constant tensor:
#      x y z
#    x 1.560670 0.000000 0.000000 
#    y 0.000000 1.562660 0.000000 
#    z 0.000000 0.000000 1.557520 
# 
# From -- ./inp_files/9331.got.cif
#   From: 2010.05.17/outbox.cif.g08.bks.cpg/sg58_5_cif.got.tgz:9331.got - 2010.06.03 14:20:14.
