data_PCOD9442143
_publ_section_title
;
Structure prediction by ZEFSAII (Michael W. Deem and Ramdas Pophale) SiO2 
 PCOD9442143
Probable space group: P N N M
;
_chemical_formula_sum "Si O2"
_cell_formula_units_Z 64
_cell_length_a 13.013228
_cell_length_b 29.767145
_cell_length_c 7.589238
_cell_angle_alpha 90.000000
_cell_angle_beta 90.000000
_cell_angle_gamma 90.000000
_cell_volume 2939.817661
_symmetry_space_group_name_H-M "P N N M"
_symmetry_group_IT_number 58
_symmetry_cell_setting 'orthorhombic'
loop_
_space_group_symop_operation_xyz
x,y,z
-x,-y,z
1/2+x,1/2-y,1/2-z
1/2-x,1/2+y,1/2-z
-x,-y,-z
x,y,-z
1/2-x,1/2+y,1/2+z
1/2+x,1/2-y,1/2+z
loop_
_atom_site_type_symbol
_atom_site_label
_atom_site_fract_x
_atom_site_fract_y
_atom_site_fract_z
Si Si1 0.131031 0.956706 0.712029
Si Si2 0.041303 0.251065 0.790374
Si Si3 0.265105 0.129558 0.291028
Si Si4 0.215735 0.383224 0.708363
Si Si5 0.492026 0.147497 0.789841
Si Si6 0.757254 0.271777 0.200041
Si Si7 0.379225 0.311595 0.284521
Si Si8 0.094823 0.059591 0.715374
O O1 0.129914 0.956139 0.500000
O O2 0.235061 0.932267 0.769225
O O3 0.024149 0.932561 0.771577
O O4 0.122829 0.008590 0.767599
O O5 0.987673 0.299385 0.757196
O O6 0.149060 0.253014 0.695239
O O7 0.994545 0.202092 0.736397
O O8 0.056396 0.248949 0.000000
O O9 0.244525 0.131156 0.500000
O O10 0.387814 0.122476 0.270194
O O11 0.247960 0.179585 0.215963
O O12 0.182408 0.093834 0.221151
O O13 0.209036 0.374130 0.500000
O O14 0.101470 0.372374 0.778199
O O15 0.307156 0.351243 0.781365
O O16 0.492355 0.144304 0.000000
O O17 0.829027 0.234682 0.282394
O O18 0.795209 0.278287 0.000000
O O19 0.376795 0.313499 0.500000
O O20 0.093981 0.060301 0.500000
#
# Coordination Sequence:
#
# PCOD9442143 Si02
#       8
#     8   8   8   8   8   8   8   8
#     4   9  18  36  61  86 109 136 177 222 267 327
#     4  11  21  34  52  75 105 144 187 226 266 319
#     4  10  20  36  58  80 108 146 183 221 273 329
#     4  10  21  37  54  75 109 148 179 218 275 322
#     4  11  22  37  55  76 109 149 186 228 274 317
#     4  10  19  34  52  74 108 145 178 218 271 320
#     4   9  18  34  50  69 104 145 176 213 265 313
#     4   8  17  36  60  85 113 139 167 220 282 323
#
# _framework density 21.770057999999999
#
# number of rings (size 3 to 8) (size 9 to 14) (size 15 to 20)
#    0.000    2.250    2.500    1.500    1.750    1.500 
#    0.000    3.750    0.000    3.750    0.000    0.000 
#    0.000    0.000    0.000    0.000    0.000    0.000 
#
# Total GULP energy -356546.364220 kJ/mol
# GULP energy per Si atom -5571.036941 kJ/mol
# Density = 2.172051 g / cm^3
# Si number density = 21.770058 Si / 1000 Ang^3
#
#
#
# Elastic Constant Matrix: (Units=GPa)
#
#
# Indices 1 2 3 4 5 6 
#
# 1 71.6158 15.4770 -13.6923 0.0000 0.0000 0.0000
# 2 15.4770 48.1513 -7.8878 0.0000 0.0000 0.0000
# 3 -13.6923 -7.8878 43.0371 0.0000 0.0000 0.0000
# 4 0.0000 0.0000 0.0000 12.8494 0.0000 0.0000
# 5 0.0000 0.0000 0.0000 0.0000 20.6722 0.0000
# 6 0.0000 0.0000 0.0000 0.0000 0.0000 36.5197
#
#
#
# Elastic Compliance Matrix: (Units=1/GPa)
#
#
# Indices 1 2 3 4 5 6 
#
# 1 0.015709 -0.004361 0.004198 0.000000 0.000000 0.000000
# 2 -0.004361 0.022622 0.002758 0.000000 0.000000 0.000000
# 3 0.004198 0.002758 0.025077 0.000000 0.000000 0.000000
# 4 0.000000 0.000000 0.000000 0.077825 0.000000 0.000000
# 5 0.000000 0.000000 0.000000 0.000000 0.048374 0.000000
# 6 0.000000 0.000000 0.000000 0.000000 0.000000 0.027382
#
#
# Mechanical properties :
#
#
# Convention : Reuss Voigt Hill
#
# Bulk Modulus (GPa) = 14.57761 16.73309 15.65535
# Shear Modulus (GPa) = 21.30707 25.26873 23.28790
#
# Velocity S-wave (km/s) = 3.13186 3.41062 3.27421
# Velocity P-wave (km/s) = 4.44846 4.81796 4.63689
#
# Compressibility (1/GPa) = 0.06859833
#
# Stress axis : x y z
#
# Youngs Moduli (GPa) = 63.65918 44.20549 39.87703
#
# Poissons Ratio (x) = 0.19280 -0.16742
# Poissons Ratio (y) = 0.27764 -0.11000
# Poissons Ratio (z) = -0.26727 -0.12194
#
# Static dielectric constant tensor:
#      x y z
#    x 1.856390 0.000000 0.000000 
#    y 0.000000 1.810270 0.000000 
#    z 0.000000 0.000000 1.818020 
# 
# From -- ./inp_files/4817.got.cif
#   From: 2010.05.17/outbox.cif.g08.bks.cpg/sg58_3_cif.got.tgz:4817.got - 2010.06.03 14:20:14.
