data_PCOD9442029
_publ_section_title
;
Structure prediction by ZEFSAII (Michael W. Deem and Ramdas Pophale) SiO2 
 PCOD9442029
Probable space group: P N N M
;
_chemical_formula_sum "Si O2"
_cell_formula_units_Z 48
_cell_length_a 18.498616
_cell_length_b 15.818060
_cell_length_c 7.424594
_cell_angle_alpha 90.000000
_cell_angle_beta 90.000000
_cell_angle_gamma 90.000000
_cell_volume 2172.526917
_symmetry_space_group_name_H-M "P N N M"
_symmetry_group_IT_number 58
_symmetry_cell_setting 'orthorhombic'
loop_
_space_group_symop_operation_xyz
x,y,z
-x,-y,z
1/2+x,1/2-y,1/2-z
1/2-x,1/2+y,1/2-z
-x,-y,-z
x,y,-z
1/2-x,1/2+y,1/2+z
1/2+x,1/2-y,1/2+z
loop_
_atom_site_type_symbol
_atom_site_label
_atom_site_fract_x
_atom_site_fract_y
_atom_site_fract_z
Si Si1 0.952950 0.922632 0.787571
Si Si2 0.792470 0.231286 0.716878
Si Si3 0.540270 0.085950 0.779867
Si Si4 0.789486 0.899638 0.778919
Si Si5 0.542588 0.746147 0.217419
Si Si6 0.203083 0.436706 0.287382
O O1 0.871714 0.912542 0.716346
O O2 0.996790 0.836149 0.766756
O O3 0.943989 0.940021 0.000000
O O4 0.000000 0.000000 0.711330
O O5 0.794604 0.235342 0.500000
O O6 0.744472 0.310591 0.778827
O O7 0.874904 0.238594 0.781829
O O8 0.755556 0.142919 0.764717
O O9 0.497266 0.168952 0.719400
O O10 0.623182 0.083645 0.716572
O O11 0.500000 0.000000 0.727242
O O12 0.540356 0.088472 0.000000
O O13 0.740127 0.977956 0.717860
O O14 0.789934 0.899172 0.000000
O O15 0.545046 0.749955 0.000000
O O16 0.193463 0.451175 0.500000
#
# Coordination Sequence:
#
# PCOD9442029 Si02
#       6
#     8   8   8   8   8   8
#     4  10  20  34  52  73  99 132 168 204 243 292
#     4  10  20  34  51  72 102 136 165 199 248 301
#     4   9  17  31  53  79 103 128 163 207 251 295
#     4   9  18  33  52  73  99 133 167 198 243 300
#     4  10  20  33  51  76 102 129 164 205 249 294
#     4  10  19  33  55  78  99 128 169 211 244 286
#
# _framework density 22.094087999999999
#
# number of rings (size 3 to 8) (size 9 to 14) (size 15 to 20)
#    0.000    2.333    0.000    3.000    0.000    6.333 
#    0.000    1.667    0.000    4.000    0.000    0.000 
#    0.000    0.000    0.000    0.000    0.000    0.000 
#
# Total GULP energy -268365.056187 kJ/mol
# GULP energy per Si atom -5590.938671 kJ/mol
# Density = 2.204380 g / cm^3
# Si number density = 22.094088 Si / 1000 Ang^3
#
#
#
# Elastic Constant Matrix: (Units=GPa)
#
#
# Indices 1 2 3 4 5 6 
#
# 1 115.0040 4.0535 -13.0141 0.0000 0.0000 0.0000
# 2 4.0535 99.2108 -26.4498 0.0000 0.0000 0.0000
# 3 -13.0141 -26.4498 64.4895 0.0000 0.0000 0.0000
# 4 0.0000 0.0000 0.0000 27.9421 0.0000 0.0000
# 5 0.0000 0.0000 0.0000 0.0000 9.1785 0.0000
# 6 0.0000 0.0000 0.0000 0.0000 0.0000 45.0101
#
#
#
# Elastic Compliance Matrix: (Units=1/GPa)
#
#
# Indices 1 2 3 4 5 6 
#
# 1 0.008900 0.000129 0.001849 0.000000 0.000000 0.000000
# 2 0.000129 0.011319 0.004668 0.000000 0.000000 0.000000
# 3 0.001849 0.004668 0.017794 0.000000 0.000000 0.000000
# 4 0.000000 0.000000 0.000000 0.035788 0.000000 0.000000
# 5 0.000000 0.000000 0.000000 0.000000 0.108950 0.000000
# 6 0.000000 0.000000 0.000000 0.000000 0.000000 0.022217
#
#
# Mechanical properties :
#
#
# Convention : Reuss Voigt Hill
#
# Bulk Modulus (GPa) = 19.49055 23.09817 21.29436
# Shear Modulus (GPa) = 23.94896 37.36712 30.65804
#
# Velocity S-wave (km/s) = 3.29592 4.11697 3.72911
# Velocity P-wave (km/s) = 4.82958 5.75121 5.31043
#
# Compressibility (1/GPa) = 0.05130691
#
# Stress axis : x y z
#
# Youngs Moduli (GPa) = 112.35904 88.34796 56.19787
#
# Poissons Ratio (x) = -0.01143 -0.10391
# Poissons Ratio (y) = -0.01453 -0.26236
# Poissons Ratio (z) = -0.20776 -0.41245
#
# Static dielectric constant tensor:
#      x y z
#    x 1.775040 0.000000 0.000000 
#    y 0.000000 1.734330 0.000000 
#    z 0.000000 0.000000 1.872150 
# 
# From -- ./inp_files/5814.got.cif
#   From: 2010.05.17/outbox.cif.g08.bks.cpg/sg58_3_cif.got.tgz:5814.got - 2010.06.03 14:20:14.
