data_PCOD9442856
_publ_section_title
;
Structure prediction by ZEFSAII (Michael W. Deem and Ramdas Pophale) SiO2 
 PCOD9442856
Probable space group: P N N M
;
_chemical_formula_sum "Si O2"
_cell_formula_units_Z 64
_cell_length_a 11.169900
_cell_length_b 33.991571
_cell_length_c 7.465359
_cell_angle_alpha 90.000000
_cell_angle_beta 90.000000
_cell_angle_gamma 90.000000
_cell_volume 2834.465787
_symmetry_space_group_name_H-M "P N N M"
_symmetry_group_IT_number 58
_symmetry_cell_setting 'orthorhombic'
loop_
_space_group_symop_operation_xyz
x,y,z
-x,-y,z
1/2+x,1/2-y,1/2-z
1/2-x,1/2+y,1/2-z
-x,-y,-z
x,y,-z
1/2-x,1/2+y,1/2+z
1/2+x,1/2-y,1/2+z
loop_
_atom_site_type_symbol
_atom_site_label
_atom_site_fract_x
_atom_site_fract_y
_atom_site_fract_z
Si Si1 0.526169 0.719614 0.798330
Si Si2 0.258891 0.824465 0.206695
Si Si3 0.977362 0.305955 0.716387
Si Si4 0.088438 0.142990 0.279841
Si Si5 0.848420 0.097910 0.715734
Si Si6 0.891514 0.471196 0.781286
Si Si7 0.862204 0.008791 0.281672
Si Si8 0.340931 0.114166 0.708968
O O1 0.647490 0.694549 0.805877
O O2 0.557987 0.762230 0.720696
O O3 0.433103 0.688069 0.717360
O O4 0.481728 0.727707 0.000000
O O5 0.384986 0.809605 0.271585
O O6 0.250868 0.871424 0.221965
O O7 0.244532 0.813294 0.000000
O O8 0.967405 0.307829 0.500000
O O9 0.910518 0.344773 0.780356
O O10 0.089235 0.144379 0.500000
O O11 0.209854 0.123405 0.214483
O O12 0.975251 0.116517 0.226927
O O13 0.847072 0.097861 0.500000
O O14 0.835323 0.053463 0.774080
O O15 0.755335 0.483799 0.727875
O O16 0.904509 0.425473 0.723150
O O17 0.000000 0.500000 0.720727
O O18 0.895147 0.473431 0.000000
O O19 0.865399 0.006359 0.500000
O O20 0.000000 0.000000 0.224068
O O21 0.320463 0.105632 0.500000
#
# Coordination Sequence:
#
# PCOD9442856 Si02
#       8
#     8   8   8   8   8   8   8   8
#     4   9  19  37  57  76 102 136 173 217 267 311
#     4  10  21  36  54  77 107 138 173 216 262 312
#     4  10  23  38  53  75 108 142 172 215 265 314
#     4   8  15  30  52  78 104 132 168 213 259 309
#     4   9  17  31  55  80 107 140 175 215 263 315
#     4   9  18  30  45  74 111 136 168 226 274 302
#     4   9  16  27  49  78 105 136 177 221 267 319
#     4  10  20  33  55  79 104 141 181 215 261 321
#
# _framework density 22.579211000000001
#
# number of rings (size 3 to 8) (size 9 to 14) (size 15 to 20)
#    0.000    2.750    0.000    1.875    3.500    4.500 
#    0.000    2.500    0.000    1.500    0.000    0.000 
#    0.000    0.000    0.000    0.000    0.000    0.000 
#
# Total GULP energy -356894.925423 kJ/mol
# GULP energy per Si atom -5576.483210 kJ/mol
# Density = 2.252782 g / cm^3
# Si number density = 22.579211 Si / 1000 Ang^3
#
#
#
# Elastic Constant Matrix: (Units=GPa)
#
#
# Indices 1 2 3 4 5 6 
#
# 1 46.8891 22.6255 3.0421 0.0000 0.0000 0.0000
# 2 22.6255 153.1964 -0.3021 0.0000 0.0000 0.0000
# 3 3.0421 -0.3021 60.0002 0.0000 0.0000 0.0000
# 4 0.0000 0.0000 0.0000 9.3171 0.0000 0.0000
# 5 0.0000 0.0000 0.0000 0.0000 12.6498 0.0000
# 6 0.0000 0.0000 0.0000 0.0000 0.0000 28.7244
#
#
#
# Elastic Compliance Matrix: (Units=1/GPa)
#
#
# Indices 1 2 3 4 5 6 
#
# 1 0.023047 -0.003406 -0.001186 0.000000 0.000000 0.000000
# 2 -0.003406 0.007031 0.000208 0.000000 0.000000 0.000000
# 3 -0.001186 0.000208 0.016728 0.000000 0.000000 0.000000
# 4 0.000000 0.000000 0.000000 0.107330 0.000000 0.000000
# 5 0.000000 0.000000 0.000000 0.000000 0.079053 0.000000
# 6 0.000000 0.000000 0.000000 0.000000 0.000000 0.034814
#
#
# Mechanical properties :
#
#
# Convention : Reuss Voigt Hill
#
# Bulk Modulus (GPa) = 26.28903 34.53518 30.41211
# Shear Modulus (GPa) = 17.27415 25.78626 21.53021
#
# Velocity S-wave (km/s) = 2.76895 3.38307 3.09130
# Velocity P-wave (km/s) = 4.67879 5.53069 5.12248
#
# Compressibility (1/GPa) = 0.03803868
#
# Stress axis : x y z
#
# Youngs Moduli (GPa) = 43.38875 142.22651 59.78085
#
# Poissons Ratio (x) = 0.48445 0.07088
# Poissons Ratio (y) = 0.14779 -0.01244
# Poissons Ratio (z) = 0.05145 -0.02960
#
# Static dielectric constant tensor:
#      x y z
#    x 1.814760 0.000000 0.000000 
#    y 0.000000 1.846320 0.000000 
#    z 0.000000 0.000000 1.892230 
# 
# From -- ./inp_files/4800.got.cif
#   From: 2010.05.17/outbox.cif.g08.bks.cpg/sg58_3_cif.got.tgz:4800.got - 2010.06.03 14:20:14.
