data_PCOD9442359
_publ_section_title
;
Structure prediction by ZEFSAII (Michael W. Deem and Ramdas Pophale) SiO2 
 PCOD9442359
Probable space group: P N N M
;
_chemical_formula_sum "Si O2"
_cell_formula_units_Z 48
_cell_length_a 10.477046
_cell_length_b 26.985969
_cell_length_c 7.505702
_cell_angle_alpha 90.000000
_cell_angle_beta 90.000000
_cell_angle_gamma 90.000000
_cell_volume 2122.111434
_symmetry_space_group_name_H-M "P N N M"
_symmetry_group_IT_number 58
_symmetry_cell_setting 'orthorhombic'
loop_
_space_group_symop_operation_xyz
x,y,z
-x,-y,z
1/2+x,1/2-y,1/2-z
1/2-x,1/2+y,1/2-z
-x,-y,-z
x,y,-z
1/2-x,1/2+y,1/2+z
1/2+x,1/2-y,1/2+z
loop_
_atom_site_type_symbol
_atom_site_label
_atom_site_fract_x
_atom_site_fract_y
_atom_site_fract_z
Si Si1 0.022284 0.856288 0.717944
Si Si2 0.602131 0.038874 0.792103
Si Si3 0.965265 0.648561 0.793728
Si Si4 0.257724 0.166060 0.705929
Si Si5 0.113051 0.964284 0.284795
Si Si6 0.239549 0.781145 0.717051
O O1 0.020490 0.855671 0.500000
O O2 0.876997 0.851971 0.782614
O O3 0.084886 0.908098 0.773276
O O4 0.112097 0.810669 0.771967
O O5 0.590569 0.093364 0.710008
O O6 0.746129 0.019961 0.772314
O O7 0.500000 0.000000 0.717522
O O8 0.573258 0.045701 0.000000
O O9 0.861954 0.687114 0.720109
O O10 0.107199 0.649279 0.713252
O O11 0.981386 0.663560 0.000000
O O12 0.256765 0.148859 0.500000
O O13 0.256871 0.225551 0.714122
O O14 0.112216 0.964636 0.500000
O O15 0.000000 0.000000 0.223155
O O16 0.240527 0.779568 0.500000
#
# Coordination Sequence:
#
# PCOD9442359 Si02
#       6
#     8   8   8   8   8   8
#     4   9  18  35  55  82 116 144 180 235 285 329
#     4  11  25  42  60  86 121 156 192 239 300 359
#     4  10  21  38  60  85 115 151 198 245 284 340
#     4  10  21  34  55  86 116 149 191 236 282 339
#     4  10  21  39  66  92 113 147 195 240 291 351
#     4  10  19  35  56  79 115 154 190 236 284 337
#
# _framework density 22.618981999999999
#
# number of rings (size 3 to 8) (size 9 to 14) (size 15 to 20)
#    0.000    2.000    1.667    1.500    2.333    3.000 
#    0.000    0.833    0.000    0.000    0.000    0.000 
#    0.000    0.000    0.000    0.000    0.000    0.000 
#
# Total GULP energy -268308.635334 kJ/mol
# GULP energy per Si atom -5589.763236 kJ/mol
# Density = 2.256750 g / cm^3
# Si number density = 22.618982 Si / 1000 Ang^3
#
#
#
# Elastic Constant Matrix: (Units=GPa)
#
#
# Indices 1 2 3 4 5 6 
#
# 1 184.0793 22.3116 -4.5334 0.0000 0.0000 0.0000
# 2 22.3116 48.3868 -15.7513 0.0000 0.0000 0.0000
# 3 -4.5334 -15.7513 60.7569 0.0000 0.0000 0.0000
# 4 0.0000 0.0000 0.0000 -260.7905 0.0000 0.0000
# 5 0.0000 0.0000 0.0000 0.0000 -58.0582 0.0000
# 6 0.0000 0.0000 0.0000 0.0000 0.0000 45.6624
#
#
#
# Elastic Compliance Matrix: (Units=1/GPa)
#
#
# Indices 1 2 3 4 5 6 
#
# 1 0.005758 -0.002747 -0.000283 0.000000 0.000000 0.000000
# 2 -0.002747 0.023882 0.005987 0.000000 0.000000 0.000000
# 3 -0.000283 0.005987 0.017990 0.000000 0.000000 0.000000
# 4 0.000000 0.000000 0.000000 -0.003834 0.000000 0.000000
# 5 0.000000 0.000000 0.000000 0.000000 -0.017224 0.000000
# 6 0.000000 0.000000 0.000000 0.000000 0.000000 0.021900
#
#
# Mechanical properties :
#
#
# Convention : Reuss Voigt Hill
#
# Bulk Modulus (GPa) = 18.67613 33.03073 25.85343
# Shear Modulus (GPa) = 82.77224 -35.22419 23.77402
#
# Velocity S-wave (km/s) = 6.05587 -3.95053 3.24553
# Velocity P-wave (km/s) = 7.56128 2.48477 5.04969
#
# Compressibility (1/GPa) = 0.05354430
#
# Stress axis : x y z
#
# Youngs Moduli (GPa) = 173.65725 41.87185 55.58655
#
# Poissons Ratio (x) = 0.11503 0.01571
# Poissons Ratio (y) = 0.47708 -0.33277
# Poissons Ratio (z) = 0.04907 -0.25067
#
# Static dielectric constant tensor:
#      x y z
#    x 1.851420 0.000000 0.000000 
#    y 0.000000 1.764840 0.000000 
#    z 0.000000 0.000000 1.830010 
# 
# From -- ./inp_files/2880.got.cif
#   From: 2010.05.17/outbox.cif.g08.bks.cpg/sg58_2_cif.got.tgz:2880.got - 2010.06.03 14:20:14.
