data_PCOD9442072
_publ_section_title
;
Structure prediction by ZEFSAII (Michael W. Deem and Ramdas Pophale) SiO2 
 PCOD9442072
Probable space group: P N N M
;
_chemical_formula_sum "Si O2"
_cell_formula_units_Z 64
_cell_length_a 34.822525
_cell_length_b 12.039615
_cell_length_c 8.851443
_cell_angle_alpha 90.000000
_cell_angle_beta 90.000000
_cell_angle_gamma 90.000000
_cell_volume 3710.965657
_symmetry_space_group_name_H-M "P N N M"
_symmetry_group_IT_number 58
_symmetry_cell_setting 'orthorhombic'
loop_
_space_group_symop_operation_xyz
x,y,z
-x,-y,z
1/2+x,1/2-y,1/2-z
1/2-x,1/2+y,1/2-z
-x,-y,-z
x,y,-z
1/2-x,1/2+y,1/2+z
1/2+x,1/2-y,1/2+z
loop_
_atom_site_type_symbol
_atom_site_label
_atom_site_fract_x
_atom_site_fract_y
_atom_site_fract_z
Si Si1 0.229333 0.193608 0.318652
Si Si2 0.950347 0.112058 0.182776
Si Si3 0.675893 0.100251 0.180084
Si Si4 0.964415 0.855279 0.816647
Si Si5 0.315999 0.141597 0.319379
Si Si6 0.370227 0.323110 0.179577
Si Si7 0.611776 0.246675 0.321393
Si Si8 0.833041 0.960112 0.823132
O O1 0.225751 0.181022 0.500000
O O2 0.208561 0.309197 0.277389
O O3 0.273951 0.189522 0.278588
O O4 0.205714 0.094532 0.240553
O O5 0.913201 0.165870 0.255800
O O6 0.991495 0.163827 0.228151
O O7 0.952981 0.981428 0.225418
O O8 0.947056 0.116834 0.000000
O O9 0.635873 0.156524 0.230168
O O10 0.681892 0.984456 0.262860
O O11 0.676998 0.084819 0.000000
O O12 0.931436 0.770757 0.766871
O O13 0.963786 0.853935 0.000000
O O14 0.319882 0.146001 0.500000
O O15 0.348633 0.215980 0.243946
O O16 0.346997 0.431555 0.236107
O O17 0.371043 0.320593 0.000000
O O18 0.611560 0.217712 0.500000
O O19 0.634820 0.363379 0.308505
O O20 0.828917 0.986954 0.000000
#
# Coordination Sequence:
#
# PCOD9442072 Si02
#       8
#     8   8   8   8   8   8   8   8
#     4   9  21  39  58  82 110 137 174 227 279 324
#     4   9  16  31  53  79 112 148 183 225 270 324
#     4  10  21  38  56  80 111 142 177 226 277 324
#     4   8  14  27  53  83 111 143 183 224 267 319
#     4  11  24  41  59  79 104 145 190 227 271 329
#     4  12  24  36  52  79 115 151 183 226 278 327
#     4   9  16  31  55  82 108 143 183 220 263 322
#     4  10  19  33  56  81 109 144 183 221 265 324
#
# _framework density 17.246186000000002
#
# number of rings (size 3 to 8) (size 9 to 14) (size 15 to 20)
#    0.000    2.250    1.250    3.000    1.750    2.000 
#    0.000    1.875    0.000    0.750    0.000    5.250 
#    0.000    0.000    0.000    0.000    0.000    0.000 
#
# Total GULP energy -357160.966518 kJ/mol
# GULP energy per Si atom -5580.640102 kJ/mol
# Density = 1.720693 g / cm^3
# Si number density = 17.246186 Si / 1000 Ang^3
#
#
#
# Elastic Constant Matrix: (Units=GPa)
#
#
# Indices 1 2 3 4 5 6 
#
# 1 158.7120 66.1323 51.0949 0.0000 0.0000 0.0000
# 2 66.1323 80.9167 38.8595 0.0000 0.0000 0.0000
# 3 51.0949 38.8595 56.3694 0.0000 0.0000 0.0000
# 4 0.0000 0.0000 0.0000 26.4988 0.0000 0.0000
# 5 0.0000 0.0000 0.0000 0.0000 23.7296 0.0000
# 6 0.0000 0.0000 0.0000 0.0000 0.0000 20.0569
#
#
#
# Elastic Compliance Matrix: (Units=1/GPa)
#
#
# Indices 1 2 3 4 5 6 
#
# 1 0.010554 -0.006027 -0.005412 0.000000 0.000000 0.000000
# 2 -0.006027 0.021916 -0.009646 0.000000 0.000000 0.000000
# 3 -0.005412 -0.009646 0.029295 0.000000 0.000000 0.000000
# 4 0.000000 0.000000 0.000000 0.037738 0.000000 0.000000
# 5 0.000000 0.000000 0.000000 0.000000 0.042141 0.000000
# 6 0.000000 0.000000 0.000000 0.000000 0.000000 0.049858
#
#
# Mechanical properties :
#
#
# Convention : Reuss Voigt Hill
#
# Bulk Modulus (GPa) = 51.02858 67.57460 59.30159
# Shear Modulus (GPa) = 20.81567 23.38450 22.10009
#
# Velocity S-wave (km/s) = 3.47792 3.68628 3.58362
# Velocity P-wave (km/s) = 6.76613 7.57533 7.18213
#
# Compressibility (1/GPa) = 0.01959686
#
# Stress axis : x y z
#
# Youngs Moduli (GPa) = 94.74816 45.62832 34.13550
#
# Poissons Ratio (x) = 0.27499 0.18474
# Poissons Ratio (y) = 0.57103 0.32925
# Poissons Ratio (z) = 0.51277 0.44011
#
# Static dielectric constant tensor:
#      x y z
#    x 1.597000 0.000000 0.000000 
#    y 0.000000 1.554330 0.000000 
#    z 0.000000 0.000000 1.574400 
# 
# From -- ./inp_files/10945.got.cif
#   From: 2010.05.17/outbox.cif.g08.bks.cpg/sg58_6_cif.got.tgz:10945.got - 2010.06.03 14:20:14.
