data_PCOD9442634
_publ_section_title
;
Structure prediction by ZEFSAII (Michael W. Deem and Ramdas Pophale) SiO2 
 PCOD9442634
Probable space group: P N N M
;
_chemical_formula_sum "Si O2"
_cell_formula_units_Z 56
_cell_length_a 19.601350
_cell_length_b 17.758994
_cell_length_c 8.998522
_cell_angle_alpha 90.000000
_cell_angle_beta 90.000000
_cell_angle_gamma 90.000000
_cell_volume 3132.387821
_symmetry_space_group_name_H-M "P N N M"
_symmetry_group_IT_number 58
_symmetry_cell_setting 'orthorhombic'
loop_
_space_group_symop_operation_xyz
x,y,z
-x,-y,z
1/2+x,1/2-y,1/2-z
1/2-x,1/2+y,1/2-z
-x,-y,-z
x,y,-z
1/2-x,1/2+y,1/2+z
1/2+x,1/2-y,1/2+z
loop_
_atom_site_type_symbol
_atom_site_label
_atom_site_fract_x
_atom_site_fract_y
_atom_site_fract_z
Si Si1 0.120898 0.790809 0.324606
Si Si2 0.459616 0.698937 0.823437
Si Si3 0.690717 0.571941 0.323443
Si Si4 0.575730 0.468768 0.177992
Si Si5 0.098100 0.618451 0.322499
Si Si6 0.832733 0.524624 0.822540
Si Si7 0.452134 0.855800 0.676614
O O1 0.133856 0.803850 0.500000
O O2 0.167730 0.845176 0.229299
O O3 0.127610 0.702094 0.293331
O O4 0.041046 0.809885 0.297554
O O5 0.424018 0.620113 0.786951
O O6 0.435920 0.771731 0.733480
O O7 0.451751 0.713385 0.000000
O O8 0.695461 0.568125 0.500000
O O9 0.632434 0.515475 0.263781
O O10 0.762009 0.549604 0.249552
O O11 0.500000 0.500000 0.211145
O O12 0.585918 0.477864 0.000000
O O13 0.095805 0.608107 0.500000
O O14 0.141529 0.553685 0.245837
O O15 0.021252 0.618587 0.258655
O O16 0.890926 0.586961 0.791839
O O17 0.825408 0.517946 0.000000
O O18 0.464496 0.855038 0.500000
#
# Coordination Sequence:
#
# PCOD9442634 Si02
#       7
#     8   8   8   8   8   8   8
#     4   9  18  37  60  84 115 151 187 229 288 347
#     4   9  18  34  60  89 114 148 192 236 287 345
#     4  12  25  38  57  86 118 155 198 243 292 347
#     4  10  19  37  62  84 114 155 194 237 291 348
#     4  10  21  38  64  92 117 150 193 244 293 347
#     4  11  24  42  60  82 117 160 199 239 296 353
#     4  10  21  37  60  89 119 153 192 242 295 346
#
# _framework density 17.877735000000001
#
# number of rings (size 3 to 8) (size 9 to 14) (size 15 to 20)
#    0.000    1.857    1.429    3.857    0.000    7.714 
#    2.571    0.000    0.000    0.000    0.000    0.000 
#    0.000    0.000    0.000    0.000    0.000    0.000 
#
# Total GULP energy -312846.916495 kJ/mol
# GULP energy per Si atom -5586.552080 kJ/mol
# Density = 1.783704 g / cm^3
# Si number density = 17.877735 Si / 1000 Ang^3
#
#
#
# Elastic Constant Matrix: (Units=GPa)
#
#
# Indices 1 2 3 4 5 6 
#
# 1 112.5006 92.9555 83.5645 0.0000 0.0000 0.0000
# 2 92.9555 144.4247 94.9161 0.0000 0.0000 0.0000
# 3 83.5645 94.9161 99.4398 0.0000 0.0000 0.0000
# 4 0.0000 0.0000 0.0000 13.6775 0.0000 0.0000
# 5 0.0000 0.0000 0.0000 0.0000 8.7592 0.0000
# 6 0.0000 0.0000 0.0000 0.0000 0.0000 12.1221
#
#
#
# Elastic Compliance Matrix: (Units=1/GPa)
#
#
# Indices 1 2 3 4 5 6 
#
# 1 0.025612 -0.006277 -0.015532 0.000000 0.000000 0.000000
# 2 -0.006277 0.020117 -0.013926 0.000000 0.000000 0.000000
# 3 -0.015532 -0.013926 0.036401 0.000000 0.000000 0.000000
# 4 0.000000 0.000000 0.000000 0.073113 0.000000 0.000000
# 5 0.000000 0.000000 0.000000 0.000000 0.114165 0.000000
# 6 0.000000 0.000000 0.000000 0.000000 0.000000 0.082494
#
#
# Mechanical properties :
#
#
# Convention : Reuss Voigt Hill
#
# Bulk Modulus (GPa) = 93.81231 99.91523 96.86377
# Shear Modulus (GPa) = 11.71162 12.57370 12.14266
#
# Velocity S-wave (km/s) = 2.56226 2.65489 2.60898
# Velocity P-wave (km/s) = 7.83210 8.08748 7.96082
#
# Compressibility (1/GPa) = 0.01065958
#
# Stress axis : x y z
#
# Youngs Moduli (GPa) = 39.04359 49.70976 27.47160
#
# Poissons Ratio (x) = 0.31205 0.42668
# Poissons Ratio (y) = 0.24509 0.38258
# Poissons Ratio (z) = 0.60641 0.69228
#
# Static dielectric constant tensor:
#      x y z
#    x 1.576550 0.000000 0.000000 
#    y 0.000000 1.612320 0.000000 
#    z 0.000000 0.000000 1.592250 
# 
# From -- ./inp_files/9163.got.cif
#   From: 2010.05.17/outbox.cif.g08.bks.cpg/sg58_5_cif.got.tgz:9163.got - 2010.06.03 14:20:14.
