data_PCOD9442762
_publ_section_title
;
Structure prediction by ZEFSAII (Michael W. Deem and Ramdas Pophale) SiO2 
 PCOD9442762
Probable space group: P N N M
;
_chemical_formula_sum "Si O2"
_cell_formula_units_Z 52
_cell_length_a 8.932645
_cell_length_b 12.319199
_cell_length_c 25.977315
_cell_angle_alpha 90.000000
_cell_angle_beta 90.000000
_cell_angle_gamma 90.000000
_cell_volume 2858.622489
_symmetry_space_group_name_H-M "P N N M"
_symmetry_group_IT_number 58
_symmetry_cell_setting 'orthorhombic'
loop_
_space_group_symop_operation_xyz
x,y,z
-x,-y,z
1/2+x,1/2-y,1/2-z
1/2-x,1/2+y,1/2-z
-x,-y,-z
x,y,-z
1/2-x,1/2+y,1/2+z
1/2+x,1/2-y,1/2+z
loop_
_atom_site_type_symbol
_atom_site_label
_atom_site_fract_x
_atom_site_fract_y
_atom_site_fract_z
Si Si1 0.528915 0.807358 0.253456
Si Si2 0.832422 0.958287 0.843613
Si Si3 0.911569 0.385151 0.058296
Si Si4 0.500000 0.000000 0.171331
Si Si5 0.368347 0.794920 0.361166
Si Si6 0.652135 0.393390 0.769635
Si Si7 0.834816 0.002546 0.379694
O O1 0.500666 0.895204 0.208993
O O2 0.435352 0.830302 0.305616
O O3 0.486967 0.687810 0.234334
O O4 0.702065 0.816674 0.268023
O O5 0.824451 0.830057 0.855894
O O6 0.838487 0.966353 0.781339
O O7 0.664021 0.002623 0.857299
O O8 0.000000 0.000000 0.861394
O O9 0.761890 0.419125 0.087176
O O10 0.000000 0.500000 0.056250
O O11 0.004969 0.307006 0.095283
O O12 0.893006 0.345757 0.000000
O O13 0.239379 0.878676 0.377498
O O14 0.658297 0.460415 0.821322
O O15 0.000000 0.000000 0.401464
#
# Coordination Sequence:
#
# PCOD9442762 Si02
#       7
#     8   8   8   4   8   8   8
#     4  10  20  32  49  74 107 150 187 225 265 326
#     4  10  22  36  53  78 111 154 190 228 271 330
#     4   9  19  37  59  80 106 143 185 234 286 337
#     4  10  22  32  50  74 114 148 184 234 266 326
#     4  10  20  37  54  79 107 143 191 226 274 342
#     4  10  21  32  50  76 111 151 187 225 271 334
#     4  11  22  32  54  83 114 145 180 231 288 343
#
# _framework density 18.190580000000001
#
# number of rings (size 3 to 8) (size 9 to 14) (size 15 to 20)
#    0.000    2.000    1.538    2.308   11.846    0.308 
#    0.000    0.000    0.000    0.462    0.000    0.538 
#    0.000    0.000    0.000    0.000    0.000    0.000 
#
# Total GULP energy -289891.198870 kJ/mol
# GULP energy per Si atom -5574.830748 kJ/mol
# Density = 1.814918 g / cm^3
# Si number density = 18.190580 Si / 1000 Ang^3
#
#
#
# Elastic Constant Matrix: (Units=GPa)
#
#
# Indices 1 2 3 4 5 6 
#
# 1 149.3549 40.0016 23.7898 0.0000 0.0000 0.0000
# 2 40.0016 50.2736 12.8304 0.0000 0.0000 0.0000
# 3 23.7898 12.8304 61.5231 0.0000 0.0000 0.0000
# 4 0.0000 0.0000 0.0000 12.8580 0.0000 0.0000
# 5 0.0000 0.0000 0.0000 0.0000 4.8803 0.0000
# 6 0.0000 0.0000 0.0000 0.0000 0.0000 29.2972
#
#
#
# Elastic Compliance Matrix: (Units=1/GPa)
#
#
# Indices 1 2 3 4 5 6 
#
# 1 0.008744 -0.006437 -0.002039 0.000000 0.000000 0.000000
# 2 -0.006437 0.025748 -0.002880 0.000000 0.000000 0.000000
# 3 -0.002039 -0.002880 0.017643 0.000000 0.000000 0.000000
# 4 0.000000 0.000000 0.000000 0.077772 0.000000 0.000000
# 5 0.000000 0.000000 0.000000 0.000000 0.204907 0.000000
# 6 0.000000 0.000000 0.000000 0.000000 0.000000 0.034133
#
#
# Mechanical properties :
#
#
# Convention : Reuss Voigt Hill
#
# Bulk Modulus (GPa) = 33.98757 46.04392 40.01574
# Shear Modulus (GPa) = 12.45428 21.70908 17.08168
#
# Velocity S-wave (km/s) = 2.61943 3.45835 3.06770
# Velocity P-wave (km/s) = 5.27951 6.42758 5.88163
#
# Compressibility (1/GPa) = 0.02942252
#
# Stress axis : x y z
#
# Youngs Moduli (GPa) = 114.35999 38.83750 56.67932
#
# Poissons Ratio (x) = 0.25001 0.11556
# Poissons Ratio (y) = 0.73617 0.16326
# Poissons Ratio (z) = 0.23316 0.11187
#
# Static dielectric constant tensor:
#      x y z
#    x 1.717250 0.000000 0.000000 
#    y 0.000000 1.633570 0.000000 
#    z 0.000000 0.000000 1.602200 
# 
# From -- ./inp_files/33292.got.cif
#   From: 2010.05.17/outbox.cif.g08.bks.cpg/sg58_17_cif.got.tgz:33292.got - 2010.06.03 14:20:14.
