data_PCOD9442692
_publ_section_title
;
Structure prediction by ZEFSAII (Michael W. Deem and Ramdas Pophale) SiO2 
 PCOD9442692
Probable space group: P N N M
;
_chemical_formula_sum "Si O2"
_cell_formula_units_Z 56
_cell_length_a 12.213885
_cell_length_b 16.071563
_cell_length_c 13.819157
_cell_angle_alpha 90.000000
_cell_angle_beta 90.000000
_cell_angle_gamma 90.000000
_cell_volume 2712.648314
_symmetry_space_group_name_H-M "P N N M"
_symmetry_group_IT_number 58
_symmetry_cell_setting 'orthorhombic'
loop_
_space_group_symop_operation_xyz
x,y,z
-x,-y,z
1/2+x,1/2-y,1/2-z
1/2-x,1/2+y,1/2-z
-x,-y,-z
x,y,-z
1/2-x,1/2+y,1/2+z
1/2+x,1/2-y,1/2+z
loop_
_atom_site_type_symbol
_atom_site_label
_atom_site_fract_x
_atom_site_fract_y
_atom_site_fract_z
Si Si1 0.967751 0.596940 0.683035
Si Si2 0.224134 0.931119 0.886314
Si Si3 0.207085 0.998518 0.610742
Si Si4 0.147093 0.717126 0.388476
Si Si5 0.564572 0.625404 0.228075
Si Si6 0.188104 0.106584 0.780992
Si Si7 0.937595 0.588894 0.894945
O O1 0.845560 0.599082 0.641718
O O2 0.969989 0.630580 0.793852
O O3 0.000000 0.500000 0.686838
O O4 0.055824 0.644980 0.619697
O O5 0.137889 0.878771 0.824264
O O6 0.207894 0.026671 0.850474
O O7 0.207160 0.925802 0.000000
O O8 0.184328 0.020539 0.500000
O O9 0.938981 0.878362 0.759424
O O10 0.309495 0.935185 0.612768
O O11 0.237897 0.076888 0.677839
O O12 0.174303 0.734197 0.500000
O O13 0.093889 0.795789 0.336582
O O14 0.251211 0.683923 0.328931
O O15 0.607021 0.547610 0.163346
O O16 0.000000 0.500000 0.898027
O O17 0.957394 0.629908 0.000000
#
# Coordination Sequence:
#
# PCOD9442692 Si02
#       7
#     8   8   8   8   8   8   8
#     4  11  20  39  67  98 131 166 221 280 321 386
#     4  11  22  41  70 100 128 168 224 281 333 388
#     4  10  19  38  65  94 129 172 220 269 326 387
#     4  12  27  45  66  95 134 180 222 271 341 404
#     4  11  26  42  63  94 135 175 215 274 334 411
#     4  11  23  42  66  97 132 170 223 282 323 394
#     4   9  16  29  56  92 127 160 200 259 323 372
#
# _framework density 20.644031999999999
#
# number of rings (size 3 to 8) (size 9 to 14) (size 15 to 20)
#    0.000    1.286    4.286    3.857    2.000    4.000 
#    0.000    1.429    0.000    0.000    0.000    0.000 
#    0.000    0.000    0.000    0.000    0.000    0.000 
#
# Total GULP energy -312930.669427 kJ/mol
# GULP energy per Si atom -5588.047668 kJ/mol
# Density = 2.059705 g / cm^3
# Si number density = 20.644032 Si / 1000 Ang^3
#
#
#
# Elastic Constant Matrix: (Units=GPa)
#
#
# Indices 1 2 3 4 5 6 
#
# 1 102.7237 16.0406 30.0778 0.0000 0.0000 0.0000
# 2 16.0406 42.1340 20.8068 0.0000 0.0000 0.0000
# 3 30.0778 20.8068 184.5725 0.0000 0.0000 0.0000
# 4 0.0000 0.0000 0.0000 -9.5998 0.0000 0.0000
# 5 0.0000 0.0000 0.0000 0.0000 44.0438 0.0000
# 6 0.0000 0.0000 0.0000 0.0000 0.0000 14.4738
#
#
#
# Elastic Compliance Matrix: (Units=1/GPa)
#
#
# Indices 1 2 3 4 5 6 
#
# 1 0.010661 -0.003389 -0.001355 0.000000 0.000000 0.000000
# 2 -0.003389 0.026211 -0.002402 0.000000 0.000000 0.000000
# 3 -0.001355 -0.002402 0.005910 0.000000 0.000000 0.000000
# 4 0.000000 0.000000 0.000000 -0.104169 0.000000 0.000000
# 5 0.000000 0.000000 0.000000 0.000000 0.022705 0.000000
# 6 0.000000 0.000000 0.000000 0.000000 0.000000 0.069090
#
#
# Mechanical properties :
#
#
# Convention : Reuss Voigt Hill
#
# Bulk Modulus (GPa) = 35.10368 51.47562 43.28965
# Shear Modulus (GPa) = 92.25645 27.28390 59.77017
#
# Velocity S-wave (km/s) = 6.69225 3.63938 5.38661
# Velocity P-wave (km/s) = 8.76106 6.53063 7.72674
#
# Compressibility (1/GPa) = 0.02848704
#
# Stress axis : x y z
#
# Youngs Moduli (GPa) = 93.80045 38.15257 169.21658
#
# Poissons Ratio (x) = 0.12932 0.22932
# Poissons Ratio (y) = 0.31793 0.40652
# Poissons Ratio (z) = 0.12712 0.09166
#
# Static dielectric constant tensor:
#      x y z
#    x 1.747600 0.000000 0.000000 
#    y 0.000000 1.763410 0.000000 
#    z 0.000000 0.000000 1.743960 
# 
# From -- ./inp_files/22995.got.cif
#   From: 2010.05.17/outbox.cif.g08.bks.cpg/sg58_12_cif.got.tgz:22995.got - 2010.06.03 14:20:14.
