data_PCOD9442605
_publ_section_title
;
Structure prediction by ZEFSAII (Michael W. Deem and Ramdas Pophale) SiO2 
 PCOD9442605
Probable space group: P N N M
;
_chemical_formula_sum "Si O2"
_cell_formula_units_Z 56
_cell_length_a 6.899075
_cell_length_b 14.268296
_cell_length_c 31.023106
_cell_angle_alpha 90.000000
_cell_angle_beta 90.000000
_cell_angle_gamma 90.000000
_cell_volume 3053.853880
_symmetry_space_group_name_H-M "P N N M"
_symmetry_group_IT_number 58
_symmetry_cell_setting 'orthorhombic'
loop_
_space_group_symop_operation_xyz
x,y,z
-x,-y,z
1/2+x,1/2-y,1/2-z
1/2-x,1/2+y,1/2-z
-x,-y,-z
x,y,-z
1/2-x,1/2+y,1/2+z
1/2+x,1/2-y,1/2+z
loop_
_atom_site_type_symbol
_atom_site_label
_atom_site_fract_x
_atom_site_fract_y
_atom_site_fract_z
Si Si1 0.626515 0.090633 0.823009
Si Si2 0.533541 0.605441 0.741311
Si Si3 0.457416 0.897626 0.077921
Si Si4 0.516965 0.610102 0.050720
Si Si5 0.667312 0.753664 0.548326
Si Si6 0.800341 0.267244 0.299050
Si Si7 0.216973 0.249830 0.898270
O O1 0.833629 0.090637 0.800875
O O2 0.636458 0.089938 0.874607
O O3 0.503028 0.179827 0.807762
O O4 0.500000 0.000000 0.810138
O O5 0.500000 0.500000 0.758688
O O6 0.341868 0.663042 0.727228
O O7 0.653488 0.672156 0.773568
O O8 0.310319 0.835107 0.050963
O O9 0.654125 0.839111 0.086306
O O10 0.500000 0.000000 0.059864
O O11 0.500000 0.500000 0.058333
O O12 0.308919 0.659093 0.057688
O O13 0.670483 0.661325 0.081379
O O14 0.567476 0.625548 0.000000
O O15 0.587533 0.763091 0.500000
O O16 0.495594 0.745284 0.582028
O O17 0.714747 0.248333 0.346558
#
# Coordination Sequence:
#
# PCOD9442605 Si02
#       7
#     8   8   8   8   8   8   8
#     4  10  19  37  59  83 111 146 197 240 282 348
#     4  12  23  37  62  86 112 153 197 241 297 352
#     4   9  20  36  55  81 114 150 190 234 283 337
#     4   9  19  37  62  86 113 150 193 239 289 348
#     4  10  20  36  58  85 116 150 192 238 285 343
#     4  11  23  38  58  85 119 153 191 245 293 344
#     4  10  21  37  57  83 115 153 190 234 290 343
#
# _framework density 18.337485999999998
#
# number of rings (size 3 to 8) (size 9 to 14) (size 15 to 20)
#    0.000    1.857    2.857    1.286    0.000    2.571 
#    0.000    2.857    6.286    0.000    0.000    0.000 
#    0.000    0.000    0.000    0.000    0.000    0.000 
#
# Total GULP energy -312574.904542 kJ/mol
# GULP energy per Si atom -5581.694724 kJ/mol
# Density = 1.829575 g / cm^3
# Si number density = 18.337486 Si / 1000 Ang^3
#
#
#
# Elastic Constant Matrix: (Units=GPa)
#
#
# Indices 1 2 3 4 5 6 
#
# 1 54.6769 33.1593 28.1325 0.0000 0.0000 0.0000
# 2 33.1593 136.9819 38.5944 0.0000 0.0000 0.0000
# 3 28.1325 38.5944 59.7914 0.0000 0.0000 0.0000
# 4 0.0000 0.0000 0.0000 16.6955 0.0000 0.0000
# 5 0.0000 0.0000 0.0000 0.0000 30.4573 0.0000
# 6 0.0000 0.0000 0.0000 0.0000 0.0000 16.6244
#
#
#
# Elastic Compliance Matrix: (Units=1/GPa)
#
#
# Indices 1 2 3 4 5 6 
#
# 1 0.025360 -0.003394 -0.009741 0.000000 0.000000 0.000000
# 2 -0.003394 0.009377 -0.004456 0.000000 0.000000 0.000000
# 3 -0.009741 -0.004456 0.024184 0.000000 0.000000 0.000000
# 4 0.000000 0.000000 0.000000 0.059896 0.000000 0.000000
# 5 0.000000 0.000000 0.000000 0.000000 0.032833 0.000000
# 6 0.000000 0.000000 0.000000 0.000000 0.000000 0.060153
#
#
# Mechanical properties :
#
#
# Convention : Reuss Voigt Hill
#
# Bulk Modulus (GPa) = 42.12496 50.13585 46.13040
# Shear Modulus (GPa) = 19.61564 22.85970 21.23767
#
# Velocity S-wave (km/s) = 3.27418 3.53457 3.40686
# Velocity P-wave (km/s) = 6.10865 6.63759 6.37860
#
# Compressibility (1/GPa) = 0.02373890
#
# Stress axis : x y z
#
# Youngs Moduli (GPa) = 39.43254 106.64017 41.34925
#
# Poissons Ratio (x) = 0.36197 0.40278
# Poissons Ratio (y) = 0.13385 0.18425
# Poissons Ratio (z) = 0.38411 0.47517
#
# Static dielectric constant tensor:
#      x y z
#    x 1.610810 0.000000 0.000000 
#    y 0.000000 1.639700 0.000000 
#    z 0.000000 0.000000 1.620780 
# 
# From -- ./inp_files/34185.got.cif
#   From: 2010.05.17/outbox.cif.g08.bks.cpg/sg58_18_cif.got.tgz:34185.got - 2010.06.03 14:20:14.
