data_PCOD9442521
_publ_section_title
;
Structure prediction by ZEFSAII (Michael W. Deem and Ramdas Pophale) SiO2 
 PCOD9442521
Probable space group: P N N M
;
_chemical_formula_sum "Si O2"
_cell_formula_units_Z 48
_cell_length_a 19.433100
_cell_length_b 7.903278
_cell_length_c 12.964642
_cell_angle_alpha 90.000000
_cell_angle_beta 90.000000
_cell_angle_gamma 90.000000
_cell_volume 1991.177027
_symmetry_space_group_name_H-M "P N N M"
_symmetry_group_IT_number 58
_symmetry_cell_setting 'orthorhombic'
loop_
_space_group_symop_operation_xyz
x,y,z
-x,-y,z
1/2+x,1/2-y,1/2-z
1/2-x,1/2+y,1/2-z
-x,-y,-z
x,y,-z
1/2-x,1/2+y,1/2+z
1/2+x,1/2-y,1/2+z
loop_
_atom_site_type_symbol
_atom_site_label
_atom_site_fract_x
_atom_site_fract_y
_atom_site_fract_z
Si Si1 0.536351 0.679315 0.888740
Si Si2 0.327093 0.519675 0.890138
Si Si3 0.106487 0.078266 0.000000
Si Si4 0.646255 0.105362 0.113708
Si Si5 0.301466 0.435676 0.670843
Si Si6 0.471623 0.212349 0.500000
Si Si7 0.910267 0.364376 0.788839
O O1 0.500000 0.500000 0.879040
O O2 0.617629 0.631377 0.892373
O O3 0.530569 0.782840 0.784670
O O4 0.516686 0.753969 0.000000
O O5 0.286022 0.504357 0.785265
O O6 0.369184 0.695086 0.883857
O O7 0.289003 0.519144 0.000000
O O8 0.154511 0.066477 0.898387
O O9 0.051419 0.229102 0.000000
O O10 0.066271 0.897590 0.000000
O O11 0.729112 0.098664 0.118340
O O12 0.617612 0.010520 0.213612
O O13 0.625254 0.038065 0.000000
O O14 0.348531 0.269388 0.686918
O O15 0.444462 0.114306 0.600293
#
# Coordination Sequence:
#
# PCOD9442521 Si02
#       7
#     8   8   4   8   8   4   8
#     4   9  18  34  57  84 108 143 196 244 283 338
#     4   9  20  35  55  82 115 150 188 238 293 342
#     4   9  18  34  61  87 109 147 195 245 282 336
#     4  11  21  37  55  81 120 154 190 235 293 361
#     4  10  19  36  58  84 111 151 197 236 284 346
#     4   9  20  34  57  89 117 141 195 246 293 343
#     4  10  21  34  59  85 113 149 190 241 294 349
#
# _framework density 24.106345000000001
#
# number of rings (size 3 to 8) (size 9 to 14) (size 15 to 20)
#    0.000    2.333    0.833    1.500    7.000    0.667 
#    1.500    1.667    0.000    5.000    0.000    0.000 
#    0.000    0.000    0.000    0.000    0.000    0.000 
#
# Total GULP energy -268038.209772 kJ/mol
# GULP energy per Si atom -5584.129370 kJ/mol
# Density = 2.405148 g / cm^3
# Si number density = 24.106345 Si / 1000 Ang^3
#
#
#
# Elastic Constant Matrix: (Units=GPa)
#
#
# Indices 1 2 3 4 5 6 
#
# 1 91.7390 24.5603 49.5590 0.0000 0.0000 0.0000
# 2 24.5603 59.7381 51.0917 0.0000 0.0000 0.0000
# 3 49.5590 51.0917 245.5323 0.0000 0.0000 0.0000
# 4 0.0000 0.0000 0.0000 -20.6261 0.0000 0.0000
# 5 0.0000 0.0000 0.0000 0.0000 15.7075 0.0000
# 6 0.0000 0.0000 0.0000 0.0000 0.0000 33.4146
#
#
#
# Elastic Compliance Matrix: (Units=1/GPa)
#
#
# Indices 1 2 3 4 5 6 
#
# 1 0.012886 -0.003739 -0.001823 0.000000 0.000000 0.000000
# 2 -0.003739 0.021449 -0.003708 0.000000 0.000000 0.000000
# 3 -0.001823 -0.003708 0.005212 0.000000 0.000000 0.000000
# 4 0.000000 0.000000 0.000000 -0.048482 0.000000 0.000000
# 5 0.000000 0.000000 0.000000 0.000000 0.063664 0.000000
# 6 0.000000 0.000000 0.000000 0.000000 0.000000 0.029927
#
#
# Mechanical properties :
#
#
# Convention : Reuss Voigt Hill
#
# Bulk Modulus (GPa) = 47.60392 71.93681 59.77037
# Shear Modulus (GPa) = 45.37249 23.81908 34.59579
#
# Velocity S-wave (km/s) = 4.34312 3.14679 3.79242
# Velocity P-wave (km/s) = 6.70377 6.56577 6.63513
#
# Compressibility (1/GPa) = 0.02100667
#
# Stress axis : x y z
#
# Youngs Moduli (GPa) = 77.60201 46.62303 191.84916
#
# Poissons Ratio (x) = 0.17432 0.34974
# Poissons Ratio (y) = 0.29014 0.71147
# Poissons Ratio (z) = 0.14147 0.17290
#
# Static dielectric constant tensor:
#      x y z
#    x 1.940590 0.000000 0.000000 
#    y 0.000000 1.938950 0.000000 
#    z 0.000000 0.000000 1.949040 
# 
# From -- ./inp_files/17424.got.cif
#   From: 2010.05.17/outbox.cif.g08.bks.cpg/sg58_9_cif.got.tgz:17424.got - 2010.06.03 14:20:14.
