data_PCOD9442733
_publ_section_title
;
Structure prediction by ZEFSAII (Michael W. Deem and Ramdas Pophale) SiO2 
 PCOD9442733
Probable space group: P N N M
;
_chemical_formula_sum "Si O2"
_cell_formula_units_Z 64
_cell_length_a 12.619054
_cell_length_b 29.327418
_cell_length_c 7.308993
_cell_angle_alpha 90.000000
_cell_angle_beta 90.000000
_cell_angle_gamma 90.000000
_cell_volume 2704.943349
_symmetry_space_group_name_H-M "P N N M"
_symmetry_group_IT_number 58
_symmetry_cell_setting 'orthorhombic'
loop_
_space_group_symop_operation_xyz
x,y,z
-x,-y,z
1/2+x,1/2-y,1/2-z
1/2-x,1/2+y,1/2-z
-x,-y,-z
x,y,-z
1/2-x,1/2+y,1/2+z
1/2+x,1/2-y,1/2+z
loop_
_atom_site_type_symbol
_atom_site_label
_atom_site_fract_x
_atom_site_fract_y
_atom_site_fract_z
Si Si1 0.863634 0.222712 0.216571
Si Si2 0.084197 0.433559 0.276466
Si Si3 0.148717 0.577545 0.276755
Si Si4 0.926583 0.079393 0.212054
Si Si5 0.441775 0.662136 0.275545
Si Si6 0.719894 0.146544 0.788232
Si Si7 0.795934 0.323332 0.281045
Si Si8 0.781226 0.002907 0.222920
O O1 0.762933 0.193919 0.290874
O O2 0.853551 0.276247 0.239993
O O3 0.970999 0.199145 0.284040
O O4 0.862915 0.213686 0.000000
O O5 0.085137 0.433783 0.500000
O O6 0.124405 0.383698 0.213027
O O7 0.175951 0.468631 0.224174
O O8 0.964460 0.443010 0.220341
O O9 0.149498 0.576633 0.500000
O O10 0.152895 0.629683 0.216330
O O11 0.250809 0.548034 0.220527
O O12 0.822602 0.112690 0.214974
O O13 0.883073 0.031519 0.288233
O O14 0.018566 0.112011 0.286101
O O15 0.954750 0.070616 0.000000
O O16 0.441887 0.660755 0.500000
O O17 0.325409 0.676146 0.216128
O O18 0.691253 0.154737 0.000000
O O19 0.792975 0.326290 0.500000
O O20 0.787963 0.003661 0.000000
#
# Coordination Sequence:
#
# PCOD9442733 Si02
#       8
#     8   8   8   8   8   8   8   8
#     4   9  17  31  49  63  78 110 155 185 204 249
#     4   8  12  19  33  54  81 109 134 167 215 258
#     4   9  16  23  31  50  85 119 137 161 211 262
#     4   7  10  19  36  54  72 100 138 169 194 238
#     4   8  15  29  45  59  82 115 141 170 219 265
#     4   7  11  20  36  57  74  93 132 179 206 231
#     4  10  20  31  42  62  93 118 137 173 225 262
#     4   8  12  19  33  53  78 110 144 170 197 247
#
# _framework density 23.660382999999999
#
# number of rings (size 3 to 8) (size 9 to 14) (size 15 to 20)
#    0.000    3.750    0.000    3.375    0.000    2.500 
#    0.000    2.500    0.000    3.750    0.000    0.000 
#    0.000   13.000    0.000    0.000    0.000    0.750 
#
# Total GULP energy -356838.221011 kJ/mol
# GULP energy per Si atom -5575.597203 kJ/mol
# Density = 2.360653 g / cm^3
# Si number density = 23.660383 Si / 1000 Ang^3
#
#
#
# Elastic Constant Matrix: (Units=GPa)
#
#
# Indices 1 2 3 4 5 6 
#
# 1 68.6807 18.0097 -1.1602 0.0000 0.0000 0.0000
# 2 18.0097 74.6810 -4.9620 0.0000 0.0000 0.0000
# 3 -1.1602 -4.9620 92.2638 0.0000 0.0000 0.0000
# 4 0.0000 0.0000 0.0000 3.0126 0.0000 0.0000
# 5 0.0000 0.0000 0.0000 0.0000 -33.0084 0.0000
# 6 0.0000 0.0000 0.0000 0.0000 0.0000 25.7632
#
#
#
# Elastic Compliance Matrix: (Units=1/GPa)
#
#
# Indices 1 2 3 4 5 6 
#
# 1 0.015543 -0.003749 -0.000006 0.000000 0.000000 0.000000
# 2 -0.003749 0.014342 0.000724 0.000000 0.000000 0.000000
# 3 -0.000006 0.000724 0.010877 0.000000 0.000000 0.000000
# 4 0.000000 0.000000 0.000000 0.331942 0.000000 0.000000
# 5 0.000000 0.000000 0.000000 0.000000 -0.030295 0.000000
# 6 0.000000 0.000000 0.000000 0.000000 0.000000 0.038815
#
#
# Mechanical properties :
#
#
# Convention : Reuss Voigt Hill
#
# Bulk Modulus (GPa) = 28.81718 28.82228 28.81973
# Shear Modulus (GPa) = 12.53593 14.06935 13.30264
#
# Velocity S-wave (km/s) = 2.30430 2.44116 2.37372
# Velocity P-wave (km/s) = 4.39154 4.48930 4.44069
#
# Compressibility (1/GPa) = 0.03470152
#
# Stress axis : x y z
#
# Youngs Moduli (GPa) = 64.33756 69.72327 91.93407
#
# Poissons Ratio (x) = 0.26137 0.00057
# Poissons Ratio (y) = 0.24118 -0.06658
# Poissons Ratio (z) = 0.00040 -0.05049
#
# Static dielectric constant tensor:
#      x y z
#    x 1.863860 0.000000 0.000000 
#    y 0.000000 1.922410 0.000000 
#    z 0.000000 0.000000 3.485310 
# 
# From -- ./inp_files/14913.got.cif
#   From: 2010.05.17/outbox.cif.g08.bks.cpg/sg58_8_cif.got.tgz:14913.got - 2010.06.03 14:20:14.
