data_PCOD9442938
_publ_section_title
;
Structure prediction by ZEFSAII (Michael W. Deem and Ramdas Pophale) SiO2 
 PCOD9442938
Probable space group: P N N M
;
_chemical_formula_sum "Si O2"
_cell_formula_units_Z 48
_cell_length_a 18.394899
_cell_length_b 16.044963
_cell_length_c 7.461615
_cell_angle_alpha 90.000000
_cell_angle_beta 90.000000
_cell_angle_gamma 90.000000
_cell_volume 2202.261895
_symmetry_space_group_name_H-M "P N N M"
_symmetry_group_IT_number 58
_symmetry_cell_setting 'orthorhombic'
loop_
_space_group_symop_operation_xyz
x,y,z
-x,-y,z
1/2+x,1/2-y,1/2-z
1/2-x,1/2+y,1/2-z
-x,-y,-z
x,y,-z
1/2-x,1/2+y,1/2+z
1/2+x,1/2-y,1/2+z
loop_
_atom_site_type_symbol
_atom_site_label
_atom_site_fract_x
_atom_site_fract_y
_atom_site_fract_z
Si Si1 0.456516 0.082421 0.219074
Si Si2 0.794950 0.084585 0.216574
Si Si3 0.209875 0.578915 0.714158
Si Si4 0.209294 0.252402 0.285291
Si Si5 0.534348 0.584797 0.212201
Si Si6 0.042568 0.252591 0.719645
O O1 0.373021 0.081554 0.280757
O O2 0.498794 0.165407 0.275834
O O3 0.500000 0.000000 0.274305
O O4 0.455711 0.082751 0.000000
O O5 0.754785 0.168176 0.281529
O O6 0.879383 0.085233 0.264966
O O7 0.754723 0.000949 0.281821
O O8 0.791358 0.084444 0.000000
O O9 0.205085 0.568980 0.500000
O O10 0.251224 0.665297 0.747547
O O11 0.205818 0.260475 0.500000
O O12 0.126223 0.253393 0.220884
O O13 0.500000 0.500000 0.287441
O O14 0.497568 0.668948 0.282292
O O15 0.518677 0.584997 0.000000
O O16 0.042435 0.252991 0.500000
#
# Coordination Sequence:
#
# PCOD9442938 Si02
#       6
#     8   8   8   8   8   8
#     4   9  16  28  49  74  97 124 162 207 249 290
#     4  10  21  35  52  77 108 138 168 209 263 315
#     4  10  20  34  53  78 105 133 169 212 256 303
#     4  10  20  35  54  76 104 137 171 209 257 310
#     4  10  20  34  53  76 101 133 174 215 253 298
#     4   9  17  30  49  72  97 127 166 209 248 292
#
# _framework density 21.795774000000002
#
# number of rings (size 3 to 8) (size 9 to 14) (size 15 to 20)
#    0.000    2.333    0.000    3.000    0.000    8.333 
#    0.000    0.833    0.000    1.500    0.000    0.000 
#    0.000    0.000    0.000    0.000    0.000    0.000 
#
# Total GULP energy -268346.386462 kJ/mol
# GULP energy per Si atom -5590.549718 kJ/mol
# Density = 2.174617 g / cm^3
# Si number density = 21.795774 Si / 1000 Ang^3
#
#
#
# Elastic Constant Matrix: (Units=GPa)
#
#
# Indices 1 2 3 4 5 6 
#
# 1 209.5409 137.5307 -16.4092 0.0000 0.0000 0.0000
# 2 137.5307 255.5821 -4.1551 0.0000 0.0000 0.0000
# 3 -16.4092 -4.1551 59.3620 0.0000 0.0000 0.0000
# 4 0.0000 0.0000 0.0000 5.3556 0.0000 0.0000
# 5 0.0000 0.0000 0.0000 0.0000 18.0291 0.0000
# 6 0.0000 0.0000 0.0000 0.0000 0.0000 50.5476
#
#
#
# Elastic Compliance Matrix: (Units=1/GPa)
#
#
# Indices 1 2 3 4 5 6 
#
# 1 0.007567 -0.004043 0.001809 0.000000 0.000000 0.000000
# 2 -0.004043 0.006077 -0.000692 0.000000 0.000000 0.000000
# 3 0.001809 -0.000692 0.017297 0.000000 0.000000 0.000000
# 4 0.000000 0.000000 0.000000 0.186722 0.000000 0.000000
# 5 0.000000 0.000000 0.000000 0.000000 0.055466 0.000000
# 6 0.000000 0.000000 0.000000 0.000000 0.000000 0.019783
#
#
# Mechanical properties :
#
#
# Convention : Reuss Voigt Hill
#
# Bulk Modulus (GPa) = 39.85717 84.26865 62.06291
# Shear Modulus (GPa) = 16.27987 41.95434 29.11711
#
# Velocity S-wave (km/s) = 2.73596 4.39211 3.65897
# Velocity P-wave (km/s) = 5.32043 8.02917 6.81082
#
# Compressibility (1/GPa) = 0.02508959
#
# Stress axis : x y z
#
# Youngs Moduli (GPa) = 132.14675 164.56142 57.81227
#
# Poissons Ratio (x) = 0.66526 -0.10457
# Poissons Ratio (y) = 0.53422 0.04001
# Poissons Ratio (z) = -0.23903 0.11390
#
# Static dielectric constant tensor:
#      x y z
#    x 1.729990 0.000000 0.000000 
#    y 0.000000 1.753320 0.000000 
#    z 0.000000 0.000000 1.845170 
# 
# From -- ./inp_files/5859.got.cif
#   From: 2010.05.17/outbox.cif.g08.bks.cpg/sg58_3_cif.got.tgz:5859.got - 2010.06.03 14:20:14.
