data_PCOD9442279
_publ_section_title
;
Structure prediction by ZEFSAII (Michael W. Deem and Ramdas Pophale) SiO2 
 PCOD9442279
Probable space group: P N N M
;
_chemical_formula_sum "Si O2"
_cell_formula_units_Z 56
_cell_length_a 19.461587
_cell_length_b 13.876756
_cell_length_c 9.542036
_cell_angle_alpha 90.000000
_cell_angle_beta 90.000000
_cell_angle_gamma 90.000000
_cell_volume 2576.957492
_symmetry_space_group_name_H-M "P N N M"
_symmetry_group_IT_number 58
_symmetry_cell_setting 'orthorhombic'
loop_
_space_group_symop_operation_xyz
x,y,z
-x,-y,z
1/2+x,1/2-y,1/2-z
1/2-x,1/2+y,1/2-z
-x,-y,-z
x,y,-z
1/2-x,1/2+y,1/2+z
1/2+x,1/2-y,1/2+z
loop_
_atom_site_type_symbol
_atom_site_label
_atom_site_fract_x
_atom_site_fract_y
_atom_site_fract_z
Si Si1 0.138595 0.719413 0.157096
Si Si2 0.576998 0.403209 0.162594
Si Si3 0.492092 0.222727 0.834194
Si Si4 0.434857 0.930326 0.340327
Si Si5 0.651898 0.547965 0.339527
Si Si6 0.791677 0.763352 0.662675
Si Si7 0.214898 0.431932 0.165643
O O1 0.080334 0.694546 0.267207
O O2 0.216960 0.687353 0.180964
O O3 0.142933 0.836572 0.160701
O O4 0.117105 0.689488 0.000000
O O5 0.514417 0.332206 0.198433
O O6 0.590641 0.492453 0.262674
O O7 0.645105 0.335860 0.174287
O O8 0.571056 0.433324 0.000000
O O9 0.549369 0.153828 0.768092
O O10 0.491123 0.212485 0.000000
O O11 0.431397 0.891916 0.500000
O O12 0.360615 0.977780 0.313941
O O13 0.500000 0.000000 0.332457
O O14 0.657981 0.516127 0.500000
O O15 0.721668 0.527685 0.253365
O O16 0.791733 0.725819 0.500000
O O17 0.794826 0.676814 0.773967
O O18 0.231189 0.432837 0.000000
#
# Coordination Sequence:
#
# PCOD9442279 Si02
#       7
#     8   8   8   8   8   8   8
#     4   9  20  38  58  80 113 155 193 235 285 346
#     4  10  21  37  58  84 115 151 193 239 291 345
#     4  11  23  38  59  86 117 153 190 241 296 342
#     4  10  22  39  59  84 116 155 194 232 284 352
#     4  10  22  38  58  84 114 152 194 240 290 340
#     4   9  18  36  59  80 109 150 191 234 287 344
#     4  10  19  34  58  83 109 144 187 236 285 336
#
# _framework density 21.731055000000001
#
# number of rings (size 3 to 8) (size 9 to 14) (size 15 to 20)
#    0.000    2.143    1.429    2.143    0.000    7.143 
#    0.000    8.571    0.000    0.000    0.000    0.000 
#    0.000    0.000    0.000    0.000    0.000    0.000 
#
# Total GULP energy -312987.284442 kJ/mol
# GULP energy per Si atom -5589.058651 kJ/mol
# Density = 2.168159 g / cm^3
# Si number density = 21.731055 Si / 1000 Ang^3
#
#
#
# Elastic Constant Matrix: (Units=GPa)
#
#
# Indices 1 2 3 4 5 6 
#
# 1 95.1211 9.6748 44.5194 0.0000 0.0000 0.0000
# 2 9.6748 41.6096 33.0584 0.0000 0.0000 0.0000
# 3 44.5194 33.0584 78.1540 0.0000 0.0000 0.0000
# 4 0.0000 0.0000 0.0000 12.5959 0.0000 0.0000
# 5 0.0000 0.0000 0.0000 0.0000 -35.5055 0.0000
# 6 0.0000 0.0000 0.0000 0.0000 0.0000 37.0080
#
#
#
# Elastic Compliance Matrix: (Units=1/GPa)
#
#
# Indices 1 2 3 4 5 6 
#
# 1 0.014987 0.004967 -0.010638 0.000000 0.000000 0.000000
# 2 0.004967 0.037844 -0.018837 0.000000 0.000000 0.000000
# 3 -0.010638 -0.018837 0.026823 0.000000 0.000000 0.000000
# 4 0.000000 0.000000 0.000000 0.079391 0.000000 0.000000
# 5 0.000000 0.000000 0.000000 0.000000 -0.028165 0.000000
# 6 0.000000 0.000000 0.000000 0.000000 0.000000 0.027021
#
#
# Mechanical properties :
#
#
# Convention : Reuss Voigt Hill
#
# Bulk Modulus (GPa) = 32.63957 43.26554 37.95255
# Shear Modulus (GPa) = 23.02774 11.32848 17.17811
#
# Velocity S-wave (km/s) = 3.25879 2.28568 2.81461
# Velocity P-wave (km/s) = 5.40481 5.18831 5.29767
#
# Compressibility (1/GPa) = 0.03063766
#
# Stress axis : x y z
#
# Youngs Moduli (GPa) = 66.72622 26.42429 37.28136
#
# Poissons Ratio (x) = -0.13126 0.39660
# Poissons Ratio (y) = -0.33145 0.70228
# Poissons Ratio (z) = 0.70984 0.49776
#
# Static dielectric constant tensor:
#      x y z
#    x 1.812170 0.000000 0.000000 
#    y 0.000000 1.831970 0.000000 
#    z 0.000000 0.000000 1.732110 
# 
# From -- ./inp_files/6346.got.cif
#   From: 2010.05.17/outbox.cif.g08.bks.cpg/sg58_4_cif.got.tgz:6346.got - 2010.06.03 14:20:14.
