data_PCOD9442748
_publ_section_title
;
Structure prediction by ZEFSAII (Michael W. Deem and Ramdas Pophale) SiO2 
 PCOD9442748
Probable space group: P N N M
;
_chemical_formula_sum "Si O2"
_cell_formula_units_Z 48
_cell_length_a 8.035647
_cell_length_b 29.187410
_cell_length_c 7.169689
_cell_angle_alpha 90.000000
_cell_angle_beta 90.000000
_cell_angle_gamma 90.000000
_cell_volume 1681.576876
_symmetry_space_group_name_H-M "P N N M"
_symmetry_group_IT_number 58
_symmetry_cell_setting 'orthorhombic'
loop_
_space_group_symop_operation_xyz
x,y,z
-x,-y,z
1/2+x,1/2-y,1/2-z
1/2-x,1/2+y,1/2-z
-x,-y,-z
x,y,-z
1/2-x,1/2+y,1/2+z
1/2+x,1/2-y,1/2+z
loop_
_atom_site_type_symbol
_atom_site_label
_atom_site_fract_x
_atom_site_fract_y
_atom_site_fract_z
Si Si1 0.351903 0.347992 0.725568
Si Si2 0.026187 0.404441 0.271804
Si Si3 0.562460 0.429864 0.275919
Si Si4 0.024830 0.239791 0.224868
Si Si5 0.821751 0.322739 0.711803
Si Si6 0.225277 0.489092 0.275654
O O1 0.350505 0.348716 0.500000
O O2 0.187377 0.374415 0.783605
O O3 0.509908 0.379195 0.785467
O O4 0.378379 0.295815 0.781664
O O5 0.017346 0.405670 0.500000
O O6 0.874727 0.371957 0.210813
O O7 0.074186 0.456125 0.213478
O O8 0.581525 0.428082 0.500000
O O9 0.393038 0.459080 0.242314
O O10 0.717035 0.460697 0.208856
O O11 0.985177 0.290211 0.295269
O O12 0.186080 0.211922 0.292855
O O13 0.030900 0.243035 0.000000
O O14 0.766030 0.331522 0.500000
O O15 0.205307 0.492832 0.500000
#
# Coordination Sequence:
#
# PCOD9442748 Si02
#       6
#     8   8   8   8   8   8
#     4   8  13  22  37  56  79 108 139 171 208 247
#     4   8  13  22  37  56  79 108 139 171 208 247
#     4   7   9  14  27  49  75 102 133 166 198 236
#     4  10  20  32  46  64  86 113 145 180 217 257
#     4  10  20  32  46  64  86 113 145 180 217 257
#     4   7   9  14  27  49  75 102 133 166 198 236
#
# _framework density 28.544633999999999
#
# number of rings (size 3 to 8) (size 9 to 14) (size 15 to 20)
#    0.000    3.667    0.000    4.000    0.000    2.000 
#    0.000    0.000    0.000    1.000    0.000    7.000 
#    0.000    1.333    0.000   15.333    0.000   17.667 
#
# Total GULP energy -268410.931186 kJ/mol
# GULP energy per Si atom -5591.894400 kJ/mol
# Density = 2.847966 g / cm^3
# Si number density = 28.544634 Si / 1000 Ang^3
#
#
#
# Elastic Constant Matrix: (Units=GPa)
#
#
# Indices 1 2 3 4 5 6 
#
# 1 118.9673 34.5801 -8.6041 0.0000 0.0000 0.0000
# 2 34.5801 248.2285 -3.8295 0.0000 0.0000 0.0000
# 3 -8.6041 -3.8295 148.7695 0.0000 0.0000 0.0000
# 4 0.0000 0.0000 0.0000 -3.8391 0.0000 0.0000
# 5 0.0000 0.0000 0.0000 0.0000 -7.8005 0.0000
# 6 0.0000 0.0000 0.0000 0.0000 0.0000 68.0832
#
#
#
# Elastic Compliance Matrix: (Units=1/GPa)
#
#
# Indices 1 2 3 4 5 6 
#
# 1 0.008794 -0.001218 0.000477 0.000000 0.000000 0.000000
# 2 -0.001218 0.004199 0.000038 0.000000 0.000000 0.000000
# 3 0.000477 0.000038 0.006750 0.000000 0.000000 0.000000
# 4 0.000000 0.000000 0.000000 -0.260479 0.000000 0.000000
# 5 0.000000 0.000000 0.000000 0.000000 -0.128197 0.000000
# 6 0.000000 0.000000 0.000000 0.000000 0.000000 0.014688
#
#
# Mechanical properties :
#
#
# Convention : Reuss Voigt Hill
#
# Bulk Modulus (GPa) = 54.53255 62.25092 58.39174
# Shear Modulus (GPa) = -14.42059 44.20998 14.89469
#
# Velocity S-wave (km/s) = -2.25009 3.93975 2.28678
# Velocity P-wave (km/s) = 3.52069 6.52312 5.24149
#
# Compressibility (1/GPa) = 0.01833767
#
# Stress axis : x y z
#
# Youngs Moduli (GPa) = 113.71198 238.16519 148.13985
#
# Poissons Ratio (x) = 0.29002 -0.07070
# Poissons Ratio (y) = 0.13847 -0.00558
# Poissons Ratio (z) = -0.05427 -0.00897
#
# Static dielectric constant tensor:
#      x y z
#    x 2.323120 0.000000 0.000000 
#    y 0.000000 2.131730 0.000000 
#    z 0.000000 0.000000 2.182700 
# 
# From -- ./inp_files/4502.got.cif
#   From: 2010.05.17/outbox.cif.g08.bks.cpg/sg58_3_cif.got.tgz:4502.got - 2010.06.03 14:20:14.
