data_PCOD9442701
_publ_section_title
;
Structure prediction by ZEFSAII (Michael W. Deem and Ramdas Pophale) SiO2 
 PCOD9442701
Probable space group: P N N M
;
_chemical_formula_sum "Si O2"
_cell_formula_units_Z 56
_cell_length_a 5.220967
_cell_length_b 28.368977
_cell_length_c 16.488036
_cell_angle_alpha 90.000000
_cell_angle_beta 90.000000
_cell_angle_gamma 90.000000
_cell_volume 2442.100600
_symmetry_space_group_name_H-M "P N N M"
_symmetry_group_IT_number 58
_symmetry_cell_setting 'orthorhombic'
loop_
_space_group_symop_operation_xyz
x,y,z
-x,-y,z
1/2+x,1/2-y,1/2-z
1/2-x,1/2+y,1/2-z
-x,-y,-z
x,y,-z
1/2-x,1/2+y,1/2+z
1/2+x,1/2-y,1/2+z
loop_
_atom_site_type_symbol
_atom_site_label
_atom_site_fract_x
_atom_site_fract_y
_atom_site_fract_z
Si Si1 0.056921 0.427871 0.910241
Si Si2 0.321963 0.621888 0.183953
Si Si3 0.314417 0.455440 0.750744
Si Si4 0.685376 0.855741 0.148016
Si Si5 0.814713 0.175975 0.408968
Si Si6 0.795138 0.093347 0.092108
Si Si7 0.609435 0.254723 0.697102
O O1 0.144427 0.457398 0.832168
O O2 0.194689 0.376580 0.910662
O O3 0.770428 0.411721 0.888401
O O4 0.087955 0.448329 0.000000
O O5 0.533153 0.592449 0.231231
O O6 0.125979 0.631452 0.256700
O O7 0.436809 0.668841 0.146704
O O8 0.500000 0.500000 0.749004
O O9 0.213960 0.445754 0.659978
O O10 0.420382 0.865849 0.102561
O O11 0.795207 0.803014 0.155088
O O12 0.917408 0.886932 0.110134
O O13 0.881167 0.189618 0.500000
O O14 0.627875 0.212957 0.368182
O O15 0.787363 0.075704 0.000000
O O16 0.327989 0.257776 0.735840
#
# Coordination Sequence:
#
# PCOD9442701 Si02
#       7
#     8   8   8   8   8   8   8
#     4  10  20  38  64  90 123 165 210 256 320 390
#     4  10  19  39  62  84 125 164 208 256 316 386
#     4  10  23  40  62  92 125 162 208 265 326 387
#     4  11  22  41  67  93 127 173 218 260 319 379
#     4  10  22  37  58  91 123 163 211 262 307 368
#     4  11  24  44  68  94 129 173 218 266 322 384
#     4  12  24  39  64  93 129 172 218 262 313 371
#
# _framework density 22.931079
#
# number of rings (size 3 to 8) (size 9 to 14) (size 15 to 20)
#    0.000    1.429    2.857    2.571    2.000    2.857 
#    0.000    0.714    0.000    2.571    0.000    0.000 
#    0.000    0.000    0.000    0.000    0.000    0.000 
#
# Total GULP energy -312491.756326 kJ/mol
# GULP energy per Si atom -5580.209934 kJ/mol
# Density = 2.287889 g / cm^3
# Si number density = 22.931079 Si / 1000 Ang^3
#
#
#
# Elastic Constant Matrix: (Units=GPa)
#
#
# Indices 1 2 3 4 5 6 
#
# 1 66.0324 -0.5300 18.1678 0.0000 0.0000 0.0000
# 2 -0.5300 63.7028 38.8589 0.0000 0.0000 0.0000
# 3 18.1678 38.8589 176.8400 0.0000 0.0000 0.0000
# 4 0.0000 0.0000 0.0000 -17.1031 0.0000 0.0000
# 5 0.0000 0.0000 0.0000 0.0000 70.7955 0.0000
# 6 0.0000 0.0000 0.0000 0.0000 0.0000 27.1519
#
#
#
# Elastic Compliance Matrix: (Units=1/GPa)
#
#
# Indices 1 2 3 4 5 6 
#
# 1 0.015675 0.001285 -0.001893 0.000000 0.000000 0.000000
# 2 0.001285 0.018233 -0.004139 0.000000 0.000000 0.000000
# 3 -0.001893 -0.004139 0.006759 0.000000 0.000000 0.000000
# 4 0.000000 0.000000 0.000000 -0.058469 0.000000 0.000000
# 5 0.000000 0.000000 0.000000 0.000000 0.014125 0.000000
# 6 0.000000 0.000000 0.000000 0.000000 0.000000 0.036830
#
#
# Mechanical properties :
#
#
# Convention : Reuss Voigt Hill
#
# Bulk Modulus (GPa) = 32.07765 46.61872 39.34818
# Shear Modulus (GPa) = 94.27320 32.84075 63.55697
#
# Velocity S-wave (km/s) = 6.41878 3.78848 5.27036
# Velocity P-wave (km/s) = 8.30382 6.28577 7.36425
#
# Compressibility (1/GPa) = 0.03117436
#
# Stress axis : x y z
#
# Youngs Moduli (GPa) = 63.79516 54.84517 147.95746
#
# Poissons Ratio (x) = -0.07048 0.28005
# Poissons Ratio (y) = -0.08198 0.61233
# Poissons Ratio (z) = 0.12075 0.22698
#
# Static dielectric constant tensor:
#      x y z
#    x 1.935480 0.000000 0.000000 
#    y 0.000000 1.177020 0.000000 
#    z 0.000000 0.000000 1.885450 
# 
# From -- ./inp_files/18727.got.cif
#   From: 2010.05.17/outbox.cif.g08.bks.cpg/sg58_10_cif.got.tgz:18727.got - 2010.06.03 14:20:14.
