data_PCOD9442767
_publ_section_title
;
Structure prediction by ZEFSAII (Michael W. Deem and Ramdas Pophale) SiO2 
 PCOD9442767
Probable space group: P N N M
;
_chemical_formula_sum "Si O2"
_cell_formula_units_Z 64
_cell_length_a 28.681164
_cell_length_b 12.474124
_cell_length_c 7.641177
_cell_angle_alpha 90.000000
_cell_angle_beta 90.000000
_cell_angle_gamma 90.000000
_cell_volume 2733.802205
_symmetry_space_group_name_H-M "P N N M"
_symmetry_group_IT_number 58
_symmetry_cell_setting 'orthorhombic'
loop_
_space_group_symop_operation_xyz
x,y,z
-x,-y,z
1/2+x,1/2-y,1/2-z
1/2-x,1/2+y,1/2-z
-x,-y,-z
x,y,-z
1/2-x,1/2+y,1/2+z
1/2+x,1/2-y,1/2+z
loop_
_atom_site_type_symbol
_atom_site_label
_atom_site_fract_x
_atom_site_fract_y
_atom_site_fract_z
Si Si1 0.223621 0.383279 0.300596
Si Si2 0.654236 0.931578 0.784987
Si Si3 0.675674 0.693905 0.793656
Si Si4 0.508845 0.790865 0.801341
Si Si5 0.561523 0.391200 0.294149
Si Si6 0.927300 0.573189 0.287649
Si Si7 0.355030 0.735924 0.704095
Si Si8 0.921375 0.124570 0.287579
O O1 0.231535 0.413924 0.500000
O O2 0.191379 0.478123 0.223529
O O3 0.274107 0.358419 0.226809
O O4 0.191990 0.276027 0.292592
O O5 0.670521 0.815167 0.724439
O O6 0.601489 0.967545 0.734550
O O7 0.654218 0.934738 0.000000
O O8 0.631984 0.625926 0.726309
O O9 0.667569 0.704446 0.000000
O O10 0.473119 0.689203 0.803288
O O11 0.478131 0.887750 0.724023
O O12 0.553823 0.733364 0.722792
O O13 0.521059 0.823633 0.000000
O O14 0.558319 0.363419 0.500000
O O15 0.614567 0.364734 0.233389
O O16 0.553730 0.516573 0.272396
O O17 0.930028 0.574244 0.500000
O O18 0.891890 0.667388 0.231064
O O19 0.344192 0.722436 0.500000
O O20 0.924305 0.124897 0.500000
#
# Coordination Sequence:
#
# PCOD9442767 Si02
#       8
#     8   8   8   8   8   8   8   8
#     4  10  20  35  55  77  99 128 167 207 250 299
#     4   8  16  33  55  74  96 127 160 200 248 295
#     4  10  21  37  53  72 102 136 168 204 250 300
#     4   9  17  31  51  75 103 134 170 210 251 298
#     4  10  20  32  50  76 104 136 172 210 254 303
#     4   8  14  28  51  75  98 127 163 203 246 292
#     4   9  17  30  49  75 102 127 161 205 250 296
#     4  10  21  34  48  70 103 140 173 209 254 300
#
# _framework density 23.410617999999999
#
# number of rings (size 3 to 8) (size 9 to 14) (size 15 to 20)
#    0.000    2.750    0.000    2.250    0.000    5.000 
#    0.000    7.500    0.000    3.750    0.000    0.000 
#    0.000   15.000    0.000    0.000    0.000    0.000 
#
# Total GULP energy -356973.331864 kJ/mol
# GULP energy per Si atom -5577.708310 kJ/mol
# Density = 2.335733 g / cm^3
# Si number density = 23.410618 Si / 1000 Ang^3
#
#
#
# Elastic Constant Matrix: (Units=GPa)
#
#
# Indices 1 2 3 4 5 6 
#
# 1 70.8777 33.3348 -1.9222 0.0000 0.0000 0.0000
# 2 33.3348 103.5140 -1.4615 0.0000 0.0000 0.0000
# 3 -1.9222 -1.4615 48.9014 0.0000 0.0000 0.0000
# 4 0.0000 0.0000 0.0000 1.7716 0.0000 0.0000
# 5 0.0000 0.0000 0.0000 0.0000 19.4143 0.0000
# 6 0.0000 0.0000 0.0000 0.0000 0.0000 24.9573
#
#
#
# Elastic Compliance Matrix: (Units=1/GPa)
#
#
# Indices 1 2 3 4 5 6 
#
# 1 0.016639 -0.005351 0.000494 0.000000 0.000000 0.000000
# 2 -0.005351 0.011386 0.000130 0.000000 0.000000 0.000000
# 3 0.000494 0.000130 0.020473 0.000000 0.000000 0.000000
# 4 0.000000 0.000000 0.000000 0.564468 0.000000 0.000000
# 5 0.000000 0.000000 0.000000 0.000000 0.051508 0.000000
# 6 0.000000 0.000000 0.000000 0.000000 0.000000 0.040069
#
#
# Mechanical properties :
#
#
# Convention : Reuss Voigt Hill
#
# Bulk Modulus (GPa) = 25.61297 31.46617 28.53957
# Shear Modulus (GPa) = 6.87748 22.11810 14.49779
#
# Velocity S-wave (km/s) = 1.71585 3.07708 2.49124
# Velocity P-wave (km/s) = 3.85876 5.10830 4.52685
#
# Compressibility (1/GPa) = 0.03904272
#
# Stress axis : x y z
#
# Youngs Moduli (GPa) = 60.09974 87.82978 48.84572
#
# Poissons Ratio (x) = 0.47001 -0.02414
# Poissons Ratio (y) = 0.32161 -0.00635
# Poissons Ratio (z) = -0.02970 -0.01141
#
# Static dielectric constant tensor:
#      x y z
#    x 1.914490 0.000000 0.000000 
#    y 0.000000 1.888320 0.000000 
#    z 0.000000 0.000000 1.914800 
# 
# From -- ./inp_files/10979.got.cif
#   From: 2010.05.17/outbox.cif.g08.bks.cpg/sg58_6_cif.got.tgz:10979.got - 2010.06.03 14:20:14.
