data_PCOD9442656
_publ_section_title
;
Structure prediction by ZEFSAII (Michael W. Deem and Ramdas Pophale) SiO2 
 PCOD9442656
Probable space group: P N N M
;
_chemical_formula_sum "Si O2"
_cell_formula_units_Z 52
_cell_length_a 8.169672
_cell_length_b 13.027925
_cell_length_c 25.290834
_cell_angle_alpha 90.000000
_cell_angle_beta 90.000000
_cell_angle_gamma 90.000000
_cell_volume 2691.801442
_symmetry_space_group_name_H-M "P N N M"
_symmetry_group_IT_number 58
_symmetry_cell_setting 'orthorhombic'
loop_
_space_group_symop_operation_xyz
x,y,z
-x,-y,z
1/2+x,1/2-y,1/2-z
1/2-x,1/2+y,1/2-z
-x,-y,-z
x,y,-z
1/2-x,1/2+y,1/2+z
1/2+x,1/2-y,1/2+z
loop_
_atom_site_type_symbol
_atom_site_label
_atom_site_fract_x
_atom_site_fract_y
_atom_site_fract_z
Si Si1 0.149909 0.072307 0.936896
Si Si2 0.804136 0.024871 0.559876
Si Si3 0.000000 0.500000 0.390155
Si Si4 0.638679 0.411946 0.158130
Si Si5 0.979400 0.297807 0.674964
Si Si6 0.952747 0.382040 0.787227
Si Si7 0.664890 0.219265 0.622139
O O1 0.331395 0.030442 0.920553
O O2 0.113722 0.185288 0.913895
O O3 0.148235 0.076942 0.000000
O O4 0.000000 0.000000 0.918933
O O5 0.740181 0.012614 0.500000
O O6 0.753967 0.135011 0.584223
O O7 0.756738 0.947876 0.607132
O O8 0.000000 0.000000 0.556684
O O9 0.965666 0.599152 0.354165
O O10 0.500000 0.500000 0.167653
O O11 0.563630 0.301014 0.149409
O O12 0.758349 0.392719 0.206568
O O13 0.002784 0.314149 0.737126
O O14 0.791315 0.272451 0.662691
O O15 0.000000 0.500000 0.779231
O O16 0.033095 0.336292 0.840467
#
# Coordination Sequence:
#
# PCOD9442656 Si02
#       7
#     8   8   4   8   8   8   8
#     4  10  23  44  67  96 133 172 222 273 330 396
#     4  10  19  37  64  92 123 164 206 254 327 385
#     4  10  23  40  68  92 130 172 221 272 324 390
#     4  11  22  41  63  91 131 162 209 266 322 397
#     4  11  22  42  61  91 126 167 219 262 323 391
#     4  12  23  39  63  90 127 168 210 266 322 381
#     4  11  22  41  63  94 128 168 213 273 325 387
#
# _framework density 19.317917999999999
#
# number of rings (size 3 to 8) (size 9 to 14) (size 15 to 20)
#    0.000    1.231    5.385    1.615    2.154    0.000 
#    0.000    6.923    0.000    0.000    0.000    0.000 
#    0.000    0.000    0.000    0.000    0.000    0.000 
#
# Total GULP energy -289575.044866 kJ/mol
# GULP energy per Si atom -5568.750863 kJ/mol
# Density = 1.927395 g / cm^3
# Si number density = 19.317918 Si / 1000 Ang^3
#
#
#
# Elastic Constant Matrix: (Units=GPa)
#
#
# Indices 1 2 3 4 5 6 
#
# 1 42.9087 37.4517 31.8100 0.0000 0.0000 0.0000
# 2 37.4517 167.4712 61.4873 0.0000 0.0000 0.0000
# 3 31.8100 61.4873 98.8486 0.0000 0.0000 0.0000
# 4 0.0000 0.0000 0.0000 18.6731 0.0000 0.0000
# 5 0.0000 0.0000 0.0000 0.0000 51.5290 0.0000
# 6 0.0000 0.0000 0.0000 0.0000 0.0000 30.5277
#
#
#
# Elastic Compliance Matrix: (Units=1/GPa)
#
#
# Indices 1 2 3 4 5 6 
#
# 1 0.033050 -0.004518 -0.007825 0.000000 0.000000 0.000000
# 2 -0.004518 0.008356 -0.003744 0.000000 0.000000 0.000000
# 3 -0.007825 -0.003744 0.014964 0.000000 0.000000 0.000000
# 4 0.000000 0.000000 0.000000 0.053553 0.000000 0.000000
# 5 0.000000 0.000000 0.000000 0.000000 0.019407 0.000000
# 6 0.000000 0.000000 0.000000 0.000000 0.000000 0.032757
#
#
# Mechanical properties :
#
#
# Convention : Reuss Voigt Hill
#
# Bulk Modulus (GPa) = 41.33044 63.41408 52.37226
# Shear Modulus (GPa) = 24.71263 32.04456 28.37860
#
# Velocity S-wave (km/s) = 3.58055 4.07726 3.83695
# Velocity P-wave (km/s) = 6.20767 7.42046 6.84099
#
# Compressibility (1/GPa) = 0.02419524
#
# Stress axis : x y z
#
# Youngs Moduli (GPa) = 30.25732 119.67306 66.82894
#
# Poissons Ratio (x) = 0.54067 0.52296
# Poissons Ratio (y) = 0.13670 0.25020
# Poissons Ratio (z) = 0.23677 0.44805
#
# Static dielectric constant tensor:
#      x y z
#    x 1.787610 0.000000 0.000000 
#    y 0.000000 1.712080 0.000000 
#    z 0.000000 0.000000 1.693600 
# 
# From -- ./inp_files/33304.got.cif
#   From: 2010.05.17/outbox.cif.g08.bks.cpg/sg58_17_cif.got.tgz:33304.got - 2010.06.03 14:20:14.
