data_PCOD9442881
_publ_section_title
;
Structure prediction by ZEFSAII (Michael W. Deem and Ramdas Pophale) SiO2 
 PCOD9442881
Probable space group: P N N M
;
_chemical_formula_sum "Si O2"
_cell_formula_units_Z 48
_cell_length_a 14.052304
_cell_length_b 24.410429
_cell_length_c 8.765194
_cell_angle_alpha 90.000000
_cell_angle_beta 90.000000
_cell_angle_gamma 90.000000
_cell_volume 3006.661117
_symmetry_space_group_name_H-M "P N N M"
_symmetry_group_IT_number 58
_symmetry_cell_setting 'orthorhombic'
loop_
_space_group_symop_operation_xyz
x,y,z
-x,-y,z
1/2+x,1/2-y,1/2-z
1/2-x,1/2+y,1/2-z
-x,-y,-z
x,y,-z
1/2-x,1/2+y,1/2+z
1/2+x,1/2-y,1/2+z
loop_
_atom_site_type_symbol
_atom_site_label
_atom_site_fract_x
_atom_site_fract_y
_atom_site_fract_z
Si Si1 0.391857 0.224947 0.683470
Si Si2 0.289732 0.668085 0.317797
Si Si3 0.109996 0.063881 0.684583
Si Si4 0.610637 0.561315 0.183167
Si Si5 0.214998 0.836303 0.182637
Si Si6 0.599327 0.229045 0.183641
O O1 0.391445 0.220988 0.500000
O O2 0.313566 0.183973 0.752001
O O3 0.355230 0.286150 0.725611
O O4 0.496387 0.216231 0.749426
O O5 0.289489 0.671535 0.500000
O O6 0.324773 0.609055 0.262084
O O7 0.361785 0.713623 0.249873
O O8 0.116636 0.068397 0.500000
O O9 0.999123 0.073033 0.727681
O O10 0.133700 0.001208 0.728254
O O11 0.679709 0.607360 0.246997
O O12 0.613102 0.562830 0.000000
O O13 0.320678 0.816025 0.225533
O O14 0.212241 0.840931 0.000000
O O15 0.595819 0.232966 0.000000
#
# Coordination Sequence:
#
# PCOD9442881 Si02
#       6
#     8   8   8   8   8   8
#     4  10  20  34  51  73  99 129 163 202 244 290
#     4  11  21  32  49  74 100 131 165 198 241 291
#     4   9  18  33  49  70  99 129 161 201 243 286
#     4   9  18  31  50  72  96 128 163 197 241 289
#     4   9  19  32  47  70 100 127 155 194 241 286
#     4  10  20  34  50  71 100 132 162 200 244 288
#
# _framework density 15.964553
#
# number of rings (size 3 to 8) (size 9 to 14) (size 15 to 20)
#    0.000    2.333    0.000    5.500    0.000    8.000 
#    0.000    1.667    0.000    1.000    0.000    7.000 
#    0.000    0.000    0.000    0.000    0.000    0.000 
#
# Total GULP energy -267816.481718 kJ/mol
# GULP energy per Si atom -5579.510036 kJ/mol
# Density = 1.592822 g / cm^3
# Si number density = 15.964553 Si / 1000 Ang^3
#
#
#
# Elastic Constant Matrix: (Units=GPa)
#
#
# Indices 1 2 3 4 5 6 
#
# 1 136.0256 91.2833 51.5801 0.0000 0.0000 0.0000
# 2 91.2833 133.1013 48.8547 0.0000 0.0000 0.0000
# 3 51.5801 48.8547 62.5149 0.0000 0.0000 0.0000
# 4 0.0000 0.0000 0.0000 27.6714 0.0000 0.0000
# 5 0.0000 0.0000 0.0000 0.0000 28.9750 0.0000
# 6 0.0000 0.0000 0.0000 0.0000 0.0000 20.6881
#
#
#
# Elastic Compliance Matrix: (Units=1/GPa)
#
#
# Indices 1 2 3 4 5 6 
#
# 1 0.015130 -0.008125 -0.006134 0.000000 0.000000 0.000000
# 2 -0.008125 0.014898 -0.004939 0.000000 0.000000 0.000000
# 3 -0.006134 -0.004939 0.024917 0.000000 0.000000 0.000000
# 4 0.000000 0.000000 0.000000 0.036138 0.000000 0.000000
# 5 0.000000 0.000000 0.000000 0.000000 0.034513 0.000000
# 6 0.000000 0.000000 0.000000 0.000000 0.000000 0.048337
#
#
# Mechanical properties :
#
#
# Convention : Reuss Voigt Hill
#
# Bulk Modulus (GPa) = 60.42531 79.45309 69.93920
# Shear Modulus (GPa) = 22.95209 24.79515 23.87362
#
# Velocity S-wave (km/s) = 3.79580 3.94526 3.87125
# Velocity P-wave (km/s) = 7.55928 8.40416 7.99289
#
# Compressibility (1/GPa) = 0.01654936
#
# Stress axis : x y z
#
# Youngs Moduli (GPa) = 66.09413 67.12247 40.13330
#
# Poissons Ratio (x) = 0.54537 0.24617
# Poissons Ratio (y) = 0.53701 0.19822
# Poissons Ratio (z) = 0.40542 0.33152
#
# Static dielectric constant tensor:
#      x y z
#    x 1.520000 0.000000 0.000000 
#    y 0.000000 1.520360 0.000000 
#    z 0.000000 0.000000 1.534230 
# 
# From -- ./inp_files/4228.got.cif
#   From: 2010.05.17/outbox.cif.g08.bks.cpg/sg58_3_cif.got.tgz:4228.got - 2010.06.03 14:20:14.
