data_PCOD9442728
_publ_section_title
;
Structure prediction by ZEFSAII (Michael W. Deem and Ramdas Pophale) SiO2 
 PCOD9442728
Probable space group: P N N M
;
_chemical_formula_sum "Si O2"
_cell_formula_units_Z 36
_cell_length_a 5.491077
_cell_length_b 12.491370
_cell_length_c 29.776618
_cell_angle_alpha 90.000000
_cell_angle_beta 90.000000
_cell_angle_gamma 90.000000
_cell_volume 2042.410224
_symmetry_space_group_name_H-M "P N N M"
_symmetry_group_IT_number 58
_symmetry_cell_setting 'orthorhombic'
loop_
_space_group_symop_operation_xyz
x,y,z
-x,-y,z
1/2+x,1/2-y,1/2-z
1/2-x,1/2+y,1/2-z
-x,-y,-z
x,y,-z
1/2-x,1/2+y,1/2+z
1/2+x,1/2-y,1/2+z
loop_
_atom_site_type_symbol
_atom_site_label
_atom_site_fract_x
_atom_site_fract_y
_atom_site_fract_z
Si Si1 0.485696 0.870071 0.447952
Si Si2 0.016840 0.129575 0.398990
Si Si3 0.608989 0.391297 0.725237
Si Si4 0.500000 0.000000 0.290333
Si Si5 0.322619 0.313605 0.810316
O O1 0.475636 0.836932 0.500000
O O2 0.237251 0.836506 0.422714
O O3 0.739581 0.836618 0.425007
O O4 0.500000 0.000000 0.447404
O O5 0.023008 0.175702 0.348583
O O6 0.000000 0.000000 0.397156
O O7 0.500000 0.500000 0.704846
O O8 0.420153 0.336996 0.760079
O O9 0.699088 0.301508 0.691428
O O10 0.822392 0.433454 0.757913
O O11 0.642285 0.087011 0.319376
#
# Coordination Sequence:
#
# PCOD9442728 Si02
#       5
#     8   8   8   4   8
#     4   9  18  32  48  70 103 139 168 208 267 325
#     4  10  20  30  50  75 103 135 178 218 254 318
#     4  10  21  35  50  71 100 142 175 221 264 311
#     4  10  20  34  50  68  99 138 175 218 256 312
#     4  11  21  33  52  73 102 138 182 219 263 305
#
# _framework density 17.626235000000001
#
# number of rings (size 3 to 8) (size 9 to 14) (size 15 to 20)
#    0.000    2.000    2.222    2.667    7.778    2.667 
#    0.000    0.000    0.000    0.000    0.000    0.000 
#    0.000    5.333    0.000    0.000    0.000    0.000 
#
# Total GULP energy -200854.334195 kJ/mol
# GULP energy per Si atom -5579.287061 kJ/mol
# Density = 1.758612 g / cm^3
# Si number density = 17.626235 Si / 1000 Ang^3
#
#
#
# Elastic Constant Matrix: (Units=GPa)
#
#
# Indices 1 2 3 4 5 6 
#
# 1 89.1626 27.2315 21.1771 0.0000 0.0000 0.0000
# 2 27.2315 68.1532 21.3713 0.0000 0.0000 0.0000
# 3 21.1771 21.3713 56.2598 0.0000 0.0000 0.0000
# 4 0.0000 0.0000 0.0000 4.9354 0.0000 0.0000
# 5 0.0000 0.0000 0.0000 0.0000 16.6786 0.0000
# 6 0.0000 0.0000 0.0000 0.0000 0.0000 17.5200
#
#
#
# Elastic Compliance Matrix: (Units=1/GPa)
#
#
# Indices 1 2 3 4 5 6 
#
# 1 0.013323 -0.004258 -0.003397 0.000000 0.000000 0.000000
# 2 -0.004258 0.018018 -0.005242 0.000000 0.000000 0.000000
# 3 -0.003397 -0.005242 0.021045 0.000000 0.000000 0.000000
# 4 0.000000 0.000000 0.000000 0.202617 0.000000 0.000000
# 5 0.000000 0.000000 0.000000 0.000000 0.059957 0.000000
# 6 0.000000 0.000000 0.000000 0.000000 0.000000 0.057078
#
#
# Mechanical properties :
#
#
# Convention : Reuss Voigt Hill
#
# Bulk Modulus (GPa) = 37.60640 39.23727 38.42184
# Shear Modulus (GPa) = 12.29424 17.41318 14.85371
#
# Velocity S-wave (km/s) = 2.64388 3.14652 2.90609
# Velocity P-wave (km/s) = 5.54093 5.95901 5.75377
#
# Compressibility (1/GPa) = 0.02659122
#
# Stress axis : x y z
#
# Youngs Moduli (GPa) = 75.05909 55.50067 47.51793
#
# Poissons Ratio (x) = 0.23632 0.16144
# Poissons Ratio (y) = 0.31960 0.24907
# Poissons Ratio (z) = 0.25501 0.29091
#
# Static dielectric constant tensor:
#      x y z
#    x 1.695390 0.000000 0.000000 
#    y 0.000000 1.579310 0.000000 
#    z 0.000000 0.000000 1.586680 
# 
# From -- ./inp_files/30838.got.cif
#   From: 2010.05.17/outbox.cif.g08.bks.cpg/sg58_16_cif.got.tgz:30838.got - 2010.06.03 14:20:14.
