data_PCOD9442554
_publ_section_title
;
Structure prediction by ZEFSAII (Michael W. Deem and Ramdas Pophale) SiO2 
 PCOD9442554
Probable space group: P N N M
;
_chemical_formula_sum "Si O2"
_cell_formula_units_Z 64
_cell_length_a 21.216265
_cell_length_b 11.245929
_cell_length_c 14.580578
_cell_angle_alpha 90.000000
_cell_angle_beta 90.000000
_cell_angle_gamma 90.000000
_cell_volume 3478.876480
_symmetry_space_group_name_H-M "P N N M"
_symmetry_group_IT_number 58
_symmetry_cell_setting 'orthorhombic'
loop_
_space_group_symop_operation_xyz
x,y,z
-x,-y,z
1/2+x,1/2-y,1/2-z
1/2-x,1/2+y,1/2-z
-x,-y,-z
x,y,-z
1/2-x,1/2+y,1/2+z
1/2+x,1/2-y,1/2+z
loop_
_atom_site_type_symbol
_atom_site_label
_atom_site_fract_x
_atom_site_fract_y
_atom_site_fract_z
Si Si1 0.241693 0.571923 0.895170
Si Si2 0.862338 0.460143 0.391897
Si Si3 0.772094 0.612897 0.262242
Si Si4 0.352752 0.673239 0.783165
Si Si5 0.085067 0.783127 0.394647
Si Si6 0.071551 0.951605 0.222852
Si Si7 0.339689 0.299396 0.391028
Si Si8 0.946990 0.673651 0.397012
O O1 0.240624 0.462853 0.826864
O O2 0.306615 0.637146 0.866905
O O3 0.181493 0.660584 0.882692
O O4 0.243453 0.536064 0.000000
O O5 0.845949 0.464084 0.500000
O O6 0.815143 0.532862 0.328942
O O7 0.866824 0.321481 0.366121
O O8 0.927143 0.536690 0.382450
O O9 0.808504 0.732163 0.232234
O O10 0.711770 0.641695 0.323887
O O11 0.380605 0.563724 0.726415
O O12 0.410995 0.745464 0.824516
O O13 0.097438 0.821492 0.500000
O O14 0.079158 0.888460 0.322326
O O15 0.019154 0.711433 0.394966
O O16 0.095010 0.853035 0.148838
O O17 0.000000 0.000000 0.210532
O O18 0.333449 0.327219 0.500000
O O19 0.923637 0.702231 0.500000
#
# Coordination Sequence:
#
# PCOD9442554 Si02
#       8
#     8   8   8   8   8   8   8   8
#     4  10  20  37  63  88 114 145 181 233 292 343
#     4   9  17  30  51  79 109 145 188 231 279 330
#     4  10  19  36  61  82 112 141 184 237 285 337
#     4  10  20  35  54  82 112 147 187 224 276 344
#     4  10  20  31  48  79 115 149 183 228 280 336
#     4  12  23  38  56  79 115 155 194 234 279 336
#     4  10  22  40  61  84 110 148 195 234 279 337
#     4   9  16  29  49  75 111 149 184 221 268 333
#
# _framework density 18.396744000000002
#
# number of rings (size 3 to 8) (size 9 to 14) (size 15 to 20)
#    0.000    2.000    2.500    1.875    0.000    6.000 
#    0.000    0.625    0.000    0.000    0.000    1.750 
#    0.000    0.000    0.000    0.000    0.000    0.000 
#
# Total GULP energy -356575.564690 kJ/mol
# GULP energy per Si atom -5571.493198 kJ/mol
# Density = 1.835487 g / cm^3
# Si number density = 18.396744 Si / 1000 Ang^3
#
#
#
# Elastic Constant Matrix: (Units=GPa)
#
#
# Indices 1 2 3 4 5 6 
#
# 1 41.3921 15.0220 8.5998 0.0000 0.0000 0.0000
# 2 15.0220 64.9923 37.2789 0.0000 0.0000 0.0000
# 3 8.5998 37.2789 76.2164 0.0000 0.0000 0.0000
# 4 0.0000 0.0000 0.0000 19.5642 0.0000 0.0000
# 5 0.0000 0.0000 0.0000 0.0000 15.6540 0.0000
# 6 0.0000 0.0000 0.0000 0.0000 0.0000 19.8371
#
#
#
# Elastic Compliance Matrix: (Units=1/GPa)
#
#
# Indices 1 2 3 4 5 6 
#
# 1 0.026371 -0.006100 0.000008 0.000000 0.000000 0.000000
# 2 -0.006100 0.022797 -0.010462 0.000000 0.000000 0.000000
# 3 0.000008 -0.010462 0.018237 0.000000 0.000000 0.000000
# 4 0.000000 0.000000 0.000000 0.051114 0.000000 0.000000
# 5 0.000000 0.000000 0.000000 0.000000 0.063881 0.000000
# 6 0.000000 0.000000 0.000000 0.000000 0.000000 0.050411
#
#
# Mechanical properties :
#
#
# Convention : Reuss Voigt Hill
#
# Bulk Modulus (GPa) = 29.15694 33.82247 31.48970
# Shear Modulus (GPa) = 18.02759 19.12440 18.57599
#
# Velocity S-wave (km/s) = 3.13379 3.22771 3.18109
# Velocity P-wave (km/s) = 5.38308 5.68469 5.53594
#
# Compressibility (1/GPa) = 0.03429715
#
# Stress axis : x y z
#
# Youngs Moduli (GPa) = 37.91998 43.86447 54.83360
#
# Poissons Ratio (x) = 0.26757 -0.00044
# Poissons Ratio (y) = 0.23131 0.57369
# Poissons Ratio (z) = -0.00030 0.45893
#
# Static dielectric constant tensor:
#      x y z
#    x 1.670030 0.000000 0.000000 
#    y 0.000000 1.681270 0.000000 
#    z 0.000000 0.000000 1.597380 
# 
# From -- ./inp_files/17558.got.cif
#   From: 2010.05.17/outbox.cif.g08.bks.cpg/sg58_9_cif.got.tgz:17558.got - 2010.06.03 14:20:14.
