data_PCOD9442331
_publ_section_title
;
Structure prediction by ZEFSAII (Michael W. Deem and Ramdas Pophale) SiO2 
 PCOD9442331
Probable space group: P N N M
;
_chemical_formula_sum "Si O2"
_cell_formula_units_Z 48
_cell_length_a 8.589577
_cell_length_b 14.476220
_cell_length_c 20.780158
_cell_angle_alpha 90.000000
_cell_angle_beta 90.000000
_cell_angle_gamma 90.000000
_cell_volume 2583.900567
_symmetry_space_group_name_H-M "P N N M"
_symmetry_group_IT_number 58
_symmetry_cell_setting 'orthorhombic'
loop_
_space_group_symop_operation_xyz
x,y,z
-x,-y,z
1/2+x,1/2-y,1/2-z
1/2-x,1/2+y,1/2-z
-x,-y,-z
x,y,-z
1/2-x,1/2+y,1/2+z
1/2+x,1/2-y,1/2+z
loop_
_atom_site_type_symbol
_atom_site_label
_atom_site_fract_x
_atom_site_fract_y
_atom_site_fract_z
Si Si1 0.793736 0.811202 0.927079
Si Si2 0.664648 0.712919 0.803645
Si Si3 0.818510 0.518997 0.227748
Si Si4 0.184945 0.991015 0.130041
Si Si5 0.333837 0.289972 0.425761
Si Si6 0.802904 0.830605 0.311741
O O1 0.702677 0.756506 0.872534
O O2 0.977803 0.788033 0.920162
O O3 0.774998 0.920182 0.912693
O O4 0.746283 0.790174 0.000000
O O5 0.765672 0.620766 0.792757
O O6 0.709347 0.785156 0.747827
O O7 0.483631 0.688952 0.799644
O O8 0.775422 0.508168 0.302902
O O9 0.727450 0.439544 0.189326
O O10 0.000000 0.500000 0.218345
O O11 0.212166 0.894168 0.094546
O O12 0.000000 0.000000 0.144661
O O13 0.292854 0.272549 0.500000
O O14 0.256738 0.219197 0.376156
#
# Coordination Sequence:
#
# PCOD9442331 Si02
#       6
#     8   8   8   8   8   8
#     4  10  21  38  61  91 127 165 203 247 303 365
#     4  12  24  40  62  89 123 162 204 253 303 359
#     4  12  24  39  62  92 121 156 204 258 306 358
#     4  10  19  34  60  91 126 162 198 243 299 364
#     4  10  21  38  61  91 127 165 203 247 303 365
#     4  12  24  40  62  89 123 162 204 253 303 359
#
# _framework density 18.576568000000002
#
# number of rings (size 3 to 8) (size 9 to 14) (size 15 to 20)
#    0.000    1.000    3.333    5.000    0.000    2.667 
#    0.000    0.833    0.000    8.000    0.000    0.000 
#    0.000    0.000    0.000    0.000    0.000    0.000 
#
# Total GULP energy -268466.050342 kJ/mol
# GULP energy per Si atom -5593.042715 kJ/mol
# Density = 1.853429 g / cm^3
# Si number density = 18.576568 Si / 1000 Ang^3
#
#
#
# Elastic Constant Matrix: (Units=GPa)
#
#
# Indices 1 2 3 4 5 6 
#
# 1 34.4680 -19.6933 14.5850 0.0000 0.0000 0.0000
# 2 -19.6933 41.1932 3.1519 0.0000 0.0000 0.0000
# 3 14.5850 3.1519 94.4446 0.0000 0.0000 0.0000
# 4 0.0000 0.0000 0.0000 25.1905 0.0000 0.0000
# 5 0.0000 0.0000 0.0000 0.0000 13.5740 0.0000
# 6 0.0000 0.0000 0.0000 0.0000 0.0000 25.8428
#
#
#
# Elastic Compliance Matrix: (Units=1/GPa)
#
#
# Indices 1 2 3 4 5 6 
#
# 1 0.044834 0.022020 -0.007659 0.000000 0.000000 0.000000
# 2 0.022020 0.035153 -0.004574 0.000000 0.000000 0.000000
# 3 -0.007659 -0.004574 0.011924 0.000000 0.000000 0.000000
# 4 0.000000 0.000000 0.000000 0.039698 0.000000 0.000000
# 5 0.000000 0.000000 0.000000 0.000000 0.073670 0.000000
# 6 0.000000 0.000000 0.000000 0.000000 0.000000 0.038696
#
#
# Mechanical properties :
#
#
# Convention : Reuss Voigt Hill
#
# Bulk Modulus (GPa) = 8.96971 18.46590 13.71780
# Shear Modulus (GPa) = 19.11602 24.39226 21.75414
#
# Velocity S-wave (km/s) = 3.21134 3.62756 3.42578
# Velocity P-wave (km/s) = 4.31153 5.24477 4.80088
#
# Compressibility (1/GPa) = 0.11148627
#
# Stress axis : x y z
#
# Youngs Moduli (GPa) = 22.30434 28.44709 83.86747
#
# Poissons Ratio (x) = -0.62641 0.64231
# Poissons Ratio (y) = -0.49114 0.38359
# Poissons Ratio (z) = 0.17082 0.13011
#
# Static dielectric constant tensor:
#      x y z
#    x 1.640910 0.000000 0.000000 
#    y 0.000000 1.624300 0.000000 
#    z 0.000000 0.000000 1.608510 
# 
# From -- ./inp_files/8848.got.cif
#   From: 2010.05.17/outbox.cif.g08.bks.cpg/sg58_5_cif.got.tgz:8848.got - 2010.06.03 14:20:14.
