data_PCOD9442638
_publ_section_title
;
Structure prediction by ZEFSAII (Michael W. Deem and Ramdas Pophale) SiO2 
 PCOD9442638
Probable space group: P N N M
;
_chemical_formula_sum "Si O2"
_cell_formula_units_Z 64
_cell_length_a 25.234141
_cell_length_b 14.415745
_cell_length_c 8.751234
_cell_angle_alpha 90.000000
_cell_angle_beta 90.000000
_cell_angle_gamma 90.000000
_cell_volume 3183.427133
_symmetry_space_group_name_H-M "P N N M"
_symmetry_group_IT_number 58
_symmetry_cell_setting 'orthorhombic'
loop_
_space_group_symop_operation_xyz
x,y,z
-x,-y,z
1/2+x,1/2-y,1/2-z
1/2-x,1/2+y,1/2-z
-x,-y,-z
x,y,-z
1/2-x,1/2+y,1/2+z
1/2+x,1/2-y,1/2+z
loop_
_atom_site_type_symbol
_atom_site_label
_atom_site_fract_x
_atom_site_fract_y
_atom_site_fract_z
Si Si1 0.172780 0.178943 0.315881
Si Si2 0.872119 0.186242 0.680612
Si Si3 0.755423 0.162398 0.818915
Si Si4 0.631523 0.881789 0.681566
Si Si5 0.027268 0.903257 0.184320
Si Si6 0.743093 0.968464 0.318749
Si Si7 0.437506 0.741090 0.684557
Si Si8 0.055210 0.453575 0.185968
O O1 0.168173 0.182776 0.500000
O O2 0.212608 0.261513 0.266940
O O3 0.202695 0.083502 0.277156
O O4 0.115906 0.193057 0.242493
O O5 0.871974 0.178446 0.500000
O O6 0.812842 0.171384 0.742593
O O7 0.887373 0.290413 0.732711
O O8 0.914777 0.115303 0.749231
O O9 0.734750 0.060760 0.776555
O O10 0.762176 0.174169 0.000000
O O11 0.621884 0.868187 0.500000
O O12 0.694026 0.898610 0.703272
O O13 0.601570 0.975460 0.730111
O O14 0.988436 0.819019 0.231317
O O15 0.031050 0.903291 0.000000
O O16 0.000000 0.000000 0.230937
O O17 0.744165 0.991227 0.500000
O O18 0.436813 0.742176 0.500000
O O19 0.439230 0.847836 0.739405
O O20 0.000000 0.500000 0.233340
O O21 0.055386 0.449925 0.000000
#
# Coordination Sequence:
#
# PCOD9442638 Si02
#       8
#     8   8   8   8   8   8   8   8
#     4  10  22  40  60  86 125 163 196 244 309 361
#     4  12  25  40  62  91 123 161 206 257 310 366
#     4  11  23  41  63  89 123 166 208 252 308 368
#     4  10  19  37  62  86 122 163 199 248 304 365
#     4  10  23  43  65  90 121 161 209 258 308 368
#     4  10  21  38  59  87 120 160 205 251 307 364
#     4  10  21  38  62  91 120 157 205 252 303 368
#     4   9  17  31  57  89 116 148 194 245 295 350
#
# _framework density 20.104119000000001
#
# number of rings (size 3 to 8) (size 9 to 14) (size 15 to 20)
#    0.000    1.750    1.250    3.000    1.750    5.750 
#    0.000    0.625    0.000    1.500    0.000    0.000 
#    0.000    0.000    0.000    0.000    0.000    0.000 
#
# Total GULP energy -357669.318817 kJ/mol
# GULP energy per Si atom -5588.583107 kJ/mol
# Density = 2.005836 g / cm^3
# Si number density = 20.104119 Si / 1000 Ang^3
#
#
#
# Elastic Constant Matrix: (Units=GPa)
#
#
# Indices 1 2 3 4 5 6 
#
# 1 64.1331 -21.5807 12.8807 0.0000 0.0000 0.0000
# 2 -21.5807 35.3776 11.5137 0.0000 0.0000 0.0000
# 3 12.8807 11.5137 21.1490 0.0000 0.0000 0.0000
# 4 0.0000 0.0000 0.0000 21.5351 0.0000 0.0000
# 5 0.0000 0.0000 0.0000 0.0000 17.1107 0.0000
# 6 0.0000 0.0000 0.0000 0.0000 0.0000 32.6360
#
#
#
# Elastic Compliance Matrix: (Units=1/GPa)
#
#
# Indices 1 2 3 4 5 6 
#
# 1 0.035458 0.034829 -0.040557 0.000000 0.000000 0.000000
# 2 0.034829 0.068565 -0.058540 0.000000 0.000000 0.000000
# 3 -0.040557 -0.058540 0.103855 0.000000 0.000000 0.000000
# 4 0.000000 0.000000 0.000000 0.046436 0.000000 0.000000
# 5 0.000000 0.000000 0.000000 0.000000 0.058443 0.000000
# 6 0.000000 0.000000 0.000000 0.000000 0.000000 0.030641
#
#
# Mechanical properties :
#
#
# Convention : Reuss Voigt Hill
#
# Bulk Modulus (GPa) = 12.60368 14.03190 13.31779
# Shear Modulus (GPa) = 10.03249 22.11274 16.07262
#
# Velocity S-wave (km/s) = 2.23631 3.32009 2.83056
# Velocity P-wave (km/s) = 3.59874 4.65748 4.16191
#
# Compressibility (1/GPa) = 0.07934188
#
# Stress axis : x y z
#
# Youngs Moduli (GPa) = 28.20212 14.58478 9.62884
#
# Poissons Ratio (x) = -0.50798 0.39052
# Poissons Ratio (y) = -0.98226 0.56367
# Poissons Ratio (z) = 1.14380 0.85379
#
# Static dielectric constant tensor:
#      x y z
#    x 1.696950 0.000000 0.000000 
#    y 0.000000 1.721630 0.000000 
#    z 0.000000 0.000000 1.676970 
# 
# From -- ./inp_files/10071.got.cif
#   From: 2010.05.17/outbox.cif.g08.bks.cpg/sg58_6_cif.got.tgz:10071.got - 2010.06.03 14:20:14.
