data_PCOD9442766
_publ_section_title
;
Structure prediction by ZEFSAII (Michael W. Deem and Ramdas Pophale) SiO2 
 PCOD9442766
Probable space group: P N N M
;
_chemical_formula_sum "Si O2"
_cell_formula_units_Z 64
_cell_length_a 17.216498
_cell_length_b 15.015773
_cell_length_c 10.828457
_cell_angle_alpha 90.000000
_cell_angle_beta 90.000000
_cell_angle_gamma 90.000000
_cell_volume 2799.362155
_symmetry_space_group_name_H-M "P N N M"
_symmetry_group_IT_number 58
_symmetry_cell_setting 'orthorhombic'
loop_
_space_group_symop_operation_xyz
x,y,z
-x,-y,z
1/2+x,1/2-y,1/2-z
1/2-x,1/2+y,1/2-z
-x,-y,-z
x,y,-z
1/2-x,1/2+y,1/2+z
1/2+x,1/2-y,1/2+z
loop_
_atom_site_type_symbol
_atom_site_label
_atom_site_fract_x
_atom_site_fract_y
_atom_site_fract_z
Si Si1 0.583486 0.425503 0.638215
Si Si2 0.298568 0.555520 0.141391
Si Si3 0.946544 0.189595 0.856652
Si Si4 0.966597 0.710199 0.365321
Si Si5 0.804178 0.283307 0.748995
Si Si6 0.851090 0.730019 0.182628
Si Si7 0.360499 0.964823 0.631531
Si Si8 0.912502 0.429744 0.634566
O O1 0.598868 0.463118 0.500000
O O2 0.634242 0.458718 0.755484
O O3 0.490176 0.406722 0.655366
O O4 0.616171 0.322599 0.632809
O O5 0.247610 0.644738 0.173369
O O6 0.232021 0.479839 0.147531
O O7 0.327865 0.560408 0.000000
O O8 0.857472 0.214686 0.825777
O O9 0.989908 0.244276 0.749085
O O10 0.958910 0.215364 0.000000
O O11 0.981238 0.750653 0.500000
O O12 0.877664 0.720164 0.326097
O O13 0.001537 0.611524 0.370144
O O14 0.740599 0.231706 0.670723
O O15 0.857322 0.344218 0.660797
O O16 0.881847 0.638375 0.128404
O O17 0.382024 0.007579 0.500000
O O18 0.399435 0.011366 0.746587
O O19 0.892414 0.467476 0.500000
#
# Coordination Sequence:
#
# PCOD9442766 Si02
#       8
#     8   8   8   8   8   8   8   8
#     4   9  18  32  52  74  97 127 162 203 246 292
#     4   9  18  32  51  72  97 130 165 202 243 294
#     4   9  17  30  50  76 102 128 163 207 252 295
#     4   9  19  34  50  72 102 135 170 204 243 293
#     4   9  18  31  52  76  99 128 164 207 249 293
#     4  10  20  32  50  76 104 130 162 207 252 292
#     4  10  21  35  51  74 103 134 168 206 249 296
#     4   9  19  36  54  71  97 135 173 204 240 294
#
# _framework density 22.862352000000001
#
# number of rings (size 3 to 8) (size 9 to 14) (size 15 to 20)
#    0.000    2.750    0.000    0.750    0.000   14.500 
#    0.000    1.875    0.000    0.750    0.000    3.500 
#    0.000    0.000    0.000    0.000    0.000    0.000 
#
# Total GULP energy -356438.540935 kJ/mol
# GULP energy per Si atom -5569.352202 kJ/mol
# Density = 2.281032 g / cm^3
# Si number density = 22.862352 Si / 1000 Ang^3
#
#
#
# Elastic Constant Matrix: (Units=GPa)
#
#
# Indices 1 2 3 4 5 6 
#
# 1 86.4375 -10.8911 31.7370 0.0000 0.0000 0.0000
# 2 -10.8911 29.4939 6.9245 0.0000 0.0000 0.0000
# 3 31.7370 6.9245 175.6431 0.0000 0.0000 0.0000
# 4 0.0000 0.0000 0.0000 9.3381 0.0000 0.0000
# 5 0.0000 0.0000 0.0000 0.0000 23.2647 0.0000
# 6 0.0000 0.0000 0.0000 0.0000 0.0000 33.0585
#
#
#
# Elastic Compliance Matrix: (Units=1/GPa)
#
#
# Indices 1 2 3 4 5 6 
#
# 1 0.013217 0.005492 -0.002605 0.000000 0.000000 0.000000
# 2 0.005492 0.036504 -0.002432 0.000000 0.000000 0.000000
# 3 -0.002605 -0.002432 0.006260 0.000000 0.000000 0.000000
# 4 0.000000 0.000000 0.000000 0.107089 0.000000 0.000000
# 5 0.000000 0.000000 0.000000 0.000000 0.042983 0.000000
# 6 0.000000 0.000000 0.000000 0.000000 0.000000 0.030249
#
#
# Mechanical properties :
#
#
# Convention : Reuss Voigt Hill
#
# Bulk Modulus (GPa) = 17.57666 38.56837 28.07251
# Shear Modulus (GPa) = 19.65750 30.71921 25.18836
#
# Velocity S-wave (km/s) = 2.93545 3.66957 3.32285
# Velocity P-wave (km/s) = 4.38108 5.90430 5.19878
#
# Compressibility (1/GPa) = 0.05689363
#
# Stress axis : x y z
#
# Youngs Moduli (GPa) = 75.65741 27.39401 159.74739
#
# Poissons Ratio (x) = -0.15046 0.41611
# Poissons Ratio (y) = -0.41553 0.38843
# Poissons Ratio (z) = 0.19707 0.06661
#
# Static dielectric constant tensor:
#      x y z
#    x 1.943480 0.000000 0.000000 
#    y 0.000000 1.925230 0.000000 
#    z 0.000000 0.000000 1.859000 
# 
# From -- ./inp_files/16639.got.cif
#   From: 2010.05.17/outbox.cif.g08.bks.cpg/sg58_9_cif.got.tgz:16639.got - 2010.06.03 14:20:14.
