data_PCOD9442268
_publ_section_title
;
Structure prediction by ZEFSAII (Michael W. Deem and Ramdas Pophale) SiO2 
 PCOD9442268
Probable space group: P N N M
;
_chemical_formula_sum "Si O2"
_cell_formula_units_Z 48
_cell_length_a 10.208172
_cell_length_b 14.427343
_cell_length_c 14.230506
_cell_angle_alpha 90.000000
_cell_angle_beta 90.000000
_cell_angle_gamma 90.000000
_cell_volume 2095.823370
_symmetry_space_group_name_H-M "P N N M"
_symmetry_group_IT_number 58
_symmetry_cell_setting 'orthorhombic'
loop_
_space_group_symop_operation_xyz
x,y,z
-x,-y,z
1/2+x,1/2-y,1/2-z
1/2-x,1/2+y,1/2-z
-x,-y,-z
x,y,-z
1/2-x,1/2+y,1/2+z
1/2+x,1/2-y,1/2+z
loop_
_atom_site_type_symbol
_atom_site_label
_atom_site_fract_x
_atom_site_fract_y
_atom_site_fract_z
Si Si1 0.669075 0.103573 0.890095
Si Si2 0.633759 0.043093 0.297377
Si Si3 0.991857 0.786761 0.605046
Si Si4 0.214014 0.615402 0.896400
Si Si5 0.453781 0.392054 0.706745
Si Si6 0.551179 0.222180 0.387706
O O1 0.631749 0.028521 0.813281
O O2 0.553855 0.180785 0.876545
O O3 0.817894 0.121967 0.852105
O O4 0.674743 0.082534 0.000000
O O5 0.640670 0.147750 0.333306
O O6 0.500000 0.000000 0.338361
O O7 0.742027 0.974926 0.335893
O O8 0.053513 0.793957 0.500000
O O9 0.847008 0.829747 0.598650
O O10 0.057793 0.842834 0.690414
O O11 0.095696 0.682415 0.866170
O O12 0.176869 0.582018 0.000000
O O13 0.500000 0.500000 0.708027
O O14 0.558219 0.325300 0.653318
O O15 0.570657 0.220562 0.500000
#
# Coordination Sequence:
#
# PCOD9442268 Si02
#       6
#     8   8   8   8   8   8
#     4  11  23  41  63  87 123 168 202 243 309 374
#     4  10  20  36  62  93 119 154 202 257 299 351
#     4  10  21  40  63  84 116 163 206 249 305 361
#     4   9  17  34  61  88 114 153 202 251 307 355
#     4  12  24  39  62  90 124 165 205 248 302 368
#     4  10  19  34  57  89 125 158 199 251 299 357
#
# _framework density 22.902695000000001
#
# number of rings (size 3 to 8) (size 9 to 14) (size 15 to 20)
#    0.000    1.667    3.333    2.000    0.000    4.000 
#    0.000    1.667    0.000    0.000    0.000    0.000 
#    0.000    0.000    0.000    0.000    0.000    0.000 
#
# Total GULP energy -267381.615293 kJ/mol
# GULP energy per Si atom -5570.450319 kJ/mol
# Density = 2.285057 g / cm^3
# Si number density = 22.902695 Si / 1000 Ang^3
#
#
#
# Elastic Constant Matrix: (Units=GPa)
#
#
# Indices 1 2 3 4 5 6 
#
# 1 34.5495 5.1192 -6.1239 0.0000 0.0000 0.0000
# 2 5.1192 85.0519 36.7983 0.0000 0.0000 0.0000
# 3 -6.1239 36.7983 110.7505 0.0000 0.0000 0.0000
# 4 0.0000 0.0000 0.0000 28.4089 0.0000 0.0000
# 5 0.0000 0.0000 0.0000 0.0000 273.3858 0.0000
# 6 0.0000 0.0000 0.0000 0.0000 0.0000 4.5581
#
#
#
# Elastic Compliance Matrix: (Units=1/GPa)
#
#
# Indices 1 2 3 4 5 6 
#
# 1 0.029843 -0.002932 0.002624 0.000000 0.000000 0.000000
# 2 -0.002932 0.014019 -0.004820 0.000000 0.000000 0.000000
# 3 0.002624 -0.004820 0.010776 0.000000 0.000000 0.000000
# 4 0.000000 0.000000 0.000000 0.035200 0.000000 0.000000
# 5 0.000000 0.000000 0.000000 0.000000 0.003658 0.000000
# 6 0.000000 0.000000 0.000000 0.000000 0.000000 0.219389
#
#
# Mechanical properties :
#
#
# Convention : Reuss Voigt Hill
#
# Bulk Modulus (GPa) = 22.53081 33.54880 28.03980
# Shear Modulus (GPa) = 14.79572 74.24113 44.51843
#
# Velocity S-wave (km/s) = 2.54446 5.69967 4.41365
# Velocity P-wave (km/s) = 4.30016 7.61546 6.18412
#
# Compressibility (1/GPa) = 0.04438367
#
# Stress axis : x y z
#
# Youngs Moduli (GPa) = 33.50816 71.32923 92.79869
#
# Poissons Ratio (x) = 0.20911 -0.24353
# Poissons Ratio (y) = 0.09823 0.44731
# Poissons Ratio (z) = -0.08793 0.34383
#
# Static dielectric constant tensor:
#      x y z
#    x 1.981650 0.000000 0.000000 
#    y 0.000000 1.934570 0.000000 
#    z 0.000000 0.000000 1.904860 
# 
# From -- ./inp_files/21143.got.cif
#   From: 2010.05.17/outbox.cif.g08.bks.cpg/sg58_11_cif.got.tgz:21143.got - 2010.06.03 14:20:14.
