data_PCOD9442803
_publ_section_title
;
Structure prediction by ZEFSAII (Michael W. Deem and Ramdas Pophale) SiO2 
 PCOD9442803
Probable space group: P N N M
;
_chemical_formula_sum "Si O2"
_cell_formula_units_Z 64
_cell_length_a 25.895628
_cell_length_b 14.664422
_cell_length_c 7.333942
_cell_angle_alpha 90.000000
_cell_angle_beta 90.000000
_cell_angle_gamma 90.000000
_cell_volume 2785.023529
_symmetry_space_group_name_H-M "P N N M"
_symmetry_group_IT_number 58
_symmetry_cell_setting 'orthorhombic'
loop_
_space_group_symop_operation_xyz
x,y,z
-x,-y,z
1/2+x,1/2-y,1/2-z
1/2-x,1/2+y,1/2-z
-x,-y,-z
x,y,-z
1/2-x,1/2+y,1/2+z
1/2+x,1/2-y,1/2+z
loop_
_atom_site_type_symbol
_atom_site_label
_atom_site_fract_x
_atom_site_fract_y
_atom_site_fract_z
Si Si1 0.592272 0.249408 0.722771
Si Si2 0.709148 0.261728 0.707002
Si Si3 0.550425 0.055578 0.277512
Si Si4 0.132271 0.920270 0.718475
Si Si5 0.844023 0.469361 0.209399
Si Si6 0.267816 0.530492 0.779832
Si Si7 0.675760 0.760224 0.778169
Si Si8 0.045300 0.060277 0.794052
O O1 0.595152 0.253874 0.500000
O O2 0.652348 0.239560 0.784350
O O3 0.558146 0.161604 0.772912
O O4 0.566587 0.344666 0.784709
O O5 0.709012 0.225254 0.500000
O O6 0.713770 0.372049 0.705374
O O7 0.765655 0.237378 0.785677
O O8 0.548926 0.053463 0.500000
O O9 0.500000 0.000000 0.216073
O O10 0.602774 0.005883 0.213320
O O11 0.124561 0.923838 0.500000
O O12 0.134279 0.815577 0.776271
O O13 0.188983 0.957657 0.759119
O O14 0.092318 0.989817 0.801448
O O15 0.788672 0.497749 0.288367
O O16 0.840638 0.359960 0.215484
O O17 0.844017 0.501093 0.000000
O O18 0.264595 0.541732 0.000000
O O19 0.678212 0.761863 0.000000
O O20 0.027341 0.083202 0.000000
O O21 0.000000 0.000000 0.705704
#
# Coordination Sequence:
#
# PCOD9442803 Si02
#       8
#     8   8   8   8   8   8   8   8
#     4   9  17  30  49  73 100 132 169 210 254 303
#     4   9  16  29  50  72  98 134 174 208 246 301
#     4   9  18  31  50  76 103 132 171 215 258 303
#     4  10  20  33  50  75 107 139 171 209 257 314
#     4   9  18  32  51  75 101 133 172 217 262 299
#     4   9  17  29  47  72 103 130 161 209 257 300
#     4   9  19  32  49  75 106 140 173 208 256 313
#     4  10  21  36  54  78 106 137 174 216 259 305
#
# _framework density 22.980055
#
# number of rings (size 3 to 8) (size 9 to 14) (size 15 to 20)
#    0.000    2.750    1.250    0.000    1.750    1.750 
#    0.000    2.500    0.000    1.875    0.000    0.000 
#    0.000    0.000    0.000    0.000    0.000    0.000 
#
# Total GULP energy -357123.704280 kJ/mol
# GULP energy per Si atom -5580.057879 kJ/mol
# Density = 2.292775 g / cm^3
# Si number density = 22.980055 Si / 1000 Ang^3
#
#
#
# Elastic Constant Matrix: (Units=GPa)
#
#
# Indices 1 2 3 4 5 6 
#
# 1 138.6145 78.3890 9.7974 0.0000 0.0000 0.0000
# 2 78.3890 112.2252 0.0993 0.0000 0.0000 0.0000
# 3 9.7974 0.0993 85.1088 0.0000 0.0000 0.0000
# 4 0.0000 0.0000 0.0000 48.3796 0.0000 0.0000
# 5 0.0000 0.0000 0.0000 0.0000 1.2223 0.0000
# 6 0.0000 0.0000 0.0000 0.0000 0.0000 30.3677
#
#
#
# Elastic Compliance Matrix: (Units=1/GPa)
#
#
# Indices 1 2 3 4 5 6 
#
# 1 0.012085 -0.008440 -0.001381 0.000000 0.000000 0.000000
# 2 -0.008440 0.014805 0.000954 0.000000 0.000000 0.000000
# 3 -0.001381 0.000954 0.011908 0.000000 0.000000 0.000000
# 4 0.000000 0.000000 0.000000 0.020670 0.000000 0.000000
# 5 0.000000 0.000000 0.000000 0.000000 0.818103 0.000000
# 6 0.000000 0.000000 0.000000 0.000000 0.000000 0.032930
#
#
# Mechanical properties :
#
#
# Convention : Reuss Voigt Hill
#
# Bulk Modulus (GPa) = 47.47546 56.94666 52.21106
# Shear Modulus (GPa) = 5.34613 32.50477 18.92545
#
# Velocity S-wave (km/s) = 1.52692 3.76503 2.87289
# Velocity P-wave (km/s) = 4.87985 6.61327 5.81155
#
# Compressibility (1/GPa) = 0.02106351
#
# Stress axis : x y z
#
# Youngs Moduli (GPa) = 82.74813 67.54413 83.98021
#
# Poissons Ratio (x) = 0.57007 0.11600
# Poissons Ratio (y) = 0.69840 -0.08014
# Poissons Ratio (z) = 0.11430 -0.06446
#
# Static dielectric constant tensor:
#      x y z
#    x 1.847100 0.000000 0.000000 
#    y 0.000000 1.841450 0.000000 
#    z 0.000000 0.000000 1.949220 
# 
# From -- ./inp_files/10048.got.cif
#   From: 2010.05.17/outbox.cif.g08.bks.cpg/sg58_6_cif.got.tgz:10048.got - 2010.06.03 14:20:14.
