data_PCOD9442676
_publ_section_title
;
Structure prediction by ZEFSAII (Michael W. Deem and Ramdas Pophale) SiO2 
 PCOD9442676
Probable space group: P N N M
;
_chemical_formula_sum "Si O2"
_cell_formula_units_Z 58
_cell_length_a 14.732006
_cell_length_b 25.200466
_cell_length_c 7.699723
_cell_angle_alpha 90.000000
_cell_angle_beta 90.000000
_cell_angle_gamma 90.000000
_cell_volume 2858.548468
_symmetry_space_group_name_H-M "P N N M"
_symmetry_group_IT_number 58
_symmetry_cell_setting 'orthorhombic'
loop_
_space_group_symop_operation_xyz
x,y,z
-x,-y,z
1/2+x,1/2-y,1/2-z
1/2-x,1/2+y,1/2-z
-x,-y,-z
x,y,-z
1/2-x,1/2+y,1/2+z
1/2+x,1/2-y,1/2+z
loop_
_atom_site_type_symbol
_atom_site_label
_atom_site_fract_x
_atom_site_fract_y
_atom_site_fract_z
Si Si1 0.705010 0.706857 0.799265
Si Si2 0.103134 0.685247 0.712787
Si Si3 0.000000 0.000000 0.000000
Si Si4 0.089886 0.281193 0.700935
Si Si5 0.071316 0.160685 0.789634
Si Si6 0.637829 0.490179 0.190252
Si Si7 0.755776 0.400443 0.708921
Si Si8 0.392336 0.396330 0.301397
O O1 0.657917 0.761316 0.734918
O O2 0.813410 0.711721 0.790730
O O3 0.671344 0.654969 0.698830
O O4 0.677437 0.699762 0.000000
O O5 0.103437 0.685856 0.500000
O O6 0.157384 0.632951 0.769041
O O7 0.998883 0.688638 0.770394
O O8 0.930998 0.976969 0.154571
O O9 0.102753 0.295937 0.500000
O O10 0.064864 0.219225 0.713916
O O11 0.167461 0.134997 0.746365
O O12 0.987032 0.125408 0.729753
O O13 0.064958 0.165049 0.000000
O O14 0.730786 0.457968 0.218674
O O15 0.648495 0.553627 0.204315
O O16 0.601964 0.476434 0.000000
O O17 0.760596 0.404229 0.500000
O O18 0.410809 0.417054 0.500000
#
# Coordination Sequence:
#
# PCOD9442676 Si02
#       8
#     8   8   2   8   8   8   8   8
#     4  11  21  38  58  84 116 157 202 249 301 362
#     4   9  19  35  58  82 116 159 201 246 305 366
#     4  12  22  44  60  90 132 162 206 256 308 364
#     4  11  21  35  54  86 120 155 200 246 299 360
#     4  10  20  32  55  83 118 158 193 237 299 356
#     4  12  25  40  61  89 122 168 210 252 305 368
#     4  10  19  38  61  81 118 164 204 250 302 359
#     4  11  22  38  60  86 122 162 201 250 305 362
#
# _framework density 20.290018
#
# number of rings (size 3 to 8) (size 9 to 14) (size 15 to 20)
#    0.000    1.379    4.138    2.276    1.931    1.103 
#    0.000    1.379    0.000    0.828    0.000    5.793 
#    0.000    0.000    0.000    0.000    0.000    0.000 
#
# Total GULP energy -323747.599901 kJ/mol
# GULP energy per Si atom -5581.855171 kJ/mol
# Density = 2.024384 g / cm^3
# Si number density = 20.290018 Si / 1000 Ang^3
#
#
#
# Elastic Constant Matrix: (Units=GPa)
#
#
# Indices 1 2 3 4 5 6 
#
# 1 70.6140 4.9111 1.9124 0.0000 0.0000 0.0000
# 2 4.9111 56.4458 6.8922 0.0000 0.0000 0.0000
# 3 1.9124 6.8922 82.0857 0.0000 0.0000 0.0000
# 4 0.0000 0.0000 0.0000 21.0005 0.0000 0.0000
# 5 0.0000 0.0000 0.0000 0.0000 -7.4669 0.0000
# 6 0.0000 0.0000 0.0000 0.0000 0.0000 31.1964
#
#
#
# Elastic Compliance Matrix: (Units=1/GPa)
#
#
# Indices 1 2 3 4 5 6 
#
# 1 0.014252 -0.001212 -0.000230 0.000000 0.000000 0.000000
# 2 -0.001212 0.018003 -0.001483 0.000000 0.000000 0.000000
# 3 -0.000230 -0.001483 0.012312 0.000000 0.000000 0.000000
# 4 0.000000 0.000000 0.000000 0.047618 0.000000 0.000000
# 5 0.000000 0.000000 0.000000 0.000000 -0.133924 0.000000
# 6 0.000000 0.000000 0.000000 0.000000 0.000000 0.032055
#
#
# Mechanical properties :
#
#
# Convention : Reuss Voigt Hill
#
# Bulk Modulus (GPa) = 25.82914 26.28634 26.05774
# Shear Modulus (GPa) = 551.15269 21.97465 286.56367
#
# Velocity S-wave (km/s) = 16.49930 3.29451 11.89708
# Velocity P-wave (km/s) = 19.38368 5.23977 14.19828
#
# Compressibility (1/GPa) = 0.03871596
#
# Stress axis : x y z
#
# Youngs Moduli (GPa) = 70.16548 55.54733 81.21963
#
# Poissons Ratio (x) = 0.06732 0.01870
# Poissons Ratio (y) = 0.08503 0.12048
# Poissons Ratio (z) = 0.01616 0.08240
#
# Static dielectric constant tensor:
#      x y z
#    x 1.667660 0.000000 0.000000 
#    y 0.000000 1.568340 0.000000 
#    z 0.000000 0.000000 1.763200 
# 
# From -- ./inp_files/7071.got.cif
#   From: 2010.05.17/outbox.cif.g08.bks.cpg/sg58_4_cif.got.tgz:7071.got - 2010.06.03 14:20:14.
