data_PCOD9442916
_publ_section_title
;
Structure prediction by ZEFSAII (Michael W. Deem and Ramdas Pophale) SiO2 
 PCOD9442916
Probable space group: P N N M
;
_chemical_formula_sum "Si O2"
_cell_formula_units_Z 40
_cell_length_a 13.714445
_cell_length_b 18.924566
_cell_length_c 7.866082
_cell_angle_alpha 90.000000
_cell_angle_beta 90.000000
_cell_angle_gamma 90.000000
_cell_volume 2041.562289
_symmetry_space_group_name_H-M "P N N M"
_symmetry_group_IT_number 58
_symmetry_cell_setting 'orthorhombic'
loop_
_space_group_symop_operation_xyz
x,y,z
-x,-y,z
1/2+x,1/2-y,1/2-z
1/2-x,1/2+y,1/2-z
-x,-y,-z
x,y,-z
1/2-x,1/2+y,1/2+z
1/2+x,1/2-y,1/2+z
loop_
_atom_site_type_symbol
_atom_site_label
_atom_site_fract_x
_atom_site_fract_y
_atom_site_fract_z
Si Si1 0.807886 0.478248 0.206061
Si Si2 0.179029 0.817014 0.205672
Si Si3 0.887936 0.626792 0.297864
Si Si4 0.101743 0.667446 0.798774
Si Si5 0.099323 0.965278 0.295826
O O1 0.875964 0.543813 0.257482
O O2 0.846687 0.403210 0.270443
O O3 0.698550 0.497009 0.266482
O O4 0.807121 0.476810 0.000000
O O5 0.288430 0.836148 0.265524
O O6 0.141229 0.741716 0.270303
O O7 0.110732 0.882594 0.255719
O O8 0.181469 0.815567 0.000000
O O9 0.892097 0.635361 0.500000
O O10 0.986406 0.658485 0.223925
O O11 0.122659 0.668428 0.000000
O O12 0.099133 0.972803 0.500000
O O13 0.000000 0.000000 0.229699
#
# Coordination Sequence:
#
# PCOD9442916 Si02
#       5
#     8   8   8   8   8
#     4   9  18  33  52  73  99 132 168 204 245 298
#     4   9  20  36  51  72 103 134 163 202 252 299
#     4  10  20  34  52  74 101 130 163 207 252 291
#     4  10  20  34  52  73  99 133 168 200 245 302
#     4   9  18  33  54  77 100 131 171 209 244 289
#
# _framework density 19.592836999999999
#
# number of rings (size 3 to 8) (size 9 to 14) (size 15 to 20)
#    0.000    2.600    0.000    1.200    0.000    6.800 
#    0.000    4.000    0.000    0.000    0.000    0.000 
#    0.000    0.000    0.000    0.000    0.000    0.000 
#
# Total GULP energy -223208.688976 kJ/mol
# GULP energy per Si atom -5580.217224 kJ/mol
# Density = 1.954824 g / cm^3
# Si number density = 19.592837 Si / 1000 Ang^3
#
#
#
# Elastic Constant Matrix: (Units=GPa)
#
#
# Indices 1 2 3 4 5 6 
#
# 1 89.8957 91.2349 -8.8858 0.0000 0.0000 0.0000
# 2 91.2349 180.3818 -8.8944 0.0000 0.0000 0.0000
# 3 -8.8858 -8.8944 13.9658 0.0000 0.0000 0.0000
# 4 0.0000 0.0000 0.0000 19.9668 0.0000 0.0000
# 5 0.0000 0.0000 0.0000 0.0000 28.7639 0.0000
# 6 0.0000 0.0000 0.0000 0.0000 0.0000 27.4078
#
#
#
# Elastic Compliance Matrix: (Units=1/GPa)
#
#
# Indices 1 2 3 4 5 6 
#
# 1 0.023625 -0.011572 0.007662 0.000000 0.000000 0.000000
# 2 -0.011572 0.011391 -0.000108 0.000000 0.000000 0.000000
# 3 0.007662 -0.000108 0.076410 0.000000 0.000000 0.000000
# 4 0.000000 0.000000 0.000000 0.050083 0.000000 0.000000
# 5 0.000000 0.000000 0.000000 0.000000 0.034766 0.000000
# 6 0.000000 0.000000 0.000000 0.000000 0.000000 0.036486
#
#
# Mechanical properties :
#
#
# Convention : Reuss Voigt Hill
#
# Bulk Modulus (GPa) = 9.67194 47.90586 28.78890
# Shear Modulus (GPa) = 18.16467 29.28028 23.72248
#
# Velocity S-wave (km/s) = 3.04815 3.86999 3.48339
# Velocity P-wave (km/s) = 4.16359 6.66880 5.55915
#
# Compressibility (1/GPa) = 0.10339183
#
# Stress axis : x y z
#
# Youngs Moduli (GPa) = 42.32744 87.78667 13.08734
#
# Poissons Ratio (x) = 1.01583 -0.10028
# Poissons Ratio (y) = 0.48980 0.00141
# Poissons Ratio (z) = -0.32432 0.00946
#
# Static dielectric constant tensor:
#      x y z
#    x 1.678510 0.000000 0.000000 
#    y 0.000000 1.673670 0.000000 
#    z 0.000000 0.000000 1.715650 
# 
# From -- ./inp_files/3779.got.cif
#   From: 2010.05.17/outbox.cif.g08.bks.cpg/sg58_2_cif.got.tgz:3779.got - 2010.06.03 14:20:14.
