data_PCOD9442382
_publ_section_title
;
Structure prediction by ZEFSAII (Michael W. Deem and Ramdas Pophale) SiO2 
 PCOD9442382
Probable space group: P N N M
;
_chemical_formula_sum "Si O2"
_cell_formula_units_Z 64
_cell_length_a 26.755280
_cell_length_b 15.237606
_cell_length_c 7.695065
_cell_angle_alpha 90.000000
_cell_angle_beta 90.000000
_cell_angle_gamma 90.000000
_cell_volume 3137.173464
_symmetry_space_group_name_H-M "P N N M"
_symmetry_group_IT_number 58
_symmetry_cell_setting 'orthorhombic'
loop_
_space_group_symop_operation_xyz
x,y,z
-x,-y,z
1/2+x,1/2-y,1/2-z
1/2-x,1/2+y,1/2-z
-x,-y,-z
x,y,-z
1/2-x,1/2+y,1/2+z
1/2+x,1/2-y,1/2+z
loop_
_atom_site_type_symbol
_atom_site_label
_atom_site_fract_x
_atom_site_fract_y
_atom_site_fract_z
Si Si1 0.896497 0.172227 0.713460
Si Si2 0.385604 0.658701 0.705625
Si Si3 0.365357 0.135874 0.208618
Si Si4 0.443657 0.990642 0.210081
Si Si5 0.673357 0.515010 0.795655
Si Si6 0.135877 0.351332 0.792647
Si Si7 0.214212 0.496575 0.209385
Si Si8 0.996711 0.898297 0.289909
O O1 0.896802 0.171525 0.500000
O O2 0.875141 0.265884 0.771430
O O3 0.861197 0.093015 0.775060
O O4 0.953551 0.153072 0.767187
O O5 0.376746 0.657869 0.500000
O O6 0.355767 0.576298 0.780084
O O7 0.367136 0.752578 0.776518
O O8 0.444600 0.644553 0.735148
O O9 0.313330 0.088096 0.249896
O O10 0.408434 0.069774 0.273484
O O11 0.369167 0.138803 0.000000
O O12 0.416280 0.901019 0.260423
O O13 0.500000 0.000000 0.273312
O O14 0.444497 0.994276 0.000000
O O15 0.729376 0.509004 0.722970
O O16 0.679053 0.534300 0.000000
O O17 0.179022 0.416839 0.724481
O O18 0.143064 0.345490 0.000000
O O19 0.215162 0.490269 0.000000
O O20 0.996801 0.899748 0.500000
O O21 0.000000 0.000000 0.231442
#
# Coordination Sequence:
#
# PCOD9442382 Si02
#       8
#     8   8   8   8   8   8   8   8
#     4   9  18  33  55  81 104 136 181 218 257 316
#     4  11  23  36  53  82 114 142 176 219 272 321
#     4   9  18  33  53  78 108 137 171 218 269 316
#     4   9  18  31  50  78 107 136 176 223 263 303
#     4  10  20  37  58  78 101 138 185 225 264 314
#     4   9  20  37  53  75 108 144 177 211 264 326
#     4   9  19  37  58  76 102 139 180 224 265 315
#     4  10  19  35  58  79 105 143 184 219 258 313
#
# _framework density 20.400528000000001
#
# number of rings (size 3 to 8) (size 9 to 14) (size 15 to 20)
#    0.000    2.500    1.250    0.375    1.750    3.000 
#    0.000    3.750    0.000    0.000    0.000    0.000 
#    0.000    0.000    0.000    0.000    0.000    0.000 
#
# Total GULP energy -357201.686659 kJ/mol
# GULP energy per Si atom -5581.276354 kJ/mol
# Density = 2.035410 g / cm^3
# Si number density = 20.400528 Si / 1000 Ang^3
#
#
#
# Elastic Constant Matrix: (Units=GPa)
#
#
# Indices 1 2 3 4 5 6 
#
# 1 133.9378 43.5110 -6.8918 0.0000 0.0000 0.0000
# 2 43.5110 136.7035 -6.0037 0.0000 0.0000 0.0000
# 3 -6.8918 -6.0037 30.9166 0.0000 0.0000 0.0000
# 4 0.0000 0.0000 0.0000 23.2102 0.0000 0.0000
# 5 0.0000 0.0000 0.0000 0.0000 12.8542 0.0000
# 6 0.0000 0.0000 0.0000 0.0000 0.0000 4.0506
#
#
#
# Elastic Compliance Matrix: (Units=1/GPa)
#
#
# Indices 1 2 3 4 5 6 
#
# 1 0.008384 -0.002609 0.001362 0.000000 0.000000 0.000000
# 2 -0.002609 0.008190 0.001009 0.000000 0.000000 0.000000
# 3 0.001362 0.001009 0.032845 0.000000 0.000000 0.000000
# 4 0.000000 0.000000 0.000000 0.043084 0.000000 0.000000
# 5 0.000000 0.000000 0.000000 0.000000 0.077796 0.000000
# 6 0.000000 0.000000 0.000000 0.000000 0.000000 0.246874
#
#
# Mechanical properties :
#
#
# Convention : Reuss Voigt Hill
#
# Bulk Modulus (GPa) = 20.43188 40.30989 30.37088
# Shear Modulus (GPa) = 11.52175 26.08582 18.80379
#
# Velocity S-wave (km/s) = 2.37908 3.57975 3.03930
# Velocity P-wave (km/s) = 4.19331 6.07357 5.21882
#
# Compressibility (1/GPa) = 0.04894312
#
# Stress axis : x y z
#
# Youngs Moduli (GPa) = 119.27943 122.10468 30.44636
#
# Poissons Ratio (x) = 0.31852 -0.04148
# Poissons Ratio (y) = 0.31115 -0.03072
# Poissons Ratio (z) = -0.16249 -0.12319
#
# Static dielectric constant tensor:
#      x y z
#    x 1.704870 0.000000 0.000000 
#    y 0.000000 1.712140 0.000000 
#    z 0.000000 0.000000 1.765760 
# 
# From -- ./inp_files/10061.got.cif
#   From: 2010.05.17/outbox.cif.g08.bks.cpg/sg58_6_cif.got.tgz:10061.got - 2010.06.03 14:20:14.
