data_PCOD9442629
_publ_section_title
;
Structure prediction by ZEFSAII (Michael W. Deem and Ramdas Pophale) SiO2 
 PCOD9442629
Probable space group: P N N M
;
_chemical_formula_sum "Si O2"
_cell_formula_units_Z 58
_cell_length_a 24.612812
_cell_length_b 8.429672
_cell_length_c 12.779691
_cell_angle_alpha 90.000000
_cell_angle_beta 90.000000
_cell_angle_gamma 90.000000
_cell_volume 2651.503862
_symmetry_space_group_name_H-M "P N N M"
_symmetry_group_IT_number 58
_symmetry_cell_setting 'orthorhombic'
loop_
_space_group_symop_operation_xyz
x,y,z
-x,-y,z
1/2+x,1/2-y,1/2-z
1/2-x,1/2+y,1/2-z
-x,-y,-z
x,y,-z
1/2-x,1/2+y,1/2+z
1/2+x,1/2-y,1/2+z
loop_
_atom_site_type_symbol
_atom_site_label
_atom_site_fract_x
_atom_site_fract_y
_atom_site_fract_z
Si Si1 0.377908 0.792849 0.210778
Si Si2 0.000000 0.500000 0.000000
Si Si3 0.567924 0.776732 0.339874
Si Si4 0.233829 0.207133 0.671775
Si Si5 0.721534 0.445970 0.383917
Si Si6 0.559447 0.924568 0.885157
Si Si7 0.089848 0.077713 0.117195
Si Si8 0.168588 0.516060 0.888140
O O1 0.330755 0.692407 0.155335
O O2 0.403038 0.922010 0.135073
O O3 0.419407 0.693231 0.283525
O O4 0.345675 0.896547 0.297060
O O5 0.971739 0.387162 0.907872
O O6 0.562338 0.592255 0.366179
O O7 0.563929 0.812168 0.216023
O O8 0.628311 0.835157 0.373329
O O9 0.254817 0.379527 0.638586
O O10 0.243280 0.169768 0.794435
O O11 0.270648 0.077677 0.615723
O O12 0.737643 0.396030 0.500000
O O13 0.655618 0.448502 0.379827
O O14 0.500000 0.000000 0.885278
O O15 0.570610 0.853561 0.000000
O O16 0.075814 0.139477 0.000000
O O17 0.155774 0.440392 0.000000
#
# Coordination Sequence:
#
# PCOD9442629 Si02
#       8
#     8   2   8   8   8   8   8   8
#     4  10  23  38  61  91 127 161 219 270 313 394
#     4  12  20  36  66 106 132 156 222 274 322 392
#     4  11  21  37  65  98 128 164 212 270 322 391
#     4  11  20  37  54  89 122 162 212 256 312 384
#     4  10  21  36  56  81 125 172 212 258 314 387
#     4  10  23  45  69  89 121 173 223 268 324 389
#     4  10  19  37  61  92 132 170 201 262 343 393
#     4  11  20  35  58  84 121 169 207 256 321 384
#
# _framework density 21.874379000000001
#
# number of rings (size 3 to 8) (size 9 to 14) (size 15 to 20)
#    0.000    1.517    4.828    0.828    0.000    1.655 
#    0.000    1.379    0.000    7.448    0.000    0.000 
#    0.000    0.000    0.000    0.000    0.000    0.000 
#
# Total GULP energy -323572.757503 kJ/mol
# GULP energy per Si atom -5578.840647 kJ/mol
# Density = 2.182459 g / cm^3
# Si number density = 21.874379 Si / 1000 Ang^3
#
#
#
# Elastic Constant Matrix: (Units=GPa)
#
#
# Indices 1 2 3 4 5 6 
#
# 1 46.3978 9.8117 21.9042 0.0000 0.0000 0.0000
# 2 9.8117 48.5880 4.6743 0.0000 0.0000 0.0000
# 3 21.9042 4.6743 148.8362 0.0000 0.0000 0.0000
# 4 0.0000 0.0000 0.0000 11.3417 0.0000 0.0000
# 5 0.0000 0.0000 0.0000 0.0000 24.1822 0.0000
# 6 0.0000 0.0000 0.0000 0.0000 0.0000 37.1155
#
#
#
# Elastic Compliance Matrix: (Units=1/GPa)
#
#
# Indices 1 2 3 4 5 6 
#
# 1 0.024122 -0.004543 -0.003407 0.000000 0.000000 0.000000
# 2 -0.004543 0.021499 -0.000007 0.000000 0.000000 0.000000
# 3 -0.003407 -0.000007 0.007220 0.000000 0.000000 0.000000
# 4 0.000000 0.000000 0.000000 0.088170 0.000000 0.000000
# 5 0.000000 0.000000 0.000000 0.000000 0.041353 0.000000
# 6 0.000000 0.000000 0.000000 0.000000 0.000000 0.026943
#
#
# Mechanical properties :
#
#
# Convention : Reuss Voigt Hill
#
# Bulk Modulus (GPa) = 27.08018 35.17804 31.12911
# Shear Modulus (GPa) = 21.04985 28.35668 24.70327
#
# Velocity S-wave (km/s) = 3.10547 3.60438 3.36419
# Velocity P-wave (km/s) = 5.02646 5.78263 5.41776
#
# Compressibility (1/GPa) = 0.03692738
#
# Stress axis : x y z
#
# Youngs Moduli (GPa) = 41.45571 46.51315 138.49528
#
# Poissons Ratio (x) = 0.21132 0.47190
# Poissons Ratio (y) = 0.18835 0.00091
# Poissons Ratio (z) = 0.14125 0.00030
#
# Static dielectric constant tensor:
#      x y z
#    x 1.865690 0.000000 0.000000 
#    y 0.000000 1.839200 0.000000 
#    z 0.000000 0.000000 1.807620 
# 
# From -- ./inp_files/17770.got.cif
#   From: 2010.05.17/outbox.cif.g08.bks.cpg/sg58_9_cif.got.tgz:17770.got - 2010.06.03 14:20:14.
