data_PCOD9442965
_publ_section_title
;
Structure prediction by ZEFSAII (Michael W. Deem and Ramdas Pophale) SiO2 
 PCOD9442965
Probable space group: P N N M
;
_chemical_formula_sum "Si O2"
_cell_formula_units_Z 56
_cell_length_a 21.057409
_cell_length_b 14.558741
_cell_length_c 9.078237
_cell_angle_alpha 90.000000
_cell_angle_beta 90.000000
_cell_angle_gamma 90.000000
_cell_volume 2783.109341
_symmetry_space_group_name_H-M "P N N M"
_symmetry_group_IT_number 58
_symmetry_cell_setting 'orthorhombic'
loop_
_space_group_symop_operation_xyz
x,y,z
-x,-y,z
1/2+x,1/2-y,1/2-z
1/2-x,1/2+y,1/2-z
-x,-y,-z
x,y,-z
1/2-x,1/2+y,1/2+z
1/2+x,1/2-y,1/2+z
loop_
_atom_site_type_symbol
_atom_site_label
_atom_site_fract_x
_atom_site_fract_y
_atom_site_fract_z
Si Si1 0.648754 0.155360 0.176842
Si Si2 0.355858 0.447335 0.166415
Si Si3 0.259072 0.199555 0.323289
Si Si4 0.607208 0.754387 0.170939
Si Si5 0.058114 0.071189 0.163210
Si Si6 0.259215 0.004683 0.827132
Si Si7 0.979211 0.716174 0.828259
O O1 0.700712 0.233388 0.222053
O O2 0.679038 0.055709 0.209214
O O3 0.581438 0.169023 0.253882
O O4 0.641609 0.163040 0.000000
O O5 0.398866 0.356584 0.175535
O O6 0.395521 0.536850 0.209794
O O7 0.299943 0.440227 0.284507
O O8 0.330699 0.452158 0.000000
O O9 0.263319 0.203456 0.500000
O O10 0.326453 0.226131 0.251351
O O11 0.249134 0.096033 0.266823
O O12 0.546187 0.798897 0.247419
O O13 0.611571 0.782184 0.000000
O O14 0.035396 0.174653 0.180943
O O15 0.089079 0.063639 0.000000
O O16 0.000000 0.000000 0.163302
O O17 0.259890 0.026060 0.000000
O O18 0.984207 0.691708 0.000000
#
# Coordination Sequence:
#
# PCOD9442965 Si02
#       7
#     8   8   8   8   8   8   8
#     4  10  23  42  63  89 126 165 201 251 314 371
#     4  11  22  35  57  88 120 158 202 251 302 362
#     4  11  23  42  67  95 125 162 209 260 310 368
#     4  11  23  39  61  89 124 164 205 251 306 368
#     4  10  20  34  53  81 119 159 197 241 303 370
#     4  11  23  41  64  90 122 162 205 254 311 369
#     4  11  23  38  60  88 122 164 208 257 308 366
#
# _framework density 20.121379999999998
#
# number of rings (size 3 to 8) (size 9 to 14) (size 15 to 20)
#    0.000    1.286    2.857    3.000    0.000    7.143 
#    0.000    0.714    0.000    4.286    0.000    0.000 
#    0.000    0.000    0.000    0.000    0.000    0.000 
#
# Total GULP energy -312813.452757 kJ/mol
# GULP energy per Si atom -5585.954514 kJ/mol
# Density = 2.007558 g / cm^3
# Si number density = 20.121380 Si / 1000 Ang^3
#
#
#
# Elastic Constant Matrix: (Units=GPa)
#
#
# Indices 1 2 3 4 5 6 
#
# 1 99.6106 0.0886 40.3637 0.0000 0.0000 0.0000
# 2 0.0886 28.6671 10.8104 0.0000 0.0000 0.0000
# 3 40.3637 10.8104 70.9568 0.0000 0.0000 0.0000
# 4 0.0000 0.0000 0.0000 11.6438 0.0000 0.0000
# 5 0.0000 0.0000 0.0000 0.0000 38.7966 0.0000
# 6 0.0000 0.0000 0.0000 0.0000 0.0000 27.2856
#
#
#
# Elastic Compliance Matrix: (Units=1/GPa)
#
#
# Indices 1 2 3 4 5 6 
#
# 1 0.013282 0.002979 -0.008009 0.000000 0.000000 0.000000
# 2 0.002979 0.037678 -0.007435 0.000000 0.000000 0.000000
# 3 -0.008009 -0.007435 0.019782 0.000000 0.000000 0.000000
# 4 0.000000 0.000000 0.000000 0.085882 0.000000 0.000000
# 5 0.000000 0.000000 0.000000 0.000000 0.025775 0.000000
# 6 0.000000 0.000000 0.000000 0.000000 0.000000 0.036649
#
#
# Mechanical properties :
#
#
# Convention : Reuss Voigt Hill
#
# Bulk Modulus (GPa) = 21.82861 33.52888 27.67874
# Shear Modulus (GPa) = 19.28644 25.40998 22.34821
#
# Velocity S-wave (km/s) = 3.09933 3.55749 3.33629
# Velocity P-wave (km/s) = 4.86619 5.79429 5.35040
#
# Compressibility (1/GPa) = 0.04581145
#
# Stress axis : x y z
#
# Youngs Moduli (GPa) = 75.29019 26.54087 50.55123
#
# Poissons Ratio (x) = -0.07907 0.40488
# Poissons Ratio (y) = -0.22431 0.37585
# Poissons Ratio (z) = 0.60302 0.19733
#
# Static dielectric constant tensor:
#      x y z
#    x 1.721970 0.000000 0.000000 
#    y 0.000000 1.738490 0.000000 
#    z 0.000000 0.000000 1.690020 
# 
# From -- ./inp_files/6319.got.cif
#   From: 2010.05.17/outbox.cif.g08.bks.cpg/sg58_4_cif.got.tgz:6319.got - 2010.06.03 14:20:14.
