data_PCOD9442134
_publ_section_title
;
Structure prediction by ZEFSAII (Michael W. Deem and Ramdas Pophale) SiO2 
 PCOD9442134
Probable space group: P N N M
;
_chemical_formula_sum "Si O2"
_cell_formula_units_Z 58
_cell_length_a 12.642789
_cell_length_b 24.637315
_cell_length_c 9.399027
_cell_angle_alpha 90.000000
_cell_angle_beta 90.000000
_cell_angle_gamma 90.000000
_cell_volume 2927.650051
_symmetry_space_group_name_H-M "P N N M"
_symmetry_group_IT_number 58
_symmetry_cell_setting 'orthorhombic'
loop_
_space_group_symop_operation_xyz
x,y,z
-x,-y,z
1/2+x,1/2-y,1/2-z
1/2-x,1/2+y,1/2-z
-x,-y,-z
x,y,-z
1/2-x,1/2+y,1/2+z
1/2+x,1/2-y,1/2+z
loop_
_atom_site_type_symbol
_atom_site_label
_atom_site_fract_x
_atom_site_fract_y
_atom_site_fract_z
Si Si1 0.044845 0.150767 0.671786
Si Si2 0.891723 0.369353 0.338688
Si Si3 0.751522 0.786246 0.328788
Si Si4 0.805082 0.175192 0.328464
Si Si5 0.338691 0.009256 0.764101
Si Si6 0.366195 0.888535 0.840699
Si Si7 0.106694 0.031428 0.327934
Si Si8 0.500000 0.000000 0.500000
O O1 0.042893 0.148334 0.500000
O O2 0.127685 0.197612 0.708772
O O3 0.092081 0.093454 0.720547
O O4 0.924185 0.158903 0.715714
O O5 0.875984 0.348471 0.500000
O O6 0.823285 0.334695 0.228343
O O7 0.860599 0.432721 0.335353
O O8 0.016684 0.367031 0.304569
O O9 0.742661 0.781207 0.500000
O O10 0.720810 0.731896 0.247000
O O11 0.800543 0.179021 0.500000
O O12 0.719718 0.132173 0.271143
O O13 0.369826 0.953757 0.841708
O O14 0.213775 0.006838 0.732482
O O15 0.409294 0.009100 0.622930
O O16 0.338983 0.869064 0.000000
O O17 0.114799 0.030394 0.500000
O O18 0.000000 0.000000 0.288624
#
# Coordination Sequence:
#
# PCOD9442134 Si02
#       8
#     8   8   8   8   8   8   8   2
#     4   9  20  40  63  92 125 164 208 259 319 383
#     4  11  24  42  65  93 130 174 216 263 325 389
#     4  11  24  43  69  94 126 167 214 268 328 389
#     4  11  25  44  68  96 128 166 217 272 323 387
#     4  12  22  38  64  94 138 165 213 272 325 387
#     4  11  25  43  64  93 134 177 212 260 331 390
#     4  10  19  33  59  92 126 168 209 252 313 381
#     4  12  24  32  60 108 132 164 226 282 320 390
#
# _framework density 19.811111
#
# number of rings (size 3 to 8) (size 9 to 14) (size 15 to 20)
#    0.000    1.241    3.448    2.069    3.862    2.759 
#    0.000    2.069    0.000    1.655    0.000    0.000 
#    0.000    0.000    0.000    0.000    0.000    0.000 
#
# Total GULP energy -323457.844613 kJ/mol
# GULP energy per Si atom -5576.859390 kJ/mol
# Density = 1.976602 g / cm^3
# Si number density = 19.811111 Si / 1000 Ang^3
#
#
#
# Elastic Constant Matrix: (Units=GPa)
#
#
# Indices 1 2 3 4 5 6 
#
# 1 107.9657 -0.0127 35.0263 0.0000 0.0000 0.0000
# 2 -0.0127 62.0269 17.9458 0.0000 0.0000 0.0000
# 3 35.0263 17.9458 78.1187 0.0000 0.0000 0.0000
# 4 0.0000 0.0000 0.0000 -87.1412 0.0000 0.0000
# 5 0.0000 0.0000 0.0000 0.0000 26.5765 0.0000
# 6 0.0000 0.0000 0.0000 0.0000 0.0000 18.0204
#
#
#
# Elastic Compliance Matrix: (Units=1/GPa)
#
#
# Indices 1 2 3 4 5 6 
#
# 1 0.010972 0.001527 -0.005270 0.000000 0.000000 0.000000
# 2 0.001527 0.017482 -0.004701 0.000000 0.000000 0.000000
# 3 -0.005270 -0.004701 0.016244 0.000000 0.000000 0.000000
# 4 0.000000 0.000000 0.000000 -0.011476 0.000000 0.000000
# 5 0.000000 0.000000 0.000000 0.000000 0.037627 0.000000
# 6 0.000000 0.000000 0.000000 0.000000 0.000000 0.055493
#
#
# Mechanical properties :
#
#
# Convention : Reuss Voigt Hill
#
# Bulk Modulus (GPa) = 35.95792 39.33668 37.64730
# Shear Modulus (GPa) = 32.78655 4.50127 18.64391
#
# Velocity S-wave (km/s) = 4.07253 1.50898 3.07104
# Velocity P-wave (km/s) = 6.34853 4.78905 5.62311
#
# Compressibility (1/GPa) = 0.02781028
#
# Stress axis : x y z
#
# Youngs Moduli (GPa) = 91.13922 57.20034 61.56089
#
# Poissons Ratio (x) = -0.08735 0.32445
# Poissons Ratio (y) = -0.13918 0.28939
# Poissons Ratio (z) = 0.48035 0.26889
#
# Static dielectric constant tensor:
#      x y z
#    x 1.682520 0.000000 0.000000 
#    y 0.000000 1.713060 0.000000 
#    z 0.000000 0.000000 1.684170 
# 
# From -- ./inp_files/4471.got.cif
#   From: 2010.05.17/outbox.cif.g08.bks.cpg/sg58_3_cif.got.tgz:4471.got - 2010.06.03 14:20:14.
