data_PCOD9442312
_publ_section_title
;
Structure prediction by ZEFSAII (Michael W. Deem and Ramdas Pophale) SiO2 
 PCOD9442312
Probable space group: P N N M
;
_chemical_formula_sum "Si O2"
_cell_formula_units_Z 42
_cell_length_a 9.510067
_cell_length_b 21.705568
_cell_length_c 7.498411
_cell_angle_alpha 90.000000
_cell_angle_beta 90.000000
_cell_angle_gamma 90.000000
_cell_volume 1547.832541
_symmetry_space_group_name_H-M "P N N M"
_symmetry_group_IT_number 58
_symmetry_cell_setting 'orthorhombic'
loop_
_space_group_symop_operation_xyz
x,y,z
-x,-y,z
1/2+x,1/2-y,1/2-z
1/2-x,1/2+y,1/2-z
-x,-y,-z
x,y,-z
1/2-x,1/2+y,1/2+z
1/2+x,1/2-y,1/2+z
loop_
_atom_site_type_symbol
_atom_site_label
_atom_site_fract_x
_atom_site_fract_y
_atom_site_fract_z
Si Si1 0.605316 0.250967 0.214813
Si Si2 0.797548 0.946080 0.792520
Si Si3 0.340044 0.930051 0.701244
Si Si4 0.062349 0.873055 0.715644
Si Si5 0.134956 0.672833 0.290196
Si Si6 0.500000 0.000000 0.000000
O O1 0.512796 0.310278 0.273028
O O2 0.761028 0.268405 0.272974
O O3 0.517207 0.192196 0.280582
O O4 0.605365 0.249313 0.000000
O O5 0.756165 0.007666 0.694818
O O6 0.716205 0.886322 0.716288
O O7 0.959872 0.926729 0.786954
O O8 0.750781 0.957884 0.000000
O O9 0.389169 0.918910 0.500000
O O10 0.223965 0.881132 0.769290
O O11 0.457039 0.949136 0.842227
O O12 0.060675 0.875618 0.500000
O O13 0.123812 0.662291 0.500000
#
# Coordination Sequence:
#
# PCOD9442312 Si02
#       6
#     8   8   8   8   8   2
#     4   9  18  36  56  81 115 151 192 244 293 348
#     4  10  19  34  59  88 115 147 193 246 297 350
#     4  11  23  41  61  86 118 157 195 244 294 353
#     4   9  19  35  59  86 112 144 193 247 300 351
#     4   9  19  35  55  83 116 149 193 244 290 347
#     4  12  26  44  58  82 124 160 202 238 288 360
#
# _framework density 27.134719
#
# number of rings (size 3 to 8) (size 9 to 14) (size 15 to 20)
#    0.000    2.286    0.952    1.429    1.333    3.810 
#    3.429    0.000    0.000    0.000    0.000    0.000 
#    0.000    0.000    0.000    0.000    0.000    0.000 
#
# Total GULP energy -234890.102953 kJ/mol
# GULP energy per Si atom -5592.621499 kJ/mol
# Density = 2.707296 g / cm^3
# Si number density = 27.134719 Si / 1000 Ang^3
#
#
#
# Elastic Constant Matrix: (Units=GPa)
#
#
# Indices 1 2 3 4 5 6 
#
# 1 156.3543 37.6747 21.5288 0.0000 0.0000 0.0000
# 2 37.6747 57.6409 11.9356 0.0000 0.0000 0.0000
# 3 21.5288 11.9356 136.2184 0.0000 0.0000 0.0000
# 4 0.0000 0.0000 0.0000 29.3710 0.0000 0.0000
# 5 0.0000 0.0000 0.0000 0.0000 36.8099 0.0000
# 6 0.0000 0.0000 0.0000 0.0000 0.0000 70.1207
#
#
#
# Elastic Compliance Matrix: (Units=1/GPa)
#
#
# Indices 1 2 3 4 5 6 
#
# 1 0.007673 -0.004852 -0.000788 0.000000 0.000000 0.000000
# 2 -0.004852 0.020738 -0.001050 0.000000 0.000000 0.000000
# 3 -0.000788 -0.001050 0.007558 0.000000 0.000000 0.000000
# 4 0.000000 0.000000 0.000000 0.034047 0.000000 0.000000
# 5 0.000000 0.000000 0.000000 0.000000 0.027167 0.000000
# 6 0.000000 0.000000 0.000000 0.000000 0.000000 0.014261
#
#
# Mechanical properties :
#
#
# Convention : Reuss Voigt Hill
#
# Bulk Modulus (GPa) = 44.27001 54.72130 49.49565
# Shear Modulus (GPa) = 37.77765 45.86528 41.82146
#
# Velocity S-wave (km/s) = 3.73530 4.11576 3.93014
# Velocity P-wave (km/s) = 5.91216 6.54189 6.23498
#
# Compressibility (1/GPa) = 0.02258866
#
# Stress axis : x y z
#
# Youngs Moduli (GPa) = 130.32070 48.22113 132.31632
#
# Poissons Ratio (x) = 0.23398 0.10421
# Poissons Ratio (y) = 0.63236 0.13896
# Poissons Ratio (z) = 0.10264 0.05064
#
# Static dielectric constant tensor:
#      x y z
#    x 1.351410 0.000000 0.000000 
#    y 0.000000 2.136360 0.000000 
#    z 0.000000 0.000000 2.003860 
# 
# From -- ./inp_files/4122.got.cif
#   From: 2010.05.17/outbox.cif.g08.bks.cpg/sg58_3_cif.got.tgz:4122.got - 2010.06.03 14:20:14.
