data_PCOD9442567
_publ_section_title
;
Structure prediction by ZEFSAII (Michael W. Deem and Ramdas Pophale) SiO2 
 PCOD9442567
Probable space group: P N N M
;
_chemical_formula_sum "Si O2"
_cell_formula_units_Z 48
_cell_length_a 16.860116
_cell_length_b 18.071355
_cell_length_c 9.004341
_cell_angle_alpha 90.000000
_cell_angle_beta 90.000000
_cell_angle_gamma 90.000000
_cell_volume 2743.488912
_symmetry_space_group_name_H-M "P N N M"
_symmetry_group_IT_number 58
_symmetry_cell_setting 'orthorhombic'
loop_
_space_group_symop_operation_xyz
x,y,z
-x,-y,z
1/2+x,1/2-y,1/2-z
1/2-x,1/2+y,1/2-z
-x,-y,-z
x,y,-z
1/2-x,1/2+y,1/2+z
1/2+x,1/2-y,1/2+z
loop_
_atom_site_type_symbol
_atom_site_label
_atom_site_fract_x
_atom_site_fract_y
_atom_site_fract_z
Si Si1 0.857351 0.325880 0.676306
Si Si2 0.255057 0.559960 0.824848
Si Si3 0.999047 0.587522 0.823288
Si Si4 0.167289 0.831962 0.823500
Si Si5 0.682423 0.101715 0.674799
Si Si6 0.911738 0.026289 0.678430
O O1 0.856831 0.318863 0.500000
O O2 0.782433 0.374353 0.731240
O O3 0.855558 0.245835 0.751769
O O4 0.934977 0.369633 0.731917
O O5 0.202887 0.485266 0.803785
O O6 0.344469 0.535048 0.786509
O O7 0.251627 0.578762 0.000000
O O8 0.909715 0.614993 0.794305
O O9 0.000000 0.500000 0.790763
O O10 0.015653 0.595614 0.000000
O O11 0.256655 0.852372 0.773050
O O12 0.113579 0.898492 0.759177
O O13 0.161208 0.828937 0.000000
O O14 0.697808 0.117005 0.500000
O O15 0.907211 0.038353 0.500000
O O16 0.000000 0.000000 0.715789
#
# Coordination Sequence:
#
# PCOD9442567 Si02
#       6
#     8   8   8   8   8   8
#     4  12  24  37  55  83 119 154 193 238 285 335
#     4   9  17  34  59  84 111 147 185 226 284 342
#     4  10  19  36  61  87 116 151 187 228 285 345
#     4  11  23  39  59  82 115 154 193 237 287 337
#     4   9  18  36  61  84 111 147 185 227 280 342
#     4   9  19  39  65  88 112 147 190 237 288 343
#
# _framework density 17.49597
#
# number of rings (size 3 to 8) (size 9 to 14) (size 15 to 20)
#    0.000    2.000    1.667    4.000    0.000    4.000 
#    3.000    0.000    0.000    0.000    0.000    0.000 
#    0.000    0.000    0.000    0.000    0.000    0.000 
#
# Total GULP energy -268017.867716 kJ/mol
# GULP energy per Si atom -5583.705577 kJ/mol
# Density = 1.745615 g / cm^3
# Si number density = 17.495970 Si / 1000 Ang^3
#
#
#
# Elastic Constant Matrix: (Units=GPa)
#
#
# Indices 1 2 3 4 5 6 
#
# 1 137.3629 74.3306 76.0602 0.0000 0.0000 0.0000
# 2 74.3306 111.0582 82.5309 0.0000 0.0000 0.0000
# 3 76.0602 82.5309 107.4453 0.0000 0.0000 0.0000
# 4 0.0000 0.0000 0.0000 30.6889 0.0000 0.0000
# 5 0.0000 0.0000 0.0000 0.0000 33.4037 0.0000
# 6 0.0000 0.0000 0.0000 0.0000 0.0000 14.3449
#
#
#
# Elastic Compliance Matrix: (Units=1/GPa)
#
#
# Indices 1 2 3 4 5 6 
#
# 1 0.012786 -0.004267 -0.005773 0.000000 0.000000 0.000000
# 2 -0.004267 0.022404 -0.014188 0.000000 0.000000 0.000000
# 3 -0.005773 -0.014188 0.024292 0.000000 0.000000 0.000000
# 4 0.000000 0.000000 0.000000 0.032585 0.000000 0.000000
# 5 0.000000 0.000000 0.000000 0.000000 0.029937 0.000000
# 6 0.000000 0.000000 0.000000 0.000000 0.000000 0.069711
#
#
# Mechanical properties :
#
#
# Convention : Reuss Voigt Hill
#
# Bulk Modulus (GPa) = 90.70632 91.30109 91.00371
# Shear Modulus (GPa) = 20.50459 23.88383 22.19421
#
# Velocity S-wave (km/s) = 3.42711 3.69874 3.56551
# Velocity P-wave (km/s) = 8.22294 8.39871 8.31129
#
# Compressibility (1/GPa) = 0.01102459
#
# Stress axis : x y z
#
# Youngs Moduli (GPa) = 78.21141 44.63490 41.16509
#
# Poissons Ratio (x) = 0.19046 0.23767
# Poissons Ratio (y) = 0.33373 0.58406
# Poissons Ratio (z) = 0.45155 0.63329
#
# Static dielectric constant tensor:
#      x y z
#    x 1.601050 0.000000 0.000000 
#    y 0.000000 1.567020 0.000000 
#    z 0.000000 0.000000 1.579620 
# 
# From -- ./inp_files/7725.got.cif
#   From: 2010.05.17/outbox.cif.g08.bks.cpg/sg58_4_cif.got.tgz:7725.got - 2010.06.03 14:20:14.
