data_PCOD9442695
_publ_section_title
;
Structure prediction by ZEFSAII (Michael W. Deem and Ramdas Pophale) SiO2 
 PCOD9442695
Probable space group: P N N M
;
_chemical_formula_sum "Si O2"
_cell_formula_units_Z 52
_cell_length_a 19.875829
_cell_length_b 15.252904
_cell_length_c 7.434545
_cell_angle_alpha 90.000000
_cell_angle_beta 90.000000
_cell_angle_gamma 90.000000
_cell_volume 2253.887231
_symmetry_space_group_name_H-M "P N N M"
_symmetry_group_IT_number 58
_symmetry_cell_setting 'orthorhombic'
loop_
_space_group_symop_operation_xyz
x,y,z
-x,-y,z
1/2+x,1/2-y,1/2-z
1/2-x,1/2+y,1/2-z
-x,-y,-z
x,y,-z
1/2-x,1/2+y,1/2+z
1/2+x,1/2-y,1/2+z
loop_
_atom_site_type_symbol
_atom_site_label
_atom_site_fract_x
_atom_site_fract_y
_atom_site_fract_z
Si Si1 0.119175 0.958821 0.000000
Si Si2 0.061043 0.061776 0.705382
Si Si3 0.762283 0.814428 0.784355
Si Si4 0.410289 0.747268 0.283044
Si Si5 0.435477 0.944954 0.720051
Si Si6 0.711817 0.007108 0.291834
Si Si7 0.822210 0.146884 0.716048
O O1 0.117244 0.883952 0.839655
O O2 0.118665 0.036250 0.843546
O O3 0.077174 0.040115 0.500000
O O4 0.046409 0.164352 0.720408
O O5 0.000000 0.000000 0.769042
O O6 0.834217 0.776509 0.721124
O O7 0.705384 0.742765 0.741483
O O8 0.740702 0.909705 0.718405
O O9 0.765579 0.818311 0.000000
O O10 0.409873 0.748698 0.500000
O O11 0.434129 0.842968 0.224192
O O12 0.437018 0.946701 0.500000
O O13 0.363887 0.985438 0.779826
O O14 0.500000 0.000000 0.781171
O O15 0.706998 0.033887 0.500000
O O16 0.764097 0.078219 0.216195
O O17 0.832629 0.139128 0.500000
#
# Coordination Sequence:
#
# PCOD9442695 Si02
#       7
#     4   8   8   8   8   8   8
#     4  12  23  40  68  98 128 173 221 266 327 402
#     4  11  25  45  66  98 135 174 221 277 331 393
#     4  10  21  37  59  89 128 172 213 269 334 389
#     4  10  19  38  67  94 128 174 224 271 333 401
#     4   9  18  37  63  94 129 172 221 278 331 391
#     4  10  20  36  59  91 129 165 218 272 329 400
#     4  10  22  40  59  92 137 171 206 271 336 395
#
# _framework density 23.071252000000001
#
# number of rings (size 3 to 8) (size 9 to 14) (size 15 to 20)
#    0.000    1.846    2.308    1.615    4.308    1.846 
#    2.769    0.769    0.000    0.923    0.000    0.000 
#    0.000    0.000    0.000    0.000    0.000    0.000 
#
# Total GULP energy -289631.597635 kJ/mol
# GULP energy per Si atom -5569.838416 kJ/mol
# Density = 2.301874 g / cm^3
# Si number density = 23.071252 Si / 1000 Ang^3
#
#
#
# Elastic Constant Matrix: (Units=GPa)
#
#
# Indices 1 2 3 4 5 6 
#
# 1 80.2000 41.4551 8.7201 0.0000 0.0000 0.0000
# 2 41.4551 140.0180 6.3615 0.0000 0.0000 0.0000
# 3 8.7201 6.3615 86.9520 0.0000 0.0000 0.0000
# 4 0.0000 0.0000 0.0000 95.4233 0.0000 0.0000
# 5 0.0000 0.0000 0.0000 0.0000 -12.4630 0.0000
# 6 0.0000 0.0000 0.0000 0.0000 0.0000 44.5873
#
#
#
# Elastic Compliance Matrix: (Units=1/GPa)
#
#
# Indices 1 2 3 4 5 6 
#
# 1 0.014840 -0.004340 -0.001171 0.000000 0.000000 0.000000
# 2 -0.004340 0.008435 -0.000182 0.000000 0.000000 0.000000
# 3 -0.001171 -0.000182 0.011631 0.000000 0.000000 0.000000
# 4 0.000000 0.000000 0.000000 0.010480 0.000000 0.000000
# 5 0.000000 0.000000 0.000000 0.000000 -0.080238 0.000000
# 6 0.000000 0.000000 0.000000 0.000000 0.000000 0.022428
#
#
# Mechanical properties :
#
#
# Convention : Reuss Voigt Hill
#
# Bulk Modulus (GPa) = 42.51628 46.69371 44.60500
# Shear Modulus (GPa) = 735.07938 42.21842 388.64890
#
# Velocity S-wave (km/s) = 17.86909 4.28239 12.99314
# Velocity P-wave (km/s) = 21.07623 6.68840 15.63557
#
# Compressibility (1/GPa) = 0.02352040
#
# Stress axis : x y z
#
# Youngs Moduli (GPa) = 67.38705 118.55007 85.97490
#
# Poissons Ratio (x) = 0.51455 0.10065
# Poissons Ratio (y) = 0.29249 0.01563
# Poissons Ratio (z) = 0.07889 0.02156
#
# Static dielectric constant tensor:
#      x y z
#    x 2.028760 0.000000 0.000000 
#    y 0.000000 1.864470 0.000000 
#    z 0.000000 0.000000 1.877460 
# 
# From -- ./inp_files/8902.got.cif
#   From: 2010.05.17/outbox.cif.g08.bks.cpg/sg58_5_cif.got.tgz:8902.got - 2010.06.03 14:20:14.
