data_PCOD9442975
_publ_section_title
;
Structure prediction by ZEFSAII (Michael W. Deem and Ramdas Pophale) SiO2 
 PCOD9442975
Probable space group: P N N M
;
_chemical_formula_sum "Si O2"
_cell_formula_units_Z 56
_cell_length_a 21.699783
_cell_length_b 15.144452
_cell_length_c 7.361331
_cell_angle_alpha 90.000000
_cell_angle_beta 90.000000
_cell_angle_gamma 90.000000
_cell_volume 2419.163939
_symmetry_space_group_name_H-M "P N N M"
_symmetry_group_IT_number 58
_symmetry_cell_setting 'orthorhombic'
loop_
_space_group_symop_operation_xyz
x,y,z
-x,-y,z
1/2+x,1/2-y,1/2-z
1/2-x,1/2+y,1/2-z
-x,-y,-z
x,y,-z
1/2-x,1/2+y,1/2+z
1/2+x,1/2-y,1/2+z
loop_
_atom_site_type_symbol
_atom_site_label
_atom_site_fract_x
_atom_site_fract_y
_atom_site_fract_z
Si Si1 0.782198 0.195035 0.282551
Si Si2 0.473762 0.910242 0.790152
Si Si3 0.624870 0.397788 0.221439
Si Si4 0.830444 0.575662 0.220479
Si Si5 0.764908 0.396612 0.215072
Si Si6 0.404024 0.407077 0.778533
Si Si7 0.514721 0.281695 0.222490
O O1 0.781301 0.187096 0.500000
O O2 0.718053 0.151134 0.219123
O O3 0.790336 0.298171 0.241051
O O4 0.840249 0.137829 0.218478
O O5 0.399765 0.910410 0.785089
O O6 0.496100 0.817386 0.712086
O O7 0.500000 0.000000 0.707047
O O8 0.494604 0.909777 0.000000
O O9 0.694980 0.395400 0.286825
O O10 0.594993 0.490975 0.275145
O O11 0.581278 0.318187 0.279746
O O12 0.626407 0.395673 0.000000
O O13 0.804388 0.479887 0.281781
O O14 0.832560 0.576719 0.000000
O O15 0.759904 0.411960 0.000000
O O16 0.461917 0.349301 0.720312
O O17 0.404172 0.406396 0.000000
O O18 0.514725 0.280433 0.000000
#
# Coordination Sequence:
#
# PCOD9442975 Si02
#       7
#     8   8   8   8   8   8   8
#     4  10  20  34  54  80 109 142 180 224 271 319
#     4  10  22  37  54  80 110 140 181 229 275 322
#     4   9  15  28  49  74 102 133 171 214 261 315
#     4  10  21  38  56  78 110 147 185 222 270 332
#     4  10  20  34  54  79 108 142 180 220 265 322
#     4   9  16  28  48  74 103 133 169 216 267 316
#     4   9  17  28  47  75 104 135 170 216 270 316
#
# _framework density 23.148492000000001
#
# number of rings (size 3 to 8) (size 9 to 14) (size 15 to 20)
#    0.000    2.429    1.429    1.286    2.000    4.286 
#    0.000    0.000    0.000    0.000    0.000    0.000 
#    0.000    5.714    0.000    0.000    0.000    0.000 
#
# Total GULP energy -313040.762700 kJ/mol
# GULP energy per Si atom -5590.013620 kJ/mol
# Density = 2.309580 g / cm^3
# Si number density = 23.148492 Si / 1000 Ang^3
#
#
#
# Elastic Constant Matrix: (Units=GPa)
#
#
# Indices 1 2 3 4 5 6 
#
# 1 28.0568 -16.2230 -10.2619 0.0000 0.0000 0.0000
# 2 -16.2230 110.4347 -5.1473 0.0000 0.0000 0.0000
# 3 -10.2619 -5.1473 84.6053 0.0000 0.0000 0.0000
# 4 0.0000 0.0000 0.0000 5.9123 0.0000 0.0000
# 5 0.0000 0.0000 0.0000 0.0000 2.8939 0.0000
# 6 0.0000 0.0000 0.0000 0.0000 0.0000 33.3484
#
#
#
# Elastic Compliance Matrix: (Units=1/GPa)
#
#
# Indices 1 2 3 4 5 6 
#
# 1 0.041263 0.006313 0.005389 0.000000 0.000000 0.000000
# 2 0.006313 0.010047 0.001377 0.000000 0.000000 0.000000
# 3 0.005389 0.001377 0.012557 0.000000 0.000000 0.000000
# 4 0.000000 0.000000 0.000000 0.169138 0.000000 0.000000
# 5 0.000000 0.000000 0.000000 0.000000 0.345549 0.000000
# 6 0.000000 0.000000 0.000000 0.000000 0.000000 0.029986
#
#
# Mechanical properties :
#
#
# Convention : Reuss Voigt Hill
#
# Bulk Modulus (GPa) = 11.10813 17.75916 14.43365
# Shear Modulus (GPa) = 8.16471 25.41286 16.78879
#
# Velocity S-wave (km/s) = 1.88010 3.31693 2.69600
# Velocity P-wave (km/s) = 3.08579 4.72841 3.99249
#
# Compressibility (1/GPa) = 0.09002415
#
# Stress axis : x y z
#
# Youngs Moduli (GPa) = 24.23466 99.53556 79.63695
#
# Poissons Ratio (x) = -0.62835 -0.42916
# Poissons Ratio (y) = -0.15299 -0.10965
# Poissons Ratio (z) = -0.13060 -0.13705
#
# Static dielectric constant tensor:
#      x y z
#    x 1.811100 0.000000 0.000000 
#    y 0.000000 1.843450 0.000000 
#    z 0.000000 0.000000 1.895920 
# 
# From -- ./inp_files/6261.got.cif
#   From: 2010.05.17/outbox.cif.g08.bks.cpg/sg58_4_cif.got.tgz:6261.got - 2010.06.03 14:20:14.
