data_PCOD9442399
_publ_section_title
;
Structure prediction by ZEFSAII (Michael W. Deem and Ramdas Pophale) SiO2 
 PCOD9442399
Probable space group: P N N M
;
_chemical_formula_sum "Si O2"
_cell_formula_units_Z 48
_cell_length_a 29.271490
_cell_length_b 9.628738
_cell_length_c 7.677351
_cell_angle_alpha 90.000000
_cell_angle_beta 90.000000
_cell_angle_gamma 90.000000
_cell_volume 2163.842248
_symmetry_space_group_name_H-M "P N N M"
_symmetry_group_IT_number 58
_symmetry_cell_setting 'orthorhombic'
loop_
_space_group_symop_operation_xyz
x,y,z
-x,-y,z
1/2+x,1/2-y,1/2-z
1/2-x,1/2+y,1/2-z
-x,-y,-z
x,y,-z
1/2-x,1/2+y,1/2+z
1/2+x,1/2-y,1/2+z
loop_
_atom_site_type_symbol
_atom_site_label
_atom_site_fract_x
_atom_site_fract_y
_atom_site_fract_z
Si Si1 0.216622 0.816865 0.289649
Si Si2 0.385701 0.829788 0.298442
Si Si3 0.197748 0.496031 0.791014
Si Si4 0.512155 0.157098 0.288553
Si Si5 0.044976 0.906108 0.792698
Si Si6 0.859624 0.968440 0.300160
O O1 0.216622 0.820044 0.500000
O O2 0.209879 0.656260 0.241684
O O3 0.263073 0.890518 0.226914
O O4 0.175349 0.916821 0.229101
O O5 0.393481 0.869156 0.500000
O O6 0.351456 0.944470 0.222131
O O7 0.436605 0.813060 0.222592
O O8 0.361290 0.680261 0.292188
O O9 0.196121 0.479205 0.000000
O O10 0.512473 0.178140 0.500000
O O11 0.472171 0.257872 0.225716
O O12 0.500000 0.000000 0.251354
O O13 0.089735 0.967770 0.707038
O O14 0.055113 0.901920 0.000000
O O15 0.000000 0.000000 0.770547
O O16 0.846794 0.939802 0.500000
#
# Coordination Sequence:
#
# PCOD9442399 Si02
#       6
#     8   8   8   8   8   8
#     4  10  23  41  58  85 121 151 183 234 291 341
#     4  10  20  37  59  85 112 144 194 243 280 330
#     4  10  22  39  63  89 112 147 197 240 279 338
#     4   9  18  32  53  81 112 142 178 235 292 325
#     4  10  19  35  58  82 110 147 192 239 281 325
#     4  11  23  37  56  82 118 156 189 228 286 351
#
# _framework density 22.182763999999999
#
# number of rings (size 3 to 8) (size 9 to 14) (size 15 to 20)
#    0.000    2.000    1.667    1.500    2.333    3.000 
#    0.000    0.000    0.000    1.000    0.000    0.000 
#    0.000    0.000    0.000    0.000    0.000    0.000 
#
# Total GULP energy -268091.182908 kJ/mol
# GULP energy per Si atom -5585.232977 kJ/mol
# Density = 2.213227 g / cm^3
# Si number density = 22.182764 Si / 1000 Ang^3
#
#
#
# Elastic Constant Matrix: (Units=GPa)
#
#
# Indices 1 2 3 4 5 6 
#
# 1 74.2177 14.7738 -0.2612 0.0000 0.0000 0.0000
# 2 14.7738 89.5788 -9.7641 0.0000 0.0000 0.0000
# 3 -0.2612 -9.7641 32.8491 0.0000 0.0000 0.0000
# 4 0.0000 0.0000 0.0000 20.3528 0.0000 0.0000
# 5 0.0000 0.0000 0.0000 0.0000 4.8849 0.0000
# 6 0.0000 0.0000 0.0000 0.0000 0.0000 38.6956
#
#
#
# Elastic Compliance Matrix: (Units=1/GPa)
#
#
# Indices 1 2 3 4 5 6 
#
# 1 0.013942 -0.002364 -0.000592 0.000000 0.000000 0.000000
# 2 -0.002364 0.011938 0.003530 0.000000 0.000000 0.000000
# 3 -0.000592 0.003530 0.031487 0.000000 0.000000 0.000000
# 4 0.000000 0.000000 0.000000 0.049133 0.000000 0.000000
# 5 0.000000 0.000000 0.000000 0.000000 0.204713 0.000000
# 6 0.000000 0.000000 0.000000 0.000000 0.000000 0.025843
#
#
# Mechanical properties :
#
#
# Convention : Reuss Voigt Hill
#
# Bulk Modulus (GPa) = 17.08971 22.90475 19.99723
# Shear Modulus (GPa) = 14.06813 25.57979 19.82396
#
# Velocity S-wave (km/s) = 2.52105 3.39947 2.99267
# Velocity P-wave (km/s) = 4.02430 5.07508 4.57993
#
# Compressibility (1/GPa) = 0.05851473
#
# Stress axis : x y z
#
# Youngs Moduli (GPa) = 71.72389 83.76643 31.75951
#
# Poissons Ratio (x) = 0.19802 0.01880
# Poissons Ratio (y) = 0.16955 -0.11210
# Poissons Ratio (z) = 0.04245 -0.29567
#
# Static dielectric constant tensor:
#      x y z
#    x 1.822000 0.000000 0.000000 
#    y 0.000000 1.809000 0.000000 
#    z 0.000000 0.000000 1.852410 
# 
# From -- ./inp_files/2849.got.cif
#   From: 2010.05.17/outbox.cif.g08.bks.cpg/sg58_2_cif.got.tgz:2849.got - 2010.06.03 14:20:14.
