data_PCOD9442241
_publ_section_title
;
Structure prediction by ZEFSAII (Michael W. Deem and Ramdas Pophale) SiO2 
 PCOD9442241
Probable space group: P N N M
;
_chemical_formula_sum "Si O2"
_cell_formula_units_Z 48
_cell_length_a 14.101166
_cell_length_b 13.437580
_cell_length_c 14.068788
_cell_angle_alpha 90.000000
_cell_angle_beta 90.000000
_cell_angle_gamma 90.000000
_cell_volume 2665.831979
_symmetry_space_group_name_H-M "P N N M"
_symmetry_group_IT_number 58
_symmetry_cell_setting 'orthorhombic'
loop_
_space_group_symop_operation_xyz
x,y,z
-x,-y,z
1/2+x,1/2-y,1/2-z
1/2-x,1/2+y,1/2-z
-x,-y,-z
x,y,-z
1/2-x,1/2+y,1/2+z
1/2+x,1/2-y,1/2+z
loop_
_atom_site_type_symbol
_atom_site_label
_atom_site_fract_x
_atom_site_fract_y
_atom_site_fract_z
Si Si1 0.668561 0.203178 0.393430
Si Si2 0.033084 0.603889 0.109920
Si Si3 0.040769 0.892457 0.256249
Si Si4 0.663089 0.317677 0.789355
Si Si5 0.328302 0.272313 0.613890
Si Si6 0.689912 0.525364 0.110968
O O1 0.692812 0.235387 0.500000
O O2 0.557320 0.176776 0.389958
O O3 0.694711 0.284333 0.315586
O O4 0.721696 0.098795 0.375649
O O5 0.000000 0.500000 0.155439
O O6 0.121492 0.667825 0.144279
O O7 0.058275 0.579657 0.000000
O O8 0.112971 0.851298 0.176632
O O9 0.099436 0.913295 0.352132
O O10 0.951360 0.822575 0.281662
O O11 0.000000 0.000000 0.224431
O O12 0.718245 0.240094 0.857459
O O13 0.691382 0.426772 0.825751
O O14 0.339657 0.285787 0.500000
O O15 0.683599 0.498429 0.000000
#
# Coordination Sequence:
#
# PCOD9442241 Si02
#       6
#     8   8   8   8   8   8
#     4  10  19  34  57  82 112 150 191 233 286 349
#     4   9  17  30  51  80 107 137 179 231 287 338
#     4  10  22  37  56  84 115 153 192 238 290 352
#     4  11  21  35  58  83 114 149 196 238 290 343
#     4  11  21  35  55  84 116 147 190 243 293 342
#     4  10  21  38  59  84 115 152 193 239 291 349
#
# _framework density 18.005637
#
# number of rings (size 3 to 8) (size 9 to 14) (size 15 to 20)
#    0.000    1.833    3.333    1.500    0.000    6.667 
#    0.000    2.500    0.000    0.000    0.000    0.000 
#    0.000   13.333    0.000    0.000    0.000    0.000 
#
# Total GULP energy -267295.178895 kJ/mol
# GULP energy per Si atom -5568.649560 kJ/mol
# Density = 1.796465 g / cm^3
# Si number density = 18.005637 Si / 1000 Ang^3
#
#
#
# Elastic Constant Matrix: (Units=GPa)
#
#
# Indices 1 2 3 4 5 6 
#
# 1 83.1592 18.5907 31.3047 0.0000 0.0000 0.0000
# 2 18.5907 44.2550 39.4663 0.0000 0.0000 0.0000
# 3 31.3047 39.4663 93.1540 0.0000 0.0000 0.0000
# 4 0.0000 0.0000 0.0000 31.5460 0.0000 0.0000
# 5 0.0000 0.0000 0.0000 0.0000 20.9783 0.0000
# 6 0.0000 0.0000 0.0000 0.0000 0.0000 32.6927
#
#
#
# Elastic Compliance Matrix: (Units=1/GPa)
#
#
# Indices 1 2 3 4 5 6 
#
# 1 0.013965 -0.002702 -0.003548 0.000000 0.000000 0.000000
# 2 -0.002702 0.036841 -0.014700 0.000000 0.000000 0.000000
# 3 -0.003548 -0.014700 0.018155 0.000000 0.000000 0.000000
# 4 0.000000 0.000000 0.000000 0.031700 0.000000 0.000000
# 5 0.000000 0.000000 0.000000 0.000000 0.047668 0.000000
# 6 0.000000 0.000000 0.000000 0.000000 0.000000 0.030588
#
#
# Mechanical properties :
#
#
# Convention : Reuss Voigt Hill
#
# Bulk Modulus (GPa) = 36.95484 44.36574 40.66029
# Shear Modulus (GPa) = 21.75445 25.79051 23.77248
#
# Velocity S-wave (km/s) = 3.47969 3.78876 3.63751
# Velocity P-wave (km/s) = 6.05912 6.62065 6.34610
#
# Compressibility (1/GPa) = 0.02706005
#
# Stress axis : x y z
#
# Youngs Moduli (GPa) = 71.60815 27.14370 55.08048
#
# Poissons Ratio (x) = 0.07335 0.19543
# Poissons Ratio (y) = 0.19350 0.80969
# Poissons Ratio (z) = 0.25407 0.39902
#
# Static dielectric constant tensor:
#      x y z
#    x 1.693990 0.000000 0.000000 
#    y 0.000000 1.646360 0.000000 
#    z 0.000000 0.000000 1.605490 
# 
# From -- ./inp_files/15576.got.cif
#   From: 2010.05.17/outbox.cif.g08.bks.cpg/sg58_8_cif.got.tgz:15576.got - 2010.06.03 14:20:14.
