data_PCOD9442743
_publ_section_title
;
Structure prediction by ZEFSAII (Michael W. Deem and Ramdas Pophale) SiO2 
 PCOD9442743
Probable space group: P N N M
;
_chemical_formula_sum "Si O2"
_cell_formula_units_Z 48
_cell_length_a 8.439229
_cell_length_b 8.625547
_cell_length_c 29.241004
_cell_angle_alpha 90.000000
_cell_angle_beta 90.000000
_cell_angle_gamma 90.000000
_cell_volume 2128.539421
_symmetry_space_group_name_H-M "P N N M"
_symmetry_group_IT_number 58
_symmetry_cell_setting 'orthorhombic'
loop_
_space_group_symop_operation_xyz
x,y,z
-x,-y,z
1/2+x,1/2-y,1/2-z
1/2-x,1/2+y,1/2-z
-x,-y,-z
x,y,-z
1/2-x,1/2+y,1/2+z
1/2+x,1/2-y,1/2+z
loop_
_atom_site_type_symbol
_atom_site_label
_atom_site_fract_x
_atom_site_fract_y
_atom_site_fract_z
Si Si1 0.837050 0.898710 0.549887
Si Si2 0.168542 0.288483 0.053627
Si Si3 0.841651 0.105577 0.210544
Si Si4 0.186900 0.706215 0.303798
Si Si5 0.017742 0.682141 0.391897
Si Si6 0.999990 0.313701 0.858462
O O1 0.818481 0.826246 0.500000
O O2 0.868686 0.770579 0.587109
O O3 0.702222 0.026170 0.556283
O O4 0.000000 0.000000 0.549524
O O5 0.328976 0.215997 0.075420
O O6 0.028774 0.256137 0.089512
O O7 0.147218 0.249182 0.000000
O O8 0.827439 0.204734 0.256441
O O9 0.862268 0.223188 0.168276
O O10 0.704625 0.978085 0.204486
O O11 0.000000 0.000000 0.213803
O O12 0.051938 0.740972 0.340804
O O13 0.344291 0.762740 0.330016
O O14 0.000000 0.500000 0.391044
O O15 0.000000 0.500000 0.856220
#
# Coordination Sequence:
#
# PCOD9442743 Si02
#       6
#     8   8   8   8   8   8
#     4   8  15  30  51  76 109 143 175 217 266 320
#     4   9  19  36  56  80 111 148 188 226 268 325
#     4  10  22  39  58  81 112 146 186 231 282 337
#     4  10  22  38  57  81 111 146 185 231 281 339
#     4  10  20  31  52  84 114 141 178 227 280 332
#     4  10  21  37  59  82 109 145 188 235 278 323
#
# _framework density 22.550674999999998
#
# number of rings (size 3 to 8) (size 9 to 14) (size 15 to 20)
#    0.000    2.500    0.000    2.500    0.000    9.667 
#    0.000    0.000    0.000   13.500    0.000    0.000 
#    0.000    0.000    0.000    0.000    0.000    0.000 
#
# Total GULP energy -268204.197767 kJ/mol
# GULP energy per Si atom -5587.587453 kJ/mol
# Density = 2.249935 g / cm^3
# Si number density = 22.550675 Si / 1000 Ang^3
#
#
#
# Elastic Constant Matrix: (Units=GPa)
#
#
# Indices 1 2 3 4 5 6 
#
# 1 44.8192 11.3476 48.5968 0.0000 0.0000 0.0000
# 2 11.3476 82.3220 63.7506 0.0000 0.0000 0.0000
# 3 48.5968 63.7506 222.8546 0.0000 0.0000 0.0000
# 4 0.0000 0.0000 0.0000 28.9384 0.0000 0.0000
# 5 0.0000 0.0000 0.0000 0.0000 6.2427 0.0000
# 6 0.0000 0.0000 0.0000 0.0000 0.0000 24.1110
#
#
#
# Elastic Compliance Matrix: (Units=1/GPa)
#
#
# Indices 1 2 3 4 5 6 
#
# 1 0.029308 0.001168 -0.006725 0.000000 0.000000 0.000000
# 2 0.001168 0.015651 -0.004732 0.000000 0.000000 0.000000
# 3 -0.006725 -0.004732 0.007307 0.000000 0.000000 0.000000
# 4 0.000000 0.000000 0.000000 0.034556 0.000000 0.000000
# 5 0.000000 0.000000 0.000000 0.000000 0.160186 0.000000
# 6 0.000000 0.000000 0.000000 0.000000 0.000000 0.041475
#
#
# Mechanical properties :
#
#
# Convention : Reuss Voigt Hill
#
# Bulk Modulus (GPa) = 31.55730 66.37620 48.96675
# Shear Modulus (GPa) = 15.64337 26.94513 21.29425
#
# Velocity S-wave (km/s) = 2.63667 3.46044 3.07625
# Velocity P-wave (km/s) = 4.82636 6.74272 5.86336
#
# Compressibility (1/GPa) = 0.03168839
#
# Stress axis : x y z
#
# Youngs Moduli (GPa) = 34.12013 63.89459 136.84801
#
# Poissons Ratio (x) = -0.07463 0.92034
# Poissons Ratio (y) = -0.03986 0.64754
# Poissons Ratio (z) = 0.22947 0.30234
#
# Static dielectric constant tensor:
#      x y z
#    x 1.933870 0.000000 0.000000 
#    y 0.000000 1.782880 0.000000 
#    z 0.000000 0.000000 1.826080 
# 
# From -- ./inp_files/31900.got.cif
#   From: 2010.05.17/outbox.cif.g08.bks.cpg/sg58_16_cif.got.tgz:31900.got - 2010.06.03 14:20:14.
