data_PCOD9442865
_publ_section_title
;
Structure prediction by ZEFSAII (Michael W. Deem and Ramdas Pophale) SiO2 
 PCOD9442865
Probable space group: P N N M
;
_chemical_formula_sum "Si O2"
_cell_formula_units_Z 48
_cell_length_a 31.994808
_cell_length_b 10.618217
_cell_length_c 7.931772
_cell_angle_alpha 90.000000
_cell_angle_beta 90.000000
_cell_angle_gamma 90.000000
_cell_volume 2694.643564
_symmetry_space_group_name_H-M "P N N M"
_symmetry_group_IT_number 58
_symmetry_cell_setting 'orthorhombic'
loop_
_space_group_symop_operation_xyz
x,y,z
-x,-y,z
1/2+x,1/2-y,1/2-z
1/2-x,1/2+y,1/2-z
-x,-y,-z
x,y,-z
1/2-x,1/2+y,1/2+z
1/2+x,1/2-y,1/2+z
loop_
_atom_site_type_symbol
_atom_site_label
_atom_site_fract_x
_atom_site_fract_y
_atom_site_fract_z
Si Si1 0.876946 0.353305 0.301339
Si Si2 0.373080 0.445221 0.798642
Si Si3 0.429252 0.532926 0.500000
Si Si4 0.531043 0.882485 0.803775
Si Si5 0.492867 0.297796 0.500000
Si Si6 0.222477 0.912013 0.701777
Si Si7 0.215736 0.623296 0.196464
O O1 0.869882 0.369391 0.500000
O O2 0.920974 0.416439 0.256820
O O3 0.833947 0.395858 0.218002
O O4 0.882721 0.203469 0.271803
O O5 0.401266 0.522634 0.668727
O O6 0.324199 0.456927 0.751308
O O7 0.378718 0.471961 0.000000
O O8 0.460316 0.413026 0.500000
O O9 0.459993 0.651276 0.500000
O O10 0.515698 0.781918 0.668287
O O11 0.500000 0.000000 0.797049
O O12 0.532157 0.836909 0.000000
O O13 0.223626 0.916346 0.500000
O O14 0.257085 0.008582 0.771576
O O15 0.226698 0.764103 0.742515
O O16 0.224946 0.625369 0.000000
#
# Coordination Sequence:
#
# PCOD9442865 Si02
#       7
#     8   8   4   8   4   8   8
#     4   9  18  33  54  80 105 137 183 227 268 323
#     4   9  18  35  56  77 110 146 185 227 263 327
#     4  11  22  34  56  86 108 148 184 222 283 338
#     4  10  21  38  59  80 107 148 190 230 280 331
#     4  11  23  36  54  84 119 135 184 242 276 329
#     4   9  20  36  52  80 111 140 182 228 272 328
#     4  10  20  33  56  82 108 144 181 224 279 328
#
# _framework density 17.813116999999998
#
# number of rings (size 3 to 8) (size 9 to 14) (size 15 to 20)
#    0.000    2.333    1.667    1.750    5.833    2.000 
#    0.000    3.333    0.000    6.000    0.000    0.000 
#    0.000    0.000    0.000    0.000    0.000    0.000 
#
# Total GULP energy -267441.163126 kJ/mol
# GULP energy per Si atom -5571.690898 kJ/mol
# Density = 1.777257 g / cm^3
# Si number density = 17.813117 Si / 1000 Ang^3
#
#
#
# Elastic Constant Matrix: (Units=GPa)
#
#
# Indices 1 2 3 4 5 6 
#
# 1 139.7656 68.2408 46.3095 0.0000 0.0000 0.0000
# 2 68.2408 61.8798 30.0870 0.0000 0.0000 0.0000
# 3 46.3095 30.0870 58.2747 0.0000 0.0000 0.0000
# 4 0.0000 0.0000 0.0000 -6.5515 0.0000 0.0000
# 5 0.0000 0.0000 0.0000 0.0000 38.0021 0.0000
# 6 0.0000 0.0000 0.0000 0.0000 0.0000 36.1381
#
#
#
# Elastic Compliance Matrix: (Units=1/GPa)
#
#
# Indices 1 2 3 4 5 6 
#
# 1 0.016512 -0.015795 -0.004967 0.000000 0.000000 0.000000
# 2 -0.015795 0.036685 -0.006389 0.000000 0.000000 0.000000
# 3 -0.004967 -0.006389 0.024406 0.000000 0.000000 0.000000
# 4 0.000000 0.000000 0.000000 -0.152637 0.000000 0.000000
# 5 0.000000 0.000000 0.000000 0.000000 0.026314 0.000000
# 6 0.000000 0.000000 0.000000 0.000000 0.000000 0.027672
#
#
# Mechanical properties :
#
#
# Convention : Reuss Voigt Hill
#
# Bulk Modulus (GPa) = 42.91466 61.02163 51.96814
# Shear Modulus (GPa) = 121.88945 21.20327 71.54636
#
# Velocity S-wave (km/s) = 8.28102 3.45384 6.34446
# Velocity P-wave (km/s) = 10.75071 7.08776 9.10533
#
# Compressibility (1/GPa) = 0.02330206
#
# Stress axis : x y z
#
# Youngs Moduli (GPa) = 60.56026 27.25917 40.97360
#
# Poissons Ratio (x) = 0.43055 0.20353
# Poissons Ratio (y) = 0.95653 0.26176
# Poissons Ratio (z) = 0.30082 0.17415
#
# Static dielectric constant tensor:
#      x y z
#    x 1.643620 0.000000 0.000000 
#    y 0.000000 1.611790 0.000000 
#    z 0.000000 0.000000 1.631150 
# 
# From -- ./inp_files/10790.got.cif
#   From: 2010.05.17/outbox.cif.g08.bks.cpg/sg58_6_cif.got.tgz:10790.got - 2010.06.03 14:20:14.
