data_PCOD9442199
_publ_section_title
;
Structure prediction by ZEFSAII (Michael W. Deem and Ramdas Pophale) SiO2 
 PCOD9442199
Probable space group: P N N M
;
_chemical_formula_sum "Si O2"
_cell_formula_units_Z 64
_cell_length_a 22.665307
_cell_length_b 17.098321
_cell_length_c 7.416412
_cell_angle_alpha 90.000000
_cell_angle_beta 90.000000
_cell_angle_gamma 90.000000
_cell_volume 2874.146625
_symmetry_space_group_name_H-M "P N N M"
_symmetry_group_IT_number 58
_symmetry_cell_setting 'orthorhombic'
loop_
_space_group_symop_operation_xyz
x,y,z
-x,-y,z
1/2+x,1/2-y,1/2-z
1/2-x,1/2+y,1/2-z
-x,-y,-z
x,y,-z
1/2-x,1/2+y,1/2+z
1/2+x,1/2-y,1/2+z
loop_
_atom_site_type_symbol
_atom_site_label
_atom_site_fract_x
_atom_site_fract_y
_atom_site_fract_z
Si Si1 0.351967 0.365164 0.279360
Si Si2 0.113837 0.695979 0.209159
Si Si3 0.986095 0.415513 0.794610
Si Si4 0.361487 0.663265 0.718066
Si Si5 0.567208 0.488833 0.279991
Si Si6 0.266772 0.105897 0.781696
Si Si7 0.774537 0.575312 0.280067
Si Si8 0.107012 0.340449 0.290595
O O1 0.351456 0.363668 0.500000
O O2 0.378081 0.282903 0.214838
O O3 0.391641 0.438827 0.225007
O O4 0.284417 0.379228 0.222622
O O5 0.176819 0.653630 0.217309
O O6 0.064737 0.638298 0.289784
O O7 0.096402 0.707563 0.000000
O O8 0.046644 0.367526 0.798691
O O9 0.000000 0.500000 0.711012
O O10 0.965568 0.432628 0.000000
O O11 0.361372 0.663025 0.500000
O O12 0.403985 0.592894 0.777533
O O13 0.294827 0.644050 0.777371
O O14 0.382493 0.748130 0.777071
O O15 0.500000 0.500000 0.221331
O O16 0.567251 0.488501 0.500000
O O17 0.270311 0.015261 0.725715
O O18 0.267516 0.106795 0.000000
O O19 0.774789 0.576901 0.500000
O O20 0.834862 0.615616 0.218701
O O21 0.101004 0.362220 0.500000
#
# Coordination Sequence:
#
# PCOD9442199 Si02
#       8
#     8   8   8   8   8   8   8   8
#     4   9  16  30  51  78 106 133 176 224 264 311
#     4  10  21  34  55  82 108 141 179 226 276 324
#     4  10  22  40  58  81 114 147 183 230 285 339
#     4  10  20  35  56  83 113 143 181 229 281 332
#     4   9  17  29  52  82 108 138 178 225 271 321
#     4  10  19  34  56  80 108 143 180 222 275 329
#     4   9  17  32  52  76 106 140 179 225 270 318
#     4  11  23  36  56  82 111 149 190 232 279 332
#
# _framework density 22.267479999999999
#
# number of rings (size 3 to 8) (size 9 to 14) (size 15 to 20)
#    0.000    2.250    1.250    1.875    1.750    2.250 
#    0.000    0.625    0.000    1.875    0.000    0.000 
#    0.000    0.000    0.000    0.000    0.000    0.000 
#
# Total GULP energy -357795.774534 kJ/mol
# GULP energy per Si atom -5590.558977 kJ/mol
# Density = 2.221680 g / cm^3
# Si number density = 22.267480 Si / 1000 Ang^3
#
#
#
# Elastic Constant Matrix: (Units=GPa)
#
#
# Indices 1 2 3 4 5 6 
#
# 1 149.3067 60.1313 -9.9627 0.0000 0.0000 0.0000
# 2 60.1313 161.1556 -10.0478 0.0000 0.0000 0.0000
# 3 -9.9627 -10.0478 72.5474 0.0000 0.0000 0.0000
# 4 0.0000 0.0000 0.0000 1.1644 0.0000 0.0000
# 5 0.0000 0.0000 0.0000 0.0000 -12.2424 0.0000
# 6 0.0000 0.0000 0.0000 0.0000 0.0000 18.8698
#
#
#
# Elastic Compliance Matrix: (Units=1/GPa)
#
#
# Indices 1 2 3 4 5 6 
#
# 1 0.007916 -0.002911 0.000684 0.000000 0.000000 0.000000
# 2 -0.002911 0.007330 0.000615 0.000000 0.000000 0.000000
# 3 0.000684 0.000615 0.013963 0.000000 0.000000 0.000000
# 4 0.000000 0.000000 0.000000 0.858806 0.000000 0.000000
# 5 0.000000 0.000000 0.000000 0.000000 -0.081684 0.000000
# 6 0.000000 0.000000 0.000000 0.000000 0.000000 0.052995
#
#
# Mechanical properties :
#
#
# Convention : Reuss Voigt Hill
#
# Bulk Modulus (GPa) = 38.48326 51.47236 44.97781
# Shear Modulus (GPa) = 5.73914 24.41764 15.07839
#
# Velocity S-wave (km/s) = 1.60716 3.31503 2.60503
# Velocity P-wave (km/s) = 4.55672 6.14965 5.41211
#
# Compressibility (1/GPa) = 0.02598532
#
# Stress axis : x y z
#
# Youngs Moduli (GPa) = 126.33338 136.43175 71.61661
#
# Poissons Ratio (x) = 0.39713 -0.04898
# Poissons Ratio (y) = 0.36774 -0.04407
# Poissons Ratio (z) = -0.08640 -0.08396
#
# Static dielectric constant tensor:
#      x y z
#    x 1.765460 0.000000 0.000000 
#    y 0.000000 1.775420 0.000000 
#    z 0.000000 0.000000 1.864850 
# 
# From -- ./inp_files/10105.got.cif
#   From: 2010.05.17/outbox.cif.g08.bks.cpg/sg58_6_cif.got.tgz:10105.got - 2010.06.03 14:20:14.
