data_PCOD9442293
_publ_section_title
;
Structure prediction by ZEFSAII (Michael W. Deem and Ramdas Pophale) SiO2 
 PCOD9442293
Probable space group: P N N M
;
_chemical_formula_sum "Si O2"
_cell_formula_units_Z 64
_cell_length_a 25.522347
_cell_length_b 14.733705
_cell_length_c 8.898212
_cell_angle_alpha 90.000000
_cell_angle_beta 90.000000
_cell_angle_gamma 90.000000
_cell_volume 3346.072354
_symmetry_space_group_name_H-M "P N N M"
_symmetry_group_IT_number 58
_symmetry_cell_setting 'orthorhombic'
loop_
_space_group_symop_operation_xyz
x,y,z
-x,-y,z
1/2+x,1/2-y,1/2-z
1/2-x,1/2+y,1/2-z
-x,-y,-z
x,y,-z
1/2-x,1/2+y,1/2+z
1/2+x,1/2-y,1/2+z
loop_
_atom_site_type_symbol
_atom_site_label
_atom_site_fract_x
_atom_site_fract_y
_atom_site_fract_z
Si Si1 0.591850 0.250369 0.682479
Si Si2 0.357621 0.414223 0.325344
Si Si3 0.730571 0.488780 0.830024
Si Si4 0.846515 0.442537 0.177532
Si Si5 0.551935 0.447457 0.682857
Si Si6 0.051411 0.445124 0.182943
Si Si7 0.183794 0.746200 0.323195
Si Si8 0.706029 0.273149 0.174363
O O1 0.595245 0.250848 0.500000
O O2 0.563202 0.344017 0.730946
O O3 0.560253 0.159656 0.728721
O O4 0.651161 0.250182 0.746007
O O5 0.366128 0.394069 0.500000
O O6 0.301837 0.460129 0.295071
O O7 0.399696 0.488374 0.274721
O O8 0.356305 0.322555 0.231908
O O9 0.792546 0.498072 0.808733
O O10 0.715291 0.382433 0.821996
O O11 0.717111 0.520609 0.000000
O O12 0.896763 0.498941 0.226225
O O13 0.837152 0.350087 0.265678
O O14 0.851956 0.420340 0.000000
O O15 0.500000 0.500000 0.734792
O O16 0.549830 0.444368 0.500000
O O17 0.000000 0.500000 0.234847
O O18 0.049444 0.443961 0.000000
O O19 0.189440 0.745583 0.500000
O O20 0.241277 0.764088 0.251778
O O21 0.704300 0.245506 0.000000
#
# Coordination Sequence:
#
# PCOD9442293 Si02
#       8
#     8   8   8   8   8   8   8   8
#     4  10  19  34  58  87 115 151 198 242 291 348
#     4  11  21  34  55  86 120 154 194 238 288 344
#     4   9  18  32  52  79 116 152 185 235 290 348
#     4   9  19  37  57  83 116 153 195 242 295 344
#     4   9  19  35  56  86 120 154 195 243 288 338
#     4   9  19  35  59  89 117 151 198 249 294 340
#     4  11  23  37  56  83 118 159 198 239 294 353
#     4  10  20  36  57  84 117 152 193 240 294 347
#
# _framework density 19.126902999999999
#
# number of rings (size 3 to 8) (size 9 to 14) (size 15 to 20)
#    0.000    2.250    1.250    2.625    1.750    3.000 
#    0.000    4.375    0.000    6.375    0.000    0.000 
#    0.000    0.000    0.000    0.000    0.000    0.000 
#
# Total GULP energy -357069.499788 kJ/mol
# GULP energy per Si atom -5579.210934 kJ/mol
# Density = 1.908337 g / cm^3
# Si number density = 19.126903 Si / 1000 Ang^3
#
#
#
# Elastic Constant Matrix: (Units=GPa)
#
#
# Indices 1 2 3 4 5 6 
#
# 1 119.9790 79.9362 27.7094 0.0000 0.0000 0.0000
# 2 79.9362 126.0638 34.7067 0.0000 0.0000 0.0000
# 3 27.7094 34.7067 44.5102 0.0000 0.0000 0.0000
# 4 0.0000 0.0000 0.0000 36.5866 0.0000 0.0000
# 5 0.0000 0.0000 0.0000 0.0000 15.8385 0.0000
# 6 0.0000 0.0000 0.0000 0.0000 0.0000 22.7955
#
#
#
# Elastic Compliance Matrix: (Units=1/GPa)
#
#
# Indices 1 2 3 4 5 6 
#
# 1 0.014628 -0.008619 -0.002386 0.000000 0.000000 0.000000
# 2 -0.008619 0.015179 -0.006470 0.000000 0.000000 0.000000
# 3 -0.002386 -0.006470 0.028997 0.000000 0.000000 0.000000
# 4 0.000000 0.000000 0.000000 0.027332 0.000000 0.000000
# 5 0.000000 0.000000 0.000000 0.000000 0.063137 0.000000
# 6 0.000000 0.000000 0.000000 0.000000 0.000000 0.043868
#
#
# Mechanical properties :
#
#
# Convention : Reuss Voigt Hill
#
# Bulk Modulus (GPa) = 41.92131 63.91751 52.91941
# Shear Modulus (GPa) = 21.18252 24.92417 23.05335
#
# Velocity S-wave (km/s) = 3.33148 3.61376 3.47549
# Velocity P-wave (km/s) = 6.06328 7.13460 6.62064
#
# Compressibility (1/GPa) = 0.02385421
#
# Stress axis : x y z
#
# Youngs Moduli (GPa) = 68.36183 65.88142 34.48583
#
# Poissons Ratio (x) = 0.56780 0.08229
# Poissons Ratio (y) = 0.58918 0.22313
# Poissons Ratio (z) = 0.16313 0.42626
#
# Static dielectric constant tensor:
#      x y z
#    x 1.656240 0.000000 0.000000 
#    y 0.000000 1.691060 0.000000 
#    z 0.000000 0.000000 1.654090 
# 
# From -- ./inp_files/10041.got.cif
#   From: 2010.05.17/outbox.cif.g08.bks.cpg/sg58_6_cif.got.tgz:10041.got - 2010.06.03 14:20:14.
