data_PCOD9442551
_publ_section_title
;
Structure prediction by ZEFSAII (Michael W. Deem and Ramdas Pophale) SiO2 
 PCOD9442551
Probable space group: P N N M
;
_chemical_formula_sum "Si O2"
_cell_formula_units_Z 64
_cell_length_a 15.010916
_cell_length_b 25.418227
_cell_length_c 7.914501
_cell_angle_alpha 90.000000
_cell_angle_beta 90.000000
_cell_angle_gamma 90.000000
_cell_volume 3019.784745
_symmetry_space_group_name_H-M "P N N M"
_symmetry_group_IT_number 58
_symmetry_cell_setting 'orthorhombic'
loop_
_space_group_symop_operation_xyz
x,y,z
-x,-y,z
1/2+x,1/2-y,1/2-z
1/2-x,1/2+y,1/2-z
-x,-y,-z
x,y,-z
1/2-x,1/2+y,1/2+z
1/2+x,1/2-y,1/2+z
loop_
_atom_site_type_symbol
_atom_site_label
_atom_site_fract_x
_atom_site_fract_y
_atom_site_fract_z
Si Si1 0.492120 0.830295 0.796391
Si Si2 0.735814 0.056152 0.689981
Si Si3 0.947883 0.871943 0.793809
Si Si4 0.862811 0.763701 0.203753
Si Si5 0.100160 0.016445 0.795752
Si Si6 0.158362 0.739032 0.294943
Si Si7 0.956832 0.552600 0.694650
Si Si8 0.643421 0.641823 0.301888
O O1 0.412167 0.789901 0.754738
O O2 0.584560 0.803115 0.739009
O O3 0.478912 0.889696 0.730566
O O4 0.494638 0.833119 0.000000
O O5 0.705878 0.047320 0.500000
O O6 0.649811 0.047239 0.803088
O O7 0.773868 0.115119 0.710777
O O8 0.819805 0.019080 0.730007
O O9 0.914901 0.815400 0.733441
O O10 0.889693 0.922316 0.746472
O O11 0.049616 0.881479 0.740749
O O12 0.949443 0.870150 0.000000
O O13 0.760408 0.769560 0.258147
O O14 0.863686 0.764906 0.000000
O O15 0.101794 0.012422 0.000000
O O16 0.000000 0.000000 0.742913
O O17 0.156020 0.740727 0.500000
O O18 0.134923 0.796397 0.225693
O O19 0.988800 0.554527 0.500000
O O20 0.000000 0.500000 0.772216
O O21 0.653725 0.629876 0.500000
#
# Coordination Sequence:
#
# PCOD9442551 Si02
#       8
#     8   8   8   8   8   8   8   8
#     4  10  21  38  60  89 120 151 193 248 300 347
#     4  12  25  39  59  90 125 160 197 247 308 361
#     4   9  18  33  56  83 111 149 195 245 290 341
#     4  10  20  36  57  85 119 157 196 234 290 357
#     4  10  19  36  60  86 116 154 200 245 290 350
#     4  10  21  35  55  86 121 153 190 245 308 357
#     4  10  23  44  68  90 114 155 210 257 296 349
#     4  11  20  36  60  85 114 154 205 245 285 351
#
# _framework density 21.193563999999999
#
# number of rings (size 3 to 8) (size 9 to 14) (size 15 to 20)
#    0.000    1.750    2.500    2.250    0.000    4.500 
#    0.000    4.375    0.000    1.500    0.000    0.000 
#    0.000    0.000    0.000    0.000    0.000    0.000 
#
# Total GULP energy -357384.728006 kJ/mol
# GULP energy per Si atom -5584.136375 kJ/mol
# Density = 2.114533 g / cm^3
# Si number density = 21.193564 Si / 1000 Ang^3
#
#
#
# Elastic Constant Matrix: (Units=GPa)
#
#
# Indices 1 2 3 4 5 6 
#
# 1 121.8972 62.6687 0.6405 0.0000 0.0000 0.0000
# 2 62.6687 158.0655 3.1575 0.0000 0.0000 0.0000
# 3 0.6405 3.1575 25.0539 0.0000 0.0000 0.0000
# 4 0.0000 0.0000 0.0000 16.4464 0.0000 0.0000
# 5 0.0000 0.0000 0.0000 0.0000 13.7977 0.0000
# 6 0.0000 0.0000 0.0000 0.0000 0.0000 33.5162
#
#
#
# Elastic Compliance Matrix: (Units=1/GPa)
#
#
# Indices 1 2 3 4 5 6 
#
# 1 0.010305 -0.004091 0.000252 0.000000 0.000000 0.000000
# 2 -0.004091 0.007966 -0.000899 0.000000 0.000000 0.000000
# 3 0.000252 -0.000899 0.040021 0.000000 0.000000 0.000000
# 4 0.000000 0.000000 0.000000 0.060804 0.000000 0.000000
# 5 0.000000 0.000000 0.000000 0.000000 0.072476 0.000000
# 6 0.000000 0.000000 0.000000 0.000000 0.000000 0.029836
#
#
# Mechanical properties :
#
#
# Convention : Reuss Voigt Hill
#
# Bulk Modulus (GPa) = 20.48498 48.66112 34.57305
# Shear Modulus (GPa) = 20.23004 28.65538 24.44271
#
# Velocity S-wave (km/s) = 3.09291 3.68105 3.39972
# Velocity P-wave (km/s) = 4.73724 6.40914 5.63553
#
# Compressibility (1/GPa) = 0.04881626
#
# Stress axis : x y z
#
# Youngs Moduli (GPa) = 97.03587 125.52761 24.98703
#
# Poissons Ratio (x) = 0.51352 -0.00630
# Poissons Ratio (y) = 0.39696 0.02247
# Poissons Ratio (z) = -0.02446 0.11290
#
# Static dielectric constant tensor:
#      x y z
#    x 1.752060 0.000000 0.000000 
#    y 0.000000 1.788230 0.000000 
#    z 0.000000 0.000000 1.776280 
# 
# From -- ./inp_files/6768.got.cif
#   From: 2010.05.17/outbox.cif.g08.bks.cpg/sg58_4_cif.got.tgz:6768.got - 2010.06.03 14:20:14.
