data_PCOD9442908
_publ_section_title
;
Structure prediction by ZEFSAII (Michael W. Deem and Ramdas Pophale) SiO2 
 PCOD9442908
Probable space group: P N N M
;
_chemical_formula_sum "Si O2"
_cell_formula_units_Z 64
_cell_length_a 14.949190
_cell_length_b 21.841602
_cell_length_c 7.615150
_cell_angle_alpha 90.000000
_cell_angle_beta 90.000000
_cell_angle_gamma 90.000000
_cell_volume 2486.455053
_symmetry_space_group_name_H-M "P N N M"
_symmetry_group_IT_number 58
_symmetry_cell_setting 'orthorhombic'
loop_
_space_group_symop_operation_xyz
x,y,z
-x,-y,z
1/2+x,1/2-y,1/2-z
1/2-x,1/2+y,1/2-z
-x,-y,-z
x,y,-z
1/2-x,1/2+y,1/2+z
1/2+x,1/2-y,1/2+z
loop_
_atom_site_type_symbol
_atom_site_label
_atom_site_fract_x
_atom_site_fract_y
_atom_site_fract_z
Si Si1 0.108982 0.685426 0.302818
Si Si2 0.722679 0.465744 0.803334
Si Si3 0.225966 0.799520 0.286967
Si Si4 0.574501 0.232011 0.303427
Si Si5 0.584791 0.365769 0.795455
Si Si6 0.190166 0.421496 0.787210
Si Si7 0.510521 0.930666 0.209308
Si Si8 0.926610 0.053310 0.198791
O O1 0.145728 0.675734 0.500000
O O2 0.165010 0.742582 0.221660
O O3 0.087627 0.617266 0.225284
O O4 0.009230 0.712458 0.309844
O O5 0.665721 0.409449 0.727152
O O6 0.797441 0.508618 0.715643
O O7 0.648086 0.519671 0.810946
O O8 0.749846 0.448322 0.000000
O O9 0.213315 0.800574 0.500000
O O10 0.326834 0.782245 0.240598
O O11 0.233384 0.871518 0.232982
O O12 0.562074 0.206637 0.500000
O O13 0.577087 0.304780 0.311066
O O14 0.485592 0.394360 0.785466
O O15 0.604366 0.353923 0.000000
O O16 0.089180 0.402750 0.737739
O O17 0.192050 0.424177 0.000000
O O18 0.500000 0.000000 0.282051
O O19 0.524860 0.934503 0.000000
O O20 0.898683 0.068098 0.000000
O O21 0.000000 0.000000 0.181159
#
# Coordination Sequence:
#
# PCOD9442908 Si02
#       8
#     8   8   8   8   8   8   8   8
#     4  10  21  40  64  90 121 165 210 250 309 380
#     4   9  19  33  52  78 111 153 199 243 290 359
#     4   9  20  38  61  86 118 158 201 250 310 375
#     4  11  22  38  60  89 120 153 197 254 310 364
#     4  10  20  34  51  76 112 154 196 240 294 356
#     4  10  20  38  61  86 118 158 204 252 310 369
#     4  10  22  40  63  92 125 160 205 258 313 374
#     4   9  17  30  48  74 109 147 189 239 292 346
#
# _framework density 25.739457999999999
#
# number of rings (size 3 to 8) (size 9 to 14) (size 15 to 20)
#    0.000    2.250    1.250    1.125    1.750    3.750 
#    0.000    3.125    0.000    0.000    0.000    0.000 
#    0.000    0.000    0.000    0.000    0.000    0.000 
#
# Total GULP energy -356691.217015 kJ/mol
# GULP energy per Si atom -5573.300266 kJ/mol
# Density = 2.568087 g / cm^3
# Si number density = 25.739458 Si / 1000 Ang^3
#
#
#
# Elastic Constant Matrix: (Units=GPa)
#
#
# Indices 1 2 3 4 5 6 
#
# 1 66.2032 15.8342 16.7121 0.0000 0.0000 0.0000
# 2 15.8342 151.0930 7.4733 0.0000 0.0000 0.0000
# 3 16.7121 7.4733 79.6332 0.0000 0.0000 0.0000
# 4 0.0000 0.0000 0.0000 -244.0163 0.0000 0.0000
# 5 0.0000 0.0000 0.0000 0.0000 13.1132 0.0000
# 6 0.0000 0.0000 0.0000 0.0000 0.0000 44.4905
#
#
#
# Elastic Compliance Matrix: (Units=1/GPa)
#
#
# Indices 1 2 3 4 5 6 
#
# 1 0.016302 -0.001546 -0.003276 0.000000 0.000000 0.000000
# 2 -0.001546 0.006796 -0.000313 0.000000 0.000000 0.000000
# 3 -0.003276 -0.000313 0.013275 0.000000 0.000000 0.000000
# 4 0.000000 0.000000 0.000000 -0.004098 0.000000 0.000000
# 5 0.000000 0.000000 0.000000 0.000000 0.076259 0.000000
# 6 0.000000 0.000000 0.000000 0.000000 0.000000 0.022477
#
#
# Mechanical properties :
#
#
# Convention : Reuss Voigt Hill
#
# Bulk Modulus (GPa) = 38.31268 41.88541 40.09905
# Shear Modulus (GPa) = 33.33742 -20.15520 6.59111
#
# Velocity S-wave (km/s) = 3.60278 -2.80133 1.60196
# Velocity P-wave (km/s) = 5.67660 2.41762 4.36283
#
# Compressibility (1/GPa) = 0.02610102
#
# Stress axis : x y z
#
# Youngs Moduli (GPa) = 61.34270 147.14562 75.33239
#
# Poissons Ratio (x) = 0.22754 0.24679
# Poissons Ratio (y) = 0.09486 0.02360
# Poissons Ratio (z) = 0.20096 0.04609
#
# Static dielectric constant tensor:
#      x y z
#    x 2.390740 0.000000 0.000000 
#    y 0.000000 2.173620 0.000000 
#    z 0.000000 0.000000 2.020030 
# 
# From -- ./inp_files/6764.got.cif
#   From: 2010.05.17/outbox.cif.g08.bks.cpg/sg58_4_cif.got.tgz:6764.got - 2010.06.03 14:20:14.
