data_PCOD9442028
_publ_section_title
;
Structure prediction by ZEFSAII (Michael W. Deem and Ramdas Pophale) SiO2 
 PCOD9442028
Probable space group: P N N M
;
_chemical_formula_sum "Si O2"
_cell_formula_units_Z 64
_cell_length_a 16.146261
_cell_length_b 10.353234
_cell_length_c 16.548680
_cell_angle_alpha 90.000000
_cell_angle_beta 90.000000
_cell_angle_gamma 90.000000
_cell_volume 2766.376945
_symmetry_space_group_name_H-M "P N N M"
_symmetry_group_IT_number 58
_symmetry_cell_setting 'orthorhombic'
loop_
_space_group_symop_operation_xyz
x,y,z
-x,-y,z
1/2+x,1/2-y,1/2-z
1/2-x,1/2+y,1/2-z
-x,-y,-z
x,y,-z
1/2-x,1/2+y,1/2+z
1/2+x,1/2-y,1/2+z
loop_
_atom_site_type_symbol
_atom_site_label
_atom_site_fract_x
_atom_site_fract_y
_atom_site_fract_z
Si Si1 0.262633 0.581937 0.157495
Si Si2 0.334624 0.660601 0.670994
Si Si3 0.000205 0.846571 0.411686
Si Si4 0.194574 0.362563 0.408287
Si Si5 0.600939 0.804940 0.292617
Si Si6 0.110958 0.924743 0.093296
Si Si7 0.068891 0.342560 0.720254
Si Si8 0.319183 0.299605 0.131092
O O1 0.300015 0.591124 0.248027
O O2 0.292899 0.708896 0.109237
O O3 0.163913 0.597013 0.165294
O O4 0.289934 0.446663 0.121274
O O5 0.400720 0.566832 0.629521
O O6 0.376209 0.790017 0.706356
O O7 0.257335 0.704218 0.615284
O O8 0.962588 0.823049 0.500000
O O9 0.093335 0.790852 0.413020
O O10 0.955573 0.778436 0.337946
O O11 0.000000 0.000000 0.398268
O O12 0.167460 0.388192 0.500000
O O13 0.288261 0.413037 0.399723
O O14 0.130284 0.418058 0.341413
O O15 0.575964 0.692641 0.354492
O O16 0.522228 0.874277 0.253631
O O17 0.654852 0.731994 0.223788
O O18 0.088040 0.915177 0.000000
#
# Coordination Sequence:
#
# PCOD9442028 Si02
#       8
#     8   8   8   8   8   8   8   8
#     4   9  17  32  54  75 106 144 184 234 268 322
#     4  10  20  33  53  77 109 148 191 223 270 329
#     4  10  20  32  51  83 114 140 172 220 290 338
#     4   9  18  33  56  85 110 142 184 222 273 331
#     4   9  19  34  52  79 106 141 191 226 278 325
#     4  10  20  36  57  79 108 146 192 231 264 322
#     4  10  20  32  53  79 113 145 172 233 275 325
#     4  10  19  33  55  78 107 150 185 230 271 328
#
# _framework density 23.134951999999998
#
# number of rings (size 3 to 8) (size 9 to 14) (size 15 to 20)
#    0.000    2.375    1.250    2.625    1.750    2.000 
#    0.000    1.875    2.750    0.000    0.000    6.125 
#    0.000    6.000    0.000    0.000    0.000    0.000 
#
# Total GULP energy -357475.140464 kJ/mol
# GULP energy per Si atom -5585.549070 kJ/mol
# Density = 2.308230 g / cm^3
# Si number density = 23.134952 Si / 1000 Ang^3
#
#
#
# Elastic Constant Matrix: (Units=GPa)
#
#
# Indices 1 2 3 4 5 6 
#
# 1 108.5813 14.4370 11.8462 0.0000 0.0000 0.0000
# 2 14.4370 56.0298 8.4907 0.0000 0.0000 0.0000
# 3 11.8462 8.4907 81.5187 0.0000 0.0000 0.0000
# 4 0.0000 0.0000 0.0000 2.3023 0.0000 0.0000
# 5 0.0000 0.0000 0.0000 0.0000 14.7043 0.0000
# 6 0.0000 0.0000 0.0000 0.0000 0.0000 30.9138
#
#
#
# Elastic Compliance Matrix: (Units=1/GPa)
#
#
# Indices 1 2 3 4 5 6 
#
# 1 0.009643 -0.002309 -0.001161 0.000000 0.000000 0.000000
# 2 -0.002309 0.018687 -0.001611 0.000000 0.000000 0.000000
# 3 -0.001161 -0.001611 0.012604 0.000000 0.000000 0.000000
# 4 0.000000 0.000000 0.000000 0.434353 0.000000 0.000000
# 5 0.000000 0.000000 0.000000 0.000000 0.068007 0.000000
# 6 0.000000 0.000000 0.000000 0.000000 0.000000 0.032348
#
#
# Mechanical properties :
#
#
# Convention : Reuss Voigt Hill
#
# Bulk Modulus (GPa) = 32.49654 35.07528 33.78591
# Shear Modulus (GPa) = 8.38841 23.67448 16.03144
#
# Velocity S-wave (km/s) = 1.90623 3.20241 2.63526
# Velocity P-wave (km/s) = 4.34994 5.37289 4.88825
#
# Compressibility (1/GPa) = 0.03077251
#
# Stress axis : x y z
#
# Youngs Moduli (GPa) = 103.69865 53.51415 79.34242
#
# Poissons Ratio (x) = 0.12356 0.09211
# Poissons Ratio (y) = 0.23942 0.12781
# Poissons Ratio (z) = 0.12038 0.08620
#
# Static dielectric constant tensor:
#      x y z
#    x 1.959300 0.000000 0.000000 
#    y 0.000000 1.905550 0.000000 
#    z 0.000000 0.000000 1.844630 
# 
# From -- ./inp_files/22953.got.cif
#   From: 2010.05.17/outbox.cif.g08.bks.cpg/sg58_12_cif.got.tgz:22953.got - 2010.06.03 14:20:14.
