data_PCOD9442848
_publ_section_title
;
Structure prediction by ZEFSAII (Michael W. Deem and Ramdas Pophale) SiO2 
 PCOD9442848
Probable space group: P N N M
;
_chemical_formula_sum "Si O2"
_cell_formula_units_Z 48
_cell_length_a 11.603100
_cell_length_b 9.226580
_cell_length_c 22.964560
_cell_angle_alpha 90.000000
_cell_angle_beta 90.000000
_cell_angle_gamma 90.000000
_cell_volume 2458.515302
_symmetry_space_group_name_H-M "P N N M"
_symmetry_group_IT_number 58
_symmetry_cell_setting 'orthorhombic'
loop_
_space_group_symop_operation_xyz
x,y,z
-x,-y,z
1/2+x,1/2-y,1/2-z
1/2-x,1/2+y,1/2-z
-x,-y,-z
x,y,-z
1/2-x,1/2+y,1/2+z
1/2+x,1/2-y,1/2+z
loop_
_atom_site_type_symbol
_atom_site_label
_atom_site_fract_x
_atom_site_fract_y
_atom_site_fract_z
Si Si1 0.429975 0.137953 0.838006
Si Si2 0.479142 0.829521 0.380019
Si Si3 0.091847 0.220116 0.245355
Si Si4 0.260879 0.458084 0.275777
Si Si5 0.251311 0.696579 0.434254
Si Si6 0.877594 0.083107 0.102798
O O1 0.516070 0.237468 0.801058
O O2 0.352880 0.206960 0.888453
O O3 0.500000 0.000000 0.862912
O O4 0.343839 0.065761 0.791135
O O5 0.472075 0.757888 0.315168
O O6 0.358418 0.791536 0.410912
O O7 0.580620 0.743404 0.414257
O O8 0.500000 0.000000 0.375598
O O9 0.203484 0.326259 0.242352
O O10 0.138259 0.056913 0.250008
O O11 0.309271 0.403155 0.337053
O O12 0.220290 0.734701 0.500000
O O13 0.299378 0.529756 0.432867
O O14 0.000000 0.000000 0.109499
#
# Coordination Sequence:
#
# PCOD9442848 Si02
#       6
#     8   8   8   8   8   8
#     4   9  19  37  56  87 116 148 194 242 289 347
#     4  11  22  35  56  88 121 157 190 244 307 356
#     4  11  21  34  56  85 124 154 188 235 297 360
#     4  10  20  33  53  82 119 153 187 233 287 353
#     4  10  21  40  61  84 115 155 203 248 290 345
#     4   9  18  35  54  80 112 145 198 246 285 343
#
# _framework density 19.523978
#
# number of rings (size 3 to 8) (size 9 to 14) (size 15 to 20)
#    0.000    2.000    5.000    1.500    4.667    3.667 
#    0.000    0.000    0.000    0.000    0.000    1.167 
#    0.000    0.000    0.000    0.000    0.000    0.000 
#
# Total GULP energy -267629.818753 kJ/mol
# GULP energy per Si atom -5575.621224 kJ/mol
# Density = 1.947954 g / cm^3
# Si number density = 19.523978 Si / 1000 Ang^3
#
#
#
# Elastic Constant Matrix: (Units=GPa)
#
#
# Indices 1 2 3 4 5 6 
#
# 1 71.6433 35.5124 15.5686 0.0000 0.0000 0.0000
# 2 35.5124 75.3710 22.5481 0.0000 0.0000 0.0000
# 3 15.5686 22.5481 67.8683 0.0000 0.0000 0.0000
# 4 0.0000 0.0000 0.0000 9.2782 0.0000 0.0000
# 5 0.0000 0.0000 0.0000 0.0000 -27.4462 0.0000
# 6 0.0000 0.0000 0.0000 0.0000 0.0000 33.3699
#
#
#
# Elastic Compliance Matrix: (Units=1/GPa)
#
#
# Indices 1 2 3 4 5 6 
#
# 1 0.018345 -0.008200 -0.001484 0.000000 0.000000 0.000000
# 2 -0.008200 0.018397 -0.004231 0.000000 0.000000 0.000000
# 3 -0.001484 -0.004231 0.016481 0.000000 0.000000 0.000000
# 4 0.000000 0.000000 0.000000 0.107779 0.000000 0.000000
# 5 0.000000 0.000000 0.000000 0.000000 -0.036435 0.000000
# 6 0.000000 0.000000 0.000000 0.000000 0.000000 0.029967
#
#
# Mechanical properties :
#
#
# Convention : Reuss Voigt Hill
#
# Bulk Modulus (GPa) = 39.38111 40.23787 39.80949
# Shear Modulus (GPa) = 26.20169 12.45727 19.32948
#
# Velocity S-wave (km/s) = 3.66734 2.52871 3.14990
# Velocity P-wave (km/s) = 6.17632 5.40185 5.80202
#
# Compressibility (1/GPa) = 0.02539288
#
# Stress axis : x y z
#
# Youngs Moduli (GPa) = 54.51097 54.35711 60.67748
#
# Poissons Ratio (x) = 0.44570 0.09005
# Poissons Ratio (y) = 0.44697 0.25673
# Poissons Ratio (z) = 0.08090 0.22999
#
# Static dielectric constant tensor:
#      x y z
#    x 1.723950 0.000000 0.000000 
#    y 0.000000 1.716730 0.000000 
#    z 0.000000 0.000000 1.666660 
# 
# From -- ./inp_files/31460.got.cif
#   From: 2010.05.17/outbox.cif.g08.bks.cpg/sg58_16_cif.got.tgz:31460.got - 2010.06.03 14:20:14.
