data_PCOD9442147
_publ_section_title
;
Structure prediction by ZEFSAII (Michael W. Deem and Ramdas Pophale) SiO2 
 PCOD9442147
Probable space group: P N N M
;
_chemical_formula_sum "Si O2"
_cell_formula_units_Z 64
_cell_length_a 18.952436
_cell_length_b 21.909826
_cell_length_c 9.141530
_cell_angle_alpha 90.000000
_cell_angle_beta 90.000000
_cell_angle_gamma 90.000000
_cell_volume 3795.970740
_symmetry_space_group_name_H-M "P N N M"
_symmetry_group_IT_number 58
_symmetry_cell_setting 'orthorhombic'
loop_
_space_group_symop_operation_xyz
x,y,z
-x,-y,z
1/2+x,1/2-y,1/2-z
1/2-x,1/2+y,1/2-z
-x,-y,-z
x,y,-z
1/2-x,1/2+y,1/2+z
1/2+x,1/2-y,1/2+z
loop_
_atom_site_type_symbol
_atom_site_label
_atom_site_fract_x
_atom_site_fract_y
_atom_site_fract_z
Si Si1 0.034848 0.320146 0.332129
Si Si2 0.313537 0.586751 0.173801
Si Si3 0.422941 0.690895 0.823426
Si Si4 0.377430 0.238936 0.832624
Si Si5 0.829512 0.390655 0.675153
Si Si6 0.078780 0.976192 0.673280
Si Si7 0.068446 0.851005 0.826455
Si Si8 0.473985 0.068414 0.325820
O O1 0.051635 0.336580 0.500000
O O2 0.082704 0.262674 0.284414
O O3 0.956255 0.290371 0.331916
O O4 0.027970 0.380268 0.234797
O O5 0.356464 0.648516 0.211198
O O6 0.242058 0.581334 0.263851
O O7 0.366160 0.530335 0.200344
O O8 0.297945 0.588327 0.000000
O O9 0.492054 0.663269 0.745911
O O10 0.434393 0.688064 0.000000
O O11 0.329184 0.181958 0.788813
O O12 0.380585 0.296887 0.728612
O O13 0.362414 0.257349 0.000000
O O14 0.835643 0.395702 0.500000
O O15 0.898854 0.419201 0.749105
O O16 0.080280 0.961171 0.500000
O O17 0.093060 0.915983 0.765888
O O18 0.000000 0.000000 0.706595
O O19 0.062354 0.850776 0.000000
O O20 0.466563 0.075672 0.500000
O O21 0.500000 0.000000 0.294483
#
# Coordination Sequence:
#
# PCOD9442147 Si02
#       8
#     8   8   8   8   8   8   8   8
#     4   8  15  28  50  77 102 127 162 209 257 303
#     4  10  20  34  55  76 101 142 181 216 261 320
#     4   9  17  32  50  72 102 137 173 206 253 316
#     4   8  16  32  51  70  96 131 167 202 252 314
#     4  10  21  36  55  79 106 135 172 220 270 320
#     4  10  19  34  53  73 103 147 188 214 254 318
#     4  11  20  28  47  78 106 131 169 224 263 288
#     4  10  20  34  55  81 107 136 176 220 262 318
#
# _framework density 16.859983
#
# number of rings (size 3 to 8) (size 9 to 14) (size 15 to 20)
#    0.000    2.500    1.250    3.375    0.000    7.250 
#    0.000    0.000    2.750    0.000    0.000    0.000 
#    0.000    0.000    0.000    0.000    0.000    0.000 
#
# Total GULP energy -356745.722891 kJ/mol
# GULP energy per Si atom -5574.151920 kJ/mol
# Density = 1.682161 g / cm^3
# Si number density = 16.859983 Si / 1000 Ang^3
#
#
#
# Elastic Constant Matrix: (Units=GPa)
#
#
# Indices 1 2 3 4 5 6 
#
# 1 57.1346 41.5575 38.4232 0.0000 0.0000 0.0000
# 2 41.5575 127.2467 71.7903 0.0000 0.0000 0.0000
# 3 38.4232 71.7903 67.7235 0.0000 0.0000 0.0000
# 4 0.0000 0.0000 0.0000 8.6403 0.0000 0.0000
# 5 0.0000 0.0000 0.0000 0.0000 4.3268 0.0000
# 6 0.0000 0.0000 0.0000 0.0000 0.0000 19.7473
#
#
#
# Elastic Compliance Matrix: (Units=1/GPa)
#
#
# Indices 1 2 3 4 5 6 
#
# 1 0.028311 -0.000458 -0.015577 0.000000 0.000000 0.000000
# 2 -0.000458 0.019560 -0.020474 0.000000 0.000000 0.000000
# 3 -0.015577 -0.020474 0.045308 0.000000 0.000000 0.000000
# 4 0.000000 0.000000 0.000000 0.115737 0.000000 0.000000
# 5 0.000000 0.000000 0.000000 0.000000 0.231120 0.000000
# 6 0.000000 0.000000 0.000000 0.000000 0.000000 0.050640
#
#
# Mechanical properties :
#
#
# Convention : Reuss Voigt Hill
#
# Bulk Modulus (GPa) = 49.60414 61.73853 55.67133
# Shear Modulus (GPa) = 8.76557 13.23178 10.99868
#
# Velocity S-wave (km/s) = 2.28261 2.80447 2.55689
# Velocity P-wave (km/s) = 6.03591 6.86911 6.46594
#
# Compressibility (1/GPa) = 0.02015961
#
# Stress axis : x y z
#
# Youngs Moduli (GPa) = 35.32170 51.12601 22.07134
#
# Poissons Ratio (x) = 0.02340 0.34381
# Poissons Ratio (y) = 0.01617 0.45190
# Poissons Ratio (z) = 0.55021 1.04677
#
# Static dielectric constant tensor:
#      x y z
#    x 1.555940 0.000000 0.000000 
#    y 0.000000 1.591520 0.000000 
#    z 0.000000 0.000000 1.559120 
# 
# From -- ./inp_files/8310.got.cif
#   From: 2010.05.17/outbox.cif.g08.bks.cpg/sg58_5_cif.got.tgz:8310.got - 2010.06.03 14:20:14.
