data_PCOD9442300
_publ_section_title
;
Structure prediction by ZEFSAII (Michael W. Deem and Ramdas Pophale) SiO2 
 PCOD9442300
Probable space group: P N N M
;
_chemical_formula_sum "Si O2"
_cell_formula_units_Z 64
_cell_length_a 14.230805
_cell_length_b 25.270899
_cell_length_c 8.384266
_cell_angle_alpha 90.000000
_cell_angle_beta 90.000000
_cell_angle_gamma 90.000000
_cell_volume 3015.193638
_symmetry_space_group_name_H-M "P N N M"
_symmetry_group_IT_number 58
_symmetry_cell_setting 'orthorhombic'
loop_
_space_group_symop_operation_xyz
x,y,z
-x,-y,z
1/2+x,1/2-y,1/2-z
1/2-x,1/2+y,1/2-z
-x,-y,-z
x,y,-z
1/2-x,1/2+y,1/2+z
1/2+x,1/2-y,1/2+z
loop_
_atom_site_type_symbol
_atom_site_label
_atom_site_fract_x
_atom_site_fract_y
_atom_site_fract_z
Si Si1 0.674019 0.251808 0.183049
Si Si2 0.955422 0.944445 0.694638
Si Si3 0.759555 0.434461 0.807009
Si Si4 0.680944 0.133474 0.689680
Si Si5 0.976483 0.242604 0.817301
Si Si6 0.162688 0.676229 0.685823
Si Si7 0.107203 0.858315 0.689545
Si Si8 0.401888 0.974534 0.305156
O O1 0.671024 0.190027 0.228147
O O2 0.567385 0.270284 0.211998
O O3 0.747633 0.285409 0.285456
O O4 0.701423 0.259350 0.000000
O O5 0.954516 0.944803 0.500000
O O6 0.848500 0.936696 0.748149
O O7 0.024828 0.897364 0.742225
O O8 0.000000 0.000000 0.746284
O O9 0.809970 0.381432 0.748293
O O10 0.817862 0.486213 0.757538
O O11 0.758823 0.433252 0.000000
O O12 0.664948 0.141273 0.500000
O O13 0.789973 0.116862 0.710265
O O14 0.616265 0.085531 0.748213
O O15 0.925690 0.297265 0.774094
O O16 0.901916 0.196325 0.783358
O O17 0.006189 0.243094 0.000000
O O18 0.140895 0.674563 0.500000
O O19 0.097436 0.847203 0.500000
O O20 0.402071 0.972854 0.500000
O O21 0.500000 0.000000 0.253610
#
# Coordination Sequence:
#
# PCOD9442300 Si02
#       8
#     8   8   8   8   8   8   8   8
#     4  12  25  42  64  93 127 166 212 261 319 382
#     4   9  17  31  56  89 121 157 202 251 302 362
#     4  10  20  36  60  89 123 164 213 262 314 374
#     4  10  20  36  60  88 122 164 211 259 310 369
#     4  12  25  41  63  90 123 164 209 258 320 383
#     4  12  25  43  64  92 129 167 211 262 319 378
#     4  10  19  34  58  88 123 159 203 256 309 367
#     4   9  19  35  57  88 122 163 214 264 309 369
#
# _framework density 21.225833000000002
#
# number of rings (size 3 to 8) (size 9 to 14) (size 15 to 20)
#    0.000    1.500    1.250    4.875    1.750    4.000 
#    0.000    0.625    0.000    3.750    0.000    0.000 
#    0.000    0.000    0.000    0.000    0.000    0.000 
#
# Total GULP energy -357893.081673 kJ/mol
# GULP energy per Si atom -5592.079401 kJ/mol
# Density = 2.117752 g / cm^3
# Si number density = 21.225833 Si / 1000 Ang^3
#
#
#
# Elastic Constant Matrix: (Units=GPa)
#
#
# Indices 1 2 3 4 5 6 
#
# 1 31.6975 -22.3748 -2.3376 0.0000 0.0000 0.0000
# 2 -22.3748 70.2975 3.9630 0.0000 0.0000 0.0000
# 3 -2.3376 3.9630 30.1568 0.0000 0.0000 0.0000
# 4 0.0000 0.0000 0.0000 10.5490 0.0000 0.0000
# 5 0.0000 0.0000 0.0000 0.0000 21.3312 0.0000
# 6 0.0000 0.0000 0.0000 0.0000 0.0000 39.1157
#
#
#
# Elastic Compliance Matrix: (Units=1/GPa)
#
#
# Indices 1 2 3 4 5 6 
#
# 1 0.040755 0.012889 0.001465 0.000000 0.000000 0.000000
# 2 0.012889 0.018408 -0.001420 0.000000 0.000000 0.000000
# 3 0.001465 -0.001420 0.033460 0.000000 0.000000 0.000000
# 4 0.000000 0.000000 0.000000 0.094796 0.000000 0.000000
# 5 0.000000 0.000000 0.000000 0.000000 0.046880 0.000000
# 6 0.000000 0.000000 0.000000 0.000000 0.000000 0.025565
#
#
# Mechanical properties :
#
#
# Convention : Reuss Voigt Hill
#
# Bulk Modulus (GPa) = 8.43944 10.07255 9.25599
# Shear Modulus (GPa) = 18.28210 24.39259 21.33734
#
# Velocity S-wave (km/s) = 2.93800 3.39365 3.17401
# Velocity P-wave (km/s) = 3.93621 4.48459 4.21932
#
# Compressibility (1/GPa) = 0.11849134
#
# Stress axis : x y z
#
# Youngs Moduli (GPa) = 24.53713 54.32499 29.88623
#
# Poissons Ratio (x) = -0.70020 -0.04379
# Poissons Ratio (y) = -0.31626 0.04244
# Poissons Ratio (z) = -0.03595 0.07714
#
# Static dielectric constant tensor:
#      x y z
#    x 1.776040 0.000000 0.000000 
#    y 0.000000 1.745710 0.000000 
#    z 0.000000 0.000000 1.737230 
# 
# From -- ./inp_files/6808.got.cif
#   From: 2010.05.17/outbox.cif.g08.bks.cpg/sg58_4_cif.got.tgz:6808.got - 2010.06.03 14:20:14.
