data_PCOD9442239
_publ_section_title
;
Structure prediction by ZEFSAII (Michael W. Deem and Ramdas Pophale) SiO2 
 PCOD9442239
Probable space group: P N N M
;
_chemical_formula_sum "Si O2"
_cell_formula_units_Z 64
_cell_length_a 24.643616
_cell_length_b 13.769360
_cell_length_c 9.732643
_cell_angle_alpha 90.000000
_cell_angle_beta 90.000000
_cell_angle_gamma 90.000000
_cell_volume 3302.546803
_symmetry_space_group_name_H-M "P N N M"
_symmetry_group_IT_number 58
_symmetry_cell_setting 'orthorhombic'
loop_
_space_group_symop_operation_xyz
x,y,z
-x,-y,z
1/2+x,1/2-y,1/2-z
1/2-x,1/2+y,1/2-z
-x,-y,-z
x,y,-z
1/2-x,1/2+y,1/2+z
1/2+x,1/2-y,1/2+z
loop_
_atom_site_type_symbol
_atom_site_label
_atom_site_fract_x
_atom_site_fract_y
_atom_site_fract_z
Si Si1 0.161386 0.082295 0.663343
Si Si2 0.242050 0.974029 0.842313
Si Si3 0.852204 0.226097 0.655330
Si Si4 0.853477 0.450487 0.651306
Si Si5 0.966388 0.899401 0.662016
Si Si6 0.446317 0.047809 0.658163
Si Si7 0.245256 0.255053 0.340908
Si Si8 0.451349 0.282537 0.340013
O O1 0.165319 0.066609 0.500000
O O2 0.097552 0.090137 0.696452
O O3 0.196935 0.180266 0.694173
O O4 0.191903 0.995823 0.743648
O O5 0.270062 0.868650 0.838444
O O6 0.291207 0.044737 0.803611
O O7 0.225119 0.991867 0.000000
O O8 0.847933 0.184500 0.500000
O O9 0.869272 0.338282 0.637872
O O10 0.796042 0.238262 0.737446
O O11 0.898744 0.182119 0.752754
O O12 0.857112 0.495752 0.500000
O O13 0.894506 0.490853 0.761099
O O14 0.970057 0.871096 0.500000
O O15 0.996425 0.823558 0.761080
O O16 0.000000 0.000000 0.676294
O O17 0.441467 0.018187 0.500000
O O18 0.451139 0.164838 0.660128
O O19 0.500000 0.000000 0.718718
O O20 0.262601 0.232856 0.500000
O O21 0.448692 0.313238 0.500000
#
# Coordination Sequence:
#
# PCOD9442239 Si02
#       8
#     8   8   8   8   8   8   8   8
#     4  10  22  40  60  85 120 159 197 243 300 356
#     4  10  21  37  56  83 116 150 190 241 291 350
#     4  10  19  34  57  82 111 145 187 238 290 346
#     4   9  18  33  53  79 110 145 184 230 283 337
#     4  10  23  42  61  85 118 158 204 253 298 347
#     4   9  19  35  55  81 114 150 188 234 285 342
#     4  10  21  36  57  85 116 151 192 240 296 352
#     4  10  21  37  58  84 113 150 194 241 293 349
#
# _framework density 19.378983999999999
#
# number of rings (size 3 to 8) (size 9 to 14) (size 15 to 20)
#    0.000    2.250    1.250    0.750    1.750    4.000 
#    0.000    1.250    0.000    0.000    0.000    0.000 
#    0.000    0.000    0.000    0.000    0.000    0.000 
#
# Total GULP energy -356449.043971 kJ/mol
# GULP energy per Si atom -5569.516312 kJ/mol
# Density = 1.933488 g / cm^3
# Si number density = 19.378984 Si / 1000 Ang^3
#
#
#
# Elastic Constant Matrix: (Units=GPa)
#
#
# Indices 1 2 3 4 5 6 
#
# 1 139.2851 28.8914 75.6543 0.0000 0.0000 0.0000
# 2 28.8914 41.3137 19.6365 0.0000 0.0000 0.0000
# 3 75.6543 19.6365 87.9744 0.0000 0.0000 0.0000
# 4 0.0000 0.0000 0.0000 8.5029 0.0000 0.0000
# 5 0.0000 0.0000 0.0000 0.0000 36.4593 0.0000
# 6 0.0000 0.0000 0.0000 0.0000 0.0000 28.4915
#
#
#
# Elastic Compliance Matrix: (Units=1/GPa)
#
#
# Indices 1 2 3 4 5 6 
#
# 1 0.014220 -0.004622 -0.011197 0.000000 0.000000 0.000000
# 2 -0.004622 0.028580 -0.002404 0.000000 0.000000 0.000000
# 3 -0.011197 -0.002404 0.021532 0.000000 0.000000 0.000000
# 4 0.000000 0.000000 0.000000 0.117606 0.000000 0.000000
# 5 0.000000 0.000000 0.000000 0.000000 0.027428 0.000000
# 6 0.000000 0.000000 0.000000 0.000000 0.000000 0.035098
#
#
# Mechanical properties :
#
#
# Convention : Reuss Voigt Hill
#
# Bulk Modulus (GPa) = 35.86066 57.43751 46.64909
# Shear Modulus (GPa) = 17.22905 24.31681 20.77293
#
# Velocity S-wave (km/s) = 2.98494 3.54616 3.27759
# Velocity P-wave (km/s) = 5.51588 6.81692 6.20062
#
# Compressibility (1/GPa) = 0.02788571
#
# Stress axis : x y z
#
# Youngs Moduli (GPa) = 70.32321 34.98910 46.44159
#
# Poissons Ratio (x) = 0.16174 0.52000
# Poissons Ratio (y) = 0.32507 0.11166
# Poissons Ratio (z) = 0.78740 0.08412
#
# Static dielectric constant tensor:
#      x y z
#    x 1.677260 0.000000 0.000000 
#    y 0.000000 1.730600 0.000000 
#    z 0.000000 0.000000 1.698340 
# 
# From -- ./inp_files/9993.got.cif
#   From: 2010.05.17/outbox.cif.g08.bks.cpg/sg58_5_cif.got.tgz:9993.got - 2010.06.03 14:20:14.
