data_PCOD9442381
_publ_section_title
;
Structure prediction by ZEFSAII (Michael W. Deem and Ramdas Pophale) SiO2 
 PCOD9442381
Probable space group: P N N M
;
_chemical_formula_sum "Si O2"
_cell_formula_units_Z 56
_cell_length_a 19.013904
_cell_length_b 12.441180
_cell_length_c 13.609502
_cell_angle_alpha 90.000000
_cell_angle_beta 90.000000
_cell_angle_gamma 90.000000
_cell_volume 3219.401219
_symmetry_space_group_name_H-M "P N N M"
_symmetry_group_IT_number 58
_symmetry_cell_setting 'orthorhombic'
loop_
_space_group_symop_operation_xyz
x,y,z
-x,-y,z
1/2+x,1/2-y,1/2-z
1/2-x,1/2+y,1/2-z
-x,-y,-z
x,y,-z
1/2-x,1/2+y,1/2+z
1/2+x,1/2-y,1/2+z
loop_
_atom_site_type_symbol
_atom_site_label
_atom_site_fract_x
_atom_site_fract_y
_atom_site_fract_z
Si Si1 0.826348 0.274644 0.615125
Si Si2 0.852813 0.613053 0.797718
Si Si3 0.000595 0.665821 0.111812
Si Si4 0.188201 0.151031 0.231066
Si Si5 0.708206 0.538245 0.115023
Si Si6 0.451592 0.594580 0.384497
Si Si7 0.568797 0.935861 0.803033
O O1 0.807556 0.276192 0.500000
O O2 0.762493 0.330162 0.675400
O O3 0.833439 0.148308 0.643155
O O4 0.897231 0.341492 0.633801
O O5 0.921230 0.627032 0.866022
O O6 0.835564 0.726621 0.746607
O O7 0.788090 0.574466 0.862957
O O8 0.872348 0.525050 0.717271
O O9 0.994438 0.794021 0.123796
O O10 0.047549 0.614040 0.196819
O O11 0.021577 0.639770 0.000000
O O12 0.124716 0.107031 0.163637
O O13 0.194356 0.066876 0.319723
O O14 0.697249 0.516644 0.000000
O O15 0.500000 0.500000 0.342692
O O16 0.440297 0.574338 0.500000
O O17 0.500000 0.000000 0.840544
#
# Coordination Sequence:
#
# PCOD9442381 Si02
#       7
#     8   8   8   8   8   8   8
#     4  10  21  37  55  78 107 146 188 223 266 327
#     4   9  18  34  53  79 108 142 174 220 275 323
#     4   9  18  31  51  80 111 139 177 222 276 329
#     4  10  19  35  58  76 109 144 180 219 272 324
#     4  10  20  34  57  81 108 140 181 226 270 321
#     4   9  18  32  52  81 110 142 178 218 272 328
#     4  10  20  34  54  80 109 143 183 225 272 317
#
# _framework density 17.394539999999999
#
# number of rings (size 3 to 8) (size 9 to 14) (size 15 to 20)
#    0.000    2.429    1.429    0.857    2.000    6.857 
#    0.000    0.714    0.000    5.571    0.000    0.000 
#    0.000    0.000    0.000    0.000    0.000    0.000 
#
# Total GULP energy -311944.257100 kJ/mol
# GULP energy per Si atom -5570.433162 kJ/mol
# Density = 1.735495 g / cm^3
# Si number density = 17.394540 Si / 1000 Ang^3
#
#
#
# Elastic Constant Matrix: (Units=GPa)
#
#
# Indices 1 2 3 4 5 6 
#
# 1 43.9740 35.7910 22.0209 0.0000 0.0000 0.0000
# 2 35.7910 95.0523 59.1991 0.0000 0.0000 0.0000
# 3 22.0209 59.1991 61.0577 0.0000 0.0000 0.0000
# 4 0.0000 0.0000 0.0000 28.0000 0.0000 0.0000
# 5 0.0000 0.0000 0.0000 0.0000 12.5494 0.0000
# 6 0.0000 0.0000 0.0000 0.0000 0.0000 31.0319
#
#
#
# Elastic Compliance Matrix: (Units=1/GPa)
#
#
# Indices 1 2 3 4 5 6 
#
# 1 0.032793 -0.012576 0.000366 0.000000 0.000000 0.000000
# 2 -0.012576 0.031379 -0.025889 0.000000 0.000000 0.000000
# 3 0.000366 -0.025889 0.041347 0.000000 0.000000 0.000000
# 4 0.000000 0.000000 0.000000 0.035714 0.000000 0.000000
# 5 0.000000 0.000000 0.000000 0.000000 0.079685 0.000000
# 6 0.000000 0.000000 0.000000 0.000000 0.000000 0.032225
#
#
# Mechanical properties :
#
#
# Convention : Reuss Voigt Hill
#
# Bulk Modulus (GPa) = 34.10405 48.23398 41.16902
# Shear Modulus (GPa) = 14.74427 19.85446 17.29936
#
# Velocity S-wave (km/s) = 2.91458 3.38215 3.15704
# Velocity P-wave (km/s) = 5.56553 6.56060 6.08345
#
# Compressibility (1/GPa) = 0.02932203
#
# Stress axis : x y z
#
# Youngs Moduli (GPa) = 30.49426 31.86800 24.18575
#
# Poissons Ratio (x) = 0.40077 -0.00885
# Poissons Ratio (y) = 0.38349 0.62614
# Poissons Ratio (z) = -0.01116 0.82502
#
# Static dielectric constant tensor:
#      x y z
#    x 1.594500 0.000000 0.000000 
#    y 0.000000 1.629790 0.000000 
#    z 0.000000 0.000000 1.572970 
# 
# From -- ./inp_files/14583.got.cif
#   From: 2010.05.17/outbox.cif.g08.bks.cpg/sg58_8_cif.got.tgz:14583.got - 2010.06.03 14:20:14.
