data_PCOD9442909
_publ_section_title
;
Structure prediction by ZEFSAII (Michael W. Deem and Ramdas Pophale) SiO2 
 PCOD9442909
Probable space group: P N N M
;
_chemical_formula_sum "Si O2"
_cell_formula_units_Z 64
_cell_length_a 19.354063
_cell_length_b 20.466195
_cell_length_c 7.654236
_cell_angle_alpha 90.000000
_cell_angle_beta 90.000000
_cell_angle_gamma 90.000000
_cell_volume 3031.873706
_symmetry_space_group_name_H-M "P N N M"
_symmetry_group_IT_number 58
_symmetry_cell_setting 'orthorhombic'
loop_
_space_group_symop_operation_xyz
x,y,z
-x,-y,z
1/2+x,1/2-y,1/2-z
1/2-x,1/2+y,1/2-z
-x,-y,-z
x,y,-z
1/2-x,1/2+y,1/2+z
1/2+x,1/2-y,1/2+z
loop_
_atom_site_type_symbol
_atom_site_label
_atom_site_fract_x
_atom_site_fract_y
_atom_site_fract_z
Si Si1 0.038635 0.301673 0.292278
Si Si2 0.211483 0.473857 0.210923
Si Si3 0.949962 0.180882 0.790489
Si Si4 0.455197 0.562544 0.288320
Si Si5 0.316826 0.739104 0.785539
Si Si6 0.699390 0.408185 0.794327
Si Si7 0.204231 0.844130 0.209605
Si Si8 0.443338 0.950122 0.293689
O O1 0.044108 0.306250 0.500000
O O2 0.109310 0.267466 0.226814
O O3 0.033777 0.375180 0.224807
O O4 0.975955 0.253521 0.248583
O O5 0.244559 0.541277 0.278329
O O6 0.262166 0.413981 0.252556
O O7 0.134290 0.459353 0.278042
O O8 0.208674 0.477522 0.000000
O O9 0.873510 0.164857 0.722824
O O10 0.006230 0.128249 0.726085
O O11 0.948202 0.173468 0.000000
O O12 0.500000 0.500000 0.234179
O O13 0.453014 0.562832 0.500000
O O14 0.376788 0.561373 0.225418
O O15 0.304195 0.665368 0.722907
O O16 0.256586 0.788056 0.728156
O O17 0.318263 0.738333 0.000000
O O18 0.714317 0.401355 0.000000
O O19 0.200848 0.837606 0.000000
O O20 0.438066 0.964333 0.500000
O O21 0.500000 0.000000 0.219286
#
# Coordination Sequence:
#
# PCOD9442909 Si02
#       8
#     8   8   8   8   8   8   8   8
#     4  11  21  37  61  86 115 152 193 241 291 342
#     4  10  21  36  57  85 116 148 188 241 288 340
#     4  10  21  35  56  85 115 150 192 237 286 343
#     4  10  20  34  51  77 111 145 184 228 273 328
#     4   9  18  34  57  82 107 146 190 229 277 336
#     4  10  20  35  54  79 110 145 185 226 277 335
#     4  10  20  37  60  83 111 151 193 233 285 348
#     4  10  22  40  62  88 117 153 195 240 294 349
#
# _framework density 21.109058000000001
#
# number of rings (size 3 to 8) (size 9 to 14) (size 15 to 20)
#    0.000    2.000    2.500    1.125    0.000    3.500 
#    0.000    4.375    0.000    1.500    0.000    0.000 
#    0.000    0.000    0.000    0.000    0.000    0.000 
#
# Total GULP energy -357572.023865 kJ/mol
# GULP energy per Si atom -5587.062873 kJ/mol
# Density = 2.106101 g / cm^3
# Si number density = 21.109058 Si / 1000 Ang^3
#
#
#
# Elastic Constant Matrix: (Units=GPa)
#
#
# Indices 1 2 3 4 5 6 
#
# 1 126.8569 63.2917 -0.1376 0.0000 0.0000 0.0000
# 2 63.2917 152.9181 -12.8492 0.0000 0.0000 0.0000
# 3 -0.1376 -12.8492 31.8009 0.0000 0.0000 0.0000
# 4 0.0000 0.0000 0.0000 10.6181 0.0000 0.0000
# 5 0.0000 0.0000 0.0000 0.0000 -1.3602 0.0000
# 6 0.0000 0.0000 0.0000 0.0000 0.0000 42.8632
#
#
#
# Elastic Compliance Matrix: (Units=1/GPa)
#
#
# Indices 1 2 3 4 5 6 
#
# 1 0.010021 -0.004290 -0.001690 0.000000 0.000000 0.000000
# 2 -0.004290 0.008606 0.003459 0.000000 0.000000 0.000000
# 3 -0.001690 0.003459 0.032836 0.000000 0.000000 0.000000
# 4 0.000000 0.000000 0.000000 0.094179 0.000000 0.000000
# 5 0.000000 0.000000 0.000000 0.000000 -0.735192 0.000000
# 6 0.000000 0.000000 0.000000 0.000000 0.000000 0.023330
#
#
# Mechanical properties :
#
#
# Convention : Reuss Voigt Hill
#
# Bulk Modulus (GPa) = 21.54226 45.79840 33.67033
# Shear Modulus (GPa) = -9.16247 27.84229 9.33991
#
# Velocity S-wave (km/s) = -2.08566 3.63571 2.10575
# Velocity P-wave (km/s) = 2.10415 6.27437 4.67948
#
# Compressibility (1/GPa) = 0.04642039
#
# Stress axis : x y z
#
# Youngs Moduli (GPa) = 99.78730 116.20411 30.45457
#
# Poissons Ratio (x) = 0.49849 0.05147
# Poissons Ratio (y) = 0.42806 -0.10533
# Poissons Ratio (z) = 0.16863 -0.40190
#
# Static dielectric constant tensor:
#      x y z
#    x 1.746150 0.000000 0.000000 
#    y 0.000000 1.738180 0.000000 
#    z 0.000000 0.000000 1.792610 
# 
# From -- ./inp_files/8332.got.cif
#   From: 2010.05.17/outbox.cif.g08.bks.cpg/sg58_5_cif.got.tgz:8332.got - 2010.06.03 14:20:14.
