data_PCOD9442855
_publ_section_title
;
Structure prediction by ZEFSAII (Michael W. Deem and Ramdas Pophale) SiO2 
 PCOD9442855
Probable space group: P N N M
;
_chemical_formula_sum "Si O2"
_cell_formula_units_Z 64
_cell_length_a 13.778979
_cell_length_b 11.656568
_cell_length_c 17.914933
_cell_angle_alpha 90.000000
_cell_angle_beta 90.000000
_cell_angle_gamma 90.000000
_cell_volume 2877.417815
_symmetry_space_group_name_H-M "P N N M"
_symmetry_group_IT_number 58
_symmetry_cell_setting 'orthorhombic'
loop_
_space_group_symop_operation_xyz
x,y,z
-x,-y,z
1/2+x,1/2-y,1/2-z
1/2-x,1/2+y,1/2-z
-x,-y,-z
x,y,-z
1/2-x,1/2+y,1/2+z
1/2+x,1/2-y,1/2+z
loop_
_atom_site_type_symbol
_atom_site_label
_atom_site_fract_x
_atom_site_fract_y
_atom_site_fract_z
Si Si1 0.958942 0.367298 0.800113
Si Si2 0.246131 0.772609 0.415852
Si Si3 0.222350 0.644040 0.087898
Si Si4 0.179913 0.572111 0.321138
Si Si5 0.361833 0.859461 0.082498
Si Si6 0.279671 0.451022 0.813690
Si Si7 0.977750 0.125908 0.747217
Si Si8 0.983839 0.175456 0.581364
O O1 0.877345 0.356770 0.864965
O O2 0.908859 0.364802 0.718367
O O3 0.008926 0.239437 0.793307
O O4 0.000000 0.500000 0.806786
O O5 0.285449 0.777564 0.500000
O O6 0.238328 0.647713 0.380020
O O7 0.290320 0.857441 0.353370
O O8 0.132696 0.813827 0.419359
O O9 0.282444 0.761073 0.098673
O O10 0.289717 0.540336 0.117778
O O11 0.204012 0.629586 0.000000
O O12 0.142115 0.458049 0.358581
O O13 0.242263 0.533310 0.250827
O O14 0.465788 0.799186 0.080776
O O15 0.341277 0.906463 0.000000
O O16 0.362825 0.380983 0.770650
O O17 0.016820 0.125281 0.661202
O O18 0.000000 0.000000 0.781146
O O19 0.014097 0.124975 0.500000
#
# Coordination Sequence:
#
# PCOD9442855 Si02
#       8
#     8   8   8   8   8   8   8   8
#     4  11  23  40  60  88 117 157 204 256 306 357
#     4  10  20  36  55  83 121 157 193 239 295 357
#     4  10  22  40  62  85 115 152 199 257 311 361
#     4  11  21  34  58  80 120 155 197 239 298 365
#     4  10  20  33  54  86 118 151 190 233 294 365
#     4  10  21  36  58  85 114 152 196 246 298 356
#     4  11  21  38  59  87 121 158 196 242 300 362
#     4   9  18  32  53  83 118 152 187 227 282 354
#
# _framework density 22.242163999999999
#
# number of rings (size 3 to 8) (size 9 to 14) (size 15 to 20)
#    0.000    1.750    2.500    3.000    1.750    1.000 
#    2.250    1.875    0.000    0.375    0.000    0.000 
#    0.000    0.000    0.000    0.000    0.000    0.000 
#
# Total GULP energy -356399.732879 kJ/mol
# GULP energy per Si atom -5568.745826 kJ/mol
# Density = 2.219154 g / cm^3
# Si number density = 22.242164 Si / 1000 Ang^3
#
#
#
# Elastic Constant Matrix: (Units=GPa)
#
#
# Indices 1 2 3 4 5 6 
#
# 1 24.3984 16.3798 23.5316 0.0000 0.0000 0.0000
# 2 16.3798 124.0638 53.1132 0.0000 0.0000 0.0000
# 3 23.5316 53.1132 77.6461 0.0000 0.0000 0.0000
# 4 0.0000 0.0000 0.0000 21.9496 0.0000 0.0000
# 5 0.0000 0.0000 0.0000 0.0000 9.6091 0.0000
# 6 0.0000 0.0000 0.0000 0.0000 0.0000 22.6137
#
#
#
# Elastic Compliance Matrix: (Units=1/GPa)
#
#
# Indices 1 2 3 4 5 6 
#
# 1 0.057918 -0.000187 -0.017425 0.000000 0.000000 0.000000
# 2 -0.000187 0.011399 -0.007741 0.000000 0.000000 0.000000
# 3 -0.017425 -0.007741 0.023455 0.000000 0.000000 0.000000
# 4 0.000000 0.000000 0.000000 0.045559 0.000000 0.000000
# 5 0.000000 0.000000 0.000000 0.000000 0.104068 0.000000
# 6 0.000000 0.000000 0.000000 0.000000 0.000000 0.044221
#
#
# Mechanical properties :
#
#
# Convention : Reuss Voigt Hill
#
# Bulk Modulus (GPa) = 23.77193 45.79528 34.78360
# Shear Modulus (GPa) = 14.23095 19.70671 16.96883
#
# Velocity S-wave (km/s) = 2.53221 2.97982 2.76508
# Velocity P-wave (km/s) = 4.38867 5.69852 5.08594
#
# Compressibility (1/GPa) = 0.04206642
#
# Stress axis : x y z
#
# Youngs Moduli (GPa) = 17.26589 87.72753 42.63534
#
# Poissons Ratio (x) = 0.01640 0.74291
# Poissons Ratio (y) = 0.00323 0.33003
# Poissons Ratio (z) = 0.30086 0.67907
#
# Static dielectric constant tensor:
#      x y z
#    x 1.925510 0.000000 0.000000 
#    y 0.000000 1.914290 0.000000 
#    z 0.000000 0.000000 2.076460 
# 
# From -- ./inp_files/27034.got.cif
#   From: 2010.05.17/outbox.cif.g08.bks.cpg/sg58_14_cif.got.tgz:27034.got - 2010.06.03 14:20:14.
