data_PCOD9442795
_publ_section_title
;
Structure prediction by ZEFSAII (Michael W. Deem and Ramdas Pophale) SiO2 
 PCOD9442795
Probable space group: P N N M
;
_chemical_formula_sum "Si O2"
_cell_formula_units_Z 48
_cell_length_a 9.693926
_cell_length_b 24.132518
_cell_length_c 7.300553
_cell_angle_alpha 90.000000
_cell_angle_beta 90.000000
_cell_angle_gamma 90.000000
_cell_volume 1707.882927
_symmetry_space_group_name_H-M "P N N M"
_symmetry_group_IT_number 58
_symmetry_cell_setting 'orthorhombic'
loop_
_space_group_symop_operation_xyz
x,y,z
-x,-y,z
1/2+x,1/2-y,1/2-z
1/2-x,1/2+y,1/2-z
-x,-y,-z
x,y,-z
1/2-x,1/2+y,1/2+z
1/2+x,1/2-y,1/2+z
loop_
_atom_site_type_symbol
_atom_site_label
_atom_site_fract_x
_atom_site_fract_y
_atom_site_fract_z
Si Si1 0.291216 0.150607 0.724152
Si Si2 0.789001 0.021145 0.276899
Si Si3 0.530277 0.076973 0.707109
Si Si4 0.530575 0.743527 0.720777
Si Si5 0.959921 0.910695 0.721253
Si Si6 0.283505 0.819402 0.212557
O O1 0.290670 0.150539 0.500000
O O2 0.389084 0.099952 0.787430
O O3 0.373669 0.204533 0.781153
O O4 0.134070 0.140624 0.784993
O O5 0.783957 0.022942 0.500000
O O6 0.633896 0.031685 0.212184
O O7 0.889487 0.071116 0.214631
O O8 0.865533 0.964452 0.231992
O O9 0.494951 0.060657 0.500000
O O10 0.628536 0.131966 0.696843
O O11 0.529615 0.741776 0.500000
O O12 0.378846 0.763465 0.779079
O O13 0.629090 0.692965 0.784574
O O14 0.966169 0.908146 0.500000
O O15 0.273613 0.833373 0.000000
#
# Coordination Sequence:
#
# PCOD9442795 Si02
#       6
#     8   8   8   8   8   8
#     4   8  14  25  40  58  84 114 142 180 225 267
#     4   8  14  23  37  61  91 118 144 182 230 273
#     4   9  17  29  44  64  91 120 150 186 228 272
#     4   9  19  34  49  69  95 121 155 195 233 277
#     4   8  13  22  37  61  90 114 143 185 230 274
#     4  10  20  33  50  71  95 125 158 192 233 279
#
# _framework density 28.104972
#
# number of rings (size 3 to 8) (size 9 to 14) (size 15 to 20)
#    0.000    3.333    0.000    2.500    0.000    3.333 
#    0.000    6.667    0.000    0.000    0.000   11.667 
#    0.000    0.000    0.000    0.000    0.000    0.000 
#
# Total GULP energy -268451.617399 kJ/mol
# GULP energy per Si atom -5592.742029 kJ/mol
# Density = 2.804100 g / cm^3
# Si number density = 28.104972 Si / 1000 Ang^3
#
#
#
# Elastic Constant Matrix: (Units=GPa)
#
#
# Indices 1 2 3 4 5 6 
#
# 1 204.2759 0.8877 -1.5096 0.0000 0.0000 0.0000
# 2 0.8877 69.4751 5.6655 0.0000 0.0000 0.0000
# 3 -1.5096 5.6655 132.7905 0.0000 0.0000 0.0000
# 4 0.0000 0.0000 0.0000 -9.0675 0.0000 0.0000
# 5 0.0000 0.0000 0.0000 0.0000 -1.7296 0.0000
# 6 0.0000 0.0000 0.0000 0.0000 0.0000 67.7251
#
#
#
# Elastic Compliance Matrix: (Units=1/GPa)
#
#
# Indices 1 2 3 4 5 6 
#
# 1 0.004896 -0.000067 0.000059 0.000000 0.000000 0.000000
# 2 -0.000067 0.014445 -0.000617 0.000000 0.000000 0.000000
# 3 0.000059 -0.000617 0.007558 0.000000 0.000000 0.000000
# 4 0.000000 0.000000 0.000000 -0.110284 0.000000 0.000000
# 5 0.000000 0.000000 0.000000 0.000000 -0.578158 0.000000
# 6 0.000000 0.000000 0.000000 0.000000 0.000000 0.014766
#
#
# Mechanical properties :
#
#
# Convention : Reuss Voigt Hill
#
# Bulk Modulus (GPa) = 38.99118 46.29209 42.64163
# Shear Modulus (GPa) = -7.84958 38.15211 15.15127
#
# Velocity S-wave (km/s) = -1.67303 3.68841 2.32436
# Velocity P-wave (km/s) = 3.18928 5.88609 4.73379
#
# Compressibility (1/GPa) = 0.02564683
#
# Stress axis : x y z
#
# Youngs Moduli (GPa) = 204.24560 69.22897 132.31624
#
# Poissons Ratio (x) = 0.00466 -0.00774
# Poissons Ratio (y) = 0.01375 0.08165
# Poissons Ratio (z) = -0.01195 0.04272
#
# Static dielectric constant tensor:
#      x y z
#    x 2.140530 0.000000 0.000000 
#    y 0.000000 2.318690 0.000000 
#    z 0.000000 0.000000 2.057270 
# 
# From -- ./inp_files/4317.got.cif
#   From: 2010.05.17/outbox.cif.g08.bks.cpg/sg58_3_cif.got.tgz:4317.got - 2010.06.03 14:20:14.
