data_PCOD9442135
_publ_section_title
;
Structure prediction by ZEFSAII (Michael W. Deem and Ramdas Pophale) SiO2 
 PCOD9442135
Probable space group: P N N M
;
_chemical_formula_sum "Si O2"
_cell_formula_units_Z 52
_cell_length_a 23.889485
_cell_length_b 13.825682
_cell_length_c 8.000229
_cell_angle_alpha 90.000000
_cell_angle_beta 90.000000
_cell_angle_gamma 90.000000
_cell_volume 2642.383018
_symmetry_space_group_name_H-M "P N N M"
_symmetry_group_IT_number 58
_symmetry_cell_setting 'orthorhombic'
loop_
_space_group_symop_operation_xyz
x,y,z
-x,-y,z
1/2+x,1/2-y,1/2-z
1/2-x,1/2+y,1/2-z
-x,-y,-z
x,y,-z
1/2-x,1/2+y,1/2+z
1/2+x,1/2-y,1/2+z
loop_
_atom_site_type_symbol
_atom_site_label
_atom_site_fract_x
_atom_site_fract_y
_atom_site_fract_z
Si Si1 0.232438 0.092622 0.308999
Si Si2 0.902309 0.244169 0.500000
Si Si3 0.161509 0.805102 0.184456
Si Si4 0.648026 0.001440 0.298419
Si Si5 0.622514 0.485425 0.672626
Si Si6 0.282378 0.807560 0.698532
Si Si7 0.438524 0.048986 0.000000
Si Si8 0.935103 0.015040 0.500000
O O1 0.223887 0.058616 0.500000
O O2 0.186695 0.044617 0.191367
O O3 0.217190 0.205580 0.293215
O O4 0.296468 0.065282 0.267677
O O5 0.864722 0.255790 0.333714
O O6 0.944679 0.333720 0.500000
O O7 0.922097 0.131388 0.500000
O O8 0.221159 0.844066 0.247560
O O9 0.122674 0.898646 0.166542
O O10 0.166687 0.758994 0.000000
O O11 0.634255 0.993183 0.500000
O O12 0.671432 0.110891 0.267845
O O13 0.598714 0.979034 0.165611
O O14 0.598975 0.445099 0.500000
O O15 0.590376 0.462266 0.839378
O O16 0.282685 0.788967 0.500000
O O17 0.500000 0.000000 0.000000
O O18 0.000000 0.000000 0.500000
#
# Coordination Sequence:
#
# PCOD9442135 Si02
#       8
#     8   4   8   8   8   8   4   4
#     4  11  21  35  59  97 134 165 199 250 332 404
#     4  10  22  42  66  90 124 168 220 267 316 368
#     4  10  19  33  59  92 128 160 197 252 314 383
#     4  10  25  43  64  94 130 166 216 272 330 389
#     4  10  20  35  59  89 126 165 198 253 314 382
#     4  11  21  34  56  91 130 165 194 249 319 387
#     4  12  28  48  68  90 118 180 237 278 312 375
#     4  10  22  42  64  92 126 172 212 259 317 382
#
# _framework density 19.679205
#
# number of rings (size 3 to 8) (size 9 to 14) (size 15 to 20)
#    0.000    1.538    3.077    1.846    4.308    2.462 
#    2.769    0.000    0.000    0.000    0.000    0.000 
#    0.000    0.000    0.000    0.000    0.000    0.000 
#
# Total GULP energy -289731.805361 kJ/mol
# GULP energy per Si atom -5571.765488 kJ/mol
# Density = 1.963441 g / cm^3
# Si number density = 19.679205 Si / 1000 Ang^3
#
#
#
# Elastic Constant Matrix: (Units=GPa)
#
#
# Indices 1 2 3 4 5 6 
#
# 1 88.6227 14.2359 63.5200 0.0000 0.0000 0.0000
# 2 14.2359 69.4568 20.5370 0.0000 0.0000 0.0000
# 3 63.5200 20.5370 158.7015 0.0000 0.0000 0.0000
# 4 0.0000 0.0000 0.0000 14.2335 0.0000 0.0000
# 5 0.0000 0.0000 0.0000 0.0000 -38.1996 0.0000
# 6 0.0000 0.0000 0.0000 0.0000 0.0000 26.7530
#
#
#
# Elastic Compliance Matrix: (Units=1/GPa)
#
#
# Indices 1 2 3 4 5 6 
#
# 1 0.015960 -0.001437 -0.006202 0.000000 0.000000 0.000000
# 2 -0.001437 0.015100 -0.001379 0.000000 0.000000 0.000000
# 3 -0.006202 -0.001379 0.008962 0.000000 0.000000 0.000000
# 4 0.000000 0.000000 0.000000 0.070257 0.000000 0.000000
# 5 0.000000 0.000000 0.000000 0.000000 -0.026178 0.000000
# 6 0.000000 0.000000 0.000000 0.000000 0.000000 0.037379
#
#
# Mechanical properties :
#
#
# Convention : Reuss Voigt Hill
#
# Bulk Modulus (GPa) = 45.48453 57.04075 51.26264
# Shear Modulus (GPa) = 34.04994 15.12325 24.58660
#
# Velocity S-wave (km/s) = 4.16414 2.77517 3.53848
# Velocity P-wave (km/s) = 6.80318 6.27033 6.54218
#
# Compressibility (1/GPa) = 0.02198550
#
# Stress axis : x y z
#
# Youngs Moduli (GPa) = 62.65713 66.22645 111.58411
#
# Poissons Ratio (x) = 0.09519 0.69203
# Poissons Ratio (y) = 0.09006 0.15384
# Poissons Ratio (z) = 0.38859 0.09131
#
# Static dielectric constant tensor:
#      x y z
#    x 1.651290 0.000000 0.000000 
#    y 0.000000 1.814070 0.000000 
#    z 0.000000 0.000000 1.760850 
# 
# From -- ./inp_files/8939.got.cif
#   From: 2010.05.17/outbox.cif.g08.bks.cpg/sg58_5_cif.got.tgz:8939.got - 2010.06.03 14:20:14.
