data_PCOD9442353
_publ_section_title
;
Structure prediction by ZEFSAII (Michael W. Deem and Ramdas Pophale) SiO2 
 PCOD9442353
Probable space group: P N N M
;
_chemical_formula_sum "Si O2"
_cell_formula_units_Z 56
_cell_length_a 21.286403
_cell_length_b 14.747119
_cell_length_c 8.989243
_cell_angle_alpha 90.000000
_cell_angle_beta 90.000000
_cell_angle_gamma 90.000000
_cell_volume 2821.841300
_symmetry_space_group_name_H-M "P N N M"
_symmetry_group_IT_number 58
_symmetry_cell_setting 'orthorhombic'
loop_
_space_group_symop_operation_xyz
x,y,z
-x,-y,z
1/2+x,1/2-y,1/2-z
1/2-x,1/2+y,1/2-z
-x,-y,-z
x,y,-z
1/2-x,1/2+y,1/2+z
1/2+x,1/2-y,1/2+z
loop_
_atom_site_type_symbol
_atom_site_label
_atom_site_fract_x
_atom_site_fract_y
_atom_site_fract_z
Si Si1 0.394940 0.751427 0.173039
Si Si2 0.546134 0.584870 0.831310
Si Si3 0.849217 0.943503 0.667206
Si Si4 0.235171 0.500239 0.326615
Si Si5 0.651514 0.832819 0.821008
Si Si6 0.024206 0.731535 0.825152
Si Si7 0.763242 0.693697 0.178144
O O1 0.396080 0.641441 0.179839
O O2 0.456878 0.790235 0.251048
O O3 0.329202 0.775945 0.249757
O O4 0.393522 0.777999 0.000000
O O5 0.500000 0.500000 0.814563
O O6 0.613929 0.537786 0.822241
O O7 0.536190 0.662677 0.713158
O O8 0.538255 0.622486 0.000000
O O9 0.821371 0.936680 0.500000
O O10 0.796947 0.940340 0.792624
O O11 0.230931 0.476599 0.500000
O O12 0.178189 0.567049 0.286865
O O13 0.243174 0.410082 0.230594
O O14 0.584440 0.816994 0.746504
O O15 0.704172 0.757489 0.775093
O O16 0.645498 0.825137 0.000000
O O17 0.021456 0.715926 0.000000
O O18 0.766968 0.699057 0.000000
#
# Coordination Sequence:
#
# PCOD9442353 Si02
#       7
#     8   8   8   8   8   8   8
#     4  11  22  40  64  89 122 165 207 250 308 373
#     4  10  19  35  55  81 118 161 201 239 298 372
#     4  10  20  35  59  87 118 159 201 249 305 366
#     4  11  23  40  63  92 123 160 207 258 308 368
#     4  10  23  43  64  88 126 169 207 252 311 373
#     4  12  25  38  58  90 126 163 207 261 313 365
#     4  11  23  42  66  95 127 164 208 260 313 368
#
# _framework density 19.845199000000001
#
# number of rings (size 3 to 8) (size 9 to 14) (size 15 to 20)
#    0.000    1.286    2.857    3.429    0.000    7.143 
#    0.000    0.714    0.000    4.286    0.000    0.000 
#    0.000    0.000    0.000    0.000    0.000    0.000 
#
# Total GULP energy -312795.358414 kJ/mol
# GULP energy per Si atom -5585.631400 kJ/mol
# Density = 1.980003 g / cm^3
# Si number density = 19.845199 Si / 1000 Ang^3
#
#
#
# Elastic Constant Matrix: (Units=GPa)
#
#
# Indices 1 2 3 4 5 6 
#
# 1 107.1986 8.4506 37.1700 0.0000 0.0000 0.0000
# 2 8.4506 36.4536 14.1125 0.0000 0.0000 0.0000
# 3 37.1700 14.1125 64.8714 0.0000 0.0000 0.0000
# 4 0.0000 0.0000 0.0000 17.2410 0.0000 0.0000
# 5 0.0000 0.0000 0.0000 0.0000 34.1515 0.0000
# 6 0.0000 0.0000 0.0000 0.0000 0.0000 27.4424
#
#
#
# Elastic Compliance Matrix: (Units=1/GPa)
#
#
# Indices 1 2 3 4 5 6 
#
# 1 0.011642 -0.000127 -0.006643 0.000000 0.000000 0.000000
# 2 -0.000127 0.029956 -0.006444 0.000000 0.000000 0.000000
# 3 -0.006643 -0.006444 0.020623 0.000000 0.000000 0.000000
# 4 0.000000 0.000000 0.000000 0.058001 0.000000 0.000000
# 5 0.000000 0.000000 0.000000 0.000000 0.029281 0.000000
# 6 0.000000 0.000000 0.000000 0.000000 0.000000 0.036440
#
#
# Mechanical properties :
#
#
# Convention : Reuss Voigt Hill
#
# Bulk Modulus (GPa) = 27.93816 36.44330 32.19073
# Shear Modulus (GPa) = 22.29128 25.68636 23.98882
#
# Velocity S-wave (km/s) = 3.35514 3.60159 3.48055
# Velocity P-wave (km/s) = 5.39610 5.97486 5.69284
#
# Compressibility (1/GPa) = 0.03579333
#
# Stress axis : x y z
#
# Youngs Moduli (GPa) = 85.89703 33.38197 48.48903
#
# Poissons Ratio (x) = 0.00424 0.32211
# Poissons Ratio (y) = 0.01092 0.31246
# Poissons Ratio (z) = 0.57060 0.21511
#
# Static dielectric constant tensor:
#      x y z
#    x 1.736980 0.000000 0.000000 
#    y 0.000000 1.726110 0.000000 
#    z 0.000000 0.000000 1.672880 
# 
# From -- ./inp_files/9008.got.cif
#   From: 2010.05.17/outbox.cif.g08.bks.cpg/sg58_5_cif.got.tgz:9008.got - 2010.06.03 14:20:14.
