data_PCOD9442672
_publ_section_title
;
Structure prediction by ZEFSAII (Michael W. Deem and Ramdas Pophale) SiO2 
 PCOD9442672
Probable space group: P N N M
;
_chemical_formula_sum "Si O2"
_cell_formula_units_Z 56
_cell_length_a 17.222960
_cell_length_b 8.484544
_cell_length_c 18.245511
_cell_angle_alpha 90.000000
_cell_angle_beta 90.000000
_cell_angle_gamma 90.000000
_cell_volume 2666.197582
_symmetry_space_group_name_H-M "P N N M"
_symmetry_group_IT_number 58
_symmetry_cell_setting 'orthorhombic'
loop_
_space_group_symop_operation_xyz
x,y,z
-x,-y,z
1/2+x,1/2-y,1/2-z
1/2-x,1/2+y,1/2-z
-x,-y,-z
x,y,-z
1/2-x,1/2+y,1/2+z
1/2+x,1/2-y,1/2+z
loop_
_atom_site_type_symbol
_atom_site_label
_atom_site_fract_x
_atom_site_fract_y
_atom_site_fract_z
Si Si1 0.814205 0.336871 0.583791
Si Si2 0.649493 0.457862 0.419853
Si Si3 0.696782 0.818301 0.416631
Si Si4 0.574744 0.344071 0.271700
Si Si5 0.062436 0.639365 0.813907
Si Si6 0.174834 0.458210 0.719167
Si Si7 0.817654 0.024877 0.323591
O O1 0.843218 0.347475 0.500000
O O2 0.720550 0.336060 0.580435
O O3 0.833177 0.489072 0.634713
O O4 0.833108 0.175743 0.625854
O O5 0.610139 0.451983 0.500000
O O6 0.689745 0.629043 0.413414
O O7 0.599495 0.415198 0.349900
O O8 0.709419 0.867545 0.500000
O O9 0.610191 0.861514 0.389149
O O10 0.765282 0.896886 0.368663
O O11 0.487530 0.286177 0.285714
O O12 0.601675 0.459186 0.207250
O O13 0.627493 0.192052 0.248716
O O14 0.131613 0.604018 0.758074
O O15 0.000000 0.500000 0.815807
O O16 0.261415 0.443061 0.752641
#
# Coordination Sequence:
#
# PCOD9442672 Si02
#       7
#     8   8   8   8   8   8   8
#     4  11  22  37  60  91 123 155 196 255 314 359
#     4  10  21  35  55  87 122 157 197 243 298 352
#     4  10  22  39  59  88 128 167 203 247 302 370
#     4  11  21  37  60  86 118 161 204 251 295 361
#     4   9  22  38  58  88 119 159 205 248 302 363
#     4  10  19  38  59  84 115 152 203 251 298 358
#     4  11  20  34  61  89 117 155 207 253 300 354
#
# _framework density 21.003695
#
# number of rings (size 3 to 8) (size 9 to 14) (size 15 to 20)
#    0.000    1.714    2.857    1.286    4.000    1.429 
#    0.000    2.143    0.000    6.429    0.000    0.000 
#    0.000    0.000    0.000    0.000    0.000    0.000 
#
# Total GULP energy -312237.026863 kJ/mol
# GULP energy per Si atom -5575.661194 kJ/mol
# Density = 2.095589 g / cm^3
# Si number density = 21.003695 Si / 1000 Ang^3
#
#
#
# Elastic Constant Matrix: (Units=GPa)
#
#
# Indices 1 2 3 4 5 6 
#
# 1 45.9818 19.9923 20.5963 0.0000 0.0000 0.0000
# 2 19.9923 70.3661 54.2870 0.0000 0.0000 0.0000
# 3 20.5963 54.2870 156.5271 0.0000 0.0000 0.0000
# 4 0.0000 0.0000 0.0000 20.9807 0.0000 0.0000
# 5 0.0000 0.0000 0.0000 0.0000 19.3825 0.0000
# 6 0.0000 0.0000 0.0000 0.0000 0.0000 36.1117
#
#
#
# Elastic Compliance Matrix: (Units=1/GPa)
#
#
# Indices 1 2 3 4 5 6 
#
# 1 0.024957 -0.006222 -0.001126 0.000000 0.000000 0.000000
# 2 -0.006222 0.020954 -0.006449 0.000000 0.000000 0.000000
# 3 -0.001126 -0.006449 0.008773 0.000000 0.000000 0.000000
# 4 0.000000 0.000000 0.000000 0.047663 0.000000 0.000000
# 5 0.000000 0.000000 0.000000 0.000000 0.051593 0.000000
# 6 0.000000 0.000000 0.000000 0.000000 0.000000 0.027692
#
#
# Mechanical properties :
#
#
# Convention : Reuss Voigt Hill
#
# Bulk Modulus (GPa) = 36.91206 51.40292 44.15749
# Shear Modulus (GPa) = 22.90878 27.16161 25.03519
#
# Velocity S-wave (km/s) = 3.30616 3.59999 3.45620
# Velocity P-wave (km/s) = 5.67331 6.46578 6.08247
#
# Compressibility (1/GPa) = 0.02709142
#
# Stress axis : x y z
#
# Youngs Moduli (GPa) = 40.06830 47.72284 113.98132
#
# Poissons Ratio (x) = 0.29694 0.12834
# Poissons Ratio (y) = 0.24931 0.73503
# Poissons Ratio (z) = 0.04512 0.30775
#
# Static dielectric constant tensor:
#      x y z
#    x 1.746270 0.000000 0.000000 
#    y 0.000000 1.892370 0.000000 
#    z 0.000000 0.000000 1.791090 
# 
# From -- ./inp_files/27484.got.cif
#   From: 2010.05.17/outbox.cif.g08.bks.cpg/sg58_14_cif.got.tgz:27484.got - 2010.06.03 14:20:14.
