data_PCOD9442869
_publ_section_title
;
Structure prediction by ZEFSAII (Michael W. Deem and Ramdas Pophale) SiO2 
 PCOD9442869
Probable space group: P N N M
;
_chemical_formula_sum "Si O2"
_cell_formula_units_Z 32
_cell_length_a 16.126194
_cell_length_b 9.022903
_cell_length_c 9.883529
_cell_angle_alpha 90.000000
_cell_angle_beta 90.000000
_cell_angle_gamma 90.000000
_cell_volume 1438.103720
_symmetry_space_group_name_H-M "P N N M"
_symmetry_group_IT_number 58
_symmetry_cell_setting 'orthorhombic'
loop_
_space_group_symop_operation_xyz
x,y,z
-x,-y,z
1/2+x,1/2-y,1/2-z
1/2-x,1/2+y,1/2-z
-x,-y,-z
x,y,-z
1/2-x,1/2+y,1/2+z
1/2+x,1/2-y,1/2+z
loop_
_atom_site_type_symbol
_atom_site_label
_atom_site_fract_x
_atom_site_fract_y
_atom_site_fract_z
Si Si1 0.593611 0.611822 0.152230
Si Si2 0.349732 0.621216 0.344595
Si Si3 0.429126 0.123882 0.649284
Si Si4 0.723094 0.074499 0.723087
O O1 0.586421 0.467744 0.249378
O O2 0.565254 0.754961 0.234672
O O3 0.659195 0.958789 0.340760
O O4 0.694453 0.618434 0.141523
O O5 0.374554 0.650617 0.500000
O O6 0.326247 0.772057 0.266570
O O7 0.268401 0.513231 0.344784
O O8 0.435671 0.193695 0.500000
O O9 0.500000 0.000000 0.661855
O O10 0.061452 0.892893 0.500000
#
# Coordination Sequence:
#
# PCOD9442869 Si02
#       4
#     8   8   8   8
#     4  10  20  36  59  85 115 150 196 248 289 344
#     4  10  20  33  57  84 111 146 192 243 293 344
#     4  11  23  39  61  89 124 163 199 243 302 362
#     4  10  20  34  60  86 117 147 201 249 293 347
#
# _framework density 22.251525000000001
#
# number of rings (size 3 to 8) (size 9 to 14) (size 15 to 20)
#    1.500    0.250    2.500    3.000    0.000    1.500 
#    0.000    1.250    0.000    6.000    0.000    0.000 
#    0.000    0.000    0.000    0.000    0.000    0.000 
#
# Total GULP energy -178268.677950 kJ/mol
# GULP energy per Si atom -5570.896186 kJ/mol
# Density = 2.220088 g / cm^3
# Si number density = 22.251525 Si / 1000 Ang^3
#
#
#
# Elastic Constant Matrix: (Units=GPa)
#
#
# Indices 1 2 3 4 5 6 
#
# 1 81.7219 24.9095 41.3449 0.0000 0.0000 0.0000
# 2 24.9095 120.1729 54.7154 0.0000 0.0000 0.0000
# 3 41.3449 54.7154 128.7387 0.0000 0.0000 0.0000
# 4 0.0000 0.0000 0.0000 -34.0099 0.0000 0.0000
# 5 0.0000 0.0000 0.0000 0.0000 1.0561 0.0000
# 6 0.0000 0.0000 0.0000 0.0000 0.0000 43.0330
#
#
#
# Elastic Compliance Matrix: (Units=1/GPa)
#
#
# Indices 1 2 3 4 5 6 
#
# 1 0.014730 -0.001115 -0.004257 0.000000 0.000000 0.000000
# 2 -0.001115 0.010402 -0.004063 0.000000 0.000000 0.000000
# 3 -0.004257 -0.004063 0.010862 0.000000 0.000000 0.000000
# 4 0.000000 0.000000 0.000000 -0.029403 0.000000 0.000000
# 5 0.000000 0.000000 0.000000 0.000000 0.946894 0.000000
# 6 0.000000 0.000000 0.000000 0.000000 0.000000 0.023238
#
#
# Mechanical properties :
#
#
# Convention : Reuss Voigt Hill
#
# Bulk Modulus (GPa) = 58.39638 63.61925 61.00781
# Shear Modulus (GPa) = 4.99350 15.99342 10.49346
#
# Velocity S-wave (km/s) = 1.49966 2.68387 2.17395
# Velocity P-wave (km/s) = 5.41289 6.18524 5.81191
#
# Compressibility (1/GPa) = 0.01712435
#
# Stress axis : x y z
#
# Youngs Moduli (GPa) = 67.88827 96.13163 92.06799
#
# Poissons Ratio (x) = 0.10720 0.39190
# Poissons Ratio (y) = 0.07571 0.37407
# Poissons Ratio (z) = 0.28898 0.39058
#
# Static dielectric constant tensor:
#      x y z
#    x 1.874130 0.000000 0.000000 
#    y 0.000000 1.812360 0.000000 
#    z 0.000000 0.000000 1.765350 
# 
# From -- ./inp_files/16147.got.cif
#   From: 2010.05.17/outbox.cif.g08.bks.cpg/sg58_9_cif.got.tgz:16147.got - 2010.06.03 14:20:14.
