data_PCOD9442475
_publ_section_title
;
Structure prediction by ZEFSAII (Michael W. Deem and Ramdas Pophale) SiO2 
 PCOD9442475
Probable space group: P N N M
;
_chemical_formula_sum "Si O2"
_cell_formula_units_Z 58
_cell_length_a 17.876837
_cell_length_b 19.183701
_cell_length_c 7.488365
_cell_angle_alpha 90.000000
_cell_angle_beta 90.000000
_cell_angle_gamma 90.000000
_cell_volume 2568.089067
_symmetry_space_group_name_H-M "P N N M"
_symmetry_group_IT_number 58
_symmetry_cell_setting 'orthorhombic'
loop_
_space_group_symop_operation_xyz
x,y,z
-x,-y,z
1/2+x,1/2-y,1/2-z
1/2-x,1/2+y,1/2-z
-x,-y,-z
x,y,-z
1/2-x,1/2+y,1/2+z
1/2+x,1/2-y,1/2+z
loop_
_atom_site_type_symbol
_atom_site_label
_atom_site_fract_x
_atom_site_fract_y
_atom_site_fract_z
Si Si1 0.425431 0.583712 0.283775
Si Si2 0.334976 0.909372 0.215828
Si Si3 0.208497 0.807000 0.293204
Si Si4 0.726862 0.336839 0.716387
Si Si5 0.634515 0.932415 0.781557
Si Si6 0.000000 0.000000 0.500000
Si Si7 0.961196 0.201393 0.797134
Si Si8 0.489869 0.853768 0.794251
O O1 0.426786 0.570350 0.500000
O O2 0.350297 0.625956 0.235761
O O3 0.493971 0.634825 0.227240
O O4 0.437774 0.517498 0.159488
O O5 0.258284 0.875531 0.279584
O O6 0.406945 0.864998 0.279793
O O7 0.349436 0.988663 0.271510
O O8 0.330459 0.907775 0.000000
O O9 0.191802 0.792282 0.500000
O O10 0.258172 0.742181 0.222744
O O11 0.127305 0.810200 0.206266
O O12 0.725686 0.335644 0.500000
O O13 0.798002 0.382278 0.773819
O O14 0.555711 0.901596 0.716128
O O15 0.633047 0.930929 0.000000
O O16 0.982935 0.274296 0.708723
O O17 0.987610 0.209416 0.000000
O O18 0.483482 0.876432 0.000000
#
# Coordination Sequence:
#
# PCOD9442475 Si02
#       8
#     8   8   8   8   8   2   8   8
#     4  10  24  44  66  95 132 172 222 277 332 395
#     4  10  21  35  57  92 126 160 202 252 313 377
#     4  11  22  39  63  90 124 161 211 265 322 383
#     4   9  18  38  64  88 121 170 213 261 323 385
#     4   9  17  34  60  89 123 166 208 248 310 377
#     4  12  26  44  68  98 124 176 222 280 332 394
#     4  11  23  40  62  90 124 164 210 266 325 379
#     4  10  19  35  61  91 124 161 208 257 303 375
#
# _framework density 22.584886000000001
#
# number of rings (size 3 to 8) (size 9 to 14) (size 15 to 20)
#    0.000    1.931    1.379    2.276    1.931    4.414 
#    2.483    3.448    0.000    1.655    0.000    0.000 
#    0.000    0.000    0.000    0.000    0.000    0.000 
#
# Total GULP energy -323572.751384 kJ/mol
# GULP energy per Si atom -5578.840541 kJ/mol
# Density = 2.253348 g / cm^3
# Si number density = 22.584886 Si / 1000 Ang^3
#
#
#
# Elastic Constant Matrix: (Units=GPa)
#
#
# Indices 1 2 3 4 5 6 
#
# 1 50.0983 4.0113 -1.7200 0.0000 0.0000 0.0000
# 2 4.0113 48.8768 -6.4044 0.0000 0.0000 0.0000
# 3 -1.7200 -6.4044 76.7360 0.0000 0.0000 0.0000
# 4 0.0000 0.0000 0.0000********** 0.0000 0.0000
# 5 0.0000 0.0000 0.0000 0.0000 8.9735 0.0000
# 6 0.0000 0.0000 0.0000 0.0000 0.0000 -0.8185
#
#
#
# Elastic Compliance Matrix: (Units=1/GPa)
#
#
# Indices 1 2 3 4 5 6 
#
# 1 0.020100 -0.001608 0.000316 0.000000 0.000000 0.000000
# 2 -0.001608 0.020814 0.001701 0.000000 0.000000 0.000000
# 3 0.000316 0.001701 0.013181 0.000000 0.000000 0.000000
# 4 0.000000 0.000000 0.000000 -0.000047 0.000000 0.000000
# 5 0.000000 0.000000 0.000000 0.000000 0.111439 0.000000
# 6 0.000000 0.000000 0.000000 0.000000 0.000000 -1.221676
#
#
# Mechanical properties :
#
#
# Convention : Reuss Voigt Hill
#
# Bulk Modulus (GPa) = 18.21022 18.60942 18.40982
# Shear Modulus (GPa) = -4.81370 -4200.80718 -2102.81044
#
# Velocity S-wave (km/s) = -1.46151 -43.17460 -30.54654
# Velocity P-wave (km/s) = 2.28747 49.77085 35.15611
#
# Compressibility (1/GPa) = 0.05491421
#
# Stress axis : x y z
#
# Youngs Moduli (GPa) = 49.75028 48.04346 75.86816
#
# Poissons Ratio (x) = 0.07726 -0.02400
# Poissons Ratio (y) = 0.08001 -0.12906
# Poissons Ratio (z) = -0.01574 -0.08173
#
# Static dielectric constant tensor:
#      x y z
#    x 1.800200 0.000000 0.000000 
#    y 0.000000 1.863290 0.000000 
#    z 0.000000 0.000000 1.877090 
# 
# From -- ./inp_files/8023.got.cif
#   From: 2010.05.17/outbox.cif.g08.bks.cpg/sg58_5_cif.got.tgz:8023.got - 2010.06.03 14:20:14.
