data_PCOD9442870
_publ_section_title
;
Structure prediction by ZEFSAII (Michael W. Deem and Ramdas Pophale) SiO2 
 PCOD9442870
Probable space group: P N N M
;
_chemical_formula_sum "Si O2"
_cell_formula_units_Z 64
_cell_length_a 12.274968
_cell_length_b 15.335474
_cell_length_c 14.805310
_cell_angle_alpha 90.000000
_cell_angle_beta 90.000000
_cell_angle_gamma 90.000000
_cell_volume 2786.987866
_symmetry_space_group_name_H-M "P N N M"
_symmetry_group_IT_number 58
_symmetry_cell_setting 'orthorhombic'
loop_
_space_group_symop_operation_xyz
x,y,z
-x,-y,z
1/2+x,1/2-y,1/2-z
1/2-x,1/2+y,1/2-z
-x,-y,-z
x,y,-z
1/2-x,1/2+y,1/2+z
1/2+x,1/2-y,1/2+z
loop_
_atom_site_type_symbol
_atom_site_label
_atom_site_fract_x
_atom_site_fract_y
_atom_site_fract_z
Si Si1 0.624611 0.307738 0.600993
Si Si2 0.855545 0.326523 0.601047
Si Si3 0.129335 0.516881 0.902659
Si Si4 0.474073 0.681070 0.898623
Si Si5 0.429161 0.337157 0.285305
Si Si6 0.166823 0.983784 0.101995
Si Si7 0.280806 0.211603 0.604208
Si Si8 0.370900 0.006518 0.205570
O O1 0.582794 0.288267 0.500000
O O2 0.745939 0.268754 0.609138
O O3 0.535780 0.287377 0.675286
O O4 0.646083 0.412433 0.607635
O O5 0.845914 0.368721 0.500000
O O6 0.853214 0.391578 0.684259
O O7 0.967640 0.275327 0.600159
O O8 0.155212 0.619691 0.896902
O O9 0.165984 0.479654 0.805933
O O10 0.000000 0.500000 0.903864
O O11 0.173699 0.485121 0.000000
O O12 0.542980 0.639836 0.817542
O O13 0.346187 0.689596 0.878879
O O14 0.486527 0.643577 0.000000
O O15 0.410306 0.427442 0.335909
O O16 0.330844 0.276005 0.320866
O O17 0.290512 0.963575 0.133391
O O18 0.147482 0.957425 0.000000
O O19 0.288391 0.246709 0.500000
O O20 0.500000 0.000000 0.193630
#
# Coordination Sequence:
#
# PCOD9442870 Si02
#       8
#     8   8   8   8   8   8   8   8
#     4   9  19  37  61  87 120 161 198 245 305 370
#     4   9  19  37  58  82 119 160 198 241 302 376
#     4   9  19  38  61  84 118 161 210 263 306 359
#     4  10  24  41  59  87 126 166 205 257 314 377
#     4  12  23  36  65  87 123 161 204 255 314 382
#     4  10  22  38  57  90 126 153 199 254 309 372
#     4  10  22  40  63  93 123 159 211 268 323 372
#     4  10  20  33  57  87 118 158 200 243 307 376
#
# _framework density 22.96386
#
# number of rings (size 3 to 8) (size 9 to 14) (size 15 to 20)
#    0.000    2.125    0.000    3.375    7.000    2.000 
#    0.000    0.625    0.000    1.500    0.000    0.000 
#    0.000    0.000    0.000    0.000    0.000    0.000 
#
# Total GULP energy -356865.883686 kJ/mol
# GULP energy per Si atom -5576.029433 kJ/mol
# Density = 2.291159 g / cm^3
# Si number density = 22.963860 Si / 1000 Ang^3
#
#
#
# Elastic Constant Matrix: (Units=GPa)
#
#
# Indices 1 2 3 4 5 6 
#
# 1 85.9085 25.3757 46.8795 0.0000 0.0000 0.0000
# 2 25.3757 21.1325 10.6952 0.0000 0.0000 0.0000
# 3 46.8795 10.6952 158.9211 0.0000 0.0000 0.0000
# 4 0.0000 0.0000 0.0000 -2.4784 0.0000 0.0000
# 5 0.0000 0.0000 0.0000 0.0000 36.5341 0.0000
# 6 0.0000 0.0000 0.0000 0.0000 0.0000 27.2497
#
#
#
# Elastic Compliance Matrix: (Units=1/GPa)
#
#
# Indices 1 2 3 4 5 6 
#
# 1 0.020881 -0.022731 -0.004630 0.000000 0.000000 0.000000
# 2 -0.022731 0.073733 0.001743 0.000000 0.000000 0.000000
# 3 -0.004630 0.001743 0.007541 0.000000 0.000000 0.000000
# 4 0.000000 0.000000 0.000000 -0.403484 0.000000 0.000000
# 5 0.000000 0.000000 0.000000 0.000000 0.027372 0.000000
# 6 0.000000 0.000000 0.000000 0.000000 0.000000 0.036698
#
#
# Mechanical properties :
#
#
# Convention : Reuss Voigt Hill
#
# Bulk Modulus (GPa) = 19.63856 47.98477 33.81166
# Shear Modulus (GPa) = -29.57678 24.46183 -2.55747
#
# Velocity S-wave (km/s) = -3.59272 3.26733 -1.05646
# Velocity P-wave (km/s) = 2.93934 5.93086 3.64248
#
# Compressibility (1/GPa) = 0.05092023
#
# Stress axis : x y z
#
# Youngs Moduli (GPa) = 47.89055 13.56243 132.61070
#
# Poissons Ratio (x) = 0.30828 0.61397
# Poissons Ratio (y) = 1.08858 -0.23115
# Poissons Ratio (z) = 0.22173 -0.02364
#
# Static dielectric constant tensor:
#      x y z
#    x 1.923710 0.000000 0.000000 
#    y 0.000000 1.891360 0.000000 
#    z 0.000000 0.000000 1.934310 
# 
# From -- ./inp_files/21512.got.cif
#   From: 2010.05.17/outbox.cif.g08.bks.cpg/sg58_11_cif.got.tgz:21512.got - 2010.06.03 14:20:14.
