data_PCOD9442295
_publ_section_title
;
Structure prediction by ZEFSAII (Michael W. Deem and Ramdas Pophale) SiO2 
 PCOD9442295
Probable space group: P N N M
;
_chemical_formula_sum "Si O2"
_cell_formula_units_Z 48
_cell_length_a 10.570507
_cell_length_b 8.942979
_cell_length_c 23.483992
_cell_angle_alpha 90.000000
_cell_angle_beta 90.000000
_cell_angle_gamma 90.000000
_cell_volume 2219.984554
_symmetry_space_group_name_H-M "P N N M"
_symmetry_group_IT_number 58
_symmetry_cell_setting 'orthorhombic'
loop_
_space_group_symop_operation_xyz
x,y,z
-x,-y,z
1/2+x,1/2-y,1/2-z
1/2-x,1/2+y,1/2-z
-x,-y,-z
x,y,-z
1/2-x,1/2+y,1/2+z
1/2+x,1/2-y,1/2+z
loop_
_atom_site_type_symbol
_atom_site_label
_atom_site_fract_x
_atom_site_fract_y
_atom_site_fract_z
Si Si1 0.733106 0.675164 0.729323
Si Si2 0.380008 0.609531 0.293123
Si Si3 0.009452 0.323515 0.434470
Si Si4 0.374841 0.399071 0.146291
Si Si5 0.466186 0.171688 0.354326
Si Si6 0.257663 0.132959 0.565868
O O1 0.735370 0.508602 0.702609
O O2 0.855717 0.776882 0.740717
O O3 0.682194 0.646014 0.793204
O O4 0.637160 0.773211 0.692019
O O5 0.500000 0.500000 0.285512
O O6 0.416722 0.716114 0.345483
O O7 0.976549 0.282093 0.500000
O O8 0.151683 0.260839 0.425306
O O9 0.000000 0.500000 0.428763
O O10 0.918756 0.241585 0.390495
O O11 0.500000 0.500000 0.153948
O O12 0.280843 0.498404 0.107824
O O13 0.395550 0.185268 0.414302
O O14 0.500000 0.000000 0.343544
O O15 0.254072 0.088430 0.500000
#
# Coordination Sequence:
#
# PCOD9442295 Si02
#       6
#     8   8   8   8   8   8
#     4  11  22  39  61  85 121 159 196 251 317 371
#     4  10  22  38  58  84 117 155 198 246 303 371
#     4   9  19  35  56  85 117 149 195 255 311 360
#     4  10  19  34  58  87 116 153 203 253 308 372
#     4  11  23  39  60  88 121 158 205 256 304 367
#     4  10  21  38  60  85 120 167 211 253 301 359
#
# _framework density 21.621773000000001
#
# number of rings (size 3 to 8) (size 9 to 14) (size 15 to 20)
#    0.000    1.833    0.000    5.000    0.000    8.333 
#    0.000    0.000    0.000    4.500    0.000    0.000 
#    0.000    0.000    0.000    0.000    0.000    0.000 
#
# Total GULP energy -268162.070440 kJ/mol
# GULP energy per Si atom -5586.709801 kJ/mol
# Density = 2.157256 g / cm^3
# Si number density = 21.621773 Si / 1000 Ang^3
#
#
#
# Elastic Constant Matrix: (Units=GPa)
#
#
# Indices 1 2 3 4 5 6 
#
# 1 39.2023 29.0925 17.3944 0.0000 0.0000 0.0000
# 2 29.0925 126.4857 48.1209 0.0000 0.0000 0.0000
# 3 17.3944 48.1209 97.6505 0.0000 0.0000 0.0000
# 4 0.0000 0.0000 0.0000 31.5420 0.0000 0.0000
# 5 0.0000 0.0000 0.0000 0.0000 38.5279 0.0000
# 6 0.0000 0.0000 0.0000 0.0000 0.0000 37.0749
#
#
#
# Elastic Compliance Matrix: (Units=1/GPa)
#
#
# Indices 1 2 3 4 5 6 
#
# 1 0.031244 -0.006239 -0.002491 0.000000 0.000000 0.000000
# 2 -0.006239 0.010976 -0.004298 0.000000 0.000000 0.000000
# 3 -0.002491 -0.004298 0.012802 0.000000 0.000000 0.000000
# 4 0.000000 0.000000 0.000000 0.031704 0.000000 0.000000
# 5 0.000000 0.000000 0.000000 0.000000 0.025955 0.000000
# 6 0.000000 0.000000 0.000000 0.000000 0.000000 0.026972
#
#
# Mechanical properties :
#
#
# Convention : Reuss Voigt Hill
#
# Bulk Modulus (GPa) = 34.52159 50.28377 42.40268
# Shear Modulus (GPa) = 28.51223 32.67767 30.59495
#
# Velocity S-wave (km/s) = 3.63530 3.89180 3.76574
# Velocity P-wave (km/s) = 5.79839 6.59556 6.20978
#
# Compressibility (1/GPa) = 0.02896738
#
# Stress axis : x y z
#
# Youngs Moduli (GPa) = 32.00641 91.10863 78.11209
#
# Poissons Ratio (x) = 0.56838 0.19459
# Poissons Ratio (y) = 0.19967 0.33569
# Poissons Ratio (z) = 0.07973 0.39154
#
# Static dielectric constant tensor:
#      x y z
#    x 1.891470 0.000000 0.000000 
#    y 0.000000 1.821600 0.000000 
#    z 0.000000 0.000000 1.757210 
# 
# From -- ./inp_files/31906.got.cif
#   From: 2010.05.17/outbox.cif.g08.bks.cpg/sg58_16_cif.got.tgz:31906.got - 2010.06.03 14:20:14.
