data_PCOD9442030
_publ_section_title
;
Structure prediction by ZEFSAII (Michael W. Deem and Ramdas Pophale) SiO2 
 PCOD9442030
Probable space group: P N N M
;
_chemical_formula_sum "Si O2"
_cell_formula_units_Z 64
_cell_length_a 10.602996
_cell_length_b 33.113225
_cell_length_c 7.606069
_cell_angle_alpha 90.000000
_cell_angle_beta 90.000000
_cell_angle_gamma 90.000000
_cell_volume 2670.486203
_symmetry_space_group_name_H-M "P N N M"
_symmetry_group_IT_number 58
_symmetry_cell_setting 'orthorhombic'
loop_
_space_group_symop_operation_xyz
x,y,z
-x,-y,z
1/2+x,1/2-y,1/2-z
1/2-x,1/2+y,1/2-z
-x,-y,-z
x,y,-z
1/2-x,1/2+y,1/2+z
1/2+x,1/2-y,1/2+z
loop_
_atom_site_type_symbol
_atom_site_label
_atom_site_fract_x
_atom_site_fract_y
_atom_site_fract_z
Si Si1 0.241377 0.543566 0.788404
Si Si2 0.494524 0.740055 0.211667
Si Si3 0.200699 0.456207 0.302512
Si Si4 0.133330 0.370295 0.800600
Si Si5 0.093696 0.847999 0.713677
Si Si6 0.857201 0.369627 0.217269
Si Si7 0.483772 0.435419 0.786771
Si Si8 0.239439 0.712231 0.795592
O O1 0.170915 0.502513 0.738942
O O2 0.181569 0.585581 0.727426
O O3 0.387415 0.543881 0.728138
O O4 0.244398 0.544539 0.000000
O O5 0.536064 0.694603 0.261961
O O6 0.348988 0.741864 0.273622
O O7 0.600359 0.769450 0.285309
O O8 0.502609 0.745142 0.000000
O O9 0.163152 0.447096 0.500000
O O10 0.144906 0.419155 0.193015
O O11 0.352254 0.452589 0.281640
O O12 0.263065 0.354135 0.719566
O O13 0.998941 0.360295 0.720516
O O14 0.130508 0.354752 0.000000
O O15 0.098248 0.848859 0.500000
O O16 0.016124 0.888005 0.762284
O O17 0.767693 0.333191 0.276940
O O18 0.857197 0.369826 0.000000
O O19 0.477609 0.438559 0.000000
O O20 0.273373 0.707174 0.000000
#
# Coordination Sequence:
#
# PCOD9442030 Si02
#       8
#     8   8   8   8   8   8   8   8
#     4  10  19  33  55  79 104 138 183 236 283 328
#     4  10  21  37  59  89 122 156 190 234 290 349
#     4  11  22  34  49  76 112 146 180 224 279 341
#     4   9  18  35  58  81 104 140 189 237 279 326
#     4   8  15  30  55  80 105 139 184 229 275 328
#     4   9  19  36  60  84 105 138 189 242 282 324
#     4   9  17  32  55  79 103 137 183 233 280 329
#     4  10  22  39  60  89 121 151 192 240 289 347
#
# _framework density 23.965672000000001
#
# number of rings (size 3 to 8) (size 9 to 14) (size 15 to 20)
#    0.000    2.500    0.000    3.000    1.750    6.000 
#    0.000    6.875    0.000    4.500    0.000    0.000 
#    0.000    0.000    0.000    0.000    0.000    0.000 
#
# Total GULP energy -357497.211650 kJ/mol
# GULP energy per Si atom -5585.893932 kJ/mol
# Density = 2.391113 g / cm^3
# Si number density = 23.965672 Si / 1000 Ang^3
#
#
#
# Elastic Constant Matrix: (Units=GPa)
#
#
# Indices 1 2 3 4 5 6 
#
# 1 75.9535 13.1141 -4.7008 0.0000 0.0000 0.0000
# 2 13.1141 58.1846 -12.4912 0.0000 0.0000 0.0000
# 3 -4.7008 -12.4912 54.1124 0.0000 0.0000 0.0000
# 4 0.0000 0.0000 0.0000 17.3719 0.0000 0.0000
# 5 0.0000 0.0000 0.0000 0.0000 -13.9593 0.0000
# 6 0.0000 0.0000 0.0000 0.0000 0.0000 21.4883
#
#
#
# Elastic Compliance Matrix: (Units=1/GPa)
#
#
# Indices 1 2 3 4 5 6 
#
# 1 0.013712 -0.002983 0.000503 0.000000 0.000000 0.000000
# 2 -0.002983 0.018732 0.004065 0.000000 0.000000 0.000000
# 3 0.000503 0.004065 0.019462 0.000000 0.000000 0.000000
# 4 0.000000 0.000000 0.000000 0.057564 0.000000 0.000000
# 5 0.000000 0.000000 0.000000 0.000000 -0.071637 0.000000
# 6 0.000000 0.000000 0.000000 0.000000 0.000000 0.046537
#
#
# Mechanical properties :
#
#
# Convention : Reuss Voigt Hill
#
# Bulk Modulus (GPa) = 18.15688 20.01052 19.08370
# Shear Modulus (GPa) = 50.22169 17.80208 34.01189
#
# Velocity S-wave (km/s) = 4.58270 2.72842 3.77130
# Velocity P-wave (km/s) = 5.96609 4.27709 5.19075
#
# Compressibility (1/GPa) = 0.05507553
#
# Stress axis : x y z
#
# Youngs Moduli (GPa) = 72.92866 53.38580 51.38206
#
# Poissons Ratio (x) = 0.15923 -0.02583
# Poissons Ratio (y) = 0.21752 -0.20886
# Poissons Ratio (z) = -0.03666 -0.21701
#
# Static dielectric constant tensor:
#      x y z
#    x 1.927040 0.000000 0.000000 
#    y 0.000000 1.912700 0.000000 
#    z 0.000000 0.000000 1.931190 
# 
# From -- ./inp_files/4645.got.cif
#   From: 2010.05.17/outbox.cif.g08.bks.cpg/sg58_3_cif.got.tgz:4645.got - 2010.06.03 14:20:14.
