data_PCOD9442943
_publ_section_title
;
Structure prediction by ZEFSAII (Michael W. Deem and Ramdas Pophale) SiO2 
 PCOD9442943
Probable space group: P N N M
;
_chemical_formula_sum "Si O2"
_cell_formula_units_Z 64
_cell_length_a 14.614155
_cell_length_b 25.031582
_cell_length_c 7.451221
_cell_angle_alpha 90.000000
_cell_angle_beta 90.000000
_cell_angle_gamma 90.000000
_cell_volume 2725.771534
_symmetry_space_group_name_H-M "P N N M"
_symmetry_group_IT_number 58
_symmetry_cell_setting 'orthorhombic'
loop_
_space_group_symop_operation_xyz
x,y,z
-x,-y,z
1/2+x,1/2-y,1/2-z
1/2-x,1/2+y,1/2-z
-x,-y,-z
x,y,-z
1/2-x,1/2+y,1/2+z
1/2+x,1/2-y,1/2+z
loop_
_atom_site_type_symbol
_atom_site_label
_atom_site_fract_x
_atom_site_fract_y
_atom_site_fract_z
Si Si1 0.686467 0.097979 0.710950
Si Si2 0.316472 0.317148 0.205428
Si Si3 0.183956 0.997950 0.796118
Si Si4 0.952799 0.085382 0.780972
Si Si5 0.786266 0.397902 0.280005
Si Si6 0.023978 0.746990 0.286630
Si Si7 0.011306 0.627356 0.716650
Si Si8 0.613602 0.342331 0.715023
O O1 0.709139 0.095831 0.500000
O O2 0.725110 0.155297 0.781753
O O3 0.741685 0.049870 0.799582
O O4 0.578309 0.094904 0.730611
O O5 0.386402 0.367499 0.212084
O O6 0.380109 0.270990 0.287237
O O7 0.295533 0.301445 0.000000
O O8 0.093094 0.969839 0.719408
O O9 0.235881 0.048386 0.716855
O O10 0.159000 0.013699 0.000000
O O11 0.052820 0.106026 0.727750
O O12 0.948576 0.085370 0.000000
O O13 0.789547 0.398858 0.500000
O O14 0.890316 0.393281 0.220060
O O15 0.717920 0.349947 0.226095
O O16 0.038310 0.742479 0.500000
O O17 0.942305 0.789437 0.263689
O O18 0.001457 0.688420 0.218233
O O19 0.012512 0.627345 0.500000
O O20 0.614293 0.343163 0.500000
#
# Coordination Sequence:
#
# PCOD9442943 Si02
#       8
#     8   8   8   8   8   8   8   8
#     4  10  20  34  53  76  99 127 167 211 253 294
#     4   8  15  29  49  71  95 123 156 195 240 293
#     4   9  17  32  53  75 101 133 167 203 248 299
#     4   8  14  25  46  76 103 125 154 197 243 288
#     4   9  19  34  52  74 100 134 172 205 242 297
#     4   9  18  33  52  73  98 129 162 199 247 299
#     4  10  21  36  51  69  96 131 172 210 243 289
#     4   9  17  31  52  78 105 130 161 203 251 302
#
# _framework density 23.479592
#
# number of rings (size 3 to 8) (size 9 to 14) (size 15 to 20)
#    0.000    3.000    0.000    0.375    0.000    3.000 
#    0.000    9.375    0.000    0.000    0.000    8.750 
#    0.000    0.000    0.000    0.000    0.000    0.000 
#
# Total GULP energy -357008.364323 kJ/mol
# GULP energy per Si atom -5578.255693 kJ/mol
# Density = 2.342615 g / cm^3
# Si number density = 23.479592 Si / 1000 Ang^3
#
#
#
# Elastic Constant Matrix: (Units=GPa)
#
#
# Indices 1 2 3 4 5 6 
#
# 1 121.2107 13.1957 -1.7233 0.0000 0.0000 0.0000
# 2 13.1957 59.2895 -3.8129 0.0000 0.0000 0.0000
# 3 -1.7233 -3.8129 77.3100 0.0000 0.0000 0.0000
# 4 0.0000 0.0000 0.0000 7.1790 0.0000 0.0000
# 5 0.0000 0.0000 0.0000 0.0000 0.3801 0.0000
# 6 0.0000 0.0000 0.0000 0.0000 0.0000 26.3071
#
#
#
# Elastic Compliance Matrix: (Units=1/GPa)
#
#
# Indices 1 2 3 4 5 6 
#
# 1 0.008456 -0.001876 0.000096 0.000000 0.000000 0.000000
# 2 -0.001876 0.017336 0.000813 0.000000 0.000000 0.000000
# 3 0.000096 0.000813 0.012977 0.000000 0.000000 0.000000
# 4 0.000000 0.000000 0.000000 0.139294 0.000000 0.000000
# 5 0.000000 0.000000 0.000000 0.000000 2.630566 0.000000
# 6 0.000000 0.000000 0.000000 0.000000 0.000000 0.038013
#
#
# Mechanical properties :
#
#
# Convention : Reuss Voigt Hill
#
# Bulk Modulus (GPa) = 27.14747 30.34769 28.74758
# Shear Modulus (GPa) = 1.74773 23.44996 12.59884
#
# Velocity S-wave (km/s) = 0.86370 3.16371 2.31895
# Velocity P-wave (km/s) = 3.54710 5.12822 4.40911
#
# Compressibility (1/GPa) = 0.03683585
#
# Stress axis : x y z
#
# Youngs Moduli (GPa) = 118.26382 57.68284 77.05835
#
# Poissons Ratio (x) = 0.10820 -0.00740
# Poissons Ratio (y) = 0.22183 -0.06266
# Poissons Ratio (z) = -0.01135 -0.04691
#
# Static dielectric constant tensor:
#      x y z
#    x 1.893980 0.000000 0.000000 
#    y 0.000000 1.903230 0.000000 
#    z 0.000000 0.000000 1.993980 
# 
# From -- ./inp_files/6744.got.cif
#   From: 2010.05.17/outbox.cif.g08.bks.cpg/sg58_4_cif.got.tgz:6744.got - 2010.06.03 14:20:14.
