data_PCOD9442731
_publ_section_title
;
Structure prediction by ZEFSAII (Michael W. Deem and Ramdas Pophale) SiO2 
 PCOD9442731
Probable space group: P N N M
;
_chemical_formula_sum "Si O2"
_cell_formula_units_Z 52
_cell_length_a 12.297904
_cell_length_b 13.561054
_cell_length_c 17.682334
_cell_angle_alpha 90.000000
_cell_angle_beta 90.000000
_cell_angle_gamma 90.000000
_cell_volume 2948.927758
_symmetry_space_group_name_H-M "P N N M"
_symmetry_group_IT_number 58
_symmetry_cell_setting 'orthorhombic'
loop_
_space_group_symop_operation_xyz
x,y,z
-x,-y,z
1/2+x,1/2-y,1/2-z
1/2-x,1/2+y,1/2-z
-x,-y,-z
x,y,-z
1/2-x,1/2+y,1/2+z
1/2+x,1/2-y,1/2+z
loop_
_atom_site_type_symbol
_atom_site_label
_atom_site_fract_x
_atom_site_fract_y
_atom_site_fract_z
Si Si1 0.692862 0.627408 0.768772
Si Si2 0.482274 0.381277 0.500000
Si Si3 0.726631 0.124579 0.000000
Si Si4 0.484152 0.617664 0.335449
Si Si5 0.609082 0.930001 0.000000
Si Si6 0.355614 0.782735 0.845217
Si Si7 0.611425 0.808437 0.155625
Si Si8 0.222003 0.101936 0.267879
O O1 0.590711 0.648041 0.711919
O O2 0.798484 0.654686 0.720623
O O3 0.673925 0.703726 0.836906
O O4 0.701756 0.512086 0.787471
O O5 0.500000 0.500000 0.500000
O O6 0.354444 0.359284 0.500000
O O7 0.525476 0.341678 0.420162
O O8 0.672727 0.169588 0.925464
O O9 0.706878 0.007756 0.000000
O O10 0.500000 0.500000 0.342500
O O11 0.374430 0.632989 0.289647
O O12 0.617161 0.864735 0.924380
O O13 0.500000 0.000000 0.000000
O O14 0.484297 0.785105 0.833462
O O15 0.299926 0.675252 0.837440
O O16 0.667174 0.874797 0.221961
#
# Coordination Sequence:
#
# PCOD9442731 Si02
#       8
#     8   4   4   8   4   8   8   8
#     4  10  20  37  56  78 114 148 189 241 275 342
#     4  10  20  30  54  83 106 141 177 230 283 339
#     4  12  22  36  55  82 120 143 185 236 295 342
#     4   9  17  31  51  78 105 138 176 226 282 322
#     4  12  24  36  55  83 117 155 176 241 291 349
#     4  11  21  36  56  86 112 149 194 234 287 347
#     4  11  23  36  56  85 115 151 196 231 290 349
#     4  10  22  36  59  80 114 152 191 238 289 337
#
# _framework density 17.633527999999998
#
# number of rings (size 3 to 8) (size 9 to 14) (size 15 to 20)
#    0.000    1.538    4.615    0.923    4.308    0.000 
#    0.000    0.769    0.000    1.846    0.000    0.000 
#    0.000    7.692    0.000    0.000    0.000    0.000 
#
# Total GULP energy -289891.930868 kJ/mol
# GULP energy per Si atom -5574.844824 kJ/mol
# Density = 1.759339 g / cm^3
# Si number density = 17.633528 Si / 1000 Ang^3
#
#
#
# Elastic Constant Matrix: (Units=GPa)
#
#
# Indices 1 2 3 4 5 6 
#
# 1 64.1291 23.2281 23.9624 0.0000 0.0000 0.0000
# 2 23.2281 116.5228 54.9558 0.0000 0.0000 0.0000
# 3 23.9624 54.9558 84.6128 0.0000 0.0000 0.0000
# 4 0.0000 0.0000 0.0000 8.4288 0.0000 0.0000
# 5 0.0000 0.0000 0.0000 0.0000 -0.0166 0.0000
# 6 0.0000 0.0000 0.0000 0.0000 0.0000 20.2564
#
#
#
# Elastic Compliance Matrix: (Units=1/GPa)
#
#
# Indices 1 2 3 4 5 6 
#
# 1 0.017663 -0.001675 -0.003914 0.000000 0.000000 0.000000
# 2 -0.001675 0.012531 -0.007664 0.000000 0.000000 0.000000
# 3 -0.003914 -0.007664 0.017905 0.000000 0.000000 0.000000
# 4 0.000000 0.000000 0.000000 0.118640 0.000000 0.000000
# 5 0.000000 0.000000 0.000000 0.000000-60.340065 0.000000
# 6 0.000000 0.000000 0.000000 0.000000 0.000000 0.049367
#
#
# Mechanical properties :
#
#
# Convention : Reuss Voigt Hill
#
# Bulk Modulus (GPa) = 46.31445 52.17305 49.24375
# Shear Modulus (GPa) = -0.08321 16.60829 8.26254
#
# Velocity S-wave (km/s) = -0.21746 3.07230 2.16700
# Velocity P-wave (km/s) = 5.12435 6.49900 5.85218
#
# Compressibility (1/GPa) = 0.02159153
#
# Stress axis : x y z
#
# Youngs Moduli (GPa) = 56.61616 79.80467 55.85031
#
# Poissons Ratio (x) = 0.13366 0.21861
# Poissons Ratio (y) = 0.09482 0.42805
# Poissons Ratio (z) = 0.22161 0.61164
#
# Static dielectric constant tensor:
#      x y z
#    x 1.639380 0.000000 0.000000 
#    y 0.000000 1.622070 0.000000 
#    z 0.000000 0.000000 1.629720 
# 
# From -- ./inp_files/26303.got.cif
#   From: 2010.05.17/outbox.cif.g08.bks.cpg/sg58_14_cif.got.tgz:26303.got - 2010.06.03 14:20:14.
