data_PCOD9442093
_publ_section_title
;
Structure prediction by ZEFSAII (Michael W. Deem and Ramdas Pophale) SiO2 
 PCOD9442093
Probable space group: P N N M
;
_chemical_formula_sum "Si O2"
_cell_formula_units_Z 64
_cell_length_a 9.546433
_cell_length_b 31.210217
_cell_length_c 11.200946
_cell_angle_alpha 90.000000
_cell_angle_beta 90.000000
_cell_angle_gamma 90.000000
_cell_volume 3337.279807
_symmetry_space_group_name_H-M "P N N M"
_symmetry_group_IT_number 58
_symmetry_cell_setting 'orthorhombic'
loop_
_space_group_symop_operation_xyz
x,y,z
-x,-y,z
1/2+x,1/2-y,1/2-z
1/2-x,1/2+y,1/2-z
-x,-y,-z
x,y,-z
1/2-x,1/2+y,1/2+z
1/2+x,1/2-y,1/2+z
loop_
_atom_site_type_symbol
_atom_site_label
_atom_site_fract_x
_atom_site_fract_y
_atom_site_fract_z
Si Si1 0.761746 0.056411 0.858461
Si Si2 0.542072 0.926837 0.861641
Si Si3 0.361890 0.355093 0.250797
Si Si4 0.162041 0.650843 0.786588
Si Si5 0.346133 0.534265 0.358457
Si Si6 0.607482 0.297543 0.642443
Si Si7 0.909243 0.906336 0.630170
Si Si8 0.888964 0.698508 0.138334
O O1 0.601946 0.053607 0.812480
O O2 0.816019 0.103438 0.826706
O O3 0.856387 0.015748 0.822940
O O4 0.757090 0.051646 0.000000
O O5 0.581461 0.884178 0.792145
O O6 0.678209 0.956786 0.859250
O O7 0.517863 0.915869 0.000000
O O8 0.469568 0.323748 0.318424
O O9 0.454476 0.376384 0.145523
O O10 0.226382 0.328877 0.209258
O O11 0.259176 0.680316 0.703411
O O12 0.272286 0.623984 0.865014
O O13 0.042687 0.677888 0.851002
O O14 0.391109 0.542116 0.500000
O O15 0.398953 0.565084 0.251494
O O16 0.619695 0.299966 0.500000
O O17 0.602117 0.247825 0.679441
O O18 0.913326 0.928407 0.500000
O O19 0.845888 0.698596 0.000000
#
# Coordination Sequence:
#
# PCOD9442093 Si02
#       8
#     8   8   8   8   8   8   8   8
#     4  10  19  33  56  87 118 148 190 242 291 346
#     4   9  16  30  55  84 113 143 185 238 288 338
#     4  11  22  38  58  84 118 153 191 237 298 351
#     4  10  19  36  60  81 111 150 196 235 294 347
#     4   9  19  35  59  86 116 155 195 238 292 345
#     4  10  22  38  58  85 116 149 188 243 300 360
#     4  10  22  39  59  83 118 159 199 239 288 352
#     4  11  22  38  58  82 113 150 197 244 294 351
#
# _framework density 19.177295000000001
#
# number of rings (size 3 to 8) (size 9 to 14) (size 15 to 20)
#    0.000    2.000    1.250    2.625    0.000    5.500 
#    0.000    3.125    0.000    7.500    0.000    0.000 
#    0.000    0.000    0.000    0.000    0.000    0.000 
#
# Total GULP energy -356886.515776 kJ/mol
# GULP energy per Si atom -5576.351809 kJ/mol
# Density = 1.913365 g / cm^3
# Si number density = 19.177295 Si / 1000 Ang^3
#
#
#
# Elastic Constant Matrix: (Units=GPa)
#
#
# Indices 1 2 3 4 5 6 
#
# 1 98.6666 33.7464 25.2799 0.0000 0.0000 0.0000
# 2 33.7464 122.7538 41.7997 0.0000 0.0000 0.0000
# 3 25.2799 41.7997 66.7788 0.0000 0.0000 0.0000
# 4 0.0000 0.0000 0.0000 21.0171 0.0000 0.0000
# 5 0.0000 0.0000 0.0000 0.0000 1.8880 0.0000
# 6 0.0000 0.0000 0.0000 0.0000 0.0000 33.0648
#
#
#
# Elastic Compliance Matrix: (Units=1/GPa)
#
#
# Indices 1 2 3 4 5 6 
#
# 1 0.011659 -0.002163 -0.003059 0.000000 0.000000 0.000000
# 2 -0.002163 0.010755 -0.005913 0.000000 0.000000 0.000000
# 3 -0.003059 -0.005913 0.019834 0.000000 0.000000 0.000000
# 4 0.000000 0.000000 0.000000 0.047580 0.000000 0.000000
# 5 0.000000 0.000000 0.000000 0.000000 0.529664 0.000000
# 6 0.000000 0.000000 0.000000 0.000000 0.000000 0.030244
#
#
# Mechanical properties :
#
#
# Convention : Reuss Voigt Hill
#
# Bulk Modulus (GPa) = 50.05927 54.42791 52.24359
# Shear Modulus (GPa) = 7.36740 23.68553 15.52647
#
# Velocity S-wave (km/s) = 1.96216 3.51819 2.84848
# Velocity P-wave (km/s) = 5.59406 6.70422 6.17414
#
# Compressibility (1/GPa) = 0.01997632
#
# Stress axis : x y z
#
# Youngs Moduli (GPa) = 85.77097 92.98431 50.41837
#
# Poissons Ratio (x) = 0.20116 0.15425
# Poissons Ratio (y) = 0.18555 0.29811
# Poissons Ratio (z) = 0.26242 0.54979
#
# Static dielectric constant tensor:
#      x y z
#    x 1.703990 0.000000 0.000000 
#    y 0.000000 1.669910 0.000000 
#    z 0.000000 0.000000 1.648450 
# 
# From -- ./inp_files/13442.got.cif
#   From: 2010.05.17/outbox.cif.g08.bks.cpg/sg58_7_cif.got.tgz:13442.got - 2010.06.03 14:20:14.
