data_PCOD9442794
_publ_section_title
;
Structure prediction by ZEFSAII (Michael W. Deem and Ramdas Pophale) SiO2 
 PCOD9442794
Probable space group: P N N M
;
_chemical_formula_sum "Si O2"
_cell_formula_units_Z 64
_cell_length_a 17.565889
_cell_length_b 11.277299
_cell_length_c 17.456957
_cell_angle_alpha 90.000000
_cell_angle_beta 90.000000
_cell_angle_gamma 90.000000
_cell_volume 3458.149556
_symmetry_space_group_name_H-M "P N N M"
_symmetry_group_IT_number 58
_symmetry_cell_setting 'orthorhombic'
loop_
_space_group_symop_operation_xyz
x,y,z
-x,-y,z
1/2+x,1/2-y,1/2-z
1/2-x,1/2+y,1/2-z
-x,-y,-z
x,y,-z
1/2-x,1/2+y,1/2+z
1/2+x,1/2-y,1/2+z
loop_
_atom_site_type_symbol
_atom_site_label
_atom_site_fract_x
_atom_site_fract_y
_atom_site_fract_z
Si Si1 0.087611 0.986004 0.786660
Si Si2 0.797527 0.672566 0.829189
Si Si3 0.505482 0.354600 0.909019
Si Si4 0.675930 0.894669 0.665972
Si Si5 0.127072 0.762501 0.704534
Si Si6 0.911796 0.829075 0.911485
Si Si7 0.657870 0.315498 0.816887
Si Si8 0.023999 0.629839 0.090266
O O1 0.092833 0.046542 0.868714
O O2 0.139446 0.065887 0.731701
O O3 0.111933 0.852936 0.774600
O O4 0.000000 0.000000 0.762976
O O5 0.811791 0.534743 0.840356
O O6 0.708377 0.701356 0.829630
O O7 0.837206 0.752237 0.893814
O O8 0.834906 0.714047 0.748091
O O9 0.500000 0.500000 0.902810
O O10 0.439966 0.290682 0.856730
O O11 0.587625 0.310882 0.876045
O O12 0.497613 0.327907 0.000000
O O13 0.641926 0.860505 0.750411
O O14 0.756901 0.831780 0.651982
O O15 0.612493 0.857585 0.605476
O O16 0.977484 0.742165 0.877972
O O17 0.924543 0.848808 0.000000
O O18 0.000000 0.500000 0.122008
O O19 0.006277 0.627549 0.000000
#
# Coordination Sequence:
#
# PCOD9442794 Si02
#       8
#     8   8   8   8   8   8   8   8
#     4  11  18  34  60  79 111 144 180 235 277 323
#     4  10  21  35  57  83 112 148 187 231 280 330
#     4  11  21  36  59  85 115 147 185 239 294 339
#     4  11  21  34  58  84 108 152 189 231 283 329
#     4  11  21  36  58  87 113 138 192 241 276 336
#     4  10  22  37  55  82 116 152 183 223 284 339
#     4  10  20  36  55  83 112 141 187 237 279 336
#     4  10  20  33  49  78 114 142 180 226 271 329
#
# _framework density 18.507007999999999
#
# number of rings (size 3 to 8) (size 9 to 14) (size 15 to 20)
#    0.000    1.500    5.000    0.750    1.750    1.250 
#    0.000    0.625    0.000    2.250    0.000    0.000 
#    0.000    0.000    0.000    0.000    0.000    0.000 
#
# Total GULP energy -356669.320754 kJ/mol
# GULP energy per Si atom -5572.958137 kJ/mol
# Density = 1.846489 g / cm^3
# Si number density = 18.507008 Si / 1000 Ang^3
#
#
#
# Elastic Constant Matrix: (Units=GPa)
#
#
# Indices 1 2 3 4 5 6 
#
# 1 109.1594 0.1880 16.2394 0.0000 0.0000 0.0000
# 2 0.1880 18.8849 13.9542 0.0000 0.0000 0.0000
# 3 16.2394 13.9542 63.5815 0.0000 0.0000 0.0000
# 4 0.0000 0.0000 0.0000 11.7476 0.0000 0.0000
# 5 0.0000 0.0000 0.0000 0.0000 14.5767 0.0000
# 6 0.0000 0.0000 0.0000 0.0000 0.0000 20.3929
#
#
#
# Elastic Compliance Matrix: (Units=1/GPa)
#
#
# Indices 1 2 3 4 5 6 
#
# 1 0.009589 0.002046 -0.002898 0.000000 0.000000 0.000000
# 2 0.002046 0.063638 -0.014489 0.000000 0.000000 0.000000
# 3 -0.002898 -0.014489 0.019648 0.000000 0.000000 0.000000
# 4 0.000000 0.000000 0.000000 0.085124 0.000000 0.000000
# 5 0.000000 0.000000 0.000000 0.000000 0.068602 0.000000
# 6 0.000000 0.000000 0.000000 0.000000 0.000000 0.049037
#
#
# Mechanical properties :
#
#
# Convention : Reuss Voigt Hill
#
# Bulk Modulus (GPa) = 16.07925 28.04326 22.06125
# Shear Modulus (GPa) = 14.40711 20.09305 17.25008
#
# Velocity S-wave (km/s) = 2.79313 3.29857 3.05632
# Velocity P-wave (km/s) = 4.37140 5.44914 4.93975
#
# Compressibility (1/GPa) = 0.06219194
#
# Stress axis : x y z
#
# Youngs Moduli (GPa) = 104.29136 15.71385 50.89578
#
# Poissons Ratio (x) = -0.03215 0.14750
# Poissons Ratio (y) = -0.21337 0.73744
# Poissons Ratio (z) = 0.30224 0.22768
#
# Static dielectric constant tensor:
#      x y z
#    x 1.667340 0.000000 0.000000 
#    y 0.000000 1.688690 0.000000 
#    z 0.000000 0.000000 1.658560 
# 
# From -- ./inp_files/26997.got.cif
#   From: 2010.05.17/outbox.cif.g08.bks.cpg/sg58_14_cif.got.tgz:26997.got - 2010.06.03 14:20:14.
