data_PCOD9442032
_publ_section_title
;
Structure prediction by ZEFSAII (Michael W. Deem and Ramdas Pophale) SiO2 
 PCOD9442032
Probable space group: P N N M
;
_chemical_formula_sum "Si O2"
_cell_formula_units_Z 56
_cell_length_a 9.536852
_cell_length_b 21.899046
_cell_length_c 13.129565
_cell_angle_alpha 90.000000
_cell_angle_beta 90.000000
_cell_angle_gamma 90.000000
_cell_volume 2742.082874
_symmetry_space_group_name_H-M "P N N M"
_symmetry_group_IT_number 58
_symmetry_cell_setting 'orthorhombic'
loop_
_space_group_symop_operation_xyz
x,y,z
-x,-y,z
1/2+x,1/2-y,1/2-z
1/2-x,1/2+y,1/2-z
-x,-y,-z
x,y,-z
1/2-x,1/2+y,1/2+z
1/2+x,1/2-y,1/2+z
loop_
_atom_site_type_symbol
_atom_site_label
_atom_site_fract_x
_atom_site_fract_y
_atom_site_fract_z
Si Si1 0.374897 0.047984 0.263769
Si Si2 0.229711 0.767175 0.378755
Si Si3 0.078120 0.934468 0.113802
Si Si4 0.300708 0.444299 0.829626
Si Si5 0.973398 0.856357 0.382623
Si Si6 0.552611 0.142698 0.384901
Si Si7 0.311554 0.635319 0.320091
O O1 0.441512 0.106047 0.319610
O O2 0.289668 0.076729 0.170721
O O3 0.500000 0.000000 0.242093
O O4 0.261051 0.012030 0.332504
O O5 0.237905 0.776002 0.500000
O O6 0.091981 0.806009 0.349542
O O7 0.375164 0.797052 0.338415
O O8 0.235060 0.696005 0.356342
O O9 0.184694 0.929679 0.208320
O O10 0.957792 0.882859 0.126459
O O11 0.138217 0.931408 0.000000
O O12 0.000000 0.000000 0.126056
O O13 0.448246 0.422152 0.873640
O O14 0.185896 0.402956 0.884796
O O15 0.933276 0.845547 0.500000
O O16 0.853852 0.855392 0.298316
O O17 0.501967 0.152917 0.500000
#
# Coordination Sequence:
#
# PCOD9442032 Si02
#       7
#     8   8   8   8   8   8   8
#     4  10  21  34  53  82 118 147 189 226 271 343
#     4   9  19  37  58  81 108 146 193 233 282 339
#     4  10  19  33  55  79 106 142 190 239 276 322
#     4   9  17  34  55  78 112 149 184 227 280 331
#     4   9  20  36  56  84 116 146 187 236 282 337
#     4   9  19  35  57  82 114 149 184 230 280 337
#     4  11  21  34  60  82 109 151 189 230 289 331
#
# _framework density 20.422433000000002
#
# number of rings (size 3 to 8) (size 9 to 14) (size 15 to 20)
#    0.000    2.429    1.429    1.714    2.000    3.714 
#    0.000    0.714    0.000   15.857    0.000    0.000 
#    0.000    0.000    0.000    0.000    0.000    0.000 
#
# Total GULP energy -311966.462312 kJ/mol
# GULP energy per Si atom -5570.829684 kJ/mol
# Density = 2.037595 g / cm^3
# Si number density = 20.422433 Si / 1000 Ang^3
#
#
#
# Elastic Constant Matrix: (Units=GPa)
#
#
# Indices 1 2 3 4 5 6 
#
# 1 70.3276 18.1953 9.9434 0.0000 0.0000 0.0000
# 2 18.1953 92.8777 -9.2711 0.0000 0.0000 0.0000
# 3 9.9434 -9.2711 71.6116 0.0000 0.0000 0.0000
# 4 0.0000 0.0000 0.0000 12.6155 0.0000 0.0000
# 5 0.0000 0.0000 0.0000 0.0000 11.3847 0.0000
# 6 0.0000 0.0000 0.0000 0.0000 0.0000 33.5666
#
#
#
# Elastic Compliance Matrix: (Units=1/GPa)
#
#
# Indices 1 2 3 4 5 6 
#
# 1 0.015431 -0.003279 -0.002567 0.000000 0.000000 0.000000
# 2 -0.003279 0.011605 0.001958 0.000000 0.000000 0.000000
# 3 -0.002567 0.001958 0.014574 0.000000 0.000000 0.000000
# 4 0.000000 0.000000 0.000000 0.079267 0.000000 0.000000
# 5 0.000000 0.000000 0.000000 0.000000 0.087837 0.000000
# 6 0.000000 0.000000 0.000000 0.000000 0.000000 0.029792
#
#
# Mechanical properties :
#
#
# Convention : Reuss Voigt Hill
#
# Bulk Modulus (GPa) = 29.55763 30.28354 29.92059
# Shear Modulus (GPa) = 19.41299 25.91001 22.66150
#
# Velocity S-wave (km/s) = 3.08648 3.56575 3.33474
# Velocity P-wave (km/s) = 5.21597 5.64035 5.43230
#
# Compressibility (1/GPa) = 0.03383221
#
# Stress axis : x y z
#
# Youngs Moduli (GPa) = 64.80668 86.17219 68.61477
#
# Poissons Ratio (x) = 0.28257 0.17614
# Poissons Ratio (y) = 0.21251 -0.13433
# Poissons Ratio (z) = 0.16636 -0.16870
#
# Static dielectric constant tensor:
#      x y z
#    x 1.758110 0.000000 0.000000 
#    y 0.000000 1.775210 0.000000 
#    z 0.000000 0.000000 1.714340 
# 
# From -- ./inp_files/20132.got.cif
#   From: 2010.05.17/outbox.cif.g08.bks.cpg/sg58_11_cif.got.tgz:20132.got - 2010.06.03 14:20:14.
