data_PCOD9442474
_publ_section_title
;
Structure prediction by ZEFSAII (Michael W. Deem and Ramdas Pophale) SiO2 
 PCOD9442474
Probable space group: P N N M
;
_chemical_formula_sum "Si O2"
_cell_formula_units_Z 48
_cell_length_a 13.882119
_cell_length_b 12.456412
_cell_length_c 13.757937
_cell_angle_alpha 90.000000
_cell_angle_beta 90.000000
_cell_angle_gamma 90.000000
_cell_volume 2379.041640
_symmetry_space_group_name_H-M "P N N M"
_symmetry_group_IT_number 58
_symmetry_cell_setting 'orthorhombic'
loop_
_space_group_symop_operation_xyz
x,y,z
-x,-y,z
1/2+x,1/2-y,1/2-z
1/2-x,1/2+y,1/2-z
-x,-y,-z
x,y,-z
1/2-x,1/2+y,1/2+z
1/2+x,1/2-y,1/2+z
loop_
_atom_site_type_symbol
_atom_site_label
_atom_site_fract_x
_atom_site_fract_y
_atom_site_fract_z
Si Si1 0.887809 0.464013 0.110724
Si Si2 0.459675 0.239190 0.280683
Si Si3 0.319683 0.832960 0.721629
Si Si4 0.731333 0.368273 0.391738
Si Si5 0.950004 0.395481 0.392106
Si Si6 0.325544 0.402310 0.618144
O O1 0.894824 0.355033 0.171133
O O2 0.824867 0.554470 0.163965
O O3 0.000000 0.500000 0.106411
O O4 0.855235 0.447001 0.000000
O O5 0.572528 0.214388 0.294965
O O6 0.456391 0.214862 0.165990
O O7 0.415950 0.343927 0.330108
O O8 0.260861 0.736509 0.673394
O O9 0.270226 0.856663 0.825967
O O10 0.700940 0.333383 0.500000
O O11 0.837583 0.418941 0.398393
O O12 0.667960 0.469940 0.361610
O O13 0.991689 0.385114 0.500000
O O14 0.000000 0.500000 0.343606
O O15 0.323061 0.387173 0.500000
#
# Coordination Sequence:
#
# PCOD9442474 Si02
#       6
#     8   8   8   8   8   8
#     4   9  18  33  56  87 117 150 198 253 309 363
#     4  11  21  37  59  89 122 162 205 249 312 378
#     4  11  22  37  63  87 121 161 204 260 313 369
#     4  10  21  38  59  89 121 156 204 255 312 373
#     4  10  19  35  61  89 118 152 203 265 315 365
#     4  11  24  40  60  88 126 166 207 256 317 384
#
# _framework density 20.176192
#
# number of rings (size 3 to 8) (size 9 to 14) (size 15 to 20)
#    0.000    1.667    1.667    4.500    0.000    4.667 
#    0.000    1.667    0.000    1.500    0.000    2.333 
#    0.000    0.000    0.000    0.000    0.000    0.000 
#
# Total GULP energy -267313.305454 kJ/mol
# GULP energy per Si atom -5569.027197 kJ/mol
# Density = 2.013027 g / cm^3
# Si number density = 20.176192 Si / 1000 Ang^3
#
#
#
# Elastic Constant Matrix: (Units=GPa)
#
#
# Indices 1 2 3 4 5 6 
#
# 1 50.0328 1.2081 5.3666 0.0000 0.0000 0.0000
# 2 1.2081 44.0199 17.6443 0.0000 0.0000 0.0000
# 3 5.3666 17.6443 102.7442 0.0000 0.0000 0.0000
# 4 0.0000 0.0000 0.0000 25.6730 0.0000 0.0000
# 5 0.0000 0.0000 0.0000 0.0000 20.1048 0.0000
# 6 0.0000 0.0000 0.0000 0.0000 0.0000 33.8398
#
#
#
# Elastic Compliance Matrix: (Units=1/GPa)
#
#
# Indices 1 2 3 4 5 6 
#
# 1 0.020100 -0.000141 -0.001026 0.000000 0.000000 0.000000
# 2 -0.000141 0.024397 -0.004182 0.000000 0.000000 0.000000
# 3 -0.001026 -0.004182 0.010505 0.000000 0.000000 0.000000
# 4 0.000000 0.000000 0.000000 0.038951 0.000000 0.000000
# 5 0.000000 0.000000 0.000000 0.000000 0.049739 0.000000
# 6 0.000000 0.000000 0.000000 0.000000 0.000000 0.029551
#
#
# Mechanical properties :
#
#
# Convention : Reuss Voigt Hill
#
# Bulk Modulus (GPa) = 22.57084 27.24832 24.90958
# Shear Modulus (GPa) = 25.16233 27.42871 26.29552
#
# Velocity S-wave (km/s) = 3.53530 3.69108 3.61403
# Velocity P-wave (km/s) = 5.27974 5.63027 5.45782
#
# Compressibility (1/GPa) = 0.04430496
#
# Stress axis : x y z
#
# Youngs Moduli (GPa) = 49.75052 40.98813 95.19511
#
# Poissons Ratio (x) = 0.00576 0.09765
# Poissons Ratio (y) = 0.00699 0.39815
# Poissons Ratio (z) = 0.05103 0.17143
#
# Static dielectric constant tensor:
#      x y z
#    x 1.819320 0.000000 0.000000 
#    y 0.000000 1.745810 0.000000 
#    z 0.000000 0.000000 1.781440 
# 
# From -- ./inp_files/22133.got.cif
#   From: 2010.05.17/outbox.cif.g08.bks.cpg/sg58_12_cif.got.tgz:22133.got - 2010.06.03 14:20:14.
