data_PCOD9442237
_publ_section_title
;
Structure prediction by ZEFSAII (Michael W. Deem and Ramdas Pophale) SiO2 
 PCOD9442237
Probable space group: P N N M
;
_chemical_formula_sum "Si O2"
_cell_formula_units_Z 64
_cell_length_a 11.901973
_cell_length_b 34.191436
_cell_length_c 8.548203
_cell_angle_alpha 90.000000
_cell_angle_beta 90.000000
_cell_angle_gamma 90.000000
_cell_volume 3478.653155
_symmetry_space_group_name_H-M "P N N M"
_symmetry_group_IT_number 58
_symmetry_cell_setting 'orthorhombic'
loop_
_space_group_symop_operation_xyz
x,y,z
-x,-y,z
1/2+x,1/2-y,1/2-z
1/2-x,1/2+y,1/2-z
-x,-y,-z
x,y,-z
1/2-x,1/2+y,1/2+z
1/2+x,1/2-y,1/2+z
loop_
_atom_site_type_symbol
_atom_site_label
_atom_site_fract_x
_atom_site_fract_y
_atom_site_fract_z
Si Si1 0.086822 0.444314 0.311361
Si Si2 0.215183 0.368844 0.811034
Si Si3 0.320381 0.170738 0.814677
Si Si4 0.808361 0.904214 0.312725
Si Si5 0.607781 0.285914 0.186846
Si Si6 0.469156 0.361859 0.189787
Si Si7 0.838474 0.470207 0.311316
Si Si8 0.945305 0.700998 0.813295
O O1 0.087818 0.442435 0.500000
O O2 0.145025 0.406118 0.244791
O O3 0.150570 0.484378 0.265269
O O4 0.956597 0.449835 0.263906
O O5 0.343659 0.369612 0.752973
O O6 0.151834 0.329201 0.762616
O O7 0.216598 0.369204 0.000000
O O8 0.273091 0.128941 0.758463
O O9 0.223894 0.201779 0.768686
O O10 0.435857 0.182081 0.731867
O O11 0.337232 0.170136 0.000000
O O12 0.803494 0.901091 0.500000
O O13 0.934666 0.892659 0.261737
O O14 0.763736 0.946089 0.259426
O O15 0.516462 0.318998 0.232702
O O16 0.569611 0.242937 0.233777
O O17 0.623423 0.288706 0.000000
O O18 0.464980 0.362866 0.000000
O O19 0.832489 0.468658 0.500000
O O20 0.938888 0.705946 0.000000
#
# Coordination Sequence:
#
# PCOD9442237 Si02
#       8
#     8   8   8   8   8   8   8   8
#     4   9  19  35  54  80 112 145 180 224 274 330
#     4  10  21  37  56  78 109 146 181 223 274 333
#     4  11  22  37  56  78 110 146 182 227 279 330
#     4  10  19  34  57  82 107 139 185 232 273 327
#     4  10  21  38  59  81 108 142 185 233 281 332
#     4   8  18  37  56  75 106 146 180 219 274 330
#     4   9  18  34  56  80 111 145 179 223 278 332
#     4  11  23  36  55  84 112 141 184 232 279 336
#
# _framework density 18.397925000000001
#
# number of rings (size 3 to 8) (size 9 to 14) (size 15 to 20)
#    0.000    2.250    0.000    4.500    1.750    4.000 
#    0.000    5.625    0.000    3.750    0.000    0.000 
#    0.000    0.000    0.000    0.000    0.000    0.000 
#
# Total GULP energy -357290.320702 kJ/mol
# GULP energy per Si atom -5582.661261 kJ/mol
# Density = 1.835605 g / cm^3
# Si number density = 18.397925 Si / 1000 Ang^3
#
#
#
# Elastic Constant Matrix: (Units=GPa)
#
#
# Indices 1 2 3 4 5 6 
#
# 1 61.2983 26.6366 2.2196 0.0000 0.0000 0.0000
# 2 26.6366 72.0246 10.4821 0.0000 0.0000 0.0000
# 3 2.2196 10.4821 19.3461 0.0000 0.0000 0.0000
# 4 0.0000 0.0000 0.0000 30.9150 0.0000 0.0000
# 5 0.0000 0.0000 0.0000 0.0000 19.1268 0.0000
# 6 0.0000 0.0000 0.0000 0.0000 0.0000 14.6692
#
#
#
# Elastic Compliance Matrix: (Units=1/GPa)
#
#
# Indices 1 2 3 4 5 6 
#
# 1 0.019496 -0.007474 0.001813 0.000000 0.000000 0.000000
# 2 -0.007474 0.017938 -0.008862 0.000000 0.000000 0.000000
# 3 0.001813 -0.008862 0.056283 0.000000 0.000000 0.000000
# 4 0.000000 0.000000 0.000000 0.032347 0.000000 0.000000
# 5 0.000000 0.000000 0.000000 0.000000 0.052283 0.000000
# 6 0.000000 0.000000 0.000000 0.000000 0.000000 0.068170
#
#
# Mechanical properties :
#
#
# Convention : Reuss Voigt Hill
#
# Bulk Modulus (GPa) = 15.46275 25.70507 20.58391
# Shear Modulus (GPa) = 16.82827 20.49759 18.66293
#
# Velocity S-wave (km/s) = 3.02765 3.34147 3.18843
# Velocity P-wave (km/s) = 4.54369 5.37488 4.97667
#
# Compressibility (1/GPa) = 0.06467156
#
# Stress axis : x y z
#
# Youngs Moduli (GPa) = 51.29330 55.74808 17.76721
#
# Poissons Ratio (x) = 0.41665 -0.03221
# Poissons Ratio (y) = 0.38336 0.15745
# Poissons Ratio (z) = -0.09298 0.49402
#
# Static dielectric constant tensor:
#      x y z
#    x 1.628190 0.000000 0.000000 
#    y 0.000000 1.617780 0.000000 
#    z 0.000000 0.000000 1.626720 
# 
# From -- ./inp_files/4677.got.cif
#   From: 2010.05.17/outbox.cif.g08.bks.cpg/sg58_3_cif.got.tgz:4677.got - 2010.06.03 14:20:14.
