data_PCOD9442173
_publ_section_title
;
Structure prediction by ZEFSAII (Michael W. Deem and Ramdas Pophale) SiO2 
 PCOD9442173
Probable space group: P N N M
;
_chemical_formula_sum "Si O2"
_cell_formula_units_Z 64
_cell_length_a 33.897296
_cell_length_b 10.801016
_cell_length_c 7.693386
_cell_angle_alpha 90.000000
_cell_angle_beta 90.000000
_cell_angle_gamma 90.000000
_cell_volume 2816.742768
_symmetry_space_group_name_H-M "P N N M"
_symmetry_group_IT_number 58
_symmetry_cell_setting 'orthorhombic'
loop_
_space_group_symop_operation_xyz
x,y,z
-x,-y,z
1/2+x,1/2-y,1/2-z
1/2-x,1/2+y,1/2-z
-x,-y,-z
x,y,-z
1/2-x,1/2+y,1/2+z
1/2+x,1/2-y,1/2+z
loop_
_atom_site_type_symbol
_atom_site_label
_atom_site_fract_x
_atom_site_fract_y
_atom_site_fract_z
Si Si1 0.667980 0.297658 0.297374
Si Si2 0.664126 0.747672 0.213522
Si Si3 0.423150 0.263962 0.200116
Si Si4 0.584033 0.248505 0.298610
Si Si5 0.504064 0.355739 0.195469
Si Si6 0.778754 0.024586 0.298627
Si Si7 0.309970 0.979968 0.801657
Si Si8 0.546652 0.996348 0.287910
O O1 0.669081 0.332659 0.500000
O O2 0.623479 0.307443 0.223077
O O3 0.697111 0.396194 0.210832
O O4 0.678780 0.151963 0.282128
O O5 0.620090 0.710174 0.272476
O O6 0.695231 0.641605 0.265086
O O7 0.674191 0.888320 0.271221
O O8 0.663862 0.749913 0.000000
O O9 0.463713 0.311447 0.284000
O O10 0.430424 0.118027 0.207737
O O11 0.423328 0.309939 0.000000
O O12 0.594000 0.225924 0.500000
O O13 0.544749 0.328529 0.288625
O O14 0.569606 0.117775 0.226807
O O15 0.500000 0.500000 0.178412
O O16 0.506627 0.299543 0.000000
O O17 0.769104 0.050068 0.500000
O O18 0.737381 0.011715 0.202617
O O19 0.324176 0.972157 0.000000
O O20 0.547948 0.989198 0.500000
O O21 0.500000 0.000000 0.241763
#
# Coordination Sequence:
#
# PCOD9442173 Si02
#       8
#     8   8   8   8   8   8   8   8
#     4  11  24  41  61  91 128 164 208 256 301 363
#     4   9  21  39  61  89 121 156 197 249 304 365
#     4  10  20  36  57  83 114 148 192 241 291 348
#     4  10  22  39  58  82 117 158 198 246 297 350
#     4  10  22  36  55  82 113 152 197 248 296 350
#     4  11  23  41  67  94 123 162 201 250 315 374
#     4  11  22  41  67  94 124 159 200 250 311 376
#     4  10  19  34  55  79 110 147 190 237 291 347
#
# _framework density 22.721278999999999
#
# number of rings (size 3 to 8) (size 9 to 14) (size 15 to 20)
#    0.000    1.750    1.250    2.625    1.750    3.000 
#    0.000    3.750    0.000    0.000    0.000    0.000 
#    0.000    0.000    0.000    0.000    0.000    0.000 
#
# Total GULP energy -357353.070778 kJ/mol
# GULP energy per Si atom -5583.641731 kJ/mol
# Density = 2.266956 g / cm^3
# Si number density = 22.721279 Si / 1000 Ang^3
#
#
#
# Elastic Constant Matrix: (Units=GPa)
#
#
# Indices 1 2 3 4 5 6 
#
# 1 135.8794 20.6471 -6.8014 0.0000 0.0000 0.0000
# 2 20.6471 80.7661 -7.5196 0.0000 0.0000 0.0000
# 3 -6.8014 -7.5196 43.4927 0.0000 0.0000 0.0000
# 4 0.0000 0.0000 0.0000 -28.9742 0.0000 0.0000
# 5 0.0000 0.0000 0.0000 0.0000 5.7397 0.0000
# 6 0.0000 0.0000 0.0000 0.0000 0.0000 -296.9371
#
#
#
# Elastic Compliance Matrix: (Units=1/GPa)
#
#
# Indices 1 2 3 4 5 6 
#
# 1 0.007690 -0.001884 0.000877 0.000000 0.000000 0.000000
# 2 -0.001884 0.013046 0.001961 0.000000 0.000000 0.000000
# 3 0.000877 0.001961 0.023468 0.000000 0.000000 0.000000
# 4 0.000000 0.000000 0.000000 -0.034513 0.000000 0.000000
# 5 0.000000 0.000000 0.000000 0.000000 0.174225 0.000000
# 6 0.000000 0.000000 0.000000 0.000000 0.000000 -0.003368
#
#
# Mechanical properties :
#
#
# Convention : Reuss Voigt Hill
#
# Bulk Modulus (GPa) = 21.68693 30.31004 25.99848
# Shear Modulus (GPa) = 25.77174 -47.11352 -10.67089
#
# Velocity S-wave (km/s) = 3.37153 -4.55856 -2.16948
# Velocity P-wave (km/s) = 4.97210 3.78660 2.27853
#
# Compressibility (1/GPa) = 0.04611073
#
# Stress axis : x y z
#
# Youngs Moduli (GPa) = 130.04485 76.65385 42.61034
#
# Poissons Ratio (x) = 0.14443 -0.03736
# Poissons Ratio (y) = 0.24503 -0.08355
# Poissons Ratio (z) = -0.11402 -0.15031
#
# Static dielectric constant tensor:
#      x y z
#    x 1.895210 0.000000 0.000000 
#    y 0.000000 1.745500 0.000000 
#    z 0.000000 0.000000 1.857650 
# 
# From -- ./inp_files/11027.got.cif
#   From: 2010.05.17/outbox.cif.g08.bks.cpg/sg58_6_cif.got.tgz:11027.got - 2010.06.03 14:20:14.
