data_PCOD9442125
_publ_section_title
;
Structure prediction by ZEFSAII (Michael W. Deem and Ramdas Pophale) SiO2 
 PCOD9442125
Probable space group: P N N M
;
_chemical_formula_sum "Si O2"
_cell_formula_units_Z 64
_cell_length_a 20.360047
_cell_length_b 19.349467
_cell_length_c 7.768207
_cell_angle_alpha 90.000000
_cell_angle_beta 90.000000
_cell_angle_gamma 90.000000
_cell_volume 3060.332204
_symmetry_space_group_name_H-M "P N N M"
_symmetry_group_IT_number 58
_symmetry_cell_setting 'orthorhombic'
loop_
_space_group_symop_operation_xyz
x,y,z
-x,-y,z
1/2+x,1/2-y,1/2-z
1/2-x,1/2+y,1/2-z
-x,-y,-z
x,y,-z
1/2-x,1/2+y,1/2+z
1/2+x,1/2-y,1/2+z
loop_
_atom_site_type_symbol
_atom_site_label
_atom_site_fract_x
_atom_site_fract_y
_atom_site_fract_z
Si Si1 0.258114 0.182518 0.293351
Si Si2 0.677446 0.054639 0.202792
Si Si3 0.437023 0.044456 0.210622
Si Si4 0.442232 0.548897 0.702401
Si Si5 0.409178 0.197919 0.792672
Si Si6 0.207952 0.034929 0.298587
Si Si7 0.022732 0.205323 0.291347
Si Si8 0.650094 0.208161 0.789099
O O1 0.250778 0.179615 0.500000
O O2 0.332884 0.200531 0.253198
O O3 0.236785 0.107105 0.225114
O O4 0.207961 0.240861 0.230839
O O5 0.661726 0.130368 0.273778
O O6 0.628374 0.995467 0.270349
O O7 0.751802 0.029014 0.222657
O O8 0.663217 0.058855 0.000000
O O9 0.436586 0.123714 0.268982
O O10 0.500000 0.000000 0.263261
O O11 0.437244 0.046568 0.000000
O O12 0.500000 0.500000 0.773823
O O13 0.436463 0.534642 0.500000
O O14 0.370167 0.534895 0.777285
O O15 0.461871 0.628666 0.727890
O O16 0.454270 0.261132 0.731970
O O17 0.413849 0.197716 0.000000
O O18 0.222881 0.033577 0.500000
O O19 0.022921 0.201677 0.500000
O O20 0.081056 0.257599 0.240206
O O21 0.651208 0.206822 0.000000
#
# Coordination Sequence:
#
# PCOD9442125 Si02
#       8
#     8   8   8   8   8   8   8   8
#     4  10  20  36  57  79 111 155 194 233 288 350
#     4  10  19  33  58  87 117 151 195 246 291 343
#     4   9  16  28  49  81 114 147 187 232 277 328
#     4  11  25  43  64  89 116 151 199 251 304 358
#     4  10  20  33  55  86 116 147 188 235 281 341
#     4  11  22  39  62  85 116 157 198 243 299 357
#     4  10  20  38  61  87 121 158 197 239 291 353
#     4   9  18  35  58  84 111 151 197 237 287 347
#
# _framework density 20.912763000000002
#
# number of rings (size 3 to 8) (size 9 to 14) (size 15 to 20)
#    0.000    2.000    2.500    1.500    0.000    6.000 
#    0.000    5.000    0.000    3.000    0.000    0.000 
#    0.000    0.000    0.000    0.000    0.000    0.000 
#
# Total GULP energy -357477.827318 kJ/mol
# GULP energy per Si atom -5585.591052 kJ/mol
# Density = 2.086516 g / cm^3
# Si number density = 20.912763 Si / 1000 Ang^3
#
#
#
# Elastic Constant Matrix: (Units=GPa)
#
#
# Indices 1 2 3 4 5 6 
#
# 1 122.6898 36.9187 -15.3097 0.0000 0.0000 0.0000
# 2 36.9187 99.3192 -5.0522 0.0000 0.0000 0.0000
# 3 -15.3097 -5.0522 23.3962 0.0000 0.0000 0.0000
# 4 0.0000 0.0000 0.0000 15.5338 0.0000 0.0000
# 5 0.0000 0.0000 0.0000 0.0000 24.5709 0.0000
# 6 0.0000 0.0000 0.0000 0.0000 0.0000 41.4816
#
#
#
# Elastic Compliance Matrix: (Units=1/GPa)
#
#
# Indices 1 2 3 4 5 6 
#
# 1 0.009884 -0.003382 0.005738 0.000000 0.000000 0.000000
# 2 -0.003382 0.011338 0.000235 0.000000 0.000000 0.000000
# 3 0.005738 0.000235 0.046547 0.000000 0.000000 0.000000
# 4 0.000000 0.000000 0.000000 0.064376 0.000000 0.000000
# 5 0.000000 0.000000 0.000000 0.000000 0.040699 0.000000
# 6 0.000000 0.000000 0.000000 0.000000 0.000000 0.024107
#
#
# Mechanical properties :
#
#
# Convention : Reuss Voigt Hill
#
# Bulk Modulus (GPa) = 13.70803 30.94654 22.32729
# Shear Modulus (GPa) = 23.13884 31.57383 27.35633
#
# Velocity S-wave (km/s) = 3.32994 3.88981 3.62071
# Velocity P-wave (km/s) = 4.62101 5.91644 5.30839
#
# Compressibility (1/GPa) = 0.07294996
#
# Stress axis : x y z
#
# Youngs Moduli (GPa) = 101.16970 88.20075 21.48356
#
# Poissons Ratio (x) = 0.29832 -0.12326
# Poissons Ratio (y) = 0.34219 -0.00505
# Poissons Ratio (z) = -0.58048 -0.02073
#
# Static dielectric constant tensor:
#      x y z
#    x 1.736130 0.000000 0.000000 
#    y 0.000000 1.737950 0.000000 
#    z 0.000000 0.000000 1.782920 
# 
# From -- ./inp_files/16656.got.cif
#   From: 2010.05.17/outbox.cif.g08.bks.cpg/sg58_9_cif.got.tgz:16656.got - 2010.06.03 14:20:14.
