data_PCOD9442397
_publ_section_title
;
Structure prediction by ZEFSAII (Michael W. Deem and Ramdas Pophale) SiO2 
 PCOD9442397
Probable space group: P N N M
;
_chemical_formula_sum "Si O2"
_cell_formula_units_Z 40
_cell_length_a 13.061224
_cell_length_b 4.915106
_cell_length_c 27.849932
_cell_angle_alpha 90.000000
_cell_angle_beta 90.000000
_cell_angle_gamma 90.000000
_cell_volume 1787.890452
_symmetry_space_group_name_H-M "P N N M"
_symmetry_group_IT_number 58
_symmetry_cell_setting 'orthorhombic'
loop_
_space_group_symop_operation_xyz
x,y,z
-x,-y,z
1/2+x,1/2-y,1/2-z
1/2-x,1/2+y,1/2-z
-x,-y,-z
x,y,-z
1/2-x,1/2+y,1/2+z
1/2+x,1/2-y,1/2+z
loop_
_atom_site_type_symbol
_atom_site_label
_atom_site_fract_x
_atom_site_fract_y
_atom_site_fract_z
Si Si1 0.114648 0.960979 0.769992
Si Si2 0.932064 0.274334 0.388646
Si Si3 0.158599 0.467554 0.293108
Si Si4 0.777184 0.814677 0.054620
Si Si5 0.085697 0.694687 0.054998
O O1 0.129539 0.163431 0.723797
O O2 0.218726 0.004051 0.800326
O O3 0.126068 0.654034 0.751648
O O4 0.000000 0.000000 0.789771
O O5 0.900138 0.409051 0.337894
O O6 0.825387 0.271193 0.416090
O O7 0.000000 0.500000 0.414837
O O8 0.000000 0.000000 0.384417
O O9 0.822272 0.514759 0.052350
O O10 0.865079 0.024851 0.073985
O O11 0.756861 0.910669 0.000000
O O12 0.000000 0.500000 0.079331
O O13 0.048997 0.747906 0.000000
#
# Coordination Sequence:
#
# PCOD9442397 Si02
#       5
#     8   8   8   8   8
#     4  10  19  35  58  82 110 140 174 222 277 333
#     4  12  24  38  57  79 111 152 194 239 284 334
#     4  10  21  35  56  83 108 141 183 221 269 338
#     4  10  21  36  55  82 113 147 193 239 280 335
#     4   9  17  33  57  81 106 139 181 231 287 343
#
# _framework density 22.372737000000001
#
# number of rings (size 3 to 8) (size 9 to 14) (size 15 to 20)
#    0.000    1.800    0.000    5.400    0.000    3.200 
#    0.000    2.000    0.000    0.000    0.000    0.000 
#    0.000    0.000    0.000    0.000    0.000    0.000 
#
# Total GULP energy -222925.781065 kJ/mol
# GULP energy per Si atom -5573.144527 kJ/mol
# Density = 2.232182 g / cm^3
# Si number density = 22.372737 Si / 1000 Ang^3
#
#
#
# Elastic Constant Matrix: (Units=GPa)
#
#
# Indices 1 2 3 4 5 6 
#
# 1 139.6553 21.9152 18.3623 0.0000 0.0000 0.0000
# 2 21.9152 126.1546 1.9928 0.0000 0.0000 0.0000
# 3 18.3623 1.9928 21.2616 0.0000 0.0000 0.0000
# 4 0.0000 0.0000 0.0000 1.7361 0.0000 0.0000
# 5 0.0000 0.0000 0.0000 0.0000 10.4171 0.0000
# 6 0.0000 0.0000 0.0000 0.0000 0.0000 46.6022
#
#
#
# Elastic Compliance Matrix: (Units=1/GPa)
#
#
# Indices 1 2 3 4 5 6 
#
# 1 0.008295 -0.001330 -0.007039 0.000000 0.000000 0.000000
# 2 -0.001330 0.008152 0.000384 0.000000 0.000000 0.000000
# 3 -0.007039 0.000384 0.053076 0.000000 0.000000 0.000000
# 4 0.000000 0.000000 0.000000 0.575989 0.000000 0.000000
# 5 0.000000 0.000000 0.000000 0.000000 0.095996 0.000000
# 6 0.000000 0.000000 0.000000 0.000000 0.000000 0.021458
#
#
# Mechanical properties :
#
#
# Convention : Reuss Voigt Hill
#
# Bulk Modulus (GPa) = 18.67273 41.29023 29.98148
# Shear Modulus (GPa) = 6.27521 28.07118 17.17320
#
# Velocity S-wave (km/s) = 1.67658 3.54602 2.77356
# Velocity P-wave (km/s) = 3.48026 5.93813 4.86691
#
# Compressibility (1/GPa) = 0.05355405
#
# Stress axis : x y z
#
# Youngs Moduli (GPa) = 120.55956 122.67367 18.84079
#
# Poissons Ratio (x) = 0.16312 0.13262
# Poissons Ratio (y) = 0.16031 -0.00724
# Poissons Ratio (z) = 0.84861 -0.04715
#
# Static dielectric constant tensor:
#      x y z
#    x 2.219160 0.000000 0.000000 
#    y 0.000000 1.819360 0.000000 
#    z 0.000000 0.000000 1.867410 
# 
# From -- ./inp_files/34850.got.cif
#   From: 2010.05.17/outbox.cif.g08.bks.cpg/sg58_18_cif.got.tgz:34850.got - 2010.06.03 14:20:14.
