data_PCOD9442647
_publ_section_title
;
Structure prediction by ZEFSAII (Michael W. Deem and Ramdas Pophale) SiO2 
 PCOD9442647
Probable space group: P N N M
;
_chemical_formula_sum "Si O2"
_cell_formula_units_Z 64
_cell_length_a 24.651355
_cell_length_b 15.683492
_cell_length_c 8.492383
_cell_angle_alpha 90.000000
_cell_angle_beta 90.000000
_cell_angle_gamma 90.000000
_cell_volume 3283.319416
_symmetry_space_group_name_H-M "P N N M"
_symmetry_group_IT_number 58
_symmetry_cell_setting 'orthorhombic'
loop_
_space_group_symop_operation_xyz
x,y,z
-x,-y,z
1/2+x,1/2-y,1/2-z
1/2-x,1/2+y,1/2-z
-x,-y,-z
x,y,-z
1/2-x,1/2+y,1/2+z
1/2+x,1/2-y,1/2+z
loop_
_atom_site_type_symbol
_atom_site_label
_atom_site_fract_x
_atom_site_fract_y
_atom_site_fract_z
Si Si1 0.180667 0.225797 0.188105
Si Si2 0.862198 0.147938 0.317938
Si Si3 0.746325 0.113219 0.814598
Si Si4 0.617358 0.848758 0.818118
Si Si5 0.022013 0.908275 0.307638
Si Si6 0.734004 0.918170 0.192325
Si Si7 0.441117 0.742147 0.188228
Si Si8 0.995739 0.403365 0.185624
O O1 0.209868 0.314498 0.233712
O O2 0.218653 0.146883 0.245330
O O3 0.119607 0.224906 0.252442
O O4 0.178364 0.220409 0.000000
O O5 0.850910 0.122235 0.500000
O O6 0.808908 0.134698 0.216987
O O7 0.877221 0.247228 0.320495
O O8 0.915824 0.101465 0.256926
O O9 0.739040 0.016106 0.756849
O O10 0.733982 0.115256 0.000000
O O11 0.674755 0.884733 0.760698
O O12 0.565674 0.874632 0.718130
O O13 0.608797 0.877051 0.000000
O O14 0.022991 0.904660 0.500000
O O15 0.983277 0.830932 0.254903
O O16 0.000000 0.000000 0.259979
O O17 0.735530 0.916588 0.000000
O O18 0.464099 0.834200 0.238555
O O19 0.440586 0.738807 0.000000
O O20 0.000000 0.500000 0.247406
O O21 0.007245 0.404418 0.000000
#
# Coordination Sequence:
#
# PCOD9442647 Si02
#       8
#     8   8   8   8   8   8   8   8
#     4  11  23  43  63  85 122 163 197 243 302 356
#     4  10  19  37  63  87 115 157 199 244 301 351
#     4  11  23  39  60  91 121 155 202 249 294 355
#     4  10  19  39  65  86 111 155 205 246 296 358
#     4   9  19  36  59  88 122 156 197 244 293 352
#     4   9  21  40  61  85 120 160 197 240 300 360
#     4  11  23  41  63  90 121 160 202 243 294 356
#     4  11  25  42  60  89 123 157 199 249 301 352
#
# _framework density 19.492467000000001
#
# number of rings (size 3 to 8) (size 9 to 14) (size 15 to 20)
#    0.000    1.750    2.500    1.500    3.500    1.500 
#    0.000    2.500    0.000    1.875    0.000    0.000 
#    0.000    0.000    0.000    0.000    0.000    0.000 
#
# Total GULP energy -357384.124903 kJ/mol
# GULP energy per Si atom -5584.126952 kJ/mol
# Density = 1.944810 g / cm^3
# Si number density = 19.492467 Si / 1000 Ang^3
#
#
#
# Elastic Constant Matrix: (Units=GPa)
#
#
# Indices 1 2 3 4 5 6 
#
# 1 52.4847 -20.1699 -5.3829 0.0000 0.0000 0.0000
# 2 -20.1699 51.0301 0.0111 0.0000 0.0000 0.0000
# 3 -5.3829 0.0111 21.2127 0.0000 0.0000 0.0000
# 4 0.0000 0.0000 0.0000 5.5851 0.0000 0.0000
# 5 0.0000 0.0000 0.0000 0.0000 34.4615 0.0000
# 6 0.0000 0.0000 0.0000 0.0000 0.0000 32.7489
#
#
#
# Elastic Compliance Matrix: (Units=1/GPa)
#
#
# Indices 1 2 3 4 5 6 
#
# 1 0.023176 0.009159 0.005876 0.000000 0.000000 0.000000
# 2 0.009159 0.023216 0.002312 0.000000 0.000000 0.000000
# 3 0.005876 0.002312 0.048631 0.000000 0.000000 0.000000
# 4 0.000000 0.000000 0.000000 0.179047 0.000000 0.000000
# 5 0.000000 0.000000 0.000000 0.000000 0.029018 0.000000
# 6 0.000000 0.000000 0.000000 0.000000 0.000000 0.030535
#
#
# Mechanical properties :
#
#
# Convention : Reuss Voigt Hill
#
# Bulk Modulus (GPa) = 7.70907 8.18269 7.94588
# Shear Modulus (GPa) = 14.61271 24.57706 19.59489
#
# Velocity S-wave (km/s) = 2.74096 3.55470 3.17401
# Velocity P-wave (km/s) = 3.73907 4.58855 4.18542
#
# Compressibility (1/GPa) = 0.12971742
#
# Stress axis : x y z
#
# Youngs Moduli (GPa) = 43.14876 43.07392 20.56282
#
# Poissons Ratio (x) = -0.39451 -0.12083
# Poissons Ratio (y) = -0.39520 -0.04754
# Poissons Ratio (z) = -0.25355 -0.09959
#
# Static dielectric constant tensor:
#      x y z
#    x 1.623950 0.000000 0.000000 
#    y 0.000000 1.687510 0.000000 
#    z 0.000000 0.000000 1.693290 
# 
# From -- ./inp_files/10072.got.cif
#   From: 2010.05.17/outbox.cif.g08.bks.cpg/sg58_6_cif.got.tgz:10072.got - 2010.06.03 14:20:14.
