data_PCOD9442715
_publ_section_title
;
Structure prediction by ZEFSAII (Michael W. Deem and Ramdas Pophale) SiO2 
 PCOD9442715
Probable space group: P N N M
;
_chemical_formula_sum "Si O2"
_cell_formula_units_Z 40
_cell_length_a 7.760050
_cell_length_b 9.539391
_cell_length_c 26.391931
_cell_angle_alpha 90.000000
_cell_angle_beta 90.000000
_cell_angle_gamma 90.000000
_cell_volume 1953.693073
_symmetry_space_group_name_H-M "P N N M"
_symmetry_group_IT_number 58
_symmetry_cell_setting 'orthorhombic'
loop_
_space_group_symop_operation_xyz
x,y,z
-x,-y,z
1/2+x,1/2-y,1/2-z
1/2-x,1/2+y,1/2-z
-x,-y,-z
x,y,-z
1/2-x,1/2+y,1/2+z
1/2+x,1/2-y,1/2+z
loop_
_atom_site_type_symbol
_atom_site_label
_atom_site_fract_x
_atom_site_fract_y
_atom_site_fract_z
Si Si1 0.873625 0.691531 0.856199
Si Si2 0.756590 0.899016 0.327783
Si Si3 0.808588 0.949281 0.209641
Si Si4 0.061831 0.840692 0.057027
Si Si5 0.879778 0.630682 0.366827
O O1 0.770878 0.546757 0.855883
O O2 0.778915 0.808229 0.822441
O O3 0.063389 0.667208 0.831333
O O4 0.921537 0.752197 0.911234
O O5 0.792258 0.926856 0.268963
O O6 0.899471 0.795022 0.351510
O O7 0.686975 0.067829 0.186754
O O8 0.000000 0.000000 0.196907
O O9 0.234735 0.851102 0.090106
O O10 0.087649 0.786804 0.000000
O O11 0.000000 0.000000 0.054315
O O12 0.000000 0.500000 0.384499
#
# Coordination Sequence:
#
# PCOD9442715 Si02
#       5
#     8   8   8   8   8
#     4  10  20  39  55  88 120 147 213 249 290 374
#     4  10  23  34  56  84 124 159 192 250 304 352
#     4  12  21  37  56  82 119 169 203 232 292 371
#     4  10  19  40  67  85 108 155 204 259 311 362
#     4  11  23  38  56  88 121 151 202 253 302 372
#
# _framework density 20.474046999999999
#
# number of rings (size 3 to 8) (size 9 to 14) (size 15 to 20)
#    0.000    1.400    6.000    1.200    5.600    0.400 
#    0.000    8.000    0.000    0.000    0.000    2.800 
#    0.000    0.000    0.000    0.000    0.000    0.000 
#
# Total GULP energy -222999.894221 kJ/mol
# GULP energy per Si atom -5574.997356 kJ/mol
# Density = 2.042745 g / cm^3
# Si number density = 20.474047 Si / 1000 Ang^3
#
#
#
# Elastic Constant Matrix: (Units=GPa)
#
#
# Indices 1 2 3 4 5 6 
#
# 1 44.1215 37.0414 15.4435 0.0000 0.0000 0.0000
# 2 37.0414 158.6040 50.9668 0.0000 0.0000 0.0000
# 3 15.4435 50.9668 139.4272 0.0000 0.0000 0.0000
# 4 0.0000 0.0000 0.0000 2.3002 0.0000 0.0000
# 5 0.0000 0.0000 0.0000 0.0000 57.9167 0.0000
# 6 0.0000 0.0000 0.0000 0.0000 0.0000 22.4941
#
#
#
# Elastic Compliance Matrix: (Units=1/GPa)
#
#
# Indices 1 2 3 4 5 6 
#
# 1 0.028274 -0.006342 -0.000813 0.000000 0.000000 0.000000
# 2 -0.006342 0.008567 -0.002429 0.000000 0.000000 0.000000
# 3 -0.000813 -0.002429 0.008150 0.000000 0.000000 0.000000
# 4 0.000000 0.000000 0.000000 0.434744 0.000000 0.000000
# 5 0.000000 0.000000 0.000000 0.000000 0.017266 0.000000
# 6 0.000000 0.000000 0.000000 0.000000 0.000000 0.044456
#
#
# Mechanical properties :
#
#
# Convention : Reuss Voigt Hill
#
# Bulk Modulus (GPa) = 38.72697 61.00623 49.86660
# Shear Modulus (GPa) = 8.78376 32.45559 20.61967
#
# Velocity S-wave (km/s) = 2.07352 3.98578 3.17695
# Velocity P-wave (km/s) = 4.96879 7.14447 6.15355
#
# Compressibility (1/GPa) = 0.02582180
#
# Stress axis : x y z
#
# Youngs Moduli (GPa) = 35.36879 116.73133 122.69581
#
# Poissons Ratio (x) = 0.74028 0.09981
# Poissons Ratio (y) = 0.22430 0.29804
# Poissons Ratio (z) = 0.02877 0.28355
#
# Static dielectric constant tensor:
#      x y z
#    x 1.866300 0.000000 0.000000 
#    y 0.000000 1.807860 0.000000 
#    z 0.000000 0.000000 1.687110 
# 
# From -- ./inp_files/31293.got.cif
#   From: 2010.05.17/outbox.cif.g08.bks.cpg/sg58_16_cif.got.tgz:31293.got - 2010.06.03 14:20:14.
