data_PCOD9442763
_publ_section_title
;
Structure prediction by ZEFSAII (Michael W. Deem and Ramdas Pophale) SiO2 
 PCOD9442763
Probable space group: P N N M
;
_chemical_formula_sum "Si O2"
_cell_formula_units_Z 58
_cell_length_a 12.337636
_cell_length_b 29.428812
_cell_length_c 7.291377
_cell_angle_alpha 90.000000
_cell_angle_beta 90.000000
_cell_angle_gamma 90.000000
_cell_volume 2647.367528
_symmetry_space_group_name_H-M "P N N M"
_symmetry_group_IT_number 58
_symmetry_cell_setting 'orthorhombic'
loop_
_space_group_symop_operation_xyz
x,y,z
-x,-y,z
1/2+x,1/2-y,1/2-z
1/2-x,1/2+y,1/2-z
-x,-y,-z
x,y,-z
1/2-x,1/2+y,1/2+z
1/2+x,1/2-y,1/2+z
loop_
_atom_site_type_symbol
_atom_site_label
_atom_site_fract_x
_atom_site_fract_y
_atom_site_fract_z
Si Si1 0.186226 0.713093 0.720672
Si Si2 0.866545 0.183053 0.786564
Si Si3 0.895371 0.840833 0.776041
Si Si4 0.263805 0.571130 0.722131
Si Si5 0.689934 0.113205 0.222347
Si Si6 0.554856 0.874918 0.776408
Si Si7 0.000000 0.000000 0.500000
Si Si8 0.841549 0.028604 0.780320
O O1 0.186248 0.712628 0.500000
O O2 0.155258 0.763486 0.777098
O O3 0.305428 0.696376 0.780073
O O4 0.101243 0.674293 0.779758
O O5 0.765598 0.154467 0.711685
O O6 0.984357 0.170208 0.710346
O O7 0.872387 0.169861 0.000000
O O8 0.847738 0.889721 0.720713
O O9 0.895967 0.840537 0.000000
O O10 0.264090 0.570310 0.500000
O O11 0.144696 0.588000 0.779456
O O12 0.296988 0.520922 0.780028
O O13 0.566503 0.115831 0.287396
O O14 0.753393 0.066879 0.263502
O O15 0.682793 0.115602 0.000000
O O16 0.554691 0.875205 0.000000
O O17 0.050991 0.966689 0.661862
O O18 0.861577 0.029472 0.000000
#
# Coordination Sequence:
#
# PCOD9442763 Si02
#       8
#     8   8   8   8   8   8   2   8
#     4   9  18  33  52  75 102 144 191 236 286 343
#     4  10  20  32  50  74 110 147 186 235 289 346
#     4   8  16  31  50  74 105 141 183 229 281 341
#     4   8  15  31  59  86 106 146 196 238 284 353
#     4   9  19  34  54  85 117 150 188 239 297 359
#     4   8  15  31  57  85 114 143 192 247 292 348
#     4  12  26  40  60  88 128 160 198 256 282 358
#     4  10  22  40  63  89 120 162 203 240 304 355
#
# _framework density 21.908556999999998
#
# number of rings (size 3 to 8) (size 9 to 14) (size 15 to 20)
#    0.000    3.034    0.000    1.862    3.862    0.552 
#    1.241    2.759    7.586    0.828    0.000    0.000 
#    0.000    0.000    0.000    0.000    0.000    0.000 
#
# Total GULP energy -323397.208953 kJ/mol
# GULP energy per Si atom -5575.813947 kJ/mol
# Density = 2.185869 g / cm^3
# Si number density = 21.908557 Si / 1000 Ang^3
#
#
#
# Elastic Constant Matrix: (Units=GPa)
#
#
# Indices 1 2 3 4 5 6 
#
# 1 137.9417 53.0433 16.6010 0.0000 0.0000 0.0000
# 2 53.0433 106.3956 2.5218 0.0000 0.0000 0.0000
# 3 16.6010 2.5218 99.3254 0.0000 0.0000 0.0000
# 4 0.0000 0.0000 0.0000 6.3013 0.0000 0.0000
# 5 0.0000 0.0000 0.0000 0.0000 -32.7615 0.0000
# 6 0.0000 0.0000 0.0000 0.0000 0.0000 26.6041
#
#
#
# Elastic Compliance Matrix: (Units=1/GPa)
#
#
# Indices 1 2 3 4 5 6 
#
# 1 0.009164 -0.004535 -0.001416 0.000000 0.000000 0.000000
# 2 -0.004535 0.011649 0.000462 0.000000 0.000000 0.000000
# 3 -0.001416 0.000462 0.010293 0.000000 0.000000 0.000000
# 4 0.000000 0.000000 0.000000 0.158698 0.000000 0.000000
# 5 0.000000 0.000000 0.000000 0.000000 -0.030524 0.000000
# 6 0.000000 0.000000 0.000000 0.000000 0.000000 0.037588
#
#
# Mechanical properties :
#
#
# Convention : Reuss Voigt Hill
#
# Bulk Modulus (GPa) = 49.68445 54.22166 51.95305
# Shear Modulus (GPa) = 23.30397 18.12855 20.71626
#
# Velocity S-wave (km/s) = 3.26497 2.87969 3.07836
# Velocity P-wave (km/s) = 6.07789 5.98829 6.03325
#
# Compressibility (1/GPa) = 0.02012702
#
# Stress axis : x y z
#
# Youngs Moduli (GPa) = 109.12532 85.84536 97.15412
#
# Poissons Ratio (x) = 0.38931 0.13762
# Poissons Ratio (y) = 0.49488 -0.04491
# Poissons Ratio (z) = 0.15457 -0.03968
#
# Static dielectric constant tensor:
#      x y z
#    x 1.809480 0.000000 0.000000 
#    y 0.000000 1.755760 0.000000 
#    z 0.000000 0.000000 1.894680 
# 
# From -- ./inp_files/4585.got.cif
#   From: 2010.05.17/outbox.cif.g08.bks.cpg/sg58_3_cif.got.tgz:4585.got - 2010.06.03 14:20:14.
