data_PCOD9442113
_publ_section_title
;
Structure prediction by ZEFSAII (Michael W. Deem and Ramdas Pophale) SiO2 
 PCOD9442113
Probable space group: P N N M
;
_chemical_formula_sum "Si O2"
_cell_formula_units_Z 64
_cell_length_a 28.554059
_cell_length_b 13.323152
_cell_length_c 7.809109
_cell_angle_alpha 90.000000
_cell_angle_beta 90.000000
_cell_angle_gamma 90.000000
_cell_volume 2970.819870
_symmetry_space_group_name_H-M "P N N M"
_symmetry_group_IT_number 58
_symmetry_cell_setting 'orthorhombic'
loop_
_space_group_symop_operation_xyz
x,y,z
-x,-y,z
1/2+x,1/2-y,1/2-z
1/2-x,1/2+y,1/2-z
-x,-y,-z
x,y,-z
1/2-x,1/2+y,1/2+z
1/2+x,1/2-y,1/2+z
loop_
_atom_site_type_symbol
_atom_site_label
_atom_site_fract_x
_atom_site_fract_y
_atom_site_fract_z
Si Si1 0.043028 0.191907 0.302148
Si Si2 0.204797 0.140135 0.294175
Si Si3 0.616191 0.473654 0.207579
Si Si4 0.055583 0.839499 0.196849
Si Si5 0.437880 0.906283 0.799351
Si Si6 0.305341 0.065572 0.793641
Si Si7 0.909981 0.380719 0.291851
Si Si8 0.327601 0.853666 0.202572
O O1 0.057328 0.208397 0.500000
O O2 0.038849 0.304909 0.226091
O O3 0.992350 0.141517 0.297956
O O4 0.081816 0.116302 0.230236
O O5 0.200577 0.141338 0.500000
O O6 0.258742 0.123990 0.252189
O O7 0.186438 0.246682 0.224786
O O8 0.168691 0.053946 0.235142
O O9 0.595474 0.579626 0.263830
O O10 0.614684 0.473833 0.000000
O O11 0.071868 0.726741 0.235706
O O12 0.042570 0.848514 0.000000
O O13 0.382744 0.877389 0.787841
O O14 0.439140 0.020644 0.731198
O O15 0.452249 0.914139 0.000000
O O16 0.355691 0.107595 0.736191
O O17 0.301818 0.951417 0.726417
O O18 0.308264 0.061790 0.000000
O O19 0.911185 0.384058 0.500000
O O20 0.316713 0.848795 0.000000
#
# Coordination Sequence:
#
# PCOD9442113 Si02
#       8
#     8   8   8   8   8   8   8   8
#     4  10  19  36  63  88 108 139 190 240 284 336
#     4  10  19  33  57  85 110 139 181 229 276 329
#     4  10  21  38  60  84 110 145 192 239 277 332
#     4  12  26  39  53  78 118 158 188 228 289 344
#     4   8  14  30  60  87 103 131 183 236 275 319
#     4   9  19  34  55  82 112 144 180 223 276 332
#     4   9  19  38  60  81 110 149 192 234 274 331
#     4   8  14  30  53  77 104 135 173 222 272 316
#
# _framework density 21.542874999999999
#
# number of rings (size 3 to 8) (size 9 to 14) (size 15 to 20)
#    0.000    2.500    1.250    3.000    0.000    4.500 
#    0.000    6.250    0.000    1.500    0.000    0.000 
#    0.000    0.000    0.000    0.000    0.000    0.000 
#
# Total GULP energy -356992.568498 kJ/mol
# GULP energy per Si atom -5578.008883 kJ/mol
# Density = 2.149384 g / cm^3
# Si number density = 21.542875 Si / 1000 Ang^3
#
#
#
# Elastic Constant Matrix: (Units=GPa)
#
#
# Indices 1 2 3 4 5 6 
#
# 1 58.4018 18.5287 -3.6277 0.0000 0.0000 0.0000
# 2 18.5287 99.3253 8.9417 0.0000 0.0000 0.0000
# 3 -3.6277 8.9417 30.1055 0.0000 0.0000 0.0000
# 4 0.0000 0.0000 0.0000 -10.9124 0.0000 0.0000
# 5 0.0000 0.0000 0.0000 0.0000 4.8524 0.0000
# 6 0.0000 0.0000 0.0000 0.0000 0.0000 25.3444
#
#
#
# Elastic Compliance Matrix: (Units=1/GPa)
#
#
# Indices 1 2 3 4 5 6 
#
# 1 0.018523 -0.003757 0.003348 0.000000 0.000000 0.000000
# 2 -0.003757 0.011106 -0.003751 0.000000 0.000000 0.000000
# 3 0.003348 -0.003751 0.034734 0.000000 0.000000 0.000000
# 4 0.000000 0.000000 0.000000 -0.091639 0.000000 0.000000
# 5 0.000000 0.000000 0.000000 0.000000 0.206084 0.000000
# 6 0.000000 0.000000 0.000000 0.000000 0.000000 0.039456
#
#
# Mechanical properties :
#
#
# Convention : Reuss Voigt Hill
#
# Bulk Modulus (GPa) = 17.84364 26.16867 22.00616
# Shear Modulus (GPa) = 20.38597 14.78954 17.58776
#
# Velocity S-wave (km/s) = 3.07953 2.62299 2.86038
# Velocity P-wave (km/s) = 4.57663 4.62029 4.59851
#
# Compressibility (1/GPa) = 0.05604236
#
# Stress axis : x y z
#
# Youngs Moduli (GPa) = 53.98825 90.03787 28.79016
#
# Poissons Ratio (x) = 0.33824 -0.09638
# Poissons Ratio (y) = 0.20282 0.10800
# Poissons Ratio (z) = -0.18074 0.33777
#
# Static dielectric constant tensor:
#      x y z
#    x 1.768030 0.000000 0.000000 
#    y 0.000000 1.815280 0.000000 
#    z 0.000000 0.000000 1.801260 
# 
# From -- ./inp_files/10936.got.cif
#   From: 2010.05.17/outbox.cif.g08.bks.cpg/sg58_6_cif.got.tgz:10936.got - 2010.06.03 14:20:14.
