data_PCOD9442002
_publ_section_title
;
Structure prediction by ZEFSAII (Michael W. Deem and Ramdas Pophale) SiO2 
 PCOD9442002
Probable space group: P N N M
;
_chemical_formula_sum "Si O2"
_cell_formula_units_Z 48
_cell_length_a 14.265282
_cell_length_b 9.497994
_cell_length_c 15.123947
_cell_angle_alpha 90.000000
_cell_angle_beta 90.000000
_cell_angle_gamma 90.000000
_cell_volume 2049.167215
_symmetry_space_group_name_H-M "P N N M"
_symmetry_group_IT_number 58
_symmetry_cell_setting 'orthorhombic'
loop_
_space_group_symop_operation_xyz
x,y,z
-x,-y,z
1/2+x,1/2-y,1/2-z
1/2-x,1/2+y,1/2-z
-x,-y,-z
x,y,-z
1/2-x,1/2+y,1/2+z
1/2+x,1/2-y,1/2+z
loop_
_atom_site_type_symbol
_atom_site_label
_atom_site_fract_x
_atom_site_fract_y
_atom_site_fract_z
Si Si1 0.748159 0.523048 0.403846
Si Si2 0.278776 0.484219 0.210079
Si Si3 0.566280 0.331814 0.593807
Si Si4 0.038192 0.148520 0.286356
Si Si5 0.606896 0.015028 0.399749
Si Si6 0.612711 0.758184 0.897683
O O1 0.761756 0.596527 0.500000
O O2 0.745433 0.584176 0.305143
O O3 0.645991 0.449171 0.407917
O O4 0.827483 0.401320 0.397601
O O5 0.351472 0.615380 0.216911
O O6 0.184743 0.540938 0.164975
O O7 0.326042 0.363132 0.150145
O O8 0.513324 0.335697 0.500000
O O9 0.507845 0.338629 0.683637
O O10 0.619556 0.183221 0.596422
O O11 0.986534 0.264058 0.345208
O O12 0.000000 0.000000 0.321877
O O13 0.614276 0.959281 0.500000
O O14 0.500000 0.000000 0.369761
O O15 0.596212 0.719947 0.000000
#
# Coordination Sequence:
#
# PCOD9442002 Si02
#       6
#     8   8   8   8   8   8
#     4   9  18  33  54  75 100 140 178 213 262 321
#     4  10  19  33  54  79 104 137 179 223 262 313
#     4   9  17  33  52  73 105 137 173 215 260 315
#     4   9  20  32  50  83 105 133 175 219 268 310
#     4  10  20  32  50  77 103 136 177 218 264 312
#     4  10  19  34  55  79 108 141 178 216 266 326
#
# _framework density 23.424150000000001
#
# number of rings (size 3 to 8) (size 9 to 14) (size 15 to 20)
#    0.000    2.500    1.667    0.500    2.333    4.000 
#    0.000    2.500    0.000    3.500    0.000    0.000 
#    0.000    0.000    0.000    0.000    0.000    0.000 
#
# Total GULP energy -267675.174501 kJ/mol
# GULP energy per Si atom -5576.566135 kJ/mol
# Density = 2.337084 g / cm^3
# Si number density = 23.424150 Si / 1000 Ang^3
#
#
#
# Elastic Constant Matrix: (Units=GPa)
#
#
# Indices 1 2 3 4 5 6 
#
# 1 108.0746 7.8050 69.7308 0.0000 0.0000 0.0000
# 2 7.8050 23.4334 11.0177 0.0000 0.0000 0.0000
# 3 69.7308 11.0177 157.6312 0.0000 0.0000 0.0000
# 4 0.0000 0.0000 0.0000 0.9771 0.0000 0.0000
# 5 0.0000 0.0000 0.0000 0.0000 236.0641 0.0000
# 6 0.0000 0.0000 0.0000 0.0000 0.0000 13.8833
#
#
#
# Elastic Compliance Matrix: (Units=1/GPa)
#
#
# Indices 1 2 3 4 5 6 
#
# 1 0.013013 -0.001683 -0.005639 0.000000 0.000000 0.000000
# 2 -0.001683 0.044342 -0.002355 0.000000 0.000000 0.000000
# 3 -0.005639 -0.002355 0.009003 0.000000 0.000000 0.000000
# 4 0.000000 0.000000 0.000000 1.023450 0.000000 0.000000
# 5 0.000000 0.000000 0.000000 0.000000 0.004236 0.000000
# 6 0.000000 0.000000 0.000000 0.000000 0.000000 0.072029
#
#
# Mechanical properties :
#
#
# Convention : Reuss Voigt Hill
#
# Bulk Modulus (GPa) = 21.27464 51.80514 36.53989
# Shear Modulus (GPa) = 4.16287 63.55727 33.86007
#
# Velocity S-wave (km/s) = 1.33455 5.21461 3.80612
# Velocity P-wave (km/s) = 3.38774 7.64332 5.91173
#
# Compressibility (1/GPa) = 0.04700432
#
# Stress axis : x y z
#
# Youngs Moduli (GPa) = 76.84891 22.55207 111.07561
#
# Poissons Ratio (x) = 0.03795 0.62632
# Poissons Ratio (y) = 0.12933 0.26156
# Poissons Ratio (z) = 0.43333 0.05311
#
# Static dielectric constant tensor:
#      x y z
#    x 1.937830 0.000000 0.000000 
#    y 0.000000 1.939470 0.000000 
#    z 0.000000 0.000000 1.935420 
# 
# From -- ./inp_files/15569.got.cif
#   From: 2010.05.17/outbox.cif.g08.bks.cpg/sg58_8_cif.got.tgz:15569.got - 2010.06.03 14:20:14.
