data_PCOD9442401
_publ_section_title
;
Structure prediction by ZEFSAII (Michael W. Deem and Ramdas Pophale) SiO2 
 PCOD9442401
Probable space group: P N N M
;
_chemical_formula_sum "Si O2"
_cell_formula_units_Z 64
_cell_length_a 23.626339
_cell_length_b 15.867796
_cell_length_c 8.965834
_cell_angle_alpha 90.000000
_cell_angle_beta 90.000000
_cell_angle_gamma 90.000000
_cell_volume 3361.272585
_symmetry_space_group_name_H-M "P N N M"
_symmetry_group_IT_number 58
_symmetry_cell_setting 'orthorhombic'
loop_
_space_group_symop_operation_xyz
x,y,z
-x,-y,z
1/2+x,1/2-y,1/2-z
1/2-x,1/2+y,1/2-z
-x,-y,-z
x,y,-z
1/2-x,1/2+y,1/2+z
1/2+x,1/2-y,1/2+z
loop_
_atom_site_type_symbol
_atom_site_label
_atom_site_fract_x
_atom_site_fract_y
_atom_site_fract_z
Si Si1 0.451152 0.435059 0.680029
Si Si2 0.311215 0.686414 0.671335
Si Si3 0.858628 0.624261 0.826650
Si Si4 0.749578 0.065190 0.828273
Si Si5 0.430258 0.245636 0.681869
Si Si6 0.153156 0.027590 0.325548
Si Si7 0.799076 0.255125 0.174559
Si Si8 0.987592 0.595356 0.181716
O O1 0.500000 0.500000 0.730251
O O2 0.451126 0.435407 0.500000
O O3 0.454991 0.337125 0.727897
O O4 0.392327 0.472206 0.737770
O O5 0.312021 0.657952 0.500000
O O6 0.338066 0.779199 0.678154
O O7 0.347737 0.623352 0.770439
O O8 0.247135 0.693721 0.731569
O O9 0.814582 0.573311 0.726480
O O10 0.923320 0.617698 0.777730
O O11 0.854739 0.596141 0.000000
O O12 0.778659 0.157771 0.817562
O O13 0.785271 0.005602 0.721561
O O14 0.753236 0.038320 0.000000
O O15 0.430372 0.245716 0.500000
O O16 0.364143 0.238453 0.725669
O O17 0.468158 0.166799 0.732555
O O18 0.143746 0.020034 0.500000
O O19 0.795937 0.280277 0.000000
O O20 0.000000 0.500000 0.231052
O O21 0.990374 0.595884 0.000000
#
# Coordination Sequence:
#
# PCOD9442401 Si02
#       8
#     8   8   8   8   8   8   8   8
#     4  10  21  37  60  85 114 157 203 243 290 350
#     4  10  21  35  54  82 115 150 192 236 287 350
#     4   9  19  35  57  84 114 150 192 237 288 342
#     4  10  19  35  58  82 112 149 189 235 288 346
#     4   9  17  32  55  82 115 156 197 239 285 341
#     4  12  24  37  56  84 120 151 190 241 298 354
#     4   9  17  33  55  80 110 146 192 236 286 342
#     4   9  18  32  53  84 117 147 188 239 284 337
#
# _framework density 19.040407999999999
#
# number of rings (size 3 to 8) (size 9 to 14) (size 15 to 20)
#    0.000    2.250    1.250    1.875    1.750    2.250 
#    0.000    2.500    0.000    1.125    0.000    0.000 
#    0.000    0.000    0.000    0.000    0.000    0.000 
#
# Total GULP energy -357115.442533 kJ/mol
# GULP energy per Si atom -5579.928790 kJ/mol
# Density = 1.899707 g / cm^3
# Si number density = 19.040408 Si / 1000 Ang^3
#
#
#
# Elastic Constant Matrix: (Units=GPa)
#
#
# Indices 1 2 3 4 5 6 
#
# 1 134.4247 52.6478 9.8527 0.0000 0.0000 0.0000
# 2 52.6478 83.3046 10.5751 0.0000 0.0000 0.0000
# 3 9.8527 10.5751 3.7993 0.0000 0.0000 0.0000
# 4 0.0000 0.0000 0.0000 29.7143 0.0000 0.0000
# 5 0.0000 0.0000 0.0000 0.0000 25.9517 0.0000
# 6 0.0000 0.0000 0.0000 0.0000 0.0000 21.0889
#
#
#
# Elastic Compliance Matrix: (Units=1/GPa)
#
#
# Indices 1 2 3 4 5 6 
#
# 1 0.010303 -0.004824 -0.013290 0.000000 0.000000 0.000000
# 2 -0.004824 0.020822 -0.045446 0.000000 0.000000 0.000000
# 3 -0.013290 -0.045446 0.424164 0.000000 0.000000 0.000000
# 4 0.000000 0.000000 0.000000 0.033654 0.000000 0.000000
# 5 0.000000 0.000000 0.000000 0.000000 0.038533 0.000000
# 6 0.000000 0.000000 0.000000 0.000000 0.000000 0.047418
#
#
# Mechanical properties :
#
#
# Convention : Reuss Voigt Hill
#
# Bulk Modulus (GPa) = 3.04722 40.85331 21.95027
# Shear Modulus (GPa) = 6.16216 25.24785 15.70500
#
# Velocity S-wave (km/s) = 1.80094 3.64540 2.87509
# Velocity P-wave (km/s) = 2.43483 6.26269 4.75130
#
# Compressibility (1/GPa) = 0.32816830
#
# Stress axis : x y z
#
# Youngs Moduli (GPa) = 97.06326 48.02612 2.35758
#
# Poissons Ratio (x) = 0.23168 0.03133
# Poissons Ratio (y) = 0.46823 0.10714
# Poissons Ratio (z) = 1.28999 2.18259
#
# Static dielectric constant tensor:
#      x y z
#    x 1.647530 0.000000 0.000000 
#    y 0.000000 1.683690 0.000000 
#    z 0.000000 0.000000 1.639520 
# 
# From -- ./inp_files/9935.got.cif
#   From: 2010.05.17/outbox.cif.g08.bks.cpg/sg58_5_cif.got.tgz:9935.got - 2010.06.03 14:20:14.
