data_PCOD9442559
_publ_section_title
;
Structure prediction by ZEFSAII (Michael W. Deem and Ramdas Pophale) SiO2 
 PCOD9442559
Probable space group: P N N M
;
_chemical_formula_sum "Si O2"
_cell_formula_units_Z 64
_cell_length_a 16.781834
_cell_length_b 19.539871
_cell_length_c 7.746806
_cell_angle_alpha 90.000000
_cell_angle_beta 90.000000
_cell_angle_gamma 90.000000
_cell_volume 2540.292894
_symmetry_space_group_name_H-M "P N N M"
_symmetry_group_IT_number 58
_symmetry_cell_setting 'orthorhombic'
loop_
_space_group_symop_operation_xyz
x,y,z
-x,-y,z
1/2+x,1/2-y,1/2-z
1/2-x,1/2+y,1/2-z
-x,-y,-z
x,y,-z
1/2-x,1/2+y,1/2+z
1/2+x,1/2-y,1/2+z
loop_
_atom_site_type_symbol
_atom_site_label
_atom_site_fract_x
_atom_site_fract_y
_atom_site_fract_z
Si Si1 0.412404 0.092300 0.298166
Si Si2 0.487072 0.295677 0.798336
Si Si3 0.162073 0.460214 0.296768
Si Si4 0.819259 0.201895 0.198112
Si Si5 0.589822 0.413990 0.205994
Si Si6 0.750317 0.837939 0.712657
Si Si7 0.663537 0.549041 0.291779
Si Si8 0.070811 0.333631 0.793282
O O1 0.414034 0.108614 0.500000
O O2 0.329968 0.123490 0.227656
O O3 0.492805 0.124713 0.225287
O O4 0.402824 0.010777 0.281924
O O5 0.409223 0.267871 0.702305
O O6 0.516034 0.369059 0.727389
O O7 0.559472 0.242355 0.777542
O O8 0.467037 0.299502 0.000000
O O9 0.160357 0.470845 0.500000
O O10 0.250121 0.478726 0.231549
O O11 0.144232 0.380835 0.261104
O O12 0.760774 0.259225 0.271997
O O13 0.834717 0.126837 0.275409
O O14 0.794648 0.191375 0.000000
O O15 0.670628 0.377027 0.270930
O O16 0.402445 0.505624 0.238996
O O17 0.587401 0.404935 0.000000
O O18 0.750942 0.837792 0.500000
O O19 0.662048 0.551300 0.500000
O O20 0.070879 0.330304 0.000000
#
# Coordination Sequence:
#
# PCOD9442559 Si02
#       8
#     8   8   8   8   8   8   8   8
#     4  10  19  36  61  85 113 158 205 238 284 359
#     4  11  24  40  61  91 121 153 195 252 309 350
#     4  11  23  37  56  89 127 157 194 249 301 347
#     4  10  21  41  65  86 115 159 203 241 292 359
#     4  10  22  40  64  87 117 158 197 242 299 359
#     4   9  17  35  63  86 109 151 200 238 283 351
#     4  10  23  40  62  89 119 156 200 251 297 348
#     4  11  23  39  59  86 121 162 203 241 289 363
#
# _framework density 25.193944999999999
#
# number of rings (size 3 to 8) (size 9 to 14) (size 15 to 20)
#    0.000    1.750    2.500    1.500    1.750    5.000 
#    0.000    3.125    0.000    0.000    0.000    0.000 
#    0.000    0.000    0.000    0.000    0.000    0.000 
#
# Total GULP energy -357929.344534 kJ/mol
# GULP energy per Si atom -5592.646008 kJ/mol
# Density = 2.513660 g / cm^3
# Si number density = 25.193945 Si / 1000 Ang^3
#
#
#
# Elastic Constant Matrix: (Units=GPa)
#
#
# Indices 1 2 3 4 5 6 
#
# 1 56.7245 7.4256 0.6983 0.0000 0.0000 0.0000
# 2 7.4256 134.1845 -11.1034 0.0000 0.0000 0.0000
# 3 0.6983 -11.1034 55.2840 0.0000 0.0000 0.0000
# 4 0.0000 0.0000 0.0000 20.6582 0.0000 0.0000
# 5 0.0000 0.0000 0.0000 0.0000 13.7376 0.0000
# 6 0.0000 0.0000 0.0000 0.0000 0.0000 46.5410
#
#
#
# Elastic Compliance Matrix: (Units=1/GPa)
#
#
# Indices 1 2 3 4 5 6 
#
# 1 0.017768 -0.001019 -0.000429 0.000000 0.000000 0.000000
# 2 -0.001019 0.007637 0.001547 0.000000 0.000000 0.000000
# 3 -0.000429 0.001547 0.018404 0.000000 0.000000 0.000000
# 4 0.000000 0.000000 0.000000 0.048407 0.000000 0.000000
# 5 0.000000 0.000000 0.000000 0.000000 0.072793 0.000000
# 6 0.000000 0.000000 0.000000 0.000000 0.000000 0.021486
#
#
# Mechanical properties :
#
#
# Convention : Reuss Voigt Hill
#
# Bulk Modulus (GPa) = 22.72379 26.69267 24.70823
# Shear Modulus (GPa) = 24.87979 32.79885 28.83932
#
# Velocity S-wave (km/s) = 3.14591 3.61204 3.38700
# Velocity P-wave (km/s) = 4.71538 5.29279 5.01240
#
# Compressibility (1/GPa) = 0.04400674
#
# Stress axis : x y z
#
# Youngs Moduli (GPa) = 56.28184 130.94515 54.33458
#
# Poissons Ratio (x) = 0.13340 0.02331
# Poissons Ratio (y) = 0.05734 -0.08404
# Poissons Ratio (z) = 0.02415 -0.20253
#
# Static dielectric constant tensor:
#      x y z
#    x 2.004920 0.000000 0.000000 
#    y 0.000000 2.039270 0.000000 
#    z 0.000000 0.000000 1.906350 
# 
# From -- ./inp_files/6981.got.cif
#   From: 2010.05.17/outbox.cif.g08.bks.cpg/sg58_4_cif.got.tgz:6981.got - 2010.06.03 14:20:14.
