data_PCOD9442786
_publ_section_title
;
Structure prediction by ZEFSAII (Michael W. Deem and Ramdas Pophale) SiO2 
 PCOD9442786
Probable space group: P N N M
;
_chemical_formula_sum "Si O2"
_cell_formula_units_Z 48
_cell_length_a 15.764234
_cell_length_b 19.527099
_cell_length_c 7.416617
_cell_angle_alpha 90.000000
_cell_angle_beta 90.000000
_cell_angle_gamma 90.000000
_cell_volume 2283.055416
_symmetry_space_group_name_H-M "P N N M"
_symmetry_group_IT_number 58
_symmetry_cell_setting 'orthorhombic'
loop_
_space_group_symop_operation_xyz
x,y,z
-x,-y,z
1/2+x,1/2-y,1/2-z
1/2-x,1/2+y,1/2-z
-x,-y,-z
x,y,-z
1/2-x,1/2+y,1/2+z
1/2+x,1/2-y,1/2+z
loop_
_atom_site_type_symbol
_atom_site_label
_atom_site_fract_x
_atom_site_fract_y
_atom_site_fract_z
Si Si1 0.704040 0.832118 0.717046
Si Si2 0.980163 0.293468 0.220577
Si Si3 0.773545 0.490041 0.220579
Si Si4 0.059982 0.437296 0.219716
Si Si5 0.089401 0.019247 0.704928
Si Si6 0.106193 0.175451 0.211080
O O1 0.702413 0.832686 0.500000
O O2 0.618258 0.794708 0.777920
O O3 0.702407 0.912226 0.774925
O O4 0.795406 0.802313 0.770897
O O5 0.023258 0.364779 0.278035
O O6 0.038726 0.230565 0.279659
O O7 0.980703 0.292832 0.000000
O O8 0.845169 0.543272 0.276480
O O9 0.678517 0.505385 0.285189
O O10 0.771688 0.489156 0.000000
O O11 0.000000 0.500000 0.275244
O O12 0.059022 0.436418 0.000000
O O13 0.086898 0.991860 0.500000
O O14 0.097481 0.101364 0.699725
O O15 0.000000 0.000000 0.791345
O O16 0.089581 0.164627 0.000000
#
# Coordination Sequence:
#
# PCOD9442786 Si02
#       6
#     8   8   8   8   8   8
#     4   9  16  31  52  69  91 130 168 198 240 292
#     4   9  17  29  46  70 101 131 161 201 248 300
#     4   8  13  23  44  70  92 115 150 198 243 279
#     4   9  13  21  42  72  96 117 152 198 244 283
#     4   9  18  34  53  73  95 125 169 211 246 289
#     4  10  20  33  48  73 104 133 164 201 250 303
#
# _framework density 21.024456000000001
#
# number of rings (size 3 to 8) (size 9 to 14) (size 15 to 20)
#    0.000    3.000    1.667    1.500    0.000    0.333 
#    3.000    1.667    0.000    0.000    0.000   10.500 
#    0.000    0.000    0.000    0.000    0.000    0.000 
#
# Total GULP energy -267736.136782 kJ/mol
# GULP energy per Si atom -5577.836183 kJ/mol
# Density = 2.097660 g / cm^3
# Si number density = 21.024456 Si / 1000 Ang^3
#
#
#
# Elastic Constant Matrix: (Units=GPa)
#
#
# Indices 1 2 3 4 5 6 
#
# 1 210.3603 49.6003 -1.8070 0.0000 0.0000 0.0000
# 2 49.6003 33.4418 -6.3529 0.0000 0.0000 0.0000
# 3 -1.8070 -6.3529 70.0687 0.0000 0.0000 0.0000
# 4 0.0000 0.0000 0.0000 7.6165 0.0000 0.0000
# 5 0.0000 0.0000 0.0000 0.0000 7.0042 0.0000
# 6 0.0000 0.0000 0.0000 0.0000 0.0000 39.6595
#
#
#
# Elastic Compliance Matrix: (Units=1/GPa)
#
#
# Indices 1 2 3 4 5 6 
#
# 1 0.007356 -0.011064 -0.000813 0.000000 0.000000 0.000000
# 2 -0.011064 0.047069 0.003982 0.000000 0.000000 0.000000
# 3 -0.000813 0.003982 0.014612 0.000000 0.000000 0.000000
# 4 0.000000 0.000000 0.000000 0.131293 0.000000 0.000000
# 5 0.000000 0.000000 0.000000 0.000000 0.142771 0.000000
# 6 0.000000 0.000000 0.000000 0.000000 0.000000 0.025215
#
#
# Mechanical properties :
#
#
# Convention : Reuss Voigt Hill
#
# Bulk Modulus (GPa) = 18.78075 44.08352 31.43213
# Shear Modulus (GPa) = 12.44229 29.01806 20.73017
#
# Velocity S-wave (km/s) = 2.43533 3.71914 3.14347
# Velocity P-wave (km/s) = 4.10609 6.28140 5.30641
#
# Compressibility (1/GPa) = 0.05324601
#
# Stress axis : x y z
#
# Youngs Moduli (GPa) = 135.95176 21.24526 68.43787
#
# Poissons Ratio (x) = 0.23506 0.05567
# Poissons Ratio (y) = 1.50419 -0.27254
# Poissons Ratio (z) = 0.11059 -0.08460
#
# Static dielectric constant tensor:
#      x y z
#    x 1.783590 0.000000 0.000000 
#    y 0.000000 1.697120 0.000000 
#    z 0.000000 0.000000 1.820290 
# 
# From -- ./inp_files/6063.got.cif
#   From: 2010.05.17/outbox.cif.g08.bks.cpg/sg58_4_cif.got.tgz:6063.got - 2010.06.03 14:20:14.
