data_PCOD9442364
_publ_section_title
;
Structure prediction by ZEFSAII (Michael W. Deem and Ramdas Pophale) SiO2 
 PCOD9442364
Probable space group: P N N M
;
_chemical_formula_sum "Si O2"
_cell_formula_units_Z 64
_cell_length_a 13.766693
_cell_length_b 9.439150
_cell_length_c 28.566510
_cell_angle_alpha 90.000000
_cell_angle_beta 90.000000
_cell_angle_gamma 90.000000
_cell_volume 3712.100287
_symmetry_space_group_name_H-M "P N N M"
_symmetry_group_IT_number 58
_symmetry_cell_setting 'orthorhombic'
loop_
_space_group_symop_operation_xyz
x,y,z
-x,-y,z
1/2+x,1/2-y,1/2-z
1/2-x,1/2+y,1/2-z
-x,-y,-z
x,y,-z
1/2-x,1/2+y,1/2+z
1/2+x,1/2-y,1/2+z
loop_
_atom_site_type_symbol
_atom_site_label
_atom_site_fract_x
_atom_site_fract_y
_atom_site_fract_z
Si Si1 0.712700 0.995584 0.653959
Si Si2 0.189372 0.976725 0.148490
Si Si3 0.253010 0.728335 0.284553
Si Si4 0.338326 0.747228 0.179131
Si Si5 0.075441 0.378692 0.914286
Si Si6 0.024443 0.666269 0.723963
Si Si7 0.894739 0.925723 0.948334
Si Si8 0.544800 0.770514 0.326258
O O1 0.805476 0.894165 0.652729
O O2 0.625347 0.895588 0.672719
O O3 0.730187 0.123172 0.689500
O O4 0.674746 0.051046 0.604017
O O5 0.285359 0.880275 0.154745
O O6 0.100132 0.874065 0.162214
O O7 0.197380 0.105283 0.184836
O O8 0.170790 0.029590 0.095793
O O9 0.292176 0.736758 0.231608
O O10 0.137858 0.694761 0.283783
O O11 0.452355 0.766906 0.186072
O O12 0.090800 0.243726 0.946511
O O13 0.000000 0.500000 0.930785
O O14 0.028823 0.311791 0.866945
O O15 0.999941 0.729676 0.775047
O O16 0.000000 0.500000 0.725478
O O17 0.857782 0.966882 0.000000
O O18 0.000000 0.000000 0.942386
#
# Coordination Sequence:
#
# PCOD9442364 Si02
#       8
#     8   8   8   8   8   8   8   8
#     4  10  20  34  49  73 108 149 190 226 268 339
#     4  11  21  38  55  78 112 155 186 232 289 330
#     4  12  21  35  54  78 112 155 195 236 275 337
#     4  11  23  35  51  79 114 148 197 232 275 340
#     4  10  19  35  57  77 107 152 182 219 284 343
#     4  12  22  34  53  79 113 156 201 239 274 328
#     4  11  23  38  59  88 114 143 194 244 286 345
#     4  10  20  33  54  76 111 157 192 220 282 337
#
# _framework density 17.240914
#
# number of rings (size 3 to 8) (size 9 to 14) (size 15 to 20)
#    0.000    1.125    6.250    3.375    0.000    0.750 
#    0.000    0.000    0.000    0.000    0.000    1.750 
#    0.000    1.000    0.000    0.000    0.000    0.000 
#
# Total GULP energy -357558.723408 kJ/mol
# GULP energy per Si atom -5586.855053 kJ/mol
# Density = 1.720167 g / cm^3
# Si number density = 17.240914 Si / 1000 Ang^3
#
#
#
# Elastic Constant Matrix: (Units=GPa)
#
#
# Indices 1 2 3 4 5 6 
#
# 1 71.2537 23.9221 27.7385 0.0000 0.0000 0.0000
# 2 23.9221 98.2759 35.8243 0.0000 0.0000 0.0000
# 3 27.7385 35.8243 80.1157 0.0000 0.0000 0.0000
# 4 0.0000 0.0000 0.0000 201.4694 0.0000 0.0000
# 5 0.0000 0.0000 0.0000 0.0000 6.3451 0.0000
# 6 0.0000 0.0000 0.0000 0.0000 0.0000 22.4640
#
#
#
# Elastic Compliance Matrix: (Units=1/GPa)
#
#
# Indices 1 2 3 4 5 6 
#
# 1 0.016656 -0.002332 -0.004724 0.000000 0.000000 0.000000
# 2 -0.002332 0.012484 -0.004775 0.000000 0.000000 0.000000
# 3 -0.004724 -0.004775 0.016253 0.000000 0.000000 0.000000
# 4 0.000000 0.000000 0.000000 0.004964 0.000000 0.000000
# 5 0.000000 0.000000 0.000000 0.000000 0.157601 0.000000
# 6 0.000000 0.000000 0.000000 0.000000 0.000000 0.044516
#
#
# Mechanical properties :
#
#
# Convention : Reuss Voigt Hill
#
# Bulk Modulus (GPa) = 46.01813 47.17947 46.59880
# Shear Modulus (GPa) = 17.64423 56.86639 37.25531
#
# Velocity S-wave (km/s) = 3.20252 5.74935 4.65355
# Velocity P-wave (km/s) = 6.35799 8.45562 7.48070
#
# Compressibility (1/GPa) = 0.02173056
#
# Stress axis : x y z
#
# Youngs Moduli (GPa) = 60.03676 80.10468 61.52882
#
# Poissons Ratio (x) = 0.18684 0.29066
# Poissons Ratio (y) = 0.14003 0.29378
# Poissons Ratio (z) = 0.28361 0.38247
#
# Static dielectric constant tensor:
#      x y z
#    x 1.610760 0.000000 0.000000 
#    y 0.000000 1.620410 0.000000 
#    z 0.000000 0.000000 1.572470 
# 
# From -- ./inp_files/35097.got.cif
#   From: 2010.05.17/outbox.cif.g08.bks.cpg/sg58_18_cif.got.tgz:35097.got - 2010.06.03 14:20:14.
