data_PCOD9442112
_publ_section_title
;
Structure prediction by ZEFSAII (Michael W. Deem and Ramdas Pophale) SiO2 
 PCOD9442112
Probable space group: P N N M
;
_chemical_formula_sum "Si O2"
_cell_formula_units_Z 64
_cell_length_a 14.598794
_cell_length_b 28.677831
_cell_length_c 9.152860
_cell_angle_alpha 90.000000
_cell_angle_beta 90.000000
_cell_angle_gamma 90.000000
_cell_volume 3831.952359
_symmetry_space_group_name_H-M "P N N M"
_symmetry_group_IT_number 58
_symmetry_cell_setting 'orthorhombic'
loop_
_space_group_symop_operation_xyz
x,y,z
-x,-y,z
1/2+x,1/2-y,1/2-z
1/2-x,1/2+y,1/2-z
-x,-y,-z
x,y,-z
1/2-x,1/2+y,1/2+z
1/2+x,1/2-y,1/2+z
loop_
_atom_site_type_symbol
_atom_site_label
_atom_site_fract_x
_atom_site_fract_y
_atom_site_fract_z
Si Si1 0.401543 0.320412 0.828592
Si Si2 0.287722 0.995753 0.325498
Si Si3 0.948355 0.872428 0.826046
Si Si4 0.588724 0.469134 0.825575
Si Si5 0.191833 0.303803 0.824125
Si Si6 0.057751 0.548465 0.667638
Si Si7 0.397288 0.903028 0.324724
Si Si8 0.910575 0.780996 0.328515
O O1 0.448811 0.361093 0.733851
O O2 0.299547 0.306746 0.785513
O O3 0.477779 0.279367 0.816000
O O4 0.399682 0.334642 0.000000
O O5 0.299737 0.000100 0.500000
O O6 0.327463 0.944970 0.284046
O O7 0.181545 0.002974 0.291668
O O8 0.348801 0.035204 0.248457
O O9 0.915702 0.921243 0.762566
O O10 0.891067 0.829625 0.755064
O O11 0.945479 0.870829 0.000000
O O12 0.500000 0.500000 0.792316
O O13 0.588059 0.459020 0.000000
O O14 0.144692 0.353089 0.786532
O O15 0.140446 0.261828 0.744674
O O16 0.185941 0.297706 0.000000
O O17 0.073382 0.561496 0.500000
O O18 0.000000 0.500000 0.670596
O O19 0.993567 0.585553 0.748710
O O20 0.408952 0.904793 0.500000
O O21 0.888862 0.784611 0.500000
#
# Coordination Sequence:
#
# PCOD9442112 Si02
#       8
#     8   8   8   8   8   8   8   8
#     4   8  18  35  56  78 107 141 173 215 268 322
#     4   9  18  32  52  76 103 142 186 222 265 320
#     4  10  20  36  56  77 107 144 181 223 271 318
#     4  10  21  35  56  82 111 145 185 229 273 329
#     4  10  19  33  57  85 110 138 178 224 272 322
#     4   9  17  31  49  69  99 138 174 215 268 319
#     4   9  18  31  52  80 107 137 177 226 268 318
#     4   9  19  36  56  77 106 140 177 217 265 322
#
# _framework density 16.70167
#
# number of rings (size 3 to 8) (size 9 to 14) (size 15 to 20)
#    0.750    2.000    0.000    1.500    1.750    3.250 
#    0.000    1.250    0.000    3.000    0.000    0.000 
#    0.000    0.000    0.000    0.000    0.000    0.000 
#
# Total GULP energy -356304.687678 kJ/mol
# GULP energy per Si atom -5567.260745 kJ/mol
# Density = 1.666366 g / cm^3
# Si number density = 16.701670 Si / 1000 Ang^3
#
#
#
# Elastic Constant Matrix: (Units=GPa)
#
#
# Indices 1 2 3 4 5 6 
#
# 1 75.7128 35.6434 35.3556 0.0000 0.0000 0.0000
# 2 35.6434 99.0084 49.9952 0.0000 0.0000 0.0000
# 3 35.3556 49.9952 53.1480 0.0000 0.0000 0.0000
# 4 0.0000 0.0000 0.0000 28.0476 0.0000 0.0000
# 5 0.0000 0.0000 0.0000 0.0000 12.9792 0.0000
# 6 0.0000 0.0000 0.0000 0.0000 0.0000 20.6747
#
#
#
# Elastic Compliance Matrix: (Units=1/GPa)
#
#
# Indices 1 2 3 4 5 6 
#
# 1 0.019200 -0.000881 -0.011944 0.000000 0.000000 0.000000
# 2 -0.000881 0.019279 -0.017549 0.000000 0.000000 0.000000
# 3 -0.011944 -0.017549 0.043269 0.000000 0.000000 0.000000
# 4 0.000000 0.000000 0.000000 0.035654 0.000000 0.000000
# 5 0.000000 0.000000 0.000000 0.000000 0.077046 0.000000
# 6 0.000000 0.000000 0.000000 0.000000 0.000000 0.048368
#
#
# Mechanical properties :
#
#
# Convention : Reuss Voigt Hill
#
# Bulk Modulus (GPa) = 47.61907 52.20642 49.91274
# Shear Modulus (GPa) = 16.09976 19.46529 17.78253
#
# Velocity S-wave (km/s) = 3.10814 3.41760 3.26654
# Velocity P-wave (km/s) = 6.43849 6.84831 6.64656
#
# Compressibility (1/GPa) = 0.02099999
#
# Stress axis : x y z
#
# Youngs Moduli (GPa) = 52.08371 51.86985 23.11127
#
# Poissons Ratio (x) = 0.04570 0.27603
# Poissons Ratio (y) = 0.04589 0.40559
# Poissons Ratio (z) = 0.62207 0.91028
#
# Static dielectric constant tensor:
#      x y z
#    x 1.562950 0.000000 0.000000 
#    y 0.000000 1.542740 0.000000 
#    z 0.000000 0.000000 1.558510 
# 
# From -- ./inp_files/7172.got.cif
#   From: 2010.05.17/outbox.cif.g08.bks.cpg/sg58_4_cif.got.tgz:7172.got - 2010.06.03 14:20:14.
