data_PCOD9442814
_publ_section_title
;
Structure prediction by ZEFSAII (Michael W. Deem and Ramdas Pophale) SiO2 
 PCOD9442814
Probable space group: P N N M
;
_chemical_formula_sum "Si O2"
_cell_formula_units_Z 64
_cell_length_a 16.505174
_cell_length_b 23.015935
_cell_length_c 9.632778
_cell_angle_alpha 90.000000
_cell_angle_beta 90.000000
_cell_angle_gamma 90.000000
_cell_volume 3659.319087
_symmetry_space_group_name_H-M "P N N M"
_symmetry_group_IT_number 58
_symmetry_cell_setting 'orthorhombic'
loop_
_space_group_symop_operation_xyz
x,y,z
-x,-y,z
1/2+x,1/2-y,1/2-z
1/2-x,1/2+y,1/2-z
-x,-y,-z
x,y,-z
1/2-x,1/2+y,1/2+z
1/2+x,1/2-y,1/2+z
loop_
_atom_site_type_symbol
_atom_site_label
_atom_site_fract_x
_atom_site_fract_y
_atom_site_fract_z
Si Si1 0.751623 0.352247 0.167121
Si Si2 0.890953 0.793025 0.841773
Si Si3 0.280274 0.405664 0.338151
Si Si4 0.299499 0.542118 0.334078
Si Si5 0.444254 0.339779 0.247853
Si Si6 0.050465 0.058976 0.350889
Si Si7 0.317640 0.821640 0.655804
Si Si8 0.661168 0.763519 0.847018
O O1 0.668083 0.324247 0.230636
O O2 0.755796 0.414838 0.242583
O O3 0.821963 0.310534 0.228044
O O4 0.751228 0.353679 0.000000
O O5 0.888369 0.724021 0.808288
O O6 0.980937 0.818348 0.840796
O O7 0.858584 0.800284 0.000000
O O8 0.262861 0.400947 0.500000
O O9 0.287006 0.473870 0.303272
O O10 0.366122 0.372687 0.311479
O O11 0.209595 0.373230 0.254548
O O12 0.292027 0.551539 0.500000
O O13 0.389479 0.557378 0.278943
O O14 0.488199 0.388020 0.154800
O O15 0.411243 0.281529 0.176676
O O16 0.095412 0.061220 0.500000
O O17 0.000000 0.000000 0.346899
O O18 0.330535 0.843615 0.500000
O O19 0.239794 0.778557 0.654519
O O20 0.655269 0.790682 0.000000
#
# Coordination Sequence:
#
# PCOD9442814 Si02
#       8
#     8   8   8   8   8   8   8   8
#     4  11  22  35  52  74  99 133 179 221 262 308
#     4  10  20  33  51  74 104 141 174 213 262 306
#     4  10  21  34  50  75 102 136 178 216 254 304
#     4  11  22  35  51  73 102 138 177 213 259 312
#     4  11  20  32  53  80 106 141 178 210 252 307
#     4  11  22  34  48  72 107 141 175 212 248 297
#     4   8  17  33  50  69  96 135 175 212 258 303
#     4   9  19  35  52  71 101 137 173 215 263 307
#
# _framework density 17.489591999999998
#
# number of rings (size 3 to 8) (size 9 to 14) (size 15 to 20)
#    0.000    1.875    2.500    3.000    0.000    7.750 
#    0.000    0.000    0.000    0.000    0.000    0.875 
#    0.000    6.000    0.000    0.000    0.000    0.000 
#
# Total GULP energy -356391.920149 kJ/mol
# GULP energy per Si atom -5568.623752 kJ/mol
# Density = 1.744979 g / cm^3
# Si number density = 17.489592 Si / 1000 Ang^3
#
#
#
# Elastic Constant Matrix: (Units=GPa)
#
#
# Indices 1 2 3 4 5 6 
#
# 1 27.5712 43.6878 22.9190 0.0000 0.0000 0.0000
# 2 43.6878 126.9558 72.5354 0.0000 0.0000 0.0000
# 3 22.9190 72.5354 123.7072 0.0000 0.0000 0.0000
# 4 0.0000 0.0000 0.0000 19.9278 0.0000 0.0000
# 5 0.0000 0.0000 0.0000 0.0000 11.5838 0.0000
# 6 0.0000 0.0000 0.0000 0.0000 0.0000 35.3203
#
#
#
# Elastic Compliance Matrix: (Units=1/GPa)
#
#
# Indices 1 2 3 4 5 6 
#
# 1 0.080084 -0.028694 0.001988 0.000000 0.000000 0.000000
# 2 -0.028694 0.022126 -0.007657 0.000000 0.000000 0.000000
# 3 0.001988 -0.007657 0.012205 0.000000 0.000000 0.000000
# 4 0.000000 0.000000 0.000000 0.050181 0.000000 0.000000
# 5 0.000000 0.000000 0.000000 0.000000 0.086327 0.000000
# 6 0.000000 0.000000 0.000000 0.000000 0.000000 0.028312
#
#
# Mechanical properties :
#
#
# Convention : Reuss Voigt Hill
#
# Bulk Modulus (GPa) = 21.88764 61.83539 41.86151
# Shear Modulus (GPa) = 13.76678 22.63919 18.20298
#
# Velocity S-wave (km/s) = 2.80865 3.60173 3.22963
# Velocity P-wave (km/s) = 4.80207 7.26147 6.15584
#
# Compressibility (1/GPa) = 0.04568788
#
# Stress axis : x y z
#
# Youngs Moduli (GPa) = 12.48682 45.19597 81.93208
#
# Poissons Ratio (x) = 1.29686 -0.16285
# Poissons Ratio (y) = 0.35830 0.62738
# Poissons Ratio (z) = -0.02482 0.34608
#
# Static dielectric constant tensor:
#      x y z
#    x 1.612020 0.000000 0.000000 
#    y 0.000000 1.637080 0.000000 
#    z 0.000000 0.000000 1.616660 
# 
# From -- ./inp_files/8506.got.cif
#   From: 2010.05.17/outbox.cif.g08.bks.cpg/sg58_5_cif.got.tgz:8506.got - 2010.06.03 14:20:14.
