data_PCOD9442778
_publ_section_title
;
Structure prediction by ZEFSAII (Michael W. Deem and Ramdas Pophale) SiO2 
 PCOD9442778
Probable space group: P N N M
;
_chemical_formula_sum "Si O2"
_cell_formula_units_Z 58
_cell_length_a 30.208320
_cell_length_b 12.232685
_cell_length_c 7.559645
_cell_angle_alpha 90.000000
_cell_angle_beta 90.000000
_cell_angle_gamma 90.000000
_cell_volume 2793.507021
_symmetry_space_group_name_H-M "P N N M"
_symmetry_group_IT_number 58
_symmetry_cell_setting 'orthorhombic'
loop_
_space_group_symop_operation_xyz
x,y,z
-x,-y,z
1/2+x,1/2-y,1/2-z
1/2-x,1/2+y,1/2-z
-x,-y,-z
x,y,-z
1/2-x,1/2+y,1/2+z
1/2+x,1/2-y,1/2+z
loop_
_atom_site_type_symbol
_atom_site_label
_atom_site_fract_x
_atom_site_fract_y
_atom_site_fract_z
Si Si1 0.280645 0.647132 0.786547
Si Si2 0.422817 0.719853 0.797396
Si Si3 0.480916 0.341348 0.793597
Si Si4 0.182490 0.596872 0.788693
Si Si5 0.340062 0.847320 0.213323
Si Si6 0.500000 0.500000 0.500000
Si Si7 0.889866 0.231160 0.785702
Si Si8 0.865449 0.987526 0.791036
O O1 0.231297 0.626437 0.719132
O O2 0.303159 0.760365 0.724600
O O3 0.315146 0.551636 0.739540
O O4 0.278869 0.651585 0.000000
O O5 0.471817 0.703231 0.722119
O O6 0.387825 0.805358 0.718082
O O7 0.396874 0.604489 0.793930
O O8 0.430656 0.752708 0.000000
O O9 0.471101 0.439063 0.657692
O O10 0.440266 0.258182 0.778364
O O11 0.485408 0.373778 0.000000
O O12 0.171244 0.470762 0.756973
O O13 0.143983 0.676740 0.721514
O O14 0.184225 0.613156 0.000000
O O15 0.341750 0.837239 0.000000
O O16 0.873753 0.110396 0.728181
O O17 0.890088 0.233531 0.000000
O O18 0.873879 0.982175 0.000000
#
# Coordination Sequence:
#
# PCOD9442778 Si02
#       8
#     8   8   8   8   8   2   8   8
#     4   9  20  38  58  81 115 154 193 249 305 361
#     4   9  20  38  59  85 117 154 196 248 300 363
#     4  11  23  38  61  90 125 168 211 250 315 377
#     4  10  22  39  59  83 117 159 201 250 308 362
#     4   9  19  38  61  83 112 150 197 250 302 354
#     4  12  22  36  60  94 130 164 198 268 304 368
#     4  10  22  39  56  84 125 163 199 254 311 366
#     4  10  20  32  56  86 114 150 194 239 298 363
#
# _framework density 20.762433000000001
#
# number of rings (size 3 to 8) (size 9 to 14) (size 15 to 20)
#    0.000    2.207    0.690    2.276    4.828    5.517 
#    0.000    0.690    0.000    4.138    0.000    0.000 
#    0.000    0.000    0.000    0.000    0.000    0.000 
#
# Total GULP energy -323310.759476 kJ/mol
# GULP energy per Si atom -5574.323439 kJ/mol
# Density = 2.071518 g / cm^3
# Si number density = 20.762433 Si / 1000 Ang^3
#
#
#
# Elastic Constant Matrix: (Units=GPa)
#
#
# Indices 1 2 3 4 5 6 
#
# 1 189.9811 84.9578 10.7008 0.0000 0.0000 0.0000
# 2 84.9578 108.2944 -0.8120 0.0000 0.0000 0.0000
# 3 10.7008 -0.8120 79.0059 0.0000 0.0000 0.0000
# 4 0.0000 0.0000 0.0000 21.5304 0.0000 0.0000
# 5 0.0000 0.0000 0.0000 0.0000 18.7539 0.0000
# 6 0.0000 0.0000 0.0000 0.0000 0.0000 26.3057
#
#
#
# Elastic Compliance Matrix: (Units=1/GPa)
#
#
# Indices 1 2 3 4 5 6 
#
# 1 0.008217 -0.006455 -0.001179 0.000000 0.000000 0.000000
# 2 -0.006455 0.014306 0.001021 0.000000 0.000000 0.000000
# 3 -0.001179 0.001021 0.012827 0.000000 0.000000 0.000000
# 4 0.000000 0.000000 0.000000 0.046446 0.000000 0.000000
# 5 0.000000 0.000000 0.000000 0.000000 0.053322 0.000000
# 6 0.000000 0.000000 0.000000 0.000000 0.000000 0.038015
#
#
# Mechanical properties :
#
#
# Convention : Reuss Voigt Hill
#
# Bulk Modulus (GPa) = 45.19940 62.99717 54.09829
# Shear Modulus (GPa) = 25.80873 32.14699 28.97786
#
# Velocity S-wave (km/s) = 3.52952 3.93914 3.73994
# Velocity P-wave (km/s) = 6.19895 7.14821 6.69044
#
# Compressibility (1/GPa) = 0.02212419
#
# Stress axis : x y z
#
# Youngs Moduli (GPa) = 121.70391 69.90245 77.95755
#
# Poissons Ratio (x) = 0.45121 0.09193
# Poissons Ratio (y) = 0.78558 -0.07962
# Poissons Ratio (z) = 0.14352 -0.07139
#
# Static dielectric constant tensor:
#      x y z
#    x 1.800820 0.000000 0.000000 
#    y 0.000000 1.732570 0.000000 
#    z 0.000000 0.000000 1.803150 
# 
# From -- ./inp_files/10910.got.cif
#   From: 2010.05.17/outbox.cif.g08.bks.cpg/sg58_6_cif.got.tgz:10910.got - 2010.06.03 14:20:14.
