data_PCOD9442877
_publ_section_title
;
Structure prediction by ZEFSAII (Michael W. Deem and Ramdas Pophale) SiO2 
 PCOD9442877
Probable space group: P N N M
;
_chemical_formula_sum "Si O2"
_cell_formula_units_Z 64
_cell_length_a 8.252722
_cell_length_b 14.578215
_cell_length_c 29.922782
_cell_angle_alpha 90.000000
_cell_angle_beta 90.000000
_cell_angle_gamma 90.000000
_cell_volume 3600.008575
_symmetry_space_group_name_H-M "P N N M"
_symmetry_group_IT_number 58
_symmetry_cell_setting 'orthorhombic'
loop_
_space_group_symop_operation_xyz
x,y,z
-x,-y,z
1/2+x,1/2-y,1/2-z
1/2-x,1/2+y,1/2-z
-x,-y,-z
x,y,-z
1/2-x,1/2+y,1/2+z
1/2+x,1/2-y,1/2+z
loop_
_atom_site_type_symbol
_atom_site_label
_atom_site_fract_x
_atom_site_fract_y
_atom_site_fract_z
Si Si1 0.388230 0.586035 0.638622
Si Si2 0.588647 0.145892 0.051380
Si Si3 0.575797 0.225910 0.855013
Si Si4 0.301720 0.426008 0.777935
Si Si5 0.269112 0.730146 0.302493
Si Si6 0.740799 0.456046 0.449621
Si Si7 0.664405 0.034921 0.186783
Si Si8 0.680102 0.375391 0.790614
O O1 0.500000 0.500000 0.650042
O O2 0.402768 0.677691 0.667341
O O3 0.378536 0.591045 0.585614
O O4 0.214130 0.545481 0.653516
O O5 0.584567 0.220011 0.091248
O O6 0.412641 0.096738 0.052506
O O7 0.716715 0.062919 0.060097
O O8 0.613648 0.178112 0.000000
O O9 0.395482 0.232472 0.832652
O O10 0.641474 0.128010 0.839239
O O11 0.683066 0.304289 0.831416
O O12 0.197829 0.335963 0.790033
O O13 0.288598 0.448133 0.725875
O O14 0.488129 0.397832 0.785123
O O15 0.251029 0.522866 0.799812
O O16 0.257801 0.673101 0.255511
O O17 0.679894 0.449914 0.500000
O O18 0.500000 0.000000 0.209107
#
# Coordination Sequence:
#
# PCOD9442877 Si02
#       8
#     8   8   8   8   8   8   8   8
#     4  12  22  31  47  72 104 135 164 204 253 305
#     4   9  16  29  50  76  98 122 165 215 252 296
#     4  11  19  30  52  73  94 136 172 200 251 307
#     4  10  21  34  47  68 101 134 170 216 249 296
#     4  11  20  32  48  69  96 135 175 201 247 302
#     4   9  17  30  49  71 100 129 160 206 256 302
#     4  12  19  31  50  70  97 130 175 211 239 293
#     4  10  20  34  47  70 101 134 170 209 258 297
#
# _framework density 17.777735
#
# number of rings (size 3 to 8) (size 9 to 14) (size 15 to 20)
#    0.000    1.500    6.250    1.500    0.000    0.250 
#    0.000    0.000    0.000    0.000    0.000    7.875 
#    0.000    0.000    0.000    2.750    0.000    1.500 
#
# Total GULP energy -356551.033708 kJ/mol
# GULP energy per Si atom -5571.109902 kJ/mol
# Density = 1.773727 g / cm^3
# Si number density = 17.777735 Si / 1000 Ang^3
#
#
#
# Elastic Constant Matrix: (Units=GPa)
#
#
# Indices 1 2 3 4 5 6 
#
# 1 10.3019 10.8828 6.3788 0.0000 0.0000 0.0000
# 2 10.8828 119.2292 53.8971 0.0000 0.0000 0.0000
# 3 6.3788 53.8971 132.2909 0.0000 0.0000 0.0000
# 4 0.0000 0.0000 0.0000 26.9488 0.0000 0.0000
# 5 0.0000 0.0000 0.0000 0.0000 15.0079 0.0000
# 6 0.0000 0.0000 0.0000 0.0000 0.0000 20.9053
#
#
#
# Elastic Compliance Matrix: (Units=1/GPa)
#
#
# Indices 1 2 3 4 5 6 
#
# 1 0.107657 -0.009168 -0.001456 0.000000 0.000000 0.000000
# 2 -0.009168 0.011061 -0.004064 0.000000 0.000000 0.000000
# 3 -0.001456 -0.004064 0.009285 0.000000 0.000000 0.000000
# 4 0.000000 0.000000 0.000000 0.037107 0.000000 0.000000
# 5 0.000000 0.000000 0.000000 0.000000 0.066632 0.000000
# 6 0.000000 0.000000 0.000000 0.000000 0.000000 0.047835
#
#
# Mechanical properties :
#
#
# Convention : Reuss Voigt Hill
#
# Bulk Modulus (GPa) = 10.13930 44.90436 27.52183
# Shear Modulus (GPa) = 14.62717 25.28329 19.95523
#
# Velocity S-wave (km/s) = 2.87153 3.77528 3.35398
# Velocity P-wave (km/s) = 4.08778 6.65712 5.52391
#
# Compressibility (1/GPa) = 0.09862614
#
# Stress axis : x y z
#
# Youngs Moduli (GPa) = 9.28878 90.40452 107.69821
#
# Poissons Ratio (x) = 0.82887 0.15677
# Poissons Ratio (y) = 0.08516 0.43774
# Poissons Ratio (z) = 0.01352 0.36745
#
# Static dielectric constant tensor:
#      x y z
#    x 1.734240 0.000000 0.000000 
#    y 0.000000 1.652490 0.000000 
#    z 0.000000 0.000000 1.639300 
# 
# From -- ./inp_files/34823.got.cif
#   From: 2010.05.17/outbox.cif.g08.bks.cpg/sg58_18_cif.got.tgz:34823.got - 2010.06.03 14:20:14.
