data_PCOD9442624
_publ_section_title
;
Structure prediction by ZEFSAII (Michael W. Deem and Ramdas Pophale) SiO2 
 PCOD9442624
Probable space group: P N N M
;
_chemical_formula_sum "Si O2"
_cell_formula_units_Z 48
_cell_length_a 14.317497
_cell_length_b 9.448347
_cell_length_c 16.402987
_cell_angle_alpha 90.000000
_cell_angle_beta 90.000000
_cell_angle_gamma 90.000000
_cell_volume 2218.941621
_symmetry_space_group_name_H-M "P N N M"
_symmetry_group_IT_number 58
_symmetry_cell_setting 'orthorhombic'
loop_
_space_group_symop_operation_xyz
x,y,z
-x,-y,z
1/2+x,1/2-y,1/2-z
1/2-x,1/2+y,1/2-z
-x,-y,-z
x,y,-z
1/2-x,1/2+y,1/2+z
1/2+x,1/2-y,1/2+z
loop_
_atom_site_type_symbol
_atom_site_label
_atom_site_fract_x
_atom_site_fract_y
_atom_site_fract_z
Si Si1 0.747232 0.375066 0.406461
Si Si2 0.459791 0.657539 0.404438
Si Si3 0.694147 0.159531 0.841441
Si Si4 0.370110 0.159841 0.597073
Si Si5 0.244369 0.409758 0.839611
Si Si6 0.905631 0.909570 0.402869
O O1 0.738595 0.419776 0.500000
O O2 0.643222 0.359438 0.369279
O O3 0.807800 0.494194 0.364015
O O4 0.779559 0.214463 0.399061
O O5 0.500000 0.500000 0.401933
O O6 0.447193 0.697305 0.500000
O O7 0.534875 0.768281 0.370005
O O8 0.784423 0.232585 0.884698
O O9 0.719493 0.157973 0.746446
O O10 0.604178 0.247170 0.872247
O O11 0.378298 0.147557 0.500000
O O12 0.342342 0.005686 0.630462
O O13 0.330230 0.517554 0.843348
O O14 0.879451 0.912774 0.500000
O O15 0.000000 0.000000 0.395052
#
# Coordination Sequence:
#
# PCOD9442624 Si02
#       6
#     8   8   8   8   8   8
#     4  11  20  34  60  89 119 157 202 254 308 374
#     4   9  17  31  55  90 116 147 202 248 297 367
#     4  11  21  38  60  91 127 163 209 264 332 385
#     4  10  19  37  61  85 123 172 215 256 308 386
#     4  11  23  38  56  91 130 167 206 261 335 389
#     4  10  22  45  73  93 118 171 234 277 317 387
#
# _framework density 21.631934999999999
#
# number of rings (size 3 to 8) (size 9 to 14) (size 15 to 20)
#    0.000    1.667    1.667    6.000    0.000    0.667 
#    6.000    3.333    3.667    3.000    0.000    0.000 
#    0.000    0.000    0.000    0.000    0.000    0.000 
#
# Total GULP energy -267668.572058 kJ/mol
# GULP energy per Si atom -5576.428585 kJ/mol
# Density = 2.158270 g / cm^3
# Si number density = 21.631935 Si / 1000 Ang^3
#
#
#
# Elastic Constant Matrix: (Units=GPa)
#
#
# Indices 1 2 3 4 5 6 
#
# 1 47.2159 37.8227 19.3912 0.0000 0.0000 0.0000
# 2 37.8227 123.3196 19.6253 0.0000 0.0000 0.0000
# 3 19.3912 19.6253 95.9011 0.0000 0.0000 0.0000
# 4 0.0000 0.0000 0.0000 14.4364 0.0000 0.0000
# 5 0.0000 0.0000 0.0000 0.0000 4.1622 0.0000
# 6 0.0000 0.0000 0.0000 0.0000 0.0000 43.6298
#
#
#
# Elastic Compliance Matrix: (Units=1/GPa)
#
#
# Indices 1 2 3 4 5 6 
#
# 1 0.029684 -0.008423 -0.004278 0.000000 0.000000 0.000000
# 2 -0.008423 0.010772 -0.000501 0.000000 0.000000 0.000000
# 3 -0.004278 -0.000501 0.011395 0.000000 0.000000 0.000000
# 4 0.000000 0.000000 0.000000 0.069269 0.000000 0.000000
# 5 0.000000 0.000000 0.000000 0.000000 0.240257 0.000000
# 6 0.000000 0.000000 0.000000 0.000000 0.000000 0.022920
#
#
# Mechanical properties :
#
#
# Convention : Reuss Voigt Hill
#
# Bulk Modulus (GPa) = 39.29976 46.67945 42.98961
# Shear Modulus (GPa) = 11.92791 25.08551 18.50671
#
# Velocity S-wave (km/s) = 2.35074 3.40906 2.92811
# Velocity P-wave (km/s) = 5.05716 6.09273 5.59894
#
# Compressibility (1/GPa) = 0.02544544
#
# Stress axis : x y z
#
# Youngs Moduli (GPa) = 33.68815 92.83097 87.75728
#
# Poissons Ratio (x) = 0.78195 0.37546
# Poissons Ratio (y) = 0.28377 0.04399
# Poissons Ratio (z) = 0.14413 0.04653
#
# Static dielectric constant tensor:
#      x y z
#    x 1.843600 0.000000 0.000000 
#    y 0.000000 2.220910 0.000000 
#    z 0.000000 0.000000 1.784330 
# 
# From -- ./inp_files/26813.got.cif
#   From: 2010.05.17/outbox.cif.g08.bks.cpg/sg58_14_cif.got.tgz:26813.got - 2010.06.03 14:20:14.
