data_PCOD9442340
_publ_section_title
;
Structure prediction by ZEFSAII (Michael W. Deem and Ramdas Pophale) SiO2 
 PCOD9442340
Probable space group: P N N M
;
_chemical_formula_sum "Si O2"
_cell_formula_units_Z 64
_cell_length_a 15.046624
_cell_length_b 11.702975
_cell_length_c 18.526102
_cell_angle_alpha 90.000000
_cell_angle_beta 90.000000
_cell_angle_gamma 90.000000
_cell_volume 3262.266201
_symmetry_space_group_name_H-M "P N N M"
_symmetry_group_IT_number 58
_symmetry_cell_setting 'orthorhombic'
loop_
_space_group_symop_operation_xyz
x,y,z
-x,-y,z
1/2+x,1/2-y,1/2-z
1/2-x,1/2+y,1/2-z
-x,-y,-z
x,y,-z
1/2-x,1/2+y,1/2+z
1/2+x,1/2-y,1/2+z
loop_
_atom_site_type_symbol
_atom_site_label
_atom_site_fract_x
_atom_site_fract_y
_atom_site_fract_z
Si Si1 0.091541 0.936873 0.832877
Si Si2 0.334753 0.798701 0.211847
Si Si3 0.098814 0.052284 0.689717
Si Si4 0.663297 0.792585 0.081193
Si Si5 0.134630 0.726383 0.741818
Si Si6 0.740380 0.550532 0.081121
Si Si7 0.899733 0.510736 0.817893
Si Si8 0.264575 0.949960 0.917746
O O1 0.080878 0.814034 0.793545
O O2 0.161078 0.934082 0.897390
O O3 0.134498 0.010879 0.767773
O O4 0.000000 0.000000 0.851453
O O5 0.390622 0.687629 0.190230
O O6 0.238266 0.761222 0.244382
O O7 0.315925 0.874765 0.141140
O O8 0.383832 0.876365 0.270399
O O9 0.160654 0.998230 0.629100
O O10 0.000000 0.000000 0.683833
O O11 0.611503 0.769514 0.156512
O O12 0.732712 0.687966 0.080734
O O13 0.707612 0.917004 0.088602
O O14 0.620119 0.788812 0.000000
O O15 0.121572 0.598451 0.768554
O O16 0.831026 0.512295 0.117070
O O17 0.731528 0.508696 0.000000
O O18 0.000000 0.500000 0.843006
O O19 0.282008 0.914411 0.000000
#
# Coordination Sequence:
#
# PCOD9442340 Si02
#       8
#     8   8   8   8   8   8   8   8
#     4  10  22  36  60  91 126 159 209 267 314 375
#     4  11  22  40  64  92 127 166 214 271 320 379
#     4  11  23  40  67  95 123 164 219 273 320 378
#     4  10  19  34  63  88 116 162 210 257 319 380
#     4  11  20  41  65  88 126 169 217 260 324 378
#     4  11  23  42  63  90 130 173 211 265 325 385
#     4  12  26  39  65  99 127 170 219 265 320 389
#     4  10  21  38  62  89 122 168 210 258 325 384
#
# _framework density 19.618262999999999
#
# number of rings (size 3 to 8) (size 9 to 14) (size 15 to 20)
#    0.000    1.250    5.000    1.500    3.500    1.250 
#    0.000    0.000    0.000    1.875    0.000    0.000 
#    0.000    0.000    0.000    0.000    0.000    0.000 
#
# Total GULP energy -357357.933482 kJ/mol
# GULP energy per Si atom -5583.717711 kJ/mol
# Density = 1.957361 g / cm^3
# Si number density = 19.618263 Si / 1000 Ang^3
#
#
#
# Elastic Constant Matrix: (Units=GPa)
#
#
# Indices 1 2 3 4 5 6 
#
# 1 57.7836 15.0603 -16.2508 0.0000 0.0000 0.0000
# 2 15.0603 89.6242 -21.1163 0.0000 0.0000 0.0000
# 3 -16.2508 -21.1163 24.2562 0.0000 0.0000 0.0000
# 4 0.0000 0.0000 0.0000 12.9959 0.0000 0.0000
# 5 0.0000 0.0000 0.0000 0.0000 3.6600 0.0000
# 6 0.0000 0.0000 0.0000 0.0000 0.0000 23.2489
#
#
#
# Elastic Compliance Matrix: (Units=1/GPa)
#
#
# Indices 1 2 3 4 5 6 
#
# 1 0.021329 -0.000273 0.014052 0.000000 0.000000 0.000000
# 2 -0.000273 0.014040 0.012040 0.000000 0.000000 0.000000
# 3 0.014052 0.012040 0.061122 0.000000 0.000000 0.000000
# 4 0.000000 0.000000 0.000000 0.076947 0.000000 0.000000
# 5 0.000000 0.000000 0.000000 0.000000 0.273222 0.000000
# 6 0.000000 0.000000 0.000000 0.000000 0.000000 0.043013
#
#
# Mechanical properties :
#
#
# Convention : Reuss Voigt Hill
#
# Bulk Modulus (GPa) = 6.75096 14.11671 10.43383
# Shear Modulus (GPa) = 10.25824 20.91236 15.58530
#
# Velocity S-wave (km/s) = 2.28917 3.26845 2.82162
# Velocity P-wave (km/s) = 3.23043 4.63196 3.99316
#
# Compressibility (1/GPa) = 0.14812704
#
# Stress axis : x y z
#
# Youngs Moduli (GPa) = 46.88453 71.22349 16.36077
#
# Poissons Ratio (x) = 0.01947 -0.22990
# Poissons Ratio (y) = 0.01282 -0.19698
# Poissons Ratio (z) = -0.65880 -0.85751
#
# Static dielectric constant tensor:
#      x y z
#    x 1.694990 0.000000 0.000000 
#    y 0.000000 1.701060 0.000000 
#    z 0.000000 0.000000 1.681900 
# 
# From -- ./inp_files/26346.got.cif
#   From: 2010.05.17/outbox.cif.g08.bks.cpg/sg58_14_cif.got.tgz:26346.got - 2010.06.03 14:20:14.
