data_PCOD9442165
_publ_section_title
;
Structure prediction by ZEFSAII (Michael W. Deem and Ramdas Pophale) SiO2 
 PCOD9442165
Probable space group: P N N M
;
_chemical_formula_sum "Si O2"
_cell_formula_units_Z 32
_cell_length_a 19.472330
_cell_length_b 7.573935
_cell_length_c 10.868282
_cell_angle_alpha 90.000000
_cell_angle_beta 90.000000
_cell_angle_gamma 90.000000
_cell_volume 1602.877724
_symmetry_space_group_name_H-M "P N N M"
_symmetry_group_IT_number 58
_symmetry_cell_setting 'orthorhombic'
loop_
_space_group_symop_operation_xyz
x,y,z
-x,-y,z
1/2+x,1/2-y,1/2-z
1/2-x,1/2+y,1/2-z
-x,-y,-z
x,y,-z
1/2-x,1/2+y,1/2+z
1/2+x,1/2-y,1/2+z
loop_
_atom_site_type_symbol
_atom_site_label
_atom_site_fract_x
_atom_site_fract_y
_atom_site_fract_z
Si Si1 0.543051 0.821546 0.135867
Si Si2 0.819743 0.801252 0.854866
Si Si3 0.416009 0.375740 0.362168
Si Si4 0.823605 0.408408 0.242305
O O1 0.535443 0.691603 0.252145
O O2 0.623353 0.876351 0.145709
O O3 0.500000 0.000000 0.153917
O O4 0.527687 0.749338 0.000000
O O5 0.833553 0.603571 0.809808
O O6 0.754047 0.874558 0.781374
O O7 0.883514 0.933396 0.838062
O O8 0.803947 0.799177 0.000000
O O9 0.444811 0.363975 0.500000
O O10 0.351722 0.238481 0.352715
#
# Coordination Sequence:
#
# PCOD9442165 Si02
#       4
#     8   8   8   8
#     4   9  19  37  58  79 107 143 182 222 266 320
#     4  11  20  34  54  82 113 140 180 223 267 326
#     4   9  20  35  54  80 107 140 178 219 267 316
#     4  10  19  34  54  80 107 145 171 221 271 313
#
# _framework density 19.964092000000001
#
# number of rings (size 3 to 8) (size 9 to 14) (size 15 to 20)
#    1.500    0.750    2.500    1.500    0.000    0.500 
#    0.000    3.750    0.000    6.000    0.000    0.000 
#    0.000    0.000    0.000    0.000    0.000    0.000 
#
# Total GULP energy -178258.829152 kJ/mol
# GULP energy per Si atom -5570.588411 kJ/mol
# Density = 1.991865 g / cm^3
# Si number density = 19.964092 Si / 1000 Ang^3
#
#
#
# Elastic Constant Matrix: (Units=GPa)
#
#
# Indices 1 2 3 4 5 6 
#
# 1 43.4881 14.2359 39.2364 0.0000 0.0000 0.0000
# 2 14.2359 131.0173 49.6738 0.0000 0.0000 0.0000
# 3 39.2364 49.6738 130.2014 0.0000 0.0000 0.0000
# 4 0.0000 0.0000 0.0000 -48.1937 0.0000 0.0000
# 5 0.0000 0.0000 0.0000 0.0000 39.4097 0.0000
# 6 0.0000 0.0000 0.0000 0.0000 0.0000 31.5376
#
#
#
# Elastic Compliance Matrix: (Units=1/GPa)
#
#
# Indices 1 2 3 4 5 6 
#
# 1 0.031586 0.000207 -0.009597 0.000000 0.000000 0.000000
# 2 0.000207 0.008925 -0.003467 0.000000 0.000000 0.000000
# 3 -0.009597 -0.003467 0.011895 0.000000 0.000000 0.000000
# 4 0.000000 0.000000 0.000000 -0.020750 0.000000 0.000000
# 5 0.000000 0.000000 0.000000 0.000000 0.025374 0.000000
# 6 0.000000 0.000000 0.000000 0.000000 0.000000 0.031708
#
#
# Mechanical properties :
#
#
# Convention : Reuss Voigt Hill
#
# Bulk Modulus (GPa) = 37.46653 56.77767 47.12210
# Shear Modulus (GPa) = 40.53437 17.98808 29.26123
#
# Velocity S-wave (km/s) = 4.51084 3.00496 3.83259
# Velocity P-wave (km/s) = 6.77776 6.36721 6.57569
#
# Compressibility (1/GPa) = 0.02669049
#
# Stress axis : x y z
#
# Youngs Moduli (GPa) = 31.65933 112.04895 84.06611
#
# Poissons Ratio (x) = -0.02316 0.80682
# Poissons Ratio (y) = -0.00654 0.29147
# Poissons Ratio (z) = 0.30385 0.38849
#
# Static dielectric constant tensor:
#      x y z
#    x 1.706460 0.000000 0.000000 
#    y 0.000000 1.677280 0.000000 
#    z 0.000000 0.000000 1.698880 
# 
# From -- ./inp_files/2370.got.cif
#   From: 2010.05.17/outbox.cif.g08.bks.cpg/sg58_2_cif.got.tgz:2370.got - 2010.06.03 14:20:14.
