data_PCOD9442411
_publ_section_title
;
Structure prediction by ZEFSAII (Michael W. Deem and Ramdas Pophale) SiO2 
 PCOD9442411
Probable space group: P N N M
;
_chemical_formula_sum "Si O2"
_cell_formula_units_Z 64
_cell_length_a 25.356755
_cell_length_b 15.220713
_cell_length_c 7.863951
_cell_angle_alpha 90.000000
_cell_angle_beta 90.000000
_cell_angle_gamma 90.000000
_cell_volume 3035.075299
_symmetry_space_group_name_H-M "P N N M"
_symmetry_group_IT_number 58
_symmetry_cell_setting 'orthorhombic'
loop_
_space_group_symop_operation_xyz
x,y,z
-x,-y,z
1/2+x,1/2-y,1/2-z
1/2-x,1/2+y,1/2-z
-x,-y,-z
x,y,-z
1/2-x,1/2+y,1/2+z
1/2+x,1/2-y,1/2+z
loop_
_atom_site_type_symbol
_atom_site_label
_atom_site_fract_x
_atom_site_fract_y
_atom_site_fract_z
Si Si1 0.442948 0.246960 0.295484
Si Si2 0.477003 0.906879 0.204596
Si Si3 0.766495 0.838931 0.297708
Si Si4 0.167974 0.995998 0.294111
Si Si5 0.351006 0.127458 0.706838
Si Si6 0.756211 0.639741 0.195446
Si Si7 0.549589 0.556353 0.705114
Si Si8 0.864002 0.563418 0.302584
O O1 0.442453 0.251434 0.500000
O O2 0.485319 0.173683 0.246521
O O3 0.385730 0.210861 0.242485
O O4 0.453766 0.343882 0.228884
O O5 0.417026 0.891316 0.265315
O O6 0.500000 0.000000 0.269842
O O7 0.473356 0.914697 0.000000
O O8 0.765387 0.851194 0.500000
O O9 0.708732 0.865130 0.232514
O O10 0.770758 0.734883 0.269586
O O11 0.809363 0.909299 0.233592
O O12 0.170727 0.994599 0.500000
O O13 0.207715 0.918201 0.231259
O O14 0.107538 0.980767 0.245385
O O15 0.352006 0.120521 0.500000
O O16 0.375431 0.039891 0.784479
O O17 0.809722 0.583318 0.208321
O O18 0.742942 0.655927 0.000000
O O19 0.500000 0.500000 0.768885
O O20 0.545632 0.558944 0.500000
O O21 0.855708 0.586645 0.500000
#
# Coordination Sequence:
#
# PCOD9442411 Si02
#       8
#     8   8   8   8   8   8   8   8
#     4  10  21  36  60  89 116 157 203 246 302 355
#     4  10  21  37  55  82 119 154 193 243 293 350
#     4  10  21  39  61  88 124 160 195 242 299 355
#     4  10  22  41  64  89 121 158 198 245 299 357
#     4  10  19  35  58  84 119 156 194 243 296 352
#     4  11  23  40  60  89 123 156 199 246 294 354
#     4  10  23  43  64  88 119 154 201 254 298 347
#     4  11  22  36  57  84 118 158 196 239 297 353
#
# _framework density 21.086791999999999
#
# number of rings (size 3 to 8) (size 9 to 14) (size 15 to 20)
#    0.000    1.750    2.500    1.500    0.000    6.000 
#    0.000    2.500    0.000    0.000    0.000    0.000 
#    0.000    0.000    0.000    0.000    0.000    0.000 
#
# Total GULP energy -357323.851585 kJ/mol
# GULP energy per Si atom -5583.185181 kJ/mol
# Density = 2.103880 g / cm^3
# Si number density = 21.086792 Si / 1000 Ang^3
#
#
#
# Elastic Constant Matrix: (Units=GPa)
#
#
# Indices 1 2 3 4 5 6 
#
# 1 161.1315 85.8178 2.5078 0.0000 0.0000 0.0000
# 2 85.8178 152.1959 2.4963 0.0000 0.0000 0.0000
# 3 2.5078 2.4963 18.5793 0.0000 0.0000 0.0000
# 4 0.0000 0.0000 0.0000 30.5383 0.0000 0.0000
# 5 0.0000 0.0000 0.0000 0.0000 20.0623 0.0000
# 6 0.0000 0.0000 0.0000 0.0000 0.0000 29.6595
#
#
#
# Elastic Compliance Matrix: (Units=1/GPa)
#
#
# Indices 1 2 3 4 5 6 
#
# 1 0.008875 -0.004996 -0.000527 0.000000 0.000000 0.000000
# 2 -0.004996 0.009397 -0.000588 0.000000 0.000000 0.000000
# 3 -0.000527 -0.000588 0.053974 0.000000 0.000000 0.000000
# 4 0.000000 0.000000 0.000000 0.032746 0.000000 0.000000
# 5 0.000000 0.000000 0.000000 0.000000 0.049845 0.000000
# 6 0.000000 0.000000 0.000000 0.000000 0.000000 0.033716
#
#
# Mechanical properties :
#
#
# Convention : Reuss Voigt Hill
#
# Bulk Modulus (GPa) = 16.65994 57.06114 36.86054
# Shear Modulus (GPa) = 22.64683 32.12432 27.38558
#
# Velocity S-wave (km/s) = 3.28072 3.90735 3.60767
# Velocity P-wave (km/s) = 4.71897 6.89024 5.90525
#
# Compressibility (1/GPa) = 0.06002424
#
# Stress axis : x y z
#
# Youngs Moduli (GPa) = 112.67662 106.41711 18.52761
#
# Poissons Ratio (x) = 0.53162 0.00976
# Poissons Ratio (y) = 0.56289 0.01090
# Poissons Ratio (z) = 0.05935 0.06260
#
# Static dielectric constant tensor:
#      x y z
#    x 1.757870 0.000000 0.000000 
#    y 0.000000 1.783050 0.000000 
#    z 0.000000 0.000000 1.762650 
# 
# From -- ./inp_files/6739.got.cif
#   From: 2010.05.17/outbox.cif.g08.bks.cpg/sg58_4_cif.got.tgz:6739.got - 2010.06.03 14:20:14.
