data_PCOD9442904
_publ_section_title
;
Structure prediction by ZEFSAII (Michael W. Deem and Ramdas Pophale) SiO2 
 PCOD9442904
Probable space group: P N N M
;
_chemical_formula_sum "Si O2"
_cell_formula_units_Z 56
_cell_length_a 23.458934
_cell_length_b 13.575971
_cell_length_c 9.190145
_cell_angle_alpha 90.000000
_cell_angle_beta 90.000000
_cell_angle_gamma 90.000000
_cell_volume 2926.857232
_symmetry_space_group_name_H-M "P N N M"
_symmetry_group_IT_number 58
_symmetry_cell_setting 'orthorhombic'
loop_
_space_group_symop_operation_xyz
x,y,z
-x,-y,z
1/2+x,1/2-y,1/2-z
1/2-x,1/2+y,1/2-z
-x,-y,-z
x,y,-z
1/2-x,1/2+y,1/2+z
1/2+x,1/2-y,1/2+z
loop_
_atom_site_type_symbol
_atom_site_label
_atom_site_fract_x
_atom_site_fract_y
_atom_site_fract_z
Si Si1 0.134166 0.192880 0.833339
Si Si2 0.539066 0.412784 0.832018
Si Si3 0.942777 0.607783 0.831861
Si Si4 0.037438 0.714968 0.332343
Si Si5 0.843211 0.272780 0.825602
Si Si6 0.334960 0.004920 0.323830
Si Si7 0.739659 0.180447 0.323455
O O1 0.098470 0.112428 0.745604
O O2 0.095230 0.292009 0.833309
O O3 0.195247 0.232469 0.779735
O O4 0.140394 0.160683 0.000000
O O5 0.500000 0.500000 0.768201
O O6 0.500996 0.313941 0.829419
O O7 0.551299 0.438273 0.000000
O O8 0.898372 0.526707 0.774627
O O9 0.997969 0.630282 0.737331
O O10 0.958393 0.588087 0.000000
O O11 0.052056 0.693924 0.500000
O O12 0.093362 0.733806 0.237567
O O13 0.822292 0.383352 0.785708
O O14 0.799943 0.197893 0.750488
O O15 0.843407 0.262753 0.000000
O O16 0.337562 0.998672 0.500000
O O17 0.289577 0.922654 0.278276
O O18 0.743722 0.181958 0.500000
#
# Coordination Sequence:
#
# PCOD9442904 Si02
#       7
#     8   8   8   8   8   8   8
#     4   8  15  29  52  76  97 128 168 212 261 305
#     4   9  18  33  52  75 103 137 178 216 256 314
#     4   8  14  30  55  77  98 129 170 209 249 309
#     4  10  20  34  51  75 109 142 169 213 273 316
#     4  11  22  36  54  79 108 140 181 222 261 314
#     4   8  17  35  58  78 100 138 180 214 260 322
#     4   9  18  37  58  75 102 139 177 219 267 315
#
# _framework density 19.133150000000001
#
# number of rings (size 3 to 8) (size 9 to 14) (size 15 to 20)
#    0.000    3.000    0.000    2.571    0.000    2.000 
#    2.571    7.857    0.000    0.000    0.000    0.000 
#    0.000    0.000    0.000    0.000    0.000    0.000 
#
# Total GULP energy -312201.742939 kJ/mol
# GULP energy per Si atom -5575.031124 kJ/mol
# Density = 1.908960 g / cm^3
# Si number density = 19.133150 Si / 1000 Ang^3
#
#
#
# Elastic Constant Matrix: (Units=GPa)
#
#
# Indices 1 2 3 4 5 6 
#
# 1 78.0076 -3.3684 22.5338 0.0000 0.0000 0.0000
# 2 -3.3684 23.7375 5.1242 0.0000 0.0000 0.0000
# 3 22.5338 5.1242 41.1200 0.0000 0.0000 0.0000
# 4 0.0000 0.0000 0.0000 14.3255 0.0000 0.0000
# 5 0.0000 0.0000 0.0000 0.0000 24.7934 0.0000
# 6 0.0000 0.0000 0.0000 0.0000 0.0000 25.6505
#
#
#
# Elastic Compliance Matrix: (Units=1/GPa)
#
#
# Indices 1 2 3 4 5 6 
#
# 1 0.015623 0.004178 -0.009082 0.000000 0.000000 0.000000
# 2 0.004178 0.044409 -0.007823 0.000000 0.000000 0.000000
# 3 -0.009082 -0.007823 0.030271 0.000000 0.000000 0.000000
# 4 0.000000 0.000000 0.000000 0.069806 0.000000 0.000000
# 5 0.000000 0.000000 0.000000 0.000000 0.040333 0.000000
# 6 0.000000 0.000000 0.000000 0.000000 0.000000 0.038986
#
#
# Mechanical properties :
#
#
# Convention : Reuss Voigt Hill
#
# Bulk Modulus (GPa) = 15.42083 21.27158 18.34621
# Shear Modulus (GPa) = 17.45205 20.85891 19.15548
#
# Velocity S-wave (km/s) = 3.02344 3.30540 3.16755
# Velocity P-wave (km/s) = 4.50172 5.07044 4.79452
#
# Compressibility (1/GPa) = 0.06484734
#
# Stress axis : x y z
#
# Youngs Moduli (GPa) = 64.00757 22.51792 33.03497
#
# Poissons Ratio (x) = -0.09407 0.30003
# Poissons Ratio (y) = -0.26739 0.25844
# Poissons Ratio (z) = 0.58132 0.17617
#
# Static dielectric constant tensor:
#      x y z
#    x 1.664790 0.000000 0.000000 
#    y 0.000000 1.690990 0.000000 
#    z 0.000000 0.000000 1.646690 
# 
# From -- ./inp_files/9067.got.cif
#   From: 2010.05.17/outbox.cif.g08.bks.cpg/sg58_5_cif.got.tgz:9067.got - 2010.06.03 14:20:14.
