data_PCOD9442827
_publ_section_title
;
Structure prediction by ZEFSAII (Michael W. Deem and Ramdas Pophale) SiO2 
 PCOD9442827
Probable space group: P N N M
;
_chemical_formula_sum "Si O2"
_cell_formula_units_Z 64
_cell_length_a 33.422372
_cell_length_b 10.477235
_cell_length_c 7.979973
_cell_angle_alpha 90.000000
_cell_angle_beta 90.000000
_cell_angle_gamma 90.000000
_cell_volume 2794.379430
_symmetry_space_group_name_H-M "P N N M"
_symmetry_group_IT_number 58
_symmetry_cell_setting 'orthorhombic'
loop_
_space_group_symop_operation_xyz
x,y,z
-x,-y,z
1/2+x,1/2-y,1/2-z
1/2-x,1/2+y,1/2-z
-x,-y,-z
x,y,-z
1/2-x,1/2+y,1/2+z
1/2+x,1/2-y,1/2+z
loop_
_atom_site_type_symbol
_atom_site_label
_atom_site_fract_x
_atom_site_fract_y
_atom_site_fract_z
Si Si1 0.624542 0.875315 0.204356
Si Si2 0.237864 0.000388 0.306000
Si Si3 0.462837 0.190258 0.193197
Si Si4 0.153958 0.898959 0.803426
Si Si5 0.213537 0.265556 0.196612
Si Si6 0.953642 0.755609 0.296005
Si Si7 0.064701 0.962460 0.800242
Si Si8 0.631556 0.156063 0.199743
O O1 0.577906 0.870401 0.262172
O O2 0.646809 0.751820 0.274536
O O3 0.641347 0.012156 0.257290
O O4 0.625088 0.864773 0.000000
O O5 0.247971 0.017167 0.500000
O O6 0.192542 0.948771 0.291804
O O7 0.265658 0.890937 0.227747
O O8 0.239025 0.139205 0.226160
O O9 0.507411 0.177879 0.265028
O O10 0.454094 0.342232 0.205254
O O11 0.464684 0.147740 0.000000
O O12 0.111854 0.964126 0.753573
O O13 0.160463 0.924342 0.000000
O O14 0.168462 0.252845 0.261140
O O15 0.210634 0.284607 0.000000
O O16 0.954399 0.752468 0.500000
O O17 0.911328 0.701153 0.234565
O O18 0.954980 0.902960 0.241309
O O19 0.062040 0.937720 0.000000
O O20 0.627362 0.149441 0.000000
#
# Coordination Sequence:
#
# PCOD9442827 Si02
#       8
#     8   8   8   8   8   8   8   8
#     4   9  19  36  58  85 117 158 203 249 300 356
#     4  11  25  44  67  96 126 161 202 249 302 362
#     4   9  18  33  53  79 112 149 194 245 295 350
#     4  10  21  37  60  87 118 155 197 246 302 359
#     4  11  26  45  66  95 127 160 201 248 304 366
#     4  10  20  33  52  79 111 151 195 242 296 350
#     4  10  20  33  51  79 112 147 189 240 296 356
#     4  10  22  39  60  85 117 157 200 247 300 360
#
# _framework density 22.903117999999999
#
# number of rings (size 3 to 8) (size 9 to 14) (size 15 to 20)
#    0.000    2.000    0.000    2.625    1.750    9.000 
#    0.000    2.500    0.000    0.000    0.000    5.250 
#    0.000    0.000    0.000    0.000    0.000    0.000 
#
# Total GULP energy -357716.084808 kJ/mol
# GULP energy per Si atom -5589.313825 kJ/mol
# Density = 2.285099 g / cm^3
# Si number density = 22.903118 Si / 1000 Ang^3
#
#
#
# Elastic Constant Matrix: (Units=GPa)
#
#
# Indices 1 2 3 4 5 6 
#
# 1 67.1656 21.3513 -3.4814 0.0000 0.0000 0.0000
# 2 21.3513 62.3490 -11.1738 0.0000 0.0000 0.0000
# 3 -3.4814 -11.1738 21.8371 0.0000 0.0000 0.0000
# 4 0.0000 0.0000 0.0000 20.8472 0.0000 0.0000
# 5 0.0000 0.0000 0.0000 0.0000 12.6055 0.0000
# 6 0.0000 0.0000 0.0000 0.0000 0.0000 25.1024
#
#
#
# Elastic Compliance Matrix: (Units=1/GPa)
#
#
# Indices 1 2 3 4 5 6 
#
# 1 0.016709 -0.005774 -0.000291 0.000000 0.000000 0.000000
# 2 -0.005774 0.019653 0.009136 0.000000 0.000000 0.000000
# 3 -0.000291 0.009136 0.050422 0.000000 0.000000 0.000000
# 4 0.000000 0.000000 0.000000 0.047968 0.000000 0.000000
# 5 0.000000 0.000000 0.000000 0.000000 0.079330 0.000000
# 6 0.000000 0.000000 0.000000 0.000000 0.000000 0.039837
#
#
# Mechanical properties :
#
#
# Convention : Reuss Voigt Hill
#
# Bulk Modulus (GPa) = 10.76120 18.30489 14.53305
# Shear Modulus (GPa) = 17.93703 21.35472 19.64588
#
# Velocity S-wave (km/s) = 2.80155 3.05682 2.93197
# Velocity P-wave (km/s) = 3.89534 4.52422 4.22151
#
# Compressibility (1/GPa) = 0.09292644
#
# Stress axis : x y z
#
# Youngs Moduli (GPa) = 59.84787 50.88191 19.83265
#
# Poissons Ratio (x) = 0.29380 0.00576
# Poissons Ratio (y) = 0.34557 -0.18119
# Poissons Ratio (z) = 0.01740 -0.46485
#
# Static dielectric constant tensor:
#      x y z
#    x 1.911850 0.000000 0.000000 
#    y 0.000000 1.842400 0.000000 
#    z 0.000000 0.000000 1.819270 
# 
# From -- ./inp_files/11008.got.cif
#   From: 2010.05.17/outbox.cif.g08.bks.cpg/sg58_6_cif.got.tgz:11008.got - 2010.06.03 14:20:14.
