data_PCOD9442962
_publ_section_title
;
Structure prediction by ZEFSAII (Michael W. Deem and Ramdas Pophale) SiO2 
 PCOD9442962
Probable space group: P N N M
;
_chemical_formula_sum "Si O2"
_cell_formula_units_Z 64
_cell_length_a 27.636232
_cell_length_b 13.015146
_cell_length_c 9.354535
_cell_angle_alpha 90.000000
_cell_angle_beta 90.000000
_cell_angle_gamma 90.000000
_cell_volume 3364.728900
_symmetry_space_group_name_H-M "P N N M"
_symmetry_group_IT_number 58
_symmetry_cell_setting 'orthorhombic'
loop_
_space_group_symop_operation_xyz
x,y,z
-x,-y,z
1/2+x,1/2-y,1/2-z
1/2-x,1/2+y,1/2-z
-x,-y,-z
x,y,-z
1/2-x,1/2+y,1/2+z
1/2+x,1/2-y,1/2+z
loop_
_atom_site_type_symbol
_atom_site_label
_atom_site_fract_x
_atom_site_fract_y
_atom_site_fract_z
Si Si1 0.844746 0.417580 0.326744
Si Si2 0.717526 0.119927 0.172302
Si Si3 0.830638 0.805067 0.840229
Si Si4 0.939130 0.724686 0.158999
Si Si5 0.056115 0.481280 0.671998
Si Si6 0.531605 0.405704 0.835257
Si Si7 0.686820 0.690204 0.829608
Si Si8 0.141581 0.014001 0.338449
O O1 0.844233 0.415258 0.500000
O O2 0.810631 0.514530 0.285195
O O3 0.900693 0.440800 0.284554
O O4 0.825544 0.305721 0.279465
O O5 0.689452 0.218894 0.234322
O O6 0.769479 0.136642 0.245039
O O7 0.720026 0.122329 0.000000
O O8 0.887203 0.779019 0.853720
O O9 0.827678 0.917711 0.771522
O O10 0.808816 0.800481 0.000000
O O11 0.931382 0.626362 0.256513
O O12 0.973104 0.805465 0.239149
O O13 0.956038 0.697414 0.000000
O O14 0.057875 0.473910 0.500000
O O15 0.000000 0.500000 0.711767
O O16 0.500000 0.500000 0.781979
O O17 0.586972 0.444461 0.835388
O O18 0.518105 0.382874 0.000000
O O19 0.643687 0.607634 0.811950
O O20 0.697673 0.695622 0.000000
O O21 0.160283 0.031499 0.500000
#
# Coordination Sequence:
#
# PCOD9442962 Si02
#       8
#     8   8   8   8   8   8   8   8
#     4   9  20  39  60  85 119 153 188 242 298 346
#     4  11  22  37  59  84 112 147 191 238 288 341
#     4  10  20  35  57  81 108 146 189 234 285 339
#     4  10  20  34  53  80 113 149 187 236 291 344
#     4  10  20  36  61  88 113 150 198 243 291 352
#     4   9  18  33  56  84 112 149 195 240 283 335
#     4  10  22  39  57  82 118 156 190 232 293 354
#     4   9  19  35  56  83 116 148 184 234 287 339
#
# _framework density 19.020848999999998
#
# number of rings (size 3 to 8) (size 9 to 14) (size 15 to 20)
#    0.000    2.250    1.250    1.125    1.750    3.000 
#    0.000    5.000    0.000    1.500    0.000    0.000 
#    0.000    0.000    0.000    0.000    0.000    0.000 
#
# Total GULP energy -356578.916751 kJ/mol
# GULP energy per Si atom -5571.545574 kJ/mol
# Density = 1.897756 g / cm^3
# Si number density = 19.020849 Si / 1000 Ang^3
#
#
#
# Elastic Constant Matrix: (Units=GPa)
#
#
# Indices 1 2 3 4 5 6 
#
# 1 48.9542 34.7325 23.0626 0.0000 0.0000 0.0000
# 2 34.7325 118.6664 25.8041 0.0000 0.0000 0.0000
# 3 23.0626 25.8041 31.4838 0.0000 0.0000 0.0000
# 4 0.0000 0.0000 0.0000 9.2188 0.0000 0.0000
# 5 0.0000 0.0000 0.0000 0.0000 10.1971 0.0000
# 6 0.0000 0.0000 0.0000 0.0000 0.0000 28.1427
#
#
#
# Elastic Compliance Matrix: (Units=1/GPa)
#
#
# Indices 1 2 3 4 5 6 
#
# 1 0.033909 -0.005505 -0.020328 0.000000 0.000000 0.000000
# 2 -0.005505 0.011148 -0.005105 0.000000 0.000000 0.000000
# 3 -0.020328 -0.005105 0.050837 0.000000 0.000000 0.000000
# 4 0.000000 0.000000 0.000000 0.108474 0.000000 0.000000
# 5 0.000000 0.000000 0.000000 0.000000 0.098067 0.000000
# 6 0.000000 0.000000 0.000000 0.000000 0.000000 0.035533
#
#
# Mechanical properties :
#
#
# Convention : Reuss Voigt Hill
#
# Bulk Modulus (GPa) = 29.39453 40.70032 35.04743
# Shear Modulus (GPa) = 12.16006 17.21207 14.68607
#
# Velocity S-wave (km/s) = 2.53118 3.01143 2.78169
# Velocity P-wave (km/s) = 4.90203 5.79101 5.36497
#
# Compressibility (1/GPa) = 0.03401993
#
# Stress axis : x y z
#
# Youngs Moduli (GPa) = 29.49049 89.70076 19.67081
#
# Poissons Ratio (x) = 0.49377 0.39986
# Poissons Ratio (y) = 0.16233 0.10042
# Poissons Ratio (z) = 0.59947 0.45790
#
# Static dielectric constant tensor:
#      x y z
#    x 1.747770 0.000000 0.000000 
#    y 0.000000 1.658850 0.000000 
#    z 0.000000 0.000000 1.665110 
# 
# From -- ./inp_files/4725.got.cif
#   From: 2010.05.17/outbox.cif.g08.bks.cpg/sg58_3_cif.got.tgz:4725.got - 2010.06.03 14:20:14.
