data_PCOD9442913
_publ_section_title
;
Structure prediction by ZEFSAII (Michael W. Deem and Ramdas Pophale) SiO2 
 PCOD9442913
Probable space group: P N N M
;
_chemical_formula_sum "Si O2"
_cell_formula_units_Z 58
_cell_length_a 18.979666
_cell_length_b 16.024096
_cell_length_c 7.370055
_cell_angle_alpha 90.000000
_cell_angle_beta 90.000000
_cell_angle_gamma 90.000000
_cell_volume 2241.469494
_symmetry_space_group_name_H-M "P N N M"
_symmetry_group_IT_number 58
_symmetry_cell_setting 'orthorhombic'
loop_
_space_group_symop_operation_xyz
x,y,z
-x,-y,z
1/2+x,1/2-y,1/2-z
1/2-x,1/2+y,1/2-z
-x,-y,-z
x,y,-z
1/2-x,1/2+y,1/2+z
1/2+x,1/2-y,1/2+z
loop_
_atom_site_type_symbol
_atom_site_label
_atom_site_fract_x
_atom_site_fract_y
_atom_site_fract_z
Si Si1 0.281939 0.706444 0.783545
Si Si2 0.801639 0.455919 0.698826
Si Si3 0.151238 0.371455 0.280446
Si Si4 0.923180 0.889120 0.280671
Si Si5 0.340912 0.453610 0.218220
Si Si6 0.000000 0.500000 0.000000
Si Si7 0.489308 0.138424 0.215513
Si Si8 0.068984 0.811267 0.279572
O O1 0.219464 0.639166 0.750484
O O2 0.291990 0.802171 0.716214
O O3 0.354179 0.661429 0.719157
O O4 0.285444 0.712193 0.000000
O O5 0.833937 0.447020 0.500000
O O6 0.842070 0.533890 0.793544
O O7 0.725842 0.502859 0.694965
O O8 0.157826 0.377049 0.500000
O O9 0.071748 0.340906 0.243005
O O10 0.924569 0.879771 0.500000
O O11 0.996968 0.854591 0.214836
O O12 0.907017 0.985583 0.245207
O O13 0.363315 0.362456 0.282129
O O14 0.328742 0.455125 0.000000
O O15 0.029071 0.562650 0.158962
O O16 0.439356 0.215267 0.263137
O O17 0.486625 0.122733 0.000000
O O18 0.069859 0.817388 0.500000
#
# Coordination Sequence:
#
# PCOD9442913 Si02
#       8
#     8   8   8   8   8   2   8   8
#     4   9  16  32  56  81 106 144 198 250 292 357
#     4  10  20  34  51  81 119 158 193 244 310 368
#     4   9  18  37  64  83 109 154 207 245 300 364
#     4   8  12  22  47  80 107 133 181 235 276 343
#     4   9  17  29  48  79 116 152 186 225 287 360
#     4  12  26  44  60  98 118 144 202 248 318 368
#     4  10  21  42  67  89 118 158 201 263 306 352
#     4   9  15  28  55  84 108 147 196 235 290 352
#
# _framework density 25.875881
#
# number of rings (size 3 to 8) (size 9 to 14) (size 15 to 20)
#    0.000    2.759    1.379    1.862    0.000    1.655 
#    4.966    1.379    3.034    6.621    0.000    0.000 
#    0.000    0.000    0.000    0.000    0.000    0.276 
#
# Total GULP energy -323345.399837 kJ/mol
# GULP energy per Si atom -5574.920687 kJ/mol
# Density = 2.581699 g / cm^3
# Si number density = 25.875881 Si / 1000 Ang^3
#
#
#
# Elastic Constant Matrix: (Units=GPa)
#
#
# Indices 1 2 3 4 5 6 
#
# 1 91.0404 58.0491 -5.9614 0.0000 0.0000 0.0000
# 2 58.0491 156.7311 32.6894 0.0000 0.0000 0.0000
# 3 -5.9614 32.6894 92.4902 0.0000 0.0000 0.0000
# 4 0.0000 0.0000 0.0000 88.1923 0.0000 0.0000
# 5 0.0000 0.0000 0.0000 0.0000 8.9116 0.0000
# 6 0.0000 0.0000 0.0000 0.0000 0.0000 28.4731
#
#
#
# Elastic Compliance Matrix: (Units=1/GPa)
#
#
# Indices 1 2 3 4 5 6 
#
# 1 0.015214 -0.006304 0.003209 0.000000 0.000000 0.000000
# 2 -0.006304 0.009500 -0.003764 0.000000 0.000000 0.000000
# 3 0.003209 -0.003764 0.012349 0.000000 0.000000 0.000000
# 4 0.000000 0.000000 0.000000 0.011339 0.000000 0.000000
# 5 0.000000 0.000000 0.000000 0.000000 0.112213 0.000000
# 6 0.000000 0.000000 0.000000 0.000000 0.000000 0.035121
#
#
# Mechanical properties :
#
#
# Convention : Reuss Voigt Hill
#
# Bulk Modulus (GPa) = 42.83691 56.64623 49.74157
# Shear Modulus (GPa) = 23.01637 42.14769 32.58203
#
# Velocity S-wave (km/s) = 2.98567 4.04027 3.55232
# Velocity P-wave (km/s) = 5.33632 6.61091 6.00751
#
# Compressibility (1/GPa) = 0.02334435
#
# Stress axis : x y z
#
# Youngs Moduli (GPa) = 65.72973 105.26013 80.97742
#
# Poissons Ratio (x) = 0.66356 -0.25983
# Poissons Ratio (y) = 0.41436 0.30480
# Poissons Ratio (z) = -0.21090 0.39621
#
# Static dielectric constant tensor:
#      x y z
#    x 2.110070 0.000000 0.000000 
#    y 0.000000 2.061200 0.000000 
#    z 0.000000 0.000000 1.991020 
# 
# From -- ./inp_files/9844.got.cif
#   From: 2010.05.17/outbox.cif.g08.bks.cpg/sg58_5_cif.got.tgz:9844.got - 2010.06.03 14:20:14.
