data_PCOD9442970
_publ_section_title
;
Structure prediction by ZEFSAII (Michael W. Deem and Ramdas Pophale) SiO2 
 PCOD9442970
Probable space group: P N N M
;
_chemical_formula_sum "Si O2"
_cell_formula_units_Z 64
_cell_length_a 11.143193
_cell_length_b 35.543629
_cell_length_c 8.989688
_cell_angle_alpha 90.000000
_cell_angle_beta 90.000000
_cell_angle_gamma 90.000000
_cell_volume 3560.541392
_symmetry_space_group_name_H-M "P N N M"
_symmetry_group_IT_number 58
_symmetry_cell_setting 'orthorhombic'
loop_
_space_group_symop_operation_xyz
x,y,z
-x,-y,z
1/2+x,1/2-y,1/2-z
1/2-x,1/2+y,1/2-z
-x,-y,-z
x,y,-z
1/2-x,1/2+y,1/2+z
1/2+x,1/2-y,1/2+z
loop_
_atom_site_type_symbol
_atom_site_label
_atom_site_fract_x
_atom_site_fract_y
_atom_site_fract_z
Si Si1 0.375071 0.732078 0.821752
Si Si2 0.652948 0.722368 0.821346
Si Si3 0.875141 0.141669 0.825174
Si Si4 0.859111 0.993663 0.328883
Si Si5 0.753935 0.417982 0.826820
Si Si6 0.744678 0.066002 0.176556
Si Si7 0.987613 0.543783 0.172433
Si Si8 0.346028 0.652082 0.327683
O O1 0.517635 0.737917 0.778983
O O2 0.269717 0.757329 0.748902
O O3 0.344729 0.689740 0.769444
O O4 0.368787 0.735611 0.000000
O O5 0.654713 0.679153 0.766141
O O6 0.660341 0.724419 0.000000
O O7 0.809964 0.103995 0.770512
O O8 0.018261 0.136387 0.817577
O O9 0.844428 0.147883 0.000000
O O10 0.813964 0.994131 0.500000
O O11 0.799604 0.027917 0.243174
O O12 0.829384 0.952155 0.269916
O O13 0.000000 0.000000 0.329374
O O14 0.739148 0.380328 0.733803
O O15 0.885901 0.435487 0.820446
O O16 0.723258 0.409953 0.000000
O O17 0.607641 0.065061 0.227236
O O18 0.756612 0.064938 0.000000
O O19 0.000000 0.500000 0.217517
O O20 0.947023 0.543798 0.000000
O O21 0.321189 0.661272 0.500000
#
# Coordination Sequence:
#
# PCOD9442970 Si02
#       8
#     8   8   8   8   8   8   8   8
#     4  10  21  39  63  90 122 155 189 233 283 340
#     4  10  21  38  63  93 119 152 195 234 281 341
#     4   9  20  38  57  81 115 151 181 225 283 331
#     4  10  20  34  54  78 105 141 183 226 273 329
#     4  10  20  35  54  77 106 142 185 231 280 330
#     4  11  22  35  54  80 110 142 183 230 280 332
#     4  10  20  38  57  72 103 148 190 232 279 333
#     4  10  20  36  59  84 113 147 185 228 277 332
#
# _framework density 17.974793999999999
#
# number of rings (size 3 to 8) (size 9 to 14) (size 15 to 20)
#    0.000    2.000    1.250    2.250    0.000    4.500 
#    2.250    0.000    0.000    0.000    0.000    0.000 
#    0.000    0.000    0.000    0.000    0.000    0.000 
#
# Total GULP energy -356993.849283 kJ/mol
# GULP energy per Si atom -5578.028895 kJ/mol
# Density = 1.793388 g / cm^3
# Si number density = 17.974794 Si / 1000 Ang^3
#
#
#
# Elastic Constant Matrix: (Units=GPa)
#
#
# Indices 1 2 3 4 5 6 
#
# 1 36.9836 9.1647 16.9465 0.0000 0.0000 0.0000
# 2 9.1647 50.0463 17.2948 0.0000 0.0000 0.0000
# 3 16.9465 17.2948 44.7248 0.0000 0.0000 0.0000
# 4 0.0000 0.0000 0.0000 29.1824 0.0000 0.0000
# 5 0.0000 0.0000 0.0000 0.0000 27.5157 0.0000
# 6 0.0000 0.0000 0.0000 0.0000 0.0000 34.7406
#
#
#
# Elastic Compliance Matrix: (Units=1/GPa)
#
#
# Indices 1 2 3 4 5 6 
#
# 1 0.032889 -0.001981 -0.011696 0.000000 0.000000 0.000000
# 2 -0.001981 0.023183 -0.008214 0.000000 0.000000 0.000000
# 3 -0.011696 -0.008214 0.029967 0.000000 0.000000 0.000000
# 4 0.000000 0.000000 0.000000 0.034267 0.000000 0.000000
# 5 0.000000 0.000000 0.000000 0.000000 0.036343 0.000000
# 6 0.000000 0.000000 0.000000 0.000000 0.000000 0.028785
#
#
# Mechanical properties :
#
#
# Convention : Reuss Voigt Hill
#
# Bulk Modulus (GPa) = 23.66465 24.28517 23.97491
# Shear Modulus (GPa) = 20.55067 24.17766 22.36417
#
# Velocity S-wave (km/s) = 3.38495 3.67152 3.53114
# Velocity P-wave (km/s) = 5.33584 5.61368 5.47652
#
# Compressibility (1/GPa) = 0.04225712
#
# Stress axis : x y z
#
# Youngs Moduli (GPa) = 30.40520 43.13531 33.37018
#
# Poissons Ratio (x) = 0.08545 0.39029
# Poissons Ratio (y) = 0.06023 0.27410
# Poissons Ratio (z) = 0.35561 0.35432
#
# Static dielectric constant tensor:
#      x y z
#    x 1.638480 0.000000 0.000000 
#    y 0.000000 1.592170 0.000000 
#    z 0.000000 0.000000 1.618890 
# 
# From -- ./inp_files/4717.got.cif
#   From: 2010.05.17/outbox.cif.g08.bks.cpg/sg58_3_cif.got.tgz:4717.got - 2010.06.03 14:20:14.
