data_PCOD9442105
_publ_section_title
;
Structure prediction by ZEFSAII (Michael W. Deem and Ramdas Pophale) SiO2 
 PCOD9442105
Probable space group: P N N M
;
_chemical_formula_sum "Si O2"
_cell_formula_units_Z 48
_cell_length_a 12.311785
_cell_length_b 22.739029
_cell_length_c 7.338190
_cell_angle_alpha 90.000000
_cell_angle_beta 90.000000
_cell_angle_gamma 90.000000
_cell_volume 2054.385261
_symmetry_space_group_name_H-M "P N N M"
_symmetry_group_IT_number 58
_symmetry_cell_setting 'orthorhombic'
loop_
_space_group_symop_operation_xyz
x,y,z
-x,-y,z
1/2+x,1/2-y,1/2-z
1/2-x,1/2+y,1/2-z
-x,-y,-z
x,y,-z
1/2-x,1/2+y,1/2+z
1/2+x,1/2-y,1/2+z
loop_
_atom_site_type_symbol
_atom_site_label
_atom_site_fract_x
_atom_site_fract_y
_atom_site_fract_z
Si Si1 0.368002 0.176809 0.288965
Si Si2 0.375356 0.508511 0.278304
Si Si3 0.862706 0.860304 0.219859
Si Si4 0.231206 0.398065 0.279092
Si Si5 0.009837 0.565828 0.208554
Si Si6 0.409227 0.305408 0.722883
O O1 0.402979 0.175543 0.500000
O O2 0.238011 0.178551 0.280643
O O3 0.410879 0.115243 0.208179
O O4 0.410548 0.238257 0.212547
O O5 0.500000 0.500000 0.222646
O O6 0.374643 0.507388 0.500000
O O7 0.340730 0.573110 0.218845
O O8 0.298240 0.455830 0.220135
O O9 0.981013 0.838647 0.278978
O O10 0.864092 0.860139 0.000000
O O11 0.226554 0.397786 0.500000
O O12 0.108988 0.404676 0.211815
O O13 0.302248 0.341775 0.221964
O O14 0.000000 0.500000 0.290249
O O15 0.047073 0.556011 0.000000
O O16 0.407973 0.305090 0.500000
#
# Coordination Sequence:
#
# PCOD9442105 Si02
#       6
#     8   8   8   8   8   8
#     4  10  22  38  54  74 108 147 178 215 267 316
#     4   9  15  28  52  81 107 131 163 212 269 314
#     4  10  19  34  58  82 104 133 176 219 260 315
#     4  10  19  33  57  83 108 137 175 222 269 318
#     4  10  22  39  56  76 109 150 184 217 265 322
#     4   9  19  35  54  79 108 140 173 216 273 320
#
# _framework density 23.364654000000002
#
# number of rings (size 3 to 8) (size 9 to 14) (size 15 to 20)
#    0.000    2.333    1.667    1.000    2.333    1.000 
#    0.000    1.667    0.000    1.000    0.000    0.000 
#    0.000    0.000    0.000    0.000    0.000    0.000 
#
# Total GULP energy -268255.290988 kJ/mol
# GULP energy per Si atom -5588.651896 kJ/mol
# Density = 2.331147 g / cm^3
# Si number density = 23.364654 Si / 1000 Ang^3
#
#
#
# Elastic Constant Matrix: (Units=GPa)
#
#
# Indices 1 2 3 4 5 6 
#
# 1 103.8923 29.6068 -10.7804 0.0000 0.0000 0.0000
# 2 29.6068 152.8205 7.8548 0.0000 0.0000 0.0000
# 3 -10.7804 7.8548 92.1068 0.0000 0.0000 0.0000
# 4 0.0000 0.0000 0.0000 -11.1166 0.0000 0.0000
# 5 0.0000 0.0000 0.0000 0.0000 19.4162 0.0000
# 6 0.0000 0.0000 0.0000 0.0000 0.0000 25.4957
#
#
#
# Elastic Compliance Matrix: (Units=1/GPa)
#
#
# Indices 1 2 3 4 5 6 
#
# 1 0.010362 -0.002079 0.001390 0.000000 0.000000 0.000000
# 2 -0.002079 0.006990 -0.000839 0.000000 0.000000 0.000000
# 3 0.001390 -0.000839 0.011091 0.000000 0.000000 0.000000
# 4 0.000000 0.000000 0.000000 -0.089955 0.000000 0.000000
# 5 0.000000 0.000000 0.000000 0.000000 0.051503 0.000000
# 6 0.000000 0.000000 0.000000 0.000000 0.000000 0.039222
#
#
# Mechanical properties :
#
#
# Convention : Reuss Voigt Hill
#
# Bulk Modulus (GPa) = 39.39129 44.68689 42.03909
# Shear Modulus (GPa) = 122.75433 28.23495 75.49464
#
# Velocity S-wave (km/s) = 7.25621 3.48004 5.69048
# Velocity P-wave (km/s) = 9.33270 5.94264 7.82350
#
# Compressibility (1/GPa) = 0.02538633
#
# Stress axis : x y z
#
# Youngs Moduli (GPa) = 96.50605 143.07109 90.16125
#
# Poissons Ratio (x) = 0.29744 -0.12533
# Poissons Ratio (y) = 0.20063 0.07568
# Poissons Ratio (z) = -0.13415 0.12009
#
# Static dielectric constant tensor:
#      x y z
#    x 1.827230 0.000000 0.000000 
#    y 0.000000 1.877220 0.000000 
#    z 0.000000 0.000000 1.891110 
# 
# From -- ./inp_files/4200.got.cif
#   From: 2010.05.17/outbox.cif.g08.bks.cpg/sg58_3_cif.got.tgz:4200.got - 2010.06.03 14:20:14.
