data_PCOD9442228
_publ_section_title
;
Structure prediction by ZEFSAII (Michael W. Deem and Ramdas Pophale) SiO2 
 PCOD9442228
Probable space group: P N N M
;
_chemical_formula_sum "Si O2"
_cell_formula_units_Z 48
_cell_length_a 9.519055
_cell_length_b 31.670677
_cell_length_c 8.785993
_cell_angle_alpha 90.000000
_cell_angle_beta 90.000000
_cell_angle_gamma 90.000000
_cell_volume 2648.756504
_symmetry_space_group_name_H-M "P N N M"
_symmetry_group_IT_number 58
_symmetry_cell_setting 'orthorhombic'
loop_
_space_group_symop_operation_xyz
x,y,z
-x,-y,z
1/2+x,1/2-y,1/2-z
1/2-x,1/2+y,1/2-z
-x,-y,-z
x,y,-z
1/2-x,1/2+y,1/2+z
1/2+x,1/2-y,1/2+z
loop_
_atom_site_type_symbol
_atom_site_label
_atom_site_fract_x
_atom_site_fract_y
_atom_site_fract_z
Si Si1 0.414068 0.457928 0.815876
Si Si2 0.403500 0.120083 0.317737
Si Si3 0.417027 0.713818 0.680943
Si Si4 0.914931 0.290626 0.679530
Si Si5 0.910341 0.540486 0.185398
Si Si6 0.591892 0.381617 0.317242
O O1 0.500000 0.500000 0.773255
O O2 0.251782 0.461031 0.766285
O O3 0.490532 0.417281 0.747398
O O4 0.417090 0.454799 0.000000
O O5 0.390445 0.118861 0.500000
O O6 0.453732 0.166294 0.265911
O O7 0.510286 0.083309 0.269254
O O8 0.249574 0.112622 0.246531
O O9 0.441445 0.718362 0.500000
O O10 0.250248 0.717289 0.708488
O O11 0.498463 0.750320 0.767092
O O12 0.456288 0.665890 0.725984
O O13 0.932274 0.297713 0.500000
O O14 0.000000 0.500000 0.236686
O O15 0.909345 0.539514 0.000000
O O16 0.597623 0.383314 0.500000
#
# Coordination Sequence:
#
# PCOD9442228 Si02
#       6
#     8   8   8   8   8   8
#     4  10  20  35  57  82 107 140 182 223 268 325
#     4  10  19  34  57  80 106 141 178 219 268 319
#     4   9  20  37  54  76 106 140 178 218 263 317
#     4  10  21  36  55  80 109 140 178 223 267 316
#     4   9  18  33  54  81 108 135 175 223 264 311
#     4  10  21  37  55  78 110 143 179 224 270 319
#
# _framework density 18.121711000000001
#
# number of rings (size 3 to 8) (size 9 to 14) (size 15 to 20)
#    0.000    2.333    0.000    3.500    0.000    8.333 
#    0.000    6.667    0.000    3.500    0.000    0.000 
#    0.000    0.000    0.000    0.000    0.000    0.000 
#
# Total GULP energy -267937.171225 kJ/mol
# GULP energy per Si atom -5582.024401 kJ/mol
# Density = 1.808046 g / cm^3
# Si number density = 18.121711 Si / 1000 Ang^3
#
#
#
# Elastic Constant Matrix: (Units=GPa)
#
#
# Indices 1 2 3 4 5 6 
#
# 1 113.0866 104.5051 36.7612 0.0000 0.0000 0.0000
# 2 104.5051 175.5640 49.4673 0.0000 0.0000 0.0000
# 3 36.7612 49.4673 30.2392 0.0000 0.0000 0.0000
# 4 0.0000 0.0000 0.0000 28.3572 0.0000 0.0000
# 5 0.0000 0.0000 0.0000 0.0000 20.9626 0.0000
# 6 0.0000 0.0000 0.0000 0.0000 0.0000 36.5531
#
#
#
# Elastic Compliance Matrix: (Units=1/GPa)
#
#
# Indices 1 2 3 4 5 6 
#
# 1 0.021010 -0.009850 -0.009429 0.000000 0.000000 0.000000
# 2 -0.009850 0.015184 -0.012865 0.000000 0.000000 0.000000
# 3 -0.009429 -0.012865 0.065577 0.000000 0.000000 0.000000
# 4 0.000000 0.000000 0.000000 0.035264 0.000000 0.000000
# 5 0.000000 0.000000 0.000000 0.000000 0.047704 0.000000
# 6 0.000000 0.000000 0.000000 0.000000 0.000000 0.027357
#
#
# Mechanical properties :
#
#
# Convention : Reuss Voigt Hill
#
# Bulk Modulus (GPa) = 26.67767 77.81744 52.24755
# Shear Modulus (GPa) = 17.30842 25.71832 21.51337
#
# Velocity S-wave (km/s) = 3.09386 3.77131 3.44926
# Velocity P-wave (km/s) = 5.24556 7.87391 6.69008
#
# Compressibility (1/GPa) = 0.03748454
#
# Stress axis : x y z
#
# Youngs Moduli (GPa) = 47.59658 65.86030 15.24933
#
# Poissons Ratio (x) = 0.64869 0.14378
# Poissons Ratio (y) = 0.46881 0.19618
# Poissons Ratio (z) = 0.44878 0.84726
#
# Static dielectric constant tensor:
#      x y z
#    x 1.596990 0.000000 0.000000 
#    y 0.000000 1.605770 0.000000 
#    z 0.000000 0.000000 1.606850 
# 
# From -- ./inp_files/2873.got.cif
#   From: 2010.05.17/outbox.cif.g08.bks.cpg/sg58_2_cif.got.tgz:2873.got - 2010.06.03 14:20:14.
