data_PCOD9442610
_publ_section_title
;
Structure prediction by ZEFSAII (Michael W. Deem and Ramdas Pophale) SiO2 
 PCOD9442610
Probable space group: P N N M
;
_chemical_formula_sum "Si O2"
_cell_formula_units_Z 52
_cell_length_a 14.821255
_cell_length_b 10.112509
_cell_length_c 14.020374
_cell_angle_alpha 90.000000
_cell_angle_beta 90.000000
_cell_angle_gamma 90.000000
_cell_volume 2101.374701
_symmetry_space_group_name_H-M "P N N M"
_symmetry_group_IT_number 58
_symmetry_cell_setting 'orthorhombic'
loop_
_space_group_symop_operation_xyz
x,y,z
-x,-y,z
1/2+x,1/2-y,1/2-z
1/2-x,1/2+y,1/2-z
-x,-y,-z
x,y,-z
1/2-x,1/2+y,1/2+z
1/2+x,1/2-y,1/2+z
loop_
_atom_site_type_symbol
_atom_site_label
_atom_site_fract_x
_atom_site_fract_y
_atom_site_fract_z
Si Si1 0.342104 0.630051 0.103789
Si Si2 0.184738 0.398707 0.000000
Si Si3 0.011694 0.350239 0.635258
Si Si4 0.038425 0.316355 0.141472
Si Si5 0.683117 0.751379 0.858045
Si Si6 0.157654 0.061129 0.826669
Si Si7 0.656183 0.730376 0.366332
O O1 0.405190 0.759924 0.104410
O O2 0.353317 0.561782 0.209087
O O3 0.239480 0.682452 0.098552
O O4 0.361907 0.564444 0.000000
O O5 0.105291 0.407442 0.917361
O O6 0.259013 0.353694 0.916732
O O7 0.027524 0.357379 0.749096
O O8 0.000000 0.500000 0.601910
O O9 0.918744 0.276034 0.610264
O O10 0.086741 0.172152 0.139994
O O11 0.937169 0.297059 0.106890
O O12 0.744009 0.883867 0.856027
O O13 0.673747 0.721680 0.746853
O O14 0.147380 0.925615 0.883836
#
# Coordination Sequence:
#
# PCOD9442610 Si02
#       7
#     8   4   8   8   8   8   8
#     4  10  22  36  56  89 121 144 196 253 280 334
#     4  10  20  38  55  84 121 140 187 254 294 322
#     4  10  20  38  60  80 114 160 194 229 296 362
#     4   9  20  36  60  82 114 152 191 246 290 349
#     4   9  20  35  56  80 112 152 188 236 290 358
#     4   9  18  38  58  78 114 157 187 230 299 357
#     4  10  19  37  60  80 113 159 193 226 304 361
#
# _framework density 24.745705999999998
#
# number of rings (size 3 to 8) (size 9 to 14) (size 15 to 20)
#    0.000    2.462    0.000    2.308    2.154    0.308 
#   12.462    3.462    0.000    2.769    0.000    0.000 
#    0.000    0.000    0.000    0.000    0.000    0.000 
#
# Total GULP energy -289471.573316 kJ/mol
# GULP energy per Si atom -5566.761025 kJ/mol
# Density = 2.468938 g / cm^3
# Si number density = 24.745706 Si / 1000 Ang^3
#
#
#
# Elastic Constant Matrix: (Units=GPa)
#
#
# Indices 1 2 3 4 5 6 
#
# 1 165.4783 0.7228 21.2982 0.0000 0.0000 0.0000
# 2 0.7228 55.4054 -12.2792 0.0000 0.0000 0.0000
# 3 21.2982 -12.2792 127.8854 0.0000 0.0000 0.0000
# 4 0.0000 0.0000 0.0000 -9.5478 0.0000 0.0000
# 5 0.0000 0.0000 0.0000 0.0000 36.4343 0.0000
# 6 0.0000 0.0000 0.0000 0.0000 0.0000 -2.2436
#
#
#
# Elastic Compliance Matrix: (Units=1/GPa)
#
#
# Indices 1 2 3 4 5 6 
#
# 1 0.006181 -0.000315 -0.001060 0.000000 0.000000 0.000000
# 2 -0.000315 0.018457 0.001825 0.000000 0.000000 0.000000
# 3 -0.001060 0.001825 0.008171 0.000000 0.000000 0.000000
# 4 0.000000 0.000000 0.000000 -0.104736 0.000000 0.000000
# 5 0.000000 0.000000 0.000000 0.000000 0.027447 0.000000
# 6 0.000000 0.000000 0.000000 0.000000 0.000000 -0.445714
#
#
# Mechanical properties :
#
#
# Convention : Reuss Voigt Hill
#
# Bulk Modulus (GPa) = 29.66601 40.91695 35.29148
# Shear Modulus (GPa) = -10.41977 27.53041 8.55532
#
# Velocity S-wave (km/s) = -2.05423 3.33908 1.86140
# Velocity P-wave (km/s) = 2.52742 5.60686 4.34883
#
# Compressibility (1/GPa) = 0.03370861
#
# Stress axis : x y z
#
# Youngs Moduli (GPa) = 161.79001 54.17908 122.38120
#
# Poissons Ratio (x) = 0.01709 0.12968
# Poissons Ratio (y) = 0.05104 -0.22332
# Poissons Ratio (z) = 0.17144 -0.09886
#
# Static dielectric constant tensor:
#      x y z
#    x 1.905140 0.000000 0.000000 
#    y 0.000000 2.035650 0.000000 
#    z 0.000000 0.000000 1.976880 
# 
# From -- ./inp_files/22182.got.cif
#   From: 2010.05.17/outbox.cif.g08.bks.cpg/sg58_12_cif.got.tgz:22182.got - 2010.06.03 14:20:14.
