data_PCOD9442813
_publ_section_title
;
Structure prediction by ZEFSAII (Michael W. Deem and Ramdas Pophale) SiO2 
 PCOD9442813
Probable space group: P N N M
;
_chemical_formula_sum "Si O2"
_cell_formula_units_Z 56
_cell_length_a 22.673453
_cell_length_b 14.992273
_cell_length_c 7.457665
_cell_angle_alpha 90.000000
_cell_angle_beta 90.000000
_cell_angle_gamma 90.000000
_cell_volume 2535.058687
_symmetry_space_group_name_H-M "P N N M"
_symmetry_group_IT_number 58
_symmetry_cell_setting 'orthorhombic'
loop_
_space_group_symop_operation_xyz
x,y,z
-x,-y,z
1/2+x,1/2-y,1/2-z
1/2-x,1/2+y,1/2-z
-x,-y,-z
x,y,-z
1/2-x,1/2+y,1/2+z
1/2+x,1/2-y,1/2+z
loop_
_atom_site_type_symbol
_atom_site_label
_atom_site_fract_x
_atom_site_fract_y
_atom_site_fract_z
Si Si1 0.642917 0.841947 0.280252
Si Si2 0.432222 0.988815 0.284576
Si Si3 0.094151 0.845728 0.218945
Si Si4 0.648000 0.479111 0.282303
Si Si5 0.034801 0.126463 0.793626
Si Si6 0.774610 0.815136 0.705935
Si Si7 0.611625 0.210145 0.787217
O O1 0.644801 0.845975 0.500000
O O2 0.606577 0.754655 0.227050
O O3 0.709516 0.824400 0.215551
O O4 0.610306 0.931641 0.219679
O O5 0.435039 0.996262 0.500000
O O6 0.403898 0.892480 0.244852
O O7 0.500000 0.000000 0.219244
O O8 0.030066 0.876102 0.284967
O O9 0.143871 0.917653 0.269296
O O10 0.092336 0.846018 0.000000
O O11 0.650899 0.473428 0.500000
O O12 0.586713 0.434413 0.218682
O O13 0.698233 0.414565 0.211099
O O14 0.060349 0.226632 0.789233
O O15 0.028991 0.098049 0.000000
O O16 0.766496 0.785863 0.500000
O O17 0.825378 0.749137 0.782133
O O18 0.611822 0.225888 0.000000
#
# Coordination Sequence:
#
# PCOD9442813 Si02
#       7
#     8   8   8   8   8   8   8
#     4   9  18  32  50  71  97 130 167 207 247 293
#     4  10  20  35  56  79 100 129 172 216 257 299
#     4   9  16  28  49  75  98 122 157 201 246 288
#     4   9  17  29  50  77 100 124 157 200 245 288
#     4   9  16  29  50  76 103 127 157 198 241 290
#     4   9  19  35  50  68  98 134 168 199 241 298
#     4  10  20  33  51  74 102 136 168 201 245 297
#
# _framework density 22.090218
#
# number of rings (size 3 to 8) (size 9 to 14) (size 15 to 20)
#    0.000    2.714    0.000    1.714    0.000    6.000 
#    0.000    2.857    0.000    6.000    0.000    0.000 
#    0.000    0.000    0.000    0.000    0.000    0.000 
#
# Total GULP energy -312481.166263 kJ/mol
# GULP energy per Si atom -5580.020826 kJ/mol
# Density = 2.203994 g / cm^3
# Si number density = 22.090218 Si / 1000 Ang^3
#
#
#
# Elastic Constant Matrix: (Units=GPa)
#
#
# Indices 1 2 3 4 5 6 
#
# 1 75.5890 -8.2539 5.8057 0.0000 0.0000 0.0000
# 2 -8.2539 98.9545 -4.5873 0.0000 0.0000 0.0000
# 3 5.8057 -4.5873 69.0624 0.0000 0.0000 0.0000
# 4 0.0000 0.0000 0.0000 15.3377 0.0000 0.0000
# 5 0.0000 0.0000 0.0000 0.0000 10.7050 0.0000
# 6 0.0000 0.0000 0.0000 0.0000 0.0000 10.4972
#
#
#
# Elastic Compliance Matrix: (Units=1/GPa)
#
#
# Indices 1 2 3 4 5 6 
#
# 1 0.013428 0.001071 -0.001058 0.000000 0.000000 0.000000
# 2 0.001071 0.010222 0.000589 0.000000 0.000000 0.000000
# 3 -0.001058 0.000589 0.014608 0.000000 0.000000 0.000000
# 4 0.000000 0.000000 0.000000 0.065199 0.000000 0.000000
# 5 0.000000 0.000000 0.000000 0.000000 0.093414 0.000000
# 6 0.000000 0.000000 0.000000 0.000000 0.000000 0.095263
#
#
# Mechanical properties :
#
#
# Convention : Reuss Voigt Hill
#
# Bulk Modulus (GPa) = 25.34073 25.50389 25.42231
# Shear Modulus (GPa) = 16.44286 24.01741 20.23013
#
# Velocity S-wave (km/s) = 2.73124 3.30091 3.02950
# Velocity P-wave (km/s) = 4.63061 5.10866 4.87550
#
# Compressibility (1/GPa) = 0.03946216
#
# Stress axis : x y z
#
# Youngs Moduli (GPa) = 74.47340 97.82546 68.45705
#
# Poissons Ratio (x) = -0.10477 0.07240
# Poissons Ratio (y) = -0.07976 -0.04032
# Poissons Ratio (z) = 0.07877 -0.05761
#
# Static dielectric constant tensor:
#      x y z
#    x 1.805340 0.000000 0.000000 
#    y 0.000000 1.790650 0.000000 
#    z 0.000000 0.000000 1.867480 
# 
# From -- ./inp_files/6472.got.cif
#   From: 2010.05.17/outbox.cif.g08.bks.cpg/sg58_4_cif.got.tgz:6472.got - 2010.06.03 14:20:14.
