data_PCOD9442736
_publ_section_title
;
Structure prediction by ZEFSAII (Michael W. Deem and Ramdas Pophale) SiO2 
 PCOD9442736
Probable space group: P N N M
;
_chemical_formula_sum "Si O2"
_cell_formula_units_Z 64
_cell_length_a 21.271018
_cell_length_b 19.053944
_cell_length_c 7.403527
_cell_angle_alpha 90.000000
_cell_angle_beta 90.000000
_cell_angle_gamma 90.000000
_cell_volume 3000.625697
_symmetry_space_group_name_H-M "P N N M"
_symmetry_group_IT_number 58
_symmetry_cell_setting 'orthorhombic'
loop_
_space_group_symop_operation_xyz
x,y,z
-x,-y,z
1/2+x,1/2-y,1/2-z
1/2-x,1/2+y,1/2-z
-x,-y,-z
x,y,-z
1/2-x,1/2+y,1/2+z
1/2+x,1/2-y,1/2+z
loop_
_atom_site_type_symbol
_atom_site_label
_atom_site_fract_x
_atom_site_fract_y
_atom_site_fract_z
Si Si1 0.061410 0.043853 0.279001
Si Si2 0.318453 0.290022 0.779963
Si Si3 0.676823 0.207253 0.717558
Si Si4 0.438639 0.203979 0.217732
Si Si5 0.679879 0.046066 0.720298
Si Si6 0.061243 0.539435 0.214108
Si Si7 0.554367 0.297164 0.211730
Si Si8 0.178643 0.951682 0.280064
O O1 0.062921 0.044490 0.500000
O O2 0.057762 0.124007 0.214874
O O3 0.124122 0.003526 0.219102
O O4 0.000000 0.000000 0.226419
O O5 0.247280 0.272290 0.722009
O O6 0.373453 0.238628 0.718440
O O7 0.332346 0.370605 0.727112
O O8 0.318184 0.288909 0.000000
O O9 0.677445 0.207225 0.500000
O O10 0.665623 0.126489 0.774408
O O11 0.620781 0.257764 0.773866
O O12 0.443269 0.122400 0.262765
O O13 0.498425 0.248457 0.285701
O O14 0.438475 0.208073 0.000000
O O15 0.680899 0.045442 0.500000
O O16 0.626013 0.993731 0.784759
O O17 0.750842 0.028441 0.777737
O O18 0.000000 0.500000 0.288528
O O19 0.062265 0.525229 0.000000
O O20 0.539985 0.305587 0.000000
O O21 0.178056 0.952233 0.500000
#
# Coordination Sequence:
#
# PCOD9442736 Si02
#       8
#     8   8   8   8   8   8   8   8
#     4   9  16  26  42  65  92 120 149 184 227 271
#     4   8  15  29  49  71  94 124 160 193 227 278
#     4   9  17  32  53  71  91 124 161 192 229 281
#     4  10  20  33  48  69  99 129 157 192 237 288
#     4   8  15  28  46  67  88 114 152 194 229 265
#     4  10  20  33  49  69  93 122 160 202 237 274
#     4  10  20  31  46  72 101 124 151 194 241 279
#     4   8  13  24  44  67  90 117 150 187 227 271
#
# _framework density 21.328885
#
# number of rings (size 3 to 8) (size 9 to 14) (size 15 to 20)
#    0.000    3.000    0.000    3.000    0.000    5.750 
#    0.000    2.500    0.000    0.375    0.000    4.375 
#    0.000    0.000    0.000    0.000    0.000    0.000 
#
# Total GULP energy -357337.160253 kJ/mol
# GULP energy per Si atom -5583.393129 kJ/mol
# Density = 2.128034 g / cm^3
# Si number density = 21.328885 Si / 1000 Ang^3
#
#
#
# Elastic Constant Matrix: (Units=GPa)
#
#
# Indices 1 2 3 4 5 6 
#
# 1 198.1529 144.5803 -2.7084 0.0000 0.0000 0.0000
# 2 144.5803 173.2958 -6.8624 0.0000 0.0000 0.0000
# 3 -2.7084 -6.8624 66.6620 0.0000 0.0000 0.0000
# 4 0.0000 0.0000 0.0000 0.7331 0.0000 0.0000
# 5 0.0000 0.0000 0.0000 0.0000 -1.3244 0.0000
# 6 0.0000 0.0000 0.0000 0.0000 0.0000 43.9038
#
#
#
# Elastic Compliance Matrix: (Units=1/GPa)
#
#
# Indices 1 2 3 4 5 6 
#
# 1 0.012921 -0.010803 -0.000587 0.000000 0.000000 0.000000
# 2 -0.010803 0.014827 0.001087 0.000000 0.000000 0.000000
# 3 -0.000587 0.001087 0.015089 0.000000 0.000000 0.000000
# 4 0.000000 0.000000 0.000000 1.364066 0.000000 0.000000
# 5 0.000000 0.000000 0.000000 0.000000 -0.755031 0.000000
# 6 0.000000 0.000000 0.000000 0.000000 0.000000 0.022777
#
#
# Mechanical properties :
#
#
# Convention : Reuss Voigt Hill
#
# Bulk Modulus (GPa) = 44.98262 78.68107 61.83184
# Shear Modulus (GPa) = 7.11577 28.86923 17.99250
#
# Velocity S-wave (km/s) = 1.82851 3.68302 2.90759
# Velocity P-wave (km/s) = 5.05902 7.41996 6.35018
#
# Compressibility (1/GPa) = 0.02223081
#
# Stress axis : x y z
#
# Youngs Moduli (GPa) = 77.39281 67.44586 66.27282
#
# Poissons Ratio (x) = 0.72864 0.03891
# Poissons Ratio (y) = 0.83610 -0.07206
# Poissons Ratio (z) = 0.04544 -0.07334
#
# Static dielectric constant tensor:
#      x y z
#    x 1.720750 0.000000 0.000000 
#    y 0.000000 1.716230 0.000000 
#    z 0.000000 0.000000 1.837220 
# 
# From -- ./inp_files/9285.got.cif
#   From: 2010.05.17/outbox.cif.g08.bks.cpg/sg58_5_cif.got.tgz:9285.got - 2010.06.03 14:20:14.
