data_PCOD9442790
_publ_section_title
;
Structure prediction by ZEFSAII (Michael W. Deem and Ramdas Pophale) SiO2 
 PCOD9442790
Probable space group: P N N M
;
_chemical_formula_sum "Si O2"
_cell_formula_units_Z 64
_cell_length_a 9.258394
_cell_length_b 21.141018
_cell_length_c 18.428086
_cell_angle_alpha 90.000000
_cell_angle_beta 90.000000
_cell_angle_gamma 90.000000
_cell_volume 3606.963811
_symmetry_space_group_name_H-M "P N N M"
_symmetry_group_IT_number 58
_symmetry_cell_setting 'orthorhombic'
loop_
_space_group_symop_operation_xyz
x,y,z
-x,-y,z
1/2+x,1/2-y,1/2-z
1/2-x,1/2+y,1/2-z
-x,-y,-z
x,y,-z
1/2-x,1/2+y,1/2+z
1/2+x,1/2-y,1/2+z
loop_
_atom_site_type_symbol
_atom_site_label
_atom_site_fract_x
_atom_site_fract_y
_atom_site_fract_z
Si Si1 0.460222 0.253098 0.414546
Si Si2 0.029425 0.610741 0.135740
Si Si3 0.205436 0.900189 0.414573
Si Si4 0.004070 0.667972 0.281383
Si Si5 0.142892 0.296096 0.584891
Si Si6 0.672061 0.278451 0.289957
Si Si7 0.302206 0.543705 0.085730
Si Si8 0.540183 0.336175 0.152902
O O1 0.490882 0.250154 0.500000
O O2 0.422014 0.181992 0.387122
O O3 0.315705 0.294330 0.402788
O O4 0.595853 0.277826 0.368269
O O5 0.874416 0.603241 0.099976
O O6 0.025242 0.612322 0.223342
O O7 0.136997 0.558596 0.105700
O O8 0.174393 0.889009 0.500000
O O9 0.126518 0.849071 0.364468
O O10 0.159540 0.971847 0.395411
O O11 0.157844 0.705460 0.287351
O O12 0.942942 0.656994 0.361692
O O13 0.879632 0.712009 0.245027
O O14 0.115978 0.306226 0.500000
O O15 0.088839 0.225842 0.608376
O O16 0.589787 0.326351 0.235279
O O17 0.385859 0.600587 0.123335
O O18 0.323090 0.549787 0.000000
#
# Coordination Sequence:
#
# PCOD9442790 Si02
#       8
#     8   8   8   8   8   8   8   8
#     4  10  20  33  52  75 101 131 162 199 247 300
#     4  11  20  34  50  69  99 136 166 200 244 288
#     4  11  24  32  47  74  97 129 174 213 238 276
#     4  10  20  33  49  71  97 131 166 202 243 292
#     4  10  20  33  52  75 101 131 162 199 247 300
#     4  10  20  33  49  71  97 131 166 202 243 292
#     4  11  20  36  51  66  97 133 172 209 242 278
#     4  11  20  34  50  69  99 136 166 200 244 288
#
# _framework density 17.743455999999998
#
# number of rings (size 3 to 8) (size 9 to 14) (size 15 to 20)
#    0.000    1.500    2.500    5.250    8.750    2.500 
#    0.000    0.000    0.000    0.000    0.000    0.000 
#    0.000    6.000    0.000    0.000    0.000    0.000 
#
# Total GULP energy -357097.279986 kJ/mol
# GULP energy per Si atom -5579.645000 kJ/mol
# Density = 1.770307 g / cm^3
# Si number density = 17.743456 Si / 1000 Ang^3
#
#
#
# Elastic Constant Matrix: (Units=GPa)
#
#
# Indices 1 2 3 4 5 6 
#
# 1 59.3126 -8.6119 14.6406 0.0000 0.0000 0.0000
# 2 -8.6119 24.5706 7.9392 0.0000 0.0000 0.0000
# 3 14.6406 7.9392 102.1692 0.0000 0.0000 0.0000
# 4 0.0000 0.0000 0.0000 11.9617 0.0000 0.0000
# 5 0.0000 0.0000 0.0000 0.0000 30.8747 0.0000
# 6 0.0000 0.0000 0.0000 0.0000 0.0000 3.3881
#
#
#
# Elastic Compliance Matrix: (Units=1/GPa)
#
#
# Indices 1 2 3 4 5 6 
#
# 1 0.018781 0.007644 -0.003285 0.000000 0.000000 0.000000
# 2 0.007644 0.044859 -0.004581 0.000000 0.000000 0.000000
# 3 -0.003285 -0.004581 0.010614 0.000000 0.000000 0.000000
# 4 0.000000 0.000000 0.000000 0.083600 0.000000 0.000000
# 5 0.000000 0.000000 0.000000 0.000000 0.032389 0.000000
# 6 0.000000 0.000000 0.000000 0.000000 0.000000 0.295150
#
#
# Mechanical properties :
#
#
# Convention : Reuss Voigt Hill
#
# Bulk Modulus (GPa) = 13.54850 23.77646 18.66248
# Shear Modulus (GPa) = 9.79547 20.71721 15.25634
#
# Velocity S-wave (km/s) = 2.35215 3.42072 2.93547
# Velocity P-wave (km/s) = 3.87674 5.38804 4.69362
#
# Compressibility (1/GPa) = 0.07380893
#
# Stress axis : x y z
#
# Youngs Moduli (GPa) = 53.24637 22.29230 94.21133
#
# Poissons Ratio (x) = -0.17040 0.30950
# Poissons Ratio (y) = -0.40702 0.43160
# Poissons Ratio (z) = 0.17493 0.10213
#
# Static dielectric constant tensor:
#      x y z
#    x 1.695200 0.000000 0.000000 
#    y 0.000000 1.645410 0.000000 
#    z 0.000000 0.000000 1.626000 
# 
# From -- ./inp_files/25682.got.cif
#   From: 2010.05.17/outbox.cif.g08.bks.cpg/sg58_13_cif.got.tgz:25682.got - 2010.06.03 14:20:14.
