data_PCOD9442540
_publ_section_title
;
Structure prediction by ZEFSAII (Michael W. Deem and Ramdas Pophale) SiO2 
 PCOD9442540
Probable space group: P N N M
;
_chemical_formula_sum "Si O2"
_cell_formula_units_Z 48
_cell_length_a 9.541012
_cell_length_b 13.806157
_cell_length_c 20.422742
_cell_angle_alpha 90.000000
_cell_angle_beta 90.000000
_cell_angle_gamma 90.000000
_cell_volume 2690.179759
_symmetry_space_group_name_H-M "P N N M"
_symmetry_group_IT_number 58
_symmetry_cell_setting 'orthorhombic'
loop_
_space_group_symop_operation_xyz
x,y,z
-x,-y,z
1/2+x,1/2-y,1/2-z
1/2-x,1/2+y,1/2-z
-x,-y,-z
x,y,-z
1/2-x,1/2+y,1/2+z
1/2+x,1/2-y,1/2+z
loop_
_atom_site_type_symbol
_atom_site_label
_atom_site_fract_x
_atom_site_fract_y
_atom_site_fract_z
Si Si1 0.787788 0.726982 0.424889
Si Si2 0.932213 0.395689 0.576291
Si Si3 0.785301 0.807967 0.177103
Si Si4 0.344397 0.397294 0.202002
Si Si5 0.925910 0.102020 0.851023
Si Si6 0.321909 0.611354 0.820067
O O1 0.765935 0.754385 0.500000
O O2 0.681269 0.642359 0.403769
O O3 0.770865 0.817207 0.376341
O O4 0.943606 0.682967 0.417894
O O5 0.885952 0.398537 0.500000
O O6 0.809613 0.365921 0.625390
O O7 0.000000 0.500000 0.591822
O O8 0.739816 0.696578 0.180263
O O9 0.767172 0.851512 0.249933
O O10 0.947314 0.822678 0.159002
O O11 0.347567 0.407939 0.281065
O O12 0.507989 0.384258 0.183153
O O13 0.288826 0.497935 0.172710
O O14 0.000000 0.000000 0.866278
#
# Coordination Sequence:
#
# PCOD9442540 Si02
#       6
#     8   8   8   8   8   8
#     4  11  23  39  58  83 121 161 195 236 291 352
#     4  10  22  37  56  86 120 152 192 242 290 344
#     4  11  20  35  62  83 113 152 191 242 290 340
#     4  10  19  36  59  89 114 144 193 249 285 342
#     4  11  21  36  58  87 117 153 189 236 298 347
#     4  10  20  37  60  85 116 149 195 241 289 341
#
# _framework density 17.842673999999999
#
# number of rings (size 3 to 8) (size 9 to 14) (size 15 to 20)
#    0.000    1.500    6.667    1.000    0.000    1.000 
#    0.000    3.333    0.000    1.000    0.000    0.000 
#    0.000    0.000    0.000    0.000    0.000    0.000 
#
# Total GULP energy -268025.408764 kJ/mol
# GULP energy per Si atom -5583.862683 kJ/mol
# Density = 1.780206 g / cm^3
# Si number density = 17.842674 Si / 1000 Ang^3
#
#
#
# Elastic Constant Matrix: (Units=GPa)
#
#
# Indices 1 2 3 4 5 6 
#
# 1 26.9166 6.5674 22.9880 0.0000 0.0000 0.0000
# 2 6.5674 102.8494 17.7736 0.0000 0.0000 0.0000
# 3 22.9880 17.7736 88.9053 0.0000 0.0000 0.0000
# 4 0.0000 0.0000 0.0000 15.9239 0.0000 0.0000
# 5 0.0000 0.0000 0.0000 0.0000 18.0607 0.0000
# 6 0.0000 0.0000 0.0000 0.0000 0.0000 27.3010
#
#
#
# Elastic Compliance Matrix: (Units=1/GPa)
#
#
# Indices 1 2 3 4 5 6 
#
# 1 0.047770 -0.000949 -0.012162 0.000000 0.000000 0.000000
# 2 -0.000949 0.010090 -0.001772 0.000000 0.000000 0.000000
# 3 -0.012162 -0.001772 0.014747 0.000000 0.000000 0.000000
# 4 0.000000 0.000000 0.000000 0.062799 0.000000 0.000000
# 5 0.000000 0.000000 0.000000 0.000000 0.055369 0.000000
# 6 0.000000 0.000000 0.000000 0.000000 0.000000 0.036629
#
#
# Mechanical properties :
#
#
# Convention : Reuss Voigt Hill
#
# Bulk Modulus (GPa) = 23.34175 34.81439 29.07807
# Shear Modulus (GPa) = 18.41968 23.67995 21.04982
#
# Velocity S-wave (km/s) = 3.21649 3.64696 3.43847
# Velocity P-wave (km/s) = 5.18698 6.10639 5.66537
#
# Compressibility (1/GPa) = 0.04284168
#
# Stress axis : x y z
#
# Youngs Moduli (GPa) = 20.93350 99.11082 67.81095
#
# Poissons Ratio (x) = 0.09402 0.82473
# Poissons Ratio (y) = 0.01986 0.12015
# Poissons Ratio (z) = 0.25460 0.17561
#
# Static dielectric constant tensor:
#      x y z
#    x 1.603600 0.000000 0.000000 
#    y 0.000000 1.616150 0.000000 
#    z 0.000000 0.000000 1.595560 
# 
# From -- ./inp_files/25256.got.cif
#   From: 2010.05.17/outbox.cif.g08.bks.cpg/sg58_13_cif.got.tgz:25256.got - 2010.06.03 14:20:14.
