data_PCOD9442313
_publ_section_title
;
Structure prediction by ZEFSAII (Michael W. Deem and Ramdas Pophale) SiO2 
 PCOD9442313
Probable space group: P N N M
;
_chemical_formula_sum "Si O2"
_cell_formula_units_Z 64
_cell_length_a 29.404945
_cell_length_b 12.657068
_cell_length_c 8.375988
_cell_angle_alpha 90.000000
_cell_angle_beta 90.000000
_cell_angle_gamma 90.000000
_cell_volume 3117.378467
_symmetry_space_group_name_H-M "P N N M"
_symmetry_group_IT_number 58
_symmetry_cell_setting 'orthorhombic'
loop_
_space_group_symop_operation_xyz
x,y,z
-x,-y,z
1/2+x,1/2-y,1/2-z
1/2-x,1/2+y,1/2-z
-x,-y,-z
x,y,-z
1/2-x,1/2+y,1/2+z
1/2+x,1/2-y,1/2+z
loop_
_atom_site_type_symbol
_atom_site_label
_atom_site_fract_x
_atom_site_fract_y
_atom_site_fract_z
Si Si1 0.213624 0.445957 0.814006
Si Si2 0.565314 0.347300 0.306913
Si Si3 0.124880 0.333384 0.308159
Si Si4 0.925392 0.461592 0.687733
Si Si5 0.308312 0.371901 0.685383
Si Si6 0.026800 0.735080 0.191977
Si Si7 0.172156 0.650273 0.683453
Si Si8 0.907924 0.077768 0.805176
O O1 0.173883 0.365956 0.759342
O O2 0.263480 0.402063 0.780715
O O3 0.205596 0.553034 0.715689
O O4 0.207147 0.468922 0.000000
O O5 0.565298 0.346385 0.500000
O O6 0.608029 0.280516 0.245947
O O7 0.520375 0.285689 0.250770
O O8 0.567441 0.469527 0.256828
O O9 0.126873 0.340777 0.500000
O O10 0.087866 0.421869 0.250236
O O11 0.934843 0.471450 0.500000
O O12 0.963472 0.385246 0.759235
O O13 0.878105 0.397185 0.709426
O O14 0.301477 0.399801 0.500000
O O15 0.317311 0.247230 0.702803
O O16 0.355341 0.423624 0.744902
O O17 0.066129 0.816495 0.248926
O O18 0.026817 0.738165 0.000000
O O19 0.175457 0.685768 0.500000
O O20 0.907887 0.081122 0.000000
#
# Coordination Sequence:
#
# PCOD9442313 Si02
#       8
#     8   8   8   8   8   8   8   8
#     4  11  23  39  60  86 116 152 194 242 302 361
#     4  10  21  37  58  85 120 159 198 242 295 353
#     4  10  22  41  59  81 116 156 197 244 300 358
#     4   9  19  35  57  81 111 149 190 243 295 345
#     4  11  21  36  60  88 116 151 197 244 295 354
#     4  10  19  34  59  88 115 151 199 246 291 349
#     4  10  20  37  58  83 115 151 191 240 294 350
#     4   9  19  36  58  85 117 153 195 243 291 343
#
# _framework density 20.530069000000001
#
# number of rings (size 3 to 8) (size 9 to 14) (size 15 to 20)
#    0.000    2.000    1.250    3.375    0.000    6.000 
#    0.000    8.125    0.000    1.500    0.000    0.000 
#    0.000    0.000    0.000    0.000    0.000    0.000 
#
# Total GULP energy -357405.141003 kJ/mol
# GULP energy per Si atom -5584.455328 kJ/mol
# Density = 2.048334 g / cm^3
# Si number density = 20.530069 Si / 1000 Ang^3
#
#
#
# Elastic Constant Matrix: (Units=GPa)
#
#
# Indices 1 2 3 4 5 6 
#
# 1 57.3498 3.7308 0.4507 0.0000 0.0000 0.0000
# 2 3.7308 48.2309 -1.7242 0.0000 0.0000 0.0000
# 3 0.4507 -1.7242 13.3330 0.0000 0.0000 0.0000
# 4 0.0000 0.0000 0.0000 20.9350 0.0000 0.0000
# 5 0.0000 0.0000 0.0000 0.0000 4.9012 0.0000
# 6 0.0000 0.0000 0.0000 0.0000 0.0000 12.2153
#
#
#
# Elastic Compliance Matrix: (Units=1/GPa)
#
#
# Indices 1 2 3 4 5 6 
#
# 1 0.017533 -0.001384 -0.000772 0.000000 0.000000 0.000000
# 2 -0.001384 0.020939 0.002755 0.000000 0.000000 0.000000
# 3 -0.000772 0.002755 0.075384 0.000000 0.000000 0.000000
# 4 0.000000 0.000000 0.000000 0.047767 0.000000 0.000000
# 5 0.000000 0.000000 0.000000 0.000000 0.204033 0.000000
# 6 0.000000 0.000000 0.000000 0.000000 0.000000 0.081865
#
#
# Mechanical properties :
#
#
# Convention : Reuss Voigt Hill
#
# Bulk Modulus (GPa) = 8.69153 13.75869 11.22511
# Shear Modulus (GPa) = 10.31622 15.37405 12.84513
#
# Velocity S-wave (km/s) = 2.24407 2.73949 2.50406
# Velocity P-wave (km/s) = 3.31017 4.08934 3.72021
#
# Compressibility (1/GPa) = 0.11505459
#
# Stress axis : x y z
#
# Youngs Moduli (GPa) = 57.03549 47.75749 13.26539
#
# Poissons Ratio (x) = 0.06609 0.01024
# Poissons Ratio (y) = 0.07893 -0.03654
# Poissons Ratio (z) = 0.04401 -0.13155
#
# Static dielectric constant tensor:
#      x y z
#    x 1.748030 0.000000 0.000000 
#    y 0.000000 1.717210 0.000000 
#    z 0.000000 0.000000 1.704120 
# 
# From -- ./inp_files/11006.got.cif
#   From: 2010.05.17/outbox.cif.g08.bks.cpg/sg58_6_cif.got.tgz:11006.got - 2010.06.03 14:20:14.
