data_PCOD9442989
_publ_section_title
;
Structure prediction by ZEFSAII (Michael W. Deem and Ramdas Pophale) SiO2 
 PCOD9442989
Probable space group: P N N M
;
_chemical_formula_sum "Si O2"
_cell_formula_units_Z 56
_cell_length_a 8.053835
_cell_length_b 20.540006
_cell_length_c 14.824170
_cell_angle_alpha 90.000000
_cell_angle_beta 90.000000
_cell_angle_gamma 90.000000
_cell_volume 2452.300467
_symmetry_space_group_name_H-M "P N N M"
_symmetry_group_IT_number 58
_symmetry_cell_setting 'orthorhombic'
loop_
_space_group_symop_operation_xyz
x,y,z
-x,-y,z
1/2+x,1/2-y,1/2-z
1/2-x,1/2+y,1/2-z
-x,-y,-z
x,y,-z
1/2-x,1/2+y,1/2+z
1/2+x,1/2-y,1/2+z
loop_
_atom_site_type_symbol
_atom_site_label
_atom_site_fract_x
_atom_site_fract_y
_atom_site_fract_z
Si Si1 0.518383 0.855710 0.782461
Si Si2 0.833791 0.251363 0.397363
Si Si3 0.319197 0.035638 0.102804
Si Si4 0.468683 0.309287 0.604118
Si Si5 0.815880 0.325395 0.897036
Si Si6 0.952105 0.109816 0.399018
Si Si7 0.661550 0.575600 0.713798
O O1 0.545948 0.784313 0.824489
O O2 0.641958 0.899052 0.843360
O O3 0.573885 0.857578 0.679510
O O4 0.337709 0.886366 0.789034
O O5 0.887939 0.268885 0.500000
O O6 0.646698 0.275427 0.384027
O O7 0.837061 0.173870 0.391545
O O8 0.500000 0.000000 0.099227
O O9 0.194681 0.989529 0.157496
O O10 0.265149 0.047193 0.000000
O O11 0.449793 0.329829 0.500000
O O12 0.331933 0.252456 0.620038
O O13 0.456492 0.372136 0.666004
O O14 0.634987 0.357934 0.890691
O O15 0.875526 0.334436 0.000000
O O16 0.936289 0.081813 0.500000
O O17 0.900030 0.065403 0.315595
#
# Coordination Sequence:
#
# PCOD9442989 Si02
#       7
#     8   8   8   8   8   8   8
#     4  11  21  35  57  81 108 143 182 225 270 318
#     4  10  20  34  54  82 114 145 179 221 269 322
#     4   9  20  38  58  81 108 140 179 219 262 317
#     4  10  20  34  54  82 114 145 179 221 269 322
#     4  10  21  37  56  79 109 144 181 222 269 322
#     4  10  21  37  56  79 109 144 181 222 269 322
#     4  11  21  35  57  81 108 143 182 225 270 318
#
# _framework density 22.835699999999999
#
# number of rings (size 3 to 8) (size 9 to 14) (size 15 to 20)
#    0.000    1.857    0.000    4.286    0.000    4.571 
#    0.000    3.571    0.000    9.429    0.000    0.000 
#    0.000    0.000    0.000    0.000    0.000    0.000 
#
# Total GULP energy -313388.786201 kJ/mol
# GULP energy per Si atom -5596.228325 kJ/mol
# Density = 2.278373 g / cm^3
# Si number density = 22.835700 Si / 1000 Ang^3
#
#
#
# Elastic Constant Matrix: (Units=GPa)
#
#
# Indices 1 2 3 4 5 6 
#
# 1 69.7035 10.1256 34.0974 0.0000 0.0000 0.0000
# 2 10.1256 48.4776 42.2972 0.0000 0.0000 0.0000
# 3 34.0974 42.2972 135.3325 0.0000 0.0000 0.0000
# 4 0.0000 0.0000 0.0000 16.6155 0.0000 0.0000
# 5 0.0000 0.0000 0.0000 0.0000 26.7017 0.0000
# 6 0.0000 0.0000 0.0000 0.0000 0.0000 32.5152
#
#
#
# Elastic Compliance Matrix: (Units=1/GPa)
#
#
# Indices 1 2 3 4 5 6 
#
# 1 0.016365 0.000247 -0.004200 0.000000 0.000000 0.000000
# 2 0.000247 0.028366 -0.008928 0.000000 0.000000 0.000000
# 3 -0.004200 -0.008928 0.011238 0.000000 0.000000 0.000000
# 4 0.000000 0.000000 0.000000 0.060185 0.000000 0.000000
# 5 0.000000 0.000000 0.000000 0.000000 0.037451 0.000000
# 6 0.000000 0.000000 0.000000 0.000000 0.000000 0.030755
#
#
# Mechanical properties :
#
#
# Convention : Reuss Voigt Hill
#
# Bulk Modulus (GPa) = 33.10568 47.39489 40.25028
# Shear Modulus (GPa) = 22.70747 26.29936 24.50342
#
# Velocity S-wave (km/s) = 3.15681 3.39732 3.27927
# Velocity P-wave (km/s) = 5.27409 6.01571 5.65707
#
# Compressibility (1/GPa) = 0.03020629
#
# Stress axis : x y z
#
# Youngs Moduli (GPa) = 61.10460 35.25324 88.98514
#
# Poissons Ratio (x) = -0.00869 0.37377
# Poissons Ratio (y) = -0.01507 0.79444
# Poissons Ratio (z) = 0.25666 0.31473
#
# Static dielectric constant tensor:
#      x y z
#    x 1.867450 0.000000 0.000000 
#    y 0.000000 1.830440 0.000000 
#    z 0.000000 0.000000 1.856750 
# 
# From -- ./inp_files/6306.got.cif
#   From: 2010.05.17/outbox.cif.g08.bks.cpg/sg58_4_cif.got.tgz:6306.got - 2010.06.03 14:20:14.
