data_PCOD9442040
_publ_section_title
;
Structure prediction by ZEFSAII (Michael W. Deem and Ramdas Pophale) SiO2 
 PCOD9442040
Probable space group: P N N M
;
_chemical_formula_sum "Si O2"
_cell_formula_units_Z 40
_cell_length_a 25.128968
_cell_length_b 8.548939
_cell_length_c 7.419845
_cell_angle_alpha 90.000000
_cell_angle_beta 90.000000
_cell_angle_gamma 90.000000
_cell_volume 1593.975730
_symmetry_space_group_name_H-M "P N N M"
_symmetry_group_IT_number 58
_symmetry_cell_setting 'orthorhombic'
loop_
_space_group_symop_operation_xyz
x,y,z
-x,-y,z
1/2+x,1/2-y,1/2-z
1/2-x,1/2+y,1/2-z
-x,-y,-z
x,y,-z
1/2-x,1/2+y,1/2+z
1/2+x,1/2-y,1/2+z
loop_
_atom_site_type_symbol
_atom_site_label
_atom_site_fract_x
_atom_site_fract_y
_atom_site_fract_z
Si Si1 0.827661 0.197123 0.211420
Si Si2 0.022953 0.164767 0.719928
Si Si3 0.726170 0.364594 0.782862
Si Si4 0.371902 0.827734 0.219399
Si Si5 0.427620 0.138007 0.794757
O O1 0.785379 0.325646 0.282915
O O2 0.885263 0.219961 0.297612
O O3 0.799347 0.030460 0.235763
O O4 0.836023 0.220708 0.000000
O O5 0.020961 0.165083 0.500000
O O6 0.083315 0.200635 0.769643
O O7 0.982774 0.300779 0.783359
O O8 0.000000 0.000000 0.781537
O O9 0.685449 0.230024 0.718146
O O10 0.728538 0.356619 0.000000
O O11 0.395447 0.992242 0.285054
O O12 0.368769 0.833855 0.000000
O O13 0.439834 0.090778 0.000000
#
# Coordination Sequence:
#
# PCOD9442040 Si02
#       5
#     8   8   8   8   8
#     4  11  23  37  55  81 110 139 175 218 264 318
#     4   9  16  27  49  81 110 137 176 225 268 306
#     4  10  21  37  56  77 104 139 177 218 264 314
#     4   9  17  31  53  81 107 135 180 229 266 306
#     4  10  19  33  55  80 109 144 178 217 266 317
#
# _framework density 25.094486
#
# number of rings (size 3 to 8) (size 9 to 14) (size 15 to 20)
#    0.000    2.200    0.000    3.600    0.000    8.800 
#    0.000    1.000    0.000    7.800    0.000    0.000 
#    0.000    0.000    0.000    0.000    0.000    0.000 
#
# Total GULP energy -223786.082376 kJ/mol
# GULP energy per Si atom -5594.652059 kJ/mol
# Density = 2.503737 g / cm^3
# Si number density = 25.094486 Si / 1000 Ang^3
#
#
#
# Elastic Constant Matrix: (Units=GPa)
#
#
# Indices 1 2 3 4 5 6 
#
# 1 101.8728 -18.3680 1.0772 0.0000 0.0000 0.0000
# 2 -18.3680 63.2198 -8.1806 0.0000 0.0000 0.0000
# 3 1.0772 -8.1806 93.1016 0.0000 0.0000 0.0000
# 4 0.0000 0.0000 0.0000 7.9900 0.0000 0.0000
# 5 0.0000 0.0000 0.0000 0.0000 -2.5965 0.0000
# 6 0.0000 0.0000 0.0000 0.0000 0.0000 47.1902
#
#
#
# Elastic Compliance Matrix: (Units=1/GPa)
#
#
# Indices 1 2 3 4 5 6 
#
# 1 0.010361 0.003029 0.000146 0.000000 0.000000 0.000000
# 2 0.003029 0.016885 0.001449 0.000000 0.000000 0.000000
# 3 0.000146 0.001449 0.010867 0.000000 0.000000 0.000000
# 4 0.000000 0.000000 0.000000 0.125157 0.000000 0.000000
# 5 0.000000 0.000000 0.000000 0.000000 -0.385133 0.000000
# 6 0.000000 0.000000 0.000000 0.000000 0.000000 0.021191
#
#
# Mechanical properties :
#
#
# Convention : Reuss Voigt Hill
#
# Bulk Modulus (GPa) = 21.11447 23.02794 22.07121
# Shear Modulus (GPa) = -25.75549 29.42777 1.83614
#
# Velocity S-wave (km/s) = -3.20713 3.42815 0.85632
# Velocity P-wave (km/s) = 2.29826 4.98659 3.12922
#
# Compressibility (1/GPa) = 0.04736088
#
# Stress axis : x y z
#
# Youngs Moduli (GPa) = 96.51782 59.22279 92.02557
#
# Poissons Ratio (x) = -0.17940 -0.01346
# Poissons Ratio (y) = -0.29237 -0.13331
# Poissons Ratio (z) = -0.01412 -0.08579
#
# Static dielectric constant tensor:
#      x y z
#    x 1.930130 0.000000 0.000000 
#    y 0.000000 2.005430 0.000000 
#    z 0.000000 0.000000 1.957820 
# 
# From -- ./inp_files/2423.got.cif
#   From: 2010.05.17/outbox.cif.g08.bks.cpg/sg58_2_cif.got.tgz:2423.got - 2010.06.03 14:20:14.
