data_PCOD9442621
_publ_section_title
;
Structure prediction by ZEFSAII (Michael W. Deem and Ramdas Pophale) SiO2 
 PCOD9442621
Probable space group: P N N M
;
_chemical_formula_sum "Si O2"
_cell_formula_units_Z 64
_cell_length_a 25.251833
_cell_length_b 15.301106
_cell_length_c 7.549203
_cell_angle_alpha 90.000000
_cell_angle_beta 90.000000
_cell_angle_gamma 90.000000
_cell_volume 2916.868404
_symmetry_space_group_name_H-M "P N N M"
_symmetry_group_IT_number 58
_symmetry_cell_setting 'orthorhombic'
loop_
_space_group_symop_operation_xyz
x,y,z
-x,-y,z
1/2+x,1/2-y,1/2-z
1/2-x,1/2+y,1/2-z
-x,-y,-z
x,y,-z
1/2-x,1/2+y,1/2+z
1/2+x,1/2-y,1/2+z
loop_
_atom_site_type_symbol
_atom_site_label
_atom_site_fract_x
_atom_site_fract_y
_atom_site_fract_z
Si Si1 0.447165 0.450023 0.217615
Si Si2 0.057080 0.753068 0.708118
Si Si3 0.169660 0.993771 0.706916
Si Si4 0.988031 0.595700 0.707071
Si Si5 0.762534 0.634368 0.782635
Si Si6 0.269106 0.666579 0.296662
Si Si7 0.649965 0.864501 0.287502
Si Si8 0.874931 0.554274 0.213440
O O1 0.500000 0.500000 0.274935
O O2 0.449746 0.349717 0.279082
O O3 0.390183 0.487611 0.277309
O O4 0.447334 0.452213 0.000000
O O5 0.044453 0.759326 0.500000
O O6 0.116968 0.718984 0.727224
O O7 0.020299 0.676526 0.786153
O O8 0.165466 0.971300 0.500000
O O9 0.193998 0.090987 0.718506
O O10 0.212392 0.923328 0.780063
O O11 0.003063 0.591046 0.500000
O O12 0.925082 0.607707 0.719785
O O13 0.000000 0.500000 0.786921
O O14 0.765970 0.734977 0.721533
O O15 0.817623 0.588765 0.731500
O O16 0.760330 0.634970 0.000000
O O17 0.285817 0.675248 0.500000
O O18 0.208967 0.633383 0.284657
O O19 0.653042 0.864578 0.500000
O O20 0.620543 0.953141 0.229613
O O21 0.876380 0.556627 0.000000
#
# Coordination Sequence:
#
# PCOD9442621 Si02
#       8
#     8   8   8   8   8   8   8   8
#     4   9  19  36  60  86 110 150 200 237 276 338
#     4  10  20  36  58  81 112 151 190 235 285 336
#     4  10  19  37  61  83 113 149 192 239 280 331
#     4  10  20  33  51  81 116 142 174 227 284 329
#     4   9  19  37  56  79 112 152 188 221 277 346
#     4  11  22  36  59  86 114 149 189 231 286 345
#     4  11  21  35  57  83 112 146 191 235 275 334
#     4  10  20  35  55  76 107 149 188 222 267 338
#
# _framework density 21.941337999999998
#
# number of rings (size 3 to 8) (size 9 to 14) (size 15 to 20)
#    0.000    2.000    2.500    1.500    0.000    4.250 
#    0.000    5.625    0.000    1.500    0.000    0.000 
#    0.000    0.000    0.000    0.000    0.000    0.000 
#
# Total GULP energy -357418.458264 kJ/mol
# GULP energy per Si atom -5584.663410 kJ/mol
# Density = 2.189140 g / cm^3
# Si number density = 21.941338 Si / 1000 Ang^3
#
#
#
# Elastic Constant Matrix: (Units=GPa)
#
#
# Indices 1 2 3 4 5 6 
#
# 1 176.7450 89.8259 -1.0420 0.0000 0.0000 0.0000
# 2 89.8259 148.4747 4.4245 0.0000 0.0000 0.0000
# 3 -1.0420 4.4245 47.9180 0.0000 0.0000 0.0000
# 4 0.0000 0.0000 0.0000 13.2135 0.0000 0.0000
# 5 0.0000 0.0000 0.0000 0.0000 37.3717 0.0000
# 6 0.0000 0.0000 0.0000 0.0000 0.0000 29.6149
#
#
#
# Elastic Compliance Matrix: (Units=1/GPa)
#
#
# Indices 1 2 3 4 5 6 
#
# 1 0.008189 -0.004973 0.000637 0.000000 0.000000 0.000000
# 2 -0.004973 0.009774 -0.001011 0.000000 0.000000 0.000000
# 3 0.000637 -0.001011 0.020976 0.000000 0.000000 0.000000
# 4 0.000000 0.000000 0.000000 0.075680 0.000000 0.000000
# 5 0.000000 0.000000 0.000000 0.000000 0.026758 0.000000
# 6 0.000000 0.000000 0.000000 0.000000 0.000000 0.033767
#
#
# Mechanical properties :
#
#
# Convention : Reuss Voigt Hill
#
# Bulk Modulus (GPa) = 35.40320 62.17273 48.78796
# Shear Modulus (GPa) = 25.60771 34.70196 30.15484
#
# Velocity S-wave (km/s) = 3.41999 3.98122 3.71123
# Velocity P-wave (km/s) = 5.63609 7.03782 6.37559
#
# Compressibility (1/GPa) = 0.02824604
#
# Stress axis : x y z
#
# Youngs Moduli (GPa) = 122.11170 102.31086 47.67314
#
# Poissons Ratio (x) = 0.50883 -0.03038
# Poissons Ratio (y) = 0.60731 0.04818
# Poissons Ratio (z) = -0.07782 0.10340
#
# Static dielectric constant tensor:
#      x y z
#    x 1.780900 0.000000 0.000000 
#    y 0.000000 1.812810 0.000000 
#    z 0.000000 0.000000 1.831490 
# 
# From -- ./inp_files/10057.got.cif
#   From: 2010.05.17/outbox.cif.g08.bks.cpg/sg58_6_cif.got.tgz:10057.got - 2010.06.03 14:20:14.
