data_PCOD9442831
_publ_section_title
;
Structure prediction by ZEFSAII (Michael W. Deem and Ramdas Pophale) SiO2 
 PCOD9442831
Probable space group: P N N M
;
_chemical_formula_sum "Si O2"
_cell_formula_units_Z 42
_cell_length_a 12.410528
_cell_length_b 18.454541
_cell_length_c 7.241657
_cell_angle_alpha 90.000000
_cell_angle_beta 90.000000
_cell_angle_gamma 90.000000
_cell_volume 1658.561032
_symmetry_space_group_name_H-M "P N N M"
_symmetry_group_IT_number 58
_symmetry_cell_setting 'orthorhombic'
loop_
_space_group_symop_operation_xyz
x,y,z
-x,-y,z
1/2+x,1/2-y,1/2-z
1/2-x,1/2+y,1/2-z
-x,-y,-z
x,y,-z
1/2-x,1/2+y,1/2+z
1/2+x,1/2-y,1/2+z
loop_
_atom_site_type_symbol
_atom_site_label
_atom_site_fract_x
_atom_site_fract_y
_atom_site_fract_z
Si Si1 0.000000 0.000000 0.500000
Si Si2 0.094328 0.765618 0.724476
Si Si3 0.091988 0.134428 0.296600
Si Si4 0.277359 0.874771 0.724876
Si Si5 0.481253 0.109180 0.288757
Si Si6 0.224983 0.536293 0.772956
O O1 0.020717 0.063352 0.344180
O O2 0.093152 0.767140 0.500000
O O3 0.198530 0.810995 0.785498
O O4 0.086346 0.683378 0.785462
O O5 0.985730 0.806581 0.789324
O O6 0.125387 0.164001 0.500000
O O7 0.197339 0.100194 0.206452
O O8 0.276686 0.871192 0.500000
O O9 0.401323 0.872886 0.789187
O O10 0.237902 0.955603 0.774968
O O11 0.501933 0.087173 0.500000
O O12 0.397613 0.050086 0.214078
O O13 0.231019 0.538639 0.000000
#
# Coordination Sequence:
#
# PCOD9442831 Si02
#       6
#     2   8   8   8   8   8
#     4   8  12  24  44  76 100 112 154 228 250 266
#     4  10  20  33  52  76 105 136 170 208 255 305
#     4   8  15  24  46  74 100 118 161 212 254 276
#     4   9  18  32  52  75 102 134 171 213 255 296
#     4  10  21  34  50  76 108 137 166 205 261 309
#     4   9  16  29  52  76 100 128 171 218 250 292
#
# _framework density 25.323153999999999
#
# number of rings (size 3 to 8) (size 9 to 14) (size 15 to 20)
#    0.571    2.286    0.000    1.714    5.333    2.286 
#    0.000    0.000    0.000    3.429    0.000    4.667 
#    0.000    0.000    0.000    0.000    0.000    0.000 
#
# Total GULP energy -233995.550356 kJ/mol
# GULP energy per Si atom -5571.322628 kJ/mol
# Density = 2.526552 g / cm^3
# Si number density = 25.323154 Si / 1000 Ang^3
#
#
#
# Elastic Constant Matrix: (Units=GPa)
#
#
# Indices 1 2 3 4 5 6 
#
# 1 120.5964 34.1954 3.2860 0.0000 0.0000 0.0000
# 2 34.1954 81.8560 -6.1386 0.0000 0.0000 0.0000
# 3 3.2860 -6.1386 113.6073 0.0000 0.0000 0.0000
# 4 0.0000 0.0000 0.0000 5.0391 0.0000 0.0000
# 5 0.0000 0.0000 0.0000 0.0000 -16.3477 0.0000
# 6 0.0000 0.0000 0.0000 0.0000 0.0000 47.2919
#
#
#
# Elastic Compliance Matrix: (Units=1/GPa)
#
#
# Indices 1 2 3 4 5 6 
#
# 1 0.009433 -0.003977 -0.000488 0.000000 0.000000 0.000000
# 2 -0.003977 0.013943 0.000868 0.000000 0.000000 0.000000
# 3 -0.000488 0.000868 0.008863 0.000000 0.000000 0.000000
# 4 0.000000 0.000000 0.000000 0.198447 0.000000 0.000000
# 5 0.000000 0.000000 0.000000 0.000000 -0.061171 0.000000
# 6 0.000000 0.000000 0.000000 0.000000 0.000000 0.021145
#
#
# Mechanical properties :
#
#
# Convention : Reuss Voigt Hill
#
# Bulk Modulus (GPa) = 39.92578 42.08280 41.00429
# Shear Modulus (GPa) = 24.24790 26.17779 25.21285
#
# Velocity S-wave (km/s) = 3.09777 3.21868 3.15881
# Velocity P-wave (km/s) = 5.34749 5.51975 5.43430
#
# Compressibility (1/GPa) = 0.02504647
#
# Stress axis : x y z
#
# Youngs Moduli (GPa) = 106.00875 71.71944 112.82497
#
# Poissons Ratio (x) = 0.28525 0.05503
# Poissons Ratio (y) = 0.42163 -0.09798
# Poissons Ratio (z) = 0.05171 -0.06228
#
# Static dielectric constant tensor:
#      x y z
#    x 2.070400 0.000000 0.000000 
#    y 0.000000 1.928000 0.000000 
#    z 0.000000 0.000000 1.984540 
# 
# From -- ./inp_files/14313.got.cif
#   From: 2010.05.17/outbox.cif.g08.bks.cpg/sg58_8_cif.got.tgz:14313.got - 2010.06.03 14:20:14.
