data_PCOD9442643
_publ_section_title
;
Structure prediction by ZEFSAII (Michael W. Deem and Ramdas Pophale) SiO2 
 PCOD9442643
Probable space group: P N N M
;
_chemical_formula_sum "Si O2"
_cell_formula_units_Z 64
_cell_length_a 14.625768
_cell_length_b 7.381006
_cell_length_c 25.826292
_cell_angle_alpha 90.000000
_cell_angle_beta 90.000000
_cell_angle_gamma 90.000000
_cell_volume 2788.022636
_symmetry_space_group_name_H-M "P N N M"
_symmetry_group_IT_number 58
_symmetry_cell_setting 'orthorhombic'
loop_
_space_group_symop_operation_xyz
x,y,z
-x,-y,z
1/2+x,1/2-y,1/2-z
1/2-x,1/2+y,1/2-z
-x,-y,-z
x,y,-z
1/2-x,1/2+y,1/2+z
1/2+x,1/2-y,1/2+z
loop_
_atom_site_type_symbol
_atom_site_label
_atom_site_fract_x
_atom_site_fract_y
_atom_site_fract_z
Si Si1 0.671162 0.743964 0.641367
Si Si2 0.880812 0.658117 0.255824
Si Si3 0.478648 0.288881 0.558459
Si Si4 0.619335 0.119561 0.133132
Si Si5 0.899238 0.922204 0.443046
Si Si6 0.331824 0.263982 0.751084
Si Si7 0.376867 0.833042 0.643571
Si Si8 0.172449 0.783498 0.364256
O O1 0.615931 0.710222 0.589474
O O2 0.774275 0.678855 0.636629
O O3 0.657933 0.959905 0.647771
O O4 0.635321 0.660019 0.695934
O O5 0.923501 0.690359 0.312308
O O6 0.778678 0.741588 0.253838
O O7 0.867185 0.440609 0.256729
O O8 0.921957 0.707240 0.199863
O O9 0.500000 0.500000 0.554419
O O10 0.475827 0.213409 0.500000
O O11 0.553455 0.197286 0.596643
O O12 0.587361 0.229130 0.083856
O O13 0.617264 0.903087 0.127378
O O14 0.856302 0.908997 0.500000
O O15 0.845869 0.062147 0.406078
O O16 0.000000 0.000000 0.447510
O O17 0.349995 0.356027 0.806220
O O18 0.280582 0.730806 0.635547
#
# Coordination Sequence:
#
# PCOD9442643 Si02
#       8
#     8   8   8   8   8   8   8   8
#     4  10  19  37  62  90 124 163 210 254 305 361
#     4   8  16  30  56  89 120 154 193 249 306 361
#     4  11  25  41  53  79 127 175 219 263 299 350
#     4  10  20  40  67  94 124 160 204 252 311 373
#     4  11  26  46  64  89 123 157 205 262 312 371
#     4   8  16  30  56  89 120 154 193 249 306 361
#     4  10  19  37  62  90 124 163 210 254 305 361
#     4  10  20  40  67  94 124 160 204 252 311 373
#
# _framework density 22.955335999999999
#
# number of rings (size 3 to 8) (size 9 to 14) (size 15 to 20)
#    0.000    2.250    1.250    1.125    1.750    4.000 
#    2.250    1.250    0.000    0.000    0.000    0.000 
#    0.000    0.000    0.000    0.000    0.000    0.000 
#
# Total GULP energy -357233.591347 kJ/mol
# GULP energy per Si atom -5581.774865 kJ/mol
# Density = 2.290309 g / cm^3
# Si number density = 22.955336 Si / 1000 Ang^3
#
#
#
# Elastic Constant Matrix: (Units=GPa)
#
#
# Indices 1 2 3 4 5 6 
#
# 1 59.1389 -4.1919 34.3610 0.0000 0.0000 0.0000
# 2 -4.1919 72.1989 35.8342 0.0000 0.0000 0.0000
# 3 34.3610 35.8342 217.7404 0.0000 0.0000 0.0000
# 4 0.0000 0.0000 0.0000 29.4793 0.0000 0.0000
# 5 0.0000 0.0000 0.0000 0.0000 97.4451 0.0000
# 6 0.0000 0.0000 0.0000 0.0000 0.0000 -30.8769
#
#
#
# Elastic Compliance Matrix: (Units=1/GPa)
#
#
# Indices 1 2 3 4 5 6 
#
# 1 0.019137 0.002842 -0.003488 0.000000 0.000000 0.000000
# 2 0.002842 0.015505 -0.003000 0.000000 0.000000 0.000000
# 3 -0.003488 -0.003000 0.005637 0.000000 0.000000 0.000000
# 4 0.000000 0.000000 0.000000 0.033922 0.000000 0.000000
# 5 0.000000 0.000000 0.000000 0.000000 0.010262 0.000000
# 6 0.000000 0.000000 0.000000 0.000000 0.000000 -0.032387
#
#
# Mechanical properties :
#
#
# Convention : Reuss Voigt Hill
#
# Bulk Modulus (GPa) = 30.31472 53.45387 41.88430
# Shear Modulus (GPa) = 71.05938 38.08115 54.57026
#
# Velocity S-wave (km/s) = 5.56980 4.07741 4.88098
# Velocity P-wave (km/s) = 7.38906 6.74563 7.07467
#
# Compressibility (1/GPa) = 0.03298727
#
# Stress axis : x y z
#
# Youngs Moduli (GPa) = 52.25402 64.49654 177.40669
#
# Poissons Ratio (x) = -0.18331 0.61875
# Poissons Ratio (y) = -0.14852 0.53225
# Poissons Ratio (z) = 0.18225 0.19350
#
# Static dielectric constant tensor:
#      x y z
#    x 1.900280 0.000000 0.000000 
#    y 0.000000 1.912690 0.000000 
#    z 0.000000 0.000000 1.943940 
# 
# From -- ./inp_files/30269.got.cif
#   From: 2010.05.17/outbox.cif.g08.bks.cpg/sg58_16_cif.got.tgz:30269.got - 2010.06.03 14:20:14.
