data_PCOD9442374
_publ_section_title
;
Structure prediction by ZEFSAII (Michael W. Deem and Ramdas Pophale) SiO2 
 PCOD9442374
Probable space group: P N N M
;
_chemical_formula_sum "Si O2"
_cell_formula_units_Z 64
_cell_length_a 14.814761
_cell_length_b 25.514868
_cell_length_c 8.386806
_cell_angle_alpha 90.000000
_cell_angle_beta 90.000000
_cell_angle_gamma 90.000000
_cell_volume 3170.184751
_symmetry_space_group_name_H-M "P N N M"
_symmetry_group_IT_number 58
_symmetry_cell_setting 'orthorhombic'
loop_
_space_group_symop_operation_xyz
x,y,z
-x,-y,z
1/2+x,1/2-y,1/2-z
1/2-x,1/2+y,1/2-z
-x,-y,-z
x,y,-z
1/2-x,1/2+y,1/2+z
1/2+x,1/2-y,1/2+z
loop_
_atom_site_type_symbol
_atom_site_label
_atom_site_fract_x
_atom_site_fract_y
_atom_site_fract_z
Si Si1 0.939299 0.215735 0.686864
Si Si2 0.144999 0.062632 0.310334
Si Si3 0.756118 0.336292 0.193944
Si Si4 0.036135 0.673684 0.192955
Si Si5 0.861146 0.619256 0.812748
Si Si6 0.709921 0.546398 0.688768
Si Si7 0.030891 0.893335 0.811310
Si Si8 0.737974 0.220271 0.811655
O O1 0.918744 0.217984 0.500000
O O2 0.845639 0.214380 0.785322
O O3 0.988132 0.269255 0.737290
O O4 0.989315 0.161695 0.725504
O O5 0.132767 0.066612 0.500000
O O6 0.200940 0.113340 0.252548
O O7 0.047323 0.065647 0.229181
O O8 0.196678 0.009419 0.270489
O O9 0.717111 0.279659 0.242151
O O10 0.861255 0.338437 0.242943
O O11 0.755795 0.336103 0.000000
O O12 0.963404 0.630270 0.241706
O O13 0.034025 0.677367 0.000000
O O14 0.803519 0.575019 0.725774
O O15 0.811136 0.674603 0.782889
O O16 0.861147 0.607209 0.000000
O O17 0.699736 0.539433 0.500000
O O18 0.627650 0.584224 0.742929
O O19 0.034726 0.884209 0.000000
O O20 0.718201 0.214556 0.000000
#
# Coordination Sequence:
#
# PCOD9442374 Si02
#       8
#     8   8   8   8   8   8   8   8
#     4  11  21  34  56  87 120 154 198 241 286 346
#     4  11  23  39  62  89 115 152 202 255 296 350
#     4   8  18  38  60  83 116 156 193 236 299 355
#     4   9  20  39  60  85 121 158 194 241 301 358
#     4  11  22  36  60  91 117 151 201 250 290 347
#     4  11  24  42  61  82 117 162 199 242 301 361
#     4  11  23  39  58  83 118 160 197 237 299 362
#     4  10  19  35  57  82 119 159 190 234 296 356
#
# _framework density 20.188098
#
# number of rings (size 3 to 8) (size 9 to 14) (size 15 to 20)
#    0.000    1.750    1.250    4.125    1.750    4.000 
#    0.000    6.250    0.000    3.750    0.000    0.000 
#    0.000    0.000    0.000    0.000    0.000    0.000 
#
# Total GULP energy -357653.100097 kJ/mol
# GULP energy per Si atom -5588.329689 kJ/mol
# Density = 2.014215 g / cm^3
# Si number density = 20.188098 Si / 1000 Ang^3
#
#
#
# Elastic Constant Matrix: (Units=GPa)
#
#
# Indices 1 2 3 4 5 6 
#
# 1 32.5660 2.6916 -0.3260 0.0000 0.0000 0.0000
# 2 2.6916 72.7918 9.0261 0.0000 0.0000 0.0000
# 3 -0.3260 9.0261 26.3398 0.0000 0.0000 0.0000
# 4 0.0000 0.0000 0.0000 29.7448 0.0000 0.0000
# 5 0.0000 0.0000 0.0000 0.0000 13.5584 0.0000
# 6 0.0000 0.0000 0.0000 0.0000 0.0000 28.0912
#
#
#
# Elastic Compliance Matrix: (Units=1/GPa)
#
#
# Indices 1 2 3 4 5 6 
#
# 1 0.030817 -0.001239 0.000806 0.000000 0.000000 0.000000
# 2 -0.001239 0.014397 -0.004949 0.000000 0.000000 0.000000
# 3 0.000806 -0.004949 0.039671 0.000000 0.000000 0.000000
# 4 0.000000 0.000000 0.000000 0.033619 0.000000 0.000000
# 5 0.000000 0.000000 0.000000 0.000000 0.073755 0.000000
# 6 0.000000 0.000000 0.000000 0.000000 0.000000 0.035598
#
#
# Mechanical properties :
#
#
# Convention : Reuss Voigt Hill
#
# Bulk Modulus (GPa) = 13.49142 17.16457 15.32800
# Shear Modulus (GPa) = 18.98755 22.29927 20.64341
#
# Velocity S-wave (km/s) = 3.07014 3.32712 3.20121
# Velocity P-wave (km/s) = 4.38919 4.82498 4.61224
#
# Compressibility (1/GPa) = 0.07412119
#
# Stress axis : x y z
#
# Youngs Moduli (GPa) = 32.44919 69.45733 25.20718
#
# Poissons Ratio (x) = 0.08609 -0.02032
# Poissons Ratio (y) = 0.04022 0.12475
# Poissons Ratio (z) = -0.02616 0.34375
#
# Static dielectric constant tensor:
#      x y z
#    x 1.733570 0.000000 0.000000 
#    y 0.000000 1.713600 0.000000 
#    z 0.000000 0.000000 1.675460 
# 
# From -- ./inp_files/6839.got.cif
#   From: 2010.05.17/outbox.cif.g08.bks.cpg/sg58_4_cif.got.tgz:6839.got - 2010.06.03 14:20:14.
