data_PCOD9442178
_publ_section_title
;
Structure prediction by ZEFSAII (Michael W. Deem and Ramdas Pophale) SiO2 
 PCOD9442178
Probable space group: P N N M
;
_chemical_formula_sum "Si O2"
_cell_formula_units_Z 58
_cell_length_a 18.392132
_cell_length_b 19.576533
_cell_length_c 7.994107
_cell_angle_alpha 90.000000
_cell_angle_beta 90.000000
_cell_angle_gamma 90.000000
_cell_volume 2878.311633
_symmetry_space_group_name_H-M "P N N M"
_symmetry_group_IT_number 58
_symmetry_cell_setting 'orthorhombic'
loop_
_space_group_symop_operation_xyz
x,y,z
-x,-y,z
1/2+x,1/2-y,1/2-z
1/2-x,1/2+y,1/2-z
-x,-y,-z
x,y,-z
1/2-x,1/2+y,1/2+z
1/2+x,1/2-y,1/2+z
loop_
_atom_site_type_symbol
_atom_site_label
_atom_site_fract_x
_atom_site_fract_y
_atom_site_fract_z
Si Si1 0.143149 0.314823 0.797365
Si Si2 0.708947 0.326146 0.694225
Si Si3 0.000000 0.500000 0.000000
Si Si4 0.403879 0.016726 0.817804
Si Si5 0.211523 0.889562 0.196852
Si Si6 0.253981 0.530670 0.812466
Si Si7 0.149098 0.748432 0.197875
Si Si8 0.020672 0.649014 0.801294
O O1 0.161843 0.237645 0.740274
O O2 0.205615 0.364011 0.727201
O O3 0.061580 0.335515 0.754499
O O4 0.149378 0.316044 0.000000
O O5 0.691870 0.334904 0.500000
O O6 0.703542 0.399614 0.778132
O O7 0.791977 0.299932 0.714373
O O8 0.939042 0.516678 0.152345
O O9 0.317537 0.024729 0.801205
O O10 0.438988 0.092057 0.805262
O O11 0.419945 0.985608 0.000000
O O12 0.162149 0.825913 0.255765
O O13 0.201291 0.961495 0.286508
O O14 0.199937 0.899558 0.000000
O O15 0.225328 0.534301 0.000000
O O16 0.069312 0.717013 0.211502
O O17 0.167986 0.746858 0.000000
O O18 0.024343 0.623458 0.000000
#
# Coordination Sequence:
#
# PCOD9442178 Si02
#       8
#     8   8   2   8   8   8   8   8
#     4   9  20  35  55  81 114 147 182 231 284 340
#     4  10  19  34  55  81 108 143 190 236 282 338
#     4  12  26  44  52  78 120 160 194 232 284 336
#     4  12  25  39  57  83 116 162 198 234 281 346
#     4  10  21  35  53  81 110 143 188 239 288 342
#     4  12  23  38  56  79 111 151 194 238 289 343
#     4   9  18  34  56  78 107 144 187 234 284 342
#     4  10  19  36  57  82 114 152 191 230 285 346
#
# _framework density 20.150701000000002
#
# number of rings (size 3 to 8) (size 9 to 14) (size 15 to 20)
#    0.000    1.655    2.759    2.276    1.931    1.655 
#    0.000    0.000    0.000    0.828    0.000    5.793 
#    0.000    0.000    0.000    0.000    0.000    0.000 
#
# Total GULP energy -323651.688805 kJ/mol
# GULP energy per Si atom -5580.201531 kJ/mol
# Density = 2.010484 g / cm^3
# Si number density = 20.150701 Si / 1000 Ang^3
#
#
#
# Elastic Constant Matrix: (Units=GPa)
#
#
# Indices 1 2 3 4 5 6 
#
# 1 38.0158 16.8010 11.4401 0.0000 0.0000 0.0000
# 2 16.8010 139.5735 27.5084 0.0000 0.0000 0.0000
# 3 11.4401 27.5084 74.9694 0.0000 0.0000 0.0000
# 4 0.0000 0.0000 0.0000 26.5475 0.0000 0.0000
# 5 0.0000 0.0000 0.0000 0.0000 16.3709 0.0000
# 6 0.0000 0.0000 0.0000 0.0000 0.0000 23.9887
#
#
#
# Elastic Compliance Matrix: (Units=1/GPa)
#
#
# Indices 1 2 3 4 5 6 
#
# 1 0.028536 -0.002778 -0.003335 0.000000 0.000000 0.000000
# 2 -0.002778 0.007994 -0.002509 0.000000 0.000000 0.000000
# 3 -0.003335 -0.002509 0.014768 0.000000 0.000000 0.000000
# 4 0.000000 0.000000 0.000000 0.037668 0.000000 0.000000
# 5 0.000000 0.000000 0.000000 0.000000 0.061084 0.000000
# 6 0.000000 0.000000 0.000000 0.000000 0.000000 0.041686
#
#
# Mechanical properties :
#
#
# Convention : Reuss Voigt Hill
#
# Bulk Modulus (GPa) = 29.36535 40.45087 34.90811
# Shear Modulus (GPa) = 22.69300 26.50204 24.59752
#
# Velocity S-wave (km/s) = 3.35948 3.63049 3.49761
# Velocity P-wave (km/s) = 5.44542 6.13936 5.80277
#
# Compressibility (1/GPa) = 0.03405374
#
# Stress axis : x y z
#
# Youngs Moduli (GPa) = 35.04331 125.10050 67.71199
#
# Poissons Ratio (x) = 0.34748 0.22584
# Poissons Ratio (y) = 0.09734 0.16990
# Poissons Ratio (z) = 0.11688 0.31390
#
# Static dielectric constant tensor:
#      x y z
#    x 1.698930 0.000000 0.000000 
#    y 0.000000 1.710320 0.000000 
#    z 0.000000 0.000000 1.736790 
# 
# From -- ./inp_files/8009.got.cif
#   From: 2010.05.17/outbox.cif.g08.bks.cpg/sg58_5_cif.got.tgz:8009.got - 2010.06.03 14:20:14.
