data_PCOD9442532
_publ_section_title
;
Structure prediction by ZEFSAII (Michael W. Deem and Ramdas Pophale) SiO2 
 PCOD9442532
Probable space group: P N N M
;
_chemical_formula_sum "Si O2"
_cell_formula_units_Z 32
_cell_length_a 7.881331
_cell_length_b 16.948826
_cell_length_c 10.905152
_cell_angle_alpha 90.000000
_cell_angle_beta 90.000000
_cell_angle_gamma 90.000000
_cell_volume 1456.702655
_symmetry_space_group_name_H-M "P N N M"
_symmetry_group_IT_number 58
_symmetry_cell_setting 'orthorhombic'
loop_
_space_group_symop_operation_xyz
x,y,z
-x,-y,z
1/2+x,1/2-y,1/2-z
1/2-x,1/2+y,1/2-z
-x,-y,-z
x,y,-z
1/2-x,1/2+y,1/2+z
1/2+x,1/2-y,1/2+z
loop_
_atom_site_type_symbol
_atom_site_label
_atom_site_fract_x
_atom_site_fract_y
_atom_site_fract_z
Si Si1 0.559286 0.580184 0.213552
Si Si2 0.148080 0.219560 0.632320
Si Si3 0.611465 0.092248 0.138300
Si Si4 0.250782 0.629743 0.640270
O O1 0.500000 0.500000 0.148894
O O2 0.511901 0.659871 0.141597
O O3 0.749722 0.574320 0.259798
O O4 0.570262 0.412094 0.330107
O O5 0.233347 0.204535 0.500000
O O6 0.106661 0.311266 0.636571
O O7 0.255197 0.194547 0.751415
O O8 0.412574 0.073536 0.157288
O O9 0.663430 0.068410 0.000000
O O10 0.248401 0.658084 0.500000
#
# Coordination Sequence:
#
# PCOD9442532 Si02
#       4
#     8   8   8   8
#     4  10  22  36  58  86 118 148 188 235 289 333
#     4   9  20  38  58  82 115 152 192 234 280 341
#     4  10  19  36  59  84 114 150 192 236 282 337
#     4   9  20  35  55  81 110 145 187 232 282 333
#
# _framework density 21.967419
#
# number of rings (size 3 to 8) (size 9 to 14) (size 15 to 20)
#    1.500    1.000    0.000    2.250    0.000    3.500 
#    0.000    3.750    0.000    1.500    0.000    0.000 
#    0.000    0.000    0.000    0.000    0.000    0.000 
#
# Total GULP energy -178193.149678 kJ/mol
# GULP energy per Si atom -5568.535927 kJ/mol
# Density = 2.191742 g / cm^3
# Si number density = 21.967419 Si / 1000 Ang^3
#
#
#
# Elastic Constant Matrix: (Units=GPa)
#
#
# Indices 1 2 3 4 5 6 
#
# 1 75.1844 1.1611 39.0406 0.0000 0.0000 0.0000
# 2 1.1611 77.3332 14.3746 0.0000 0.0000 0.0000
# 3 39.0406 14.3746 122.6567 0.0000 0.0000 0.0000
# 4 0.0000 0.0000 0.0000 21.4287 0.0000 0.0000
# 5 0.0000 0.0000 0.0000 0.0000 2.9915 0.0000
# 6 0.0000 0.0000 0.0000 0.0000 0.0000 34.7836
#
#
#
# Elastic Compliance Matrix: (Units=1/GPa)
#
#
# Indices 1 2 3 4 5 6 
#
# 1 0.015973 0.000721 -0.005169 0.000000 0.000000 0.000000
# 2 0.000721 0.013252 -0.001782 0.000000 0.000000 0.000000
# 3 -0.005169 -0.001782 0.010007 0.000000 0.000000 0.000000
# 4 0.000000 0.000000 0.000000 0.046666 0.000000 0.000000
# 5 0.000000 0.000000 0.000000 0.000000 0.334284 0.000000
# 6 0.000000 0.000000 0.000000 0.000000 0.000000 0.028749
#
#
# Mechanical properties :
#
#
# Convention : Reuss Voigt Hill
#
# Bulk Modulus (GPa) = 37.35332 42.70298 40.02815
# Shear Modulus (GPa) = 10.63116 26.54728 18.58922
#
# Velocity S-wave (km/s) = 2.20228 3.48010 2.91214
# Velocity P-wave (km/s) = 4.84846 5.96905 5.43770
#
# Compressibility (1/GPa) = 0.02677138
#
# Stress axis : x y z
#
# Youngs Moduli (GPa) = 62.60404 75.46282 99.93121
#
# Poissons Ratio (x) = -0.05440 0.51651
# Poissons Ratio (y) = -0.04513 0.17812
# Poissons Ratio (z) = 0.32358 0.13451
#
# Static dielectric constant tensor:
#      x y z
#    x 1.808390 0.000000 0.000000 
#    y 0.000000 1.954750 0.000000 
#    z 0.000000 0.000000 1.777150 
# 
# From -- ./inp_files/12615.got.cif
#   From: 2010.05.17/outbox.cif.g08.bks.cpg/sg58_7_cif.got.tgz:12615.got - 2010.06.03 14:20:14.
