data_PCOD9442572
_publ_section_title
;
Structure prediction by ZEFSAII (Michael W. Deem and Ramdas Pophale) SiO2 
 PCOD9442572
Probable space group: P N N M
;
_chemical_formula_sum "Si O2"
_cell_formula_units_Z 48
_cell_length_a 14.090981
_cell_length_b 12.812765
_cell_length_c 13.059636
_cell_angle_alpha 90.000000
_cell_angle_beta 90.000000
_cell_angle_gamma 90.000000
_cell_volume 2357.844514
_symmetry_space_group_name_H-M "P N N M"
_symmetry_group_IT_number 58
_symmetry_cell_setting 'orthorhombic'
loop_
_space_group_symop_operation_xyz
x,y,z
-x,-y,z
1/2+x,1/2-y,1/2-z
1/2-x,1/2+y,1/2-z
-x,-y,-z
x,y,-z
1/2-x,1/2+y,1/2+z
1/2+x,1/2-y,1/2+z
loop_
_atom_site_type_symbol
_atom_site_label
_atom_site_fract_x
_atom_site_fract_y
_atom_site_fract_z
Si Si1 0.788087 0.474930 0.112599
Si Si2 0.443482 0.177746 0.324085
Si Si3 0.332687 0.802874 0.678929
Si Si4 0.718605 0.430993 0.330454
Si Si5 0.929515 0.405344 0.614238
Si Si6 0.289222 0.345905 0.616271
O O1 0.893172 0.428936 0.137330
O O2 0.787256 0.599762 0.119516
O O3 0.726344 0.433357 0.207018
O O4 0.759537 0.439375 0.000000
O O5 0.555023 0.183853 0.338512
O O6 0.433284 0.181186 0.201038
O O7 0.376736 0.266378 0.370767
O O8 0.310718 0.685785 0.642084
O O9 0.289226 0.819627 0.794861
O O10 0.823347 0.447997 0.376930
O O11 0.669378 0.537257 0.365358
O O12 0.950532 0.369480 0.500000
O O13 0.000000 0.500000 0.640189
O O14 0.251867 0.337967 0.500000
#
# Coordination Sequence:
#
# PCOD9442572 Si02
#       6
#     8   8   8   8   8   8
#     4  10  21  39  62  90 125 162 207 262 320 376
#     4  11  22  38  61  93 126 160 211 259 312 379
#     4  11  23  40  63  91 126 164 206 267 319 369
#     4  10  22  40  58  91 124 164 211 259 310 380
#     4  10  19  36  61  88 120 157 207 267 317 367
#     4  11  23  42  64  88 125 170 211 256 316 389
#
# _framework density 20.357576999999999
#
# number of rings (size 3 to 8) (size 9 to 14) (size 15 to 20)
#    0.000    1.500    3.333    4.500    0.000    6.000 
#    0.000    0.833    0.000    0.000    0.000    4.667 
#    0.000    0.000    0.000    0.000    0.000    0.000 
#
# Total GULP energy -267622.451501 kJ/mol
# GULP energy per Si atom -5575.467740 kJ/mol
# Density = 2.031124 g / cm^3
# Si number density = 20.357577 Si / 1000 Ang^3
#
#
#
# Elastic Constant Matrix: (Units=GPa)
#
#
# Indices 1 2 3 4 5 6 
#
# 1 19.8837 11.7504 6.7388 0.0000 0.0000 0.0000
# 2 11.7504 137.1868 11.8498 0.0000 0.0000 0.0000
# 3 6.7388 11.8498 94.2089 0.0000 0.0000 0.0000
# 4 0.0000 0.0000 0.0000 6.2572 0.0000 0.0000
# 5 0.0000 0.0000 0.0000 0.0000 6.0925 0.0000
# 6 0.0000 0.0000 0.0000 0.0000 0.0000 14.0098
#
#
#
# Elastic Compliance Matrix: (Units=1/GPa)
#
#
# Indices 1 2 3 4 5 6 
#
# 1 0.053979 -0.004337 -0.003316 0.000000 0.000000 0.000000
# 2 -0.004337 0.007718 -0.000661 0.000000 0.000000 0.000000
# 3 -0.003316 -0.000661 0.010935 0.000000 0.000000 0.000000
# 4 0.000000 0.000000 0.000000 0.159816 0.000000 0.000000
# 5 0.000000 0.000000 0.000000 0.000000 0.164136 0.000000
# 6 0.000000 0.000000 0.000000 0.000000 0.000000 0.071378
#
#
# Mechanical properties :
#
#
# Convention : Reuss Voigt Hill
#
# Bulk Modulus (GPa) = 17.85541 34.66194 26.25867
# Shear Modulus (GPa) = 9.93528 20.00127 14.96828
#
# Velocity S-wave (km/s) = 2.21156 3.13788 2.71452
# Velocity P-wave (km/s) = 3.91296 5.49472 4.76986
#
# Compressibility (1/GPa) = 0.05600545
#
# Stress axis : x y z
#
# Youngs Moduli (GPa) = 18.52569 129.56945 91.44981
#
# Poissons Ratio (x) = 0.56195 0.30321
# Poissons Ratio (y) = 0.08035 0.06041
# Poissons Ratio (z) = 0.06142 0.08559
#
# Static dielectric constant tensor:
#      x y z
#    x 1.759420 0.000000 0.000000 
#    y 0.000000 1.771670 0.000000 
#    z 0.000000 0.000000 1.761280 
# 
# From -- ./inp_files/22132.got.cif
#   From: 2010.05.17/outbox.cif.g08.bks.cpg/sg58_12_cif.got.tgz:22132.got - 2010.06.03 14:20:14.
