data_PCOD9442177
_publ_section_title
;
Structure prediction by ZEFSAII (Michael W. Deem and Ramdas Pophale) SiO2 
 PCOD9442177
Probable space group: P N N M
;
_chemical_formula_sum "Si O2"
_cell_formula_units_Z 56
_cell_length_a 21.694563
_cell_length_b 14.999169
_cell_length_c 8.227201
_cell_angle_alpha 90.000000
_cell_angle_beta 90.000000
_cell_angle_gamma 90.000000
_cell_volume 2677.134635
_symmetry_space_group_name_H-M "P N N M"
_symmetry_group_IT_number 58
_symmetry_cell_setting 'orthorhombic'
loop_
_space_group_symop_operation_xyz
x,y,z
-x,-y,z
1/2+x,1/2-y,1/2-z
1/2-x,1/2+y,1/2-z
-x,-y,-z
x,y,-z
1/2-x,1/2+y,1/2+z
1/2+x,1/2-y,1/2+z
loop_
_atom_site_type_symbol
_atom_site_label
_atom_site_fract_x
_atom_site_fract_y
_atom_site_fract_z
Si Si1 0.025454 0.272534 0.804498
Si Si2 0.607559 0.743110 0.696689
Si Si3 0.444397 0.569018 0.692416
Si Si4 0.731883 0.997323 0.813480
Si Si5 0.351607 0.438426 0.185861
Si Si6 0.345296 0.842707 0.804110
Si Si7 0.743221 0.800318 0.693638
O O1 0.038203 0.168993 0.762825
O O2 0.083934 0.325597 0.739013
O O3 0.955195 0.292453 0.749491
O O4 0.026243 0.279970 0.000000
O O5 0.607708 0.744602 0.500000
O O6 0.604941 0.641223 0.755233
O O7 0.674420 0.775929 0.756038
O O8 0.500000 0.500000 0.716839
O O9 0.428734 0.567395 0.500000
O O10 0.387617 0.530535 0.792291
O O11 0.792166 0.059362 0.799728
O O12 0.678428 0.060717 0.744016
O O13 0.748737 0.905310 0.727318
O O14 0.718478 0.975667 0.000000
O O15 0.333072 0.425381 0.000000
O O16 0.298834 0.763374 0.744015
O O17 0.339809 0.844385 0.000000
O O18 0.742300 0.787574 0.500000
#
# Coordination Sequence:
#
# PCOD9442177 Si02
#       7
#     8   8   8   8   8   8   8
#     4  10  21  36  59  86 115 157 200 241 291 358
#     4  10  20  40  62  83 118 159 196 238 297 355
#     4  10  19  34  55  80 115 155 192 232 290 359
#     4  11  23  41  62  85 117 159 200 244 303 361
#     4  12  23  34  55  87 119 152 195 245 295 349
#     4  10  22  40  61  85 120 159 192 244 307 351
#     4  10  21  40  65  90 116 153 202 254 300 349
#
# _framework density 20.917885999999999
#
# number of rings (size 3 to 8) (size 9 to 14) (size 15 to 20)
#    0.000    1.571    2.857    2.571    0.000    6.000 
#    0.000    0.714    0.000    4.286    0.000    0.000 
#    0.000    0.000    0.000    0.000    0.000    0.000 
#
# Total GULP energy -312538.151958 kJ/mol
# GULP energy per Si atom -5581.038428 kJ/mol
# Density = 2.087028 g / cm^3
# Si number density = 20.917886 Si / 1000 Ang^3
#
#
#
# Elastic Constant Matrix: (Units=GPa)
#
#
# Indices 1 2 3 4 5 6 
#
# 1 97.9057 16.5236 23.4680 0.0000 0.0000 0.0000
# 2 16.5236 26.8118 -12.1833 0.0000 0.0000 0.0000
# 3 23.4680 -12.1833 -21.8009 0.0000 0.0000 0.0000
# 4 0.0000 0.0000 0.0000 71.6906 0.0000 0.0000
# 5 0.0000 0.0000 0.0000 0.0000 48.1143 0.0000
# 6 0.0000 0.0000 0.0000 0.0000 0.0000 33.0796
#
#
#
# Elastic Compliance Matrix: (Units=1/GPa)
#
#
# Indices 1 2 3 4 5 6 
#
# 1 0.008142 -0.000825 0.009226 0.000000 0.000000 0.000000
# 2 -0.000825 0.029828 -0.017558 0.000000 0.000000 0.000000
# 3 0.009226 -0.017558 -0.026126 0.000000 0.000000 0.000000
# 4 0.000000 0.000000 0.000000 0.013949 0.000000 0.000000
# 5 0.000000 0.000000 0.000000 0.000000 0.020784 0.000000
# 6 0.000000 0.000000 0.000000 0.000000 0.000000 0.030230
#
#
# Mechanical properties :
#
#
# Convention : Reuss Voigt Hill
#
# Bulk Modulus (GPa) = -154.51813 17.61479 -68.45167
# Shear Modulus (GPa) = 53.78483 35.58412 44.68447
#
# Velocity S-wave (km/s) = 5.07624 4.12895 4.62690
# Velocity P-wave (km/s) = 6.29855 5.58303 2.06173
#
# Compressibility (1/GPa) = -0.00647173
#
# Stress axis : x y z
#
# Youngs Moduli (GPa) = 122.82261 33.52604 -38.27532
#
# Poissons Ratio (x) = 0.02767 0.35312
# Poissons Ratio (y) = 0.10139 -0.67202
# Poissons Ratio (z) = -1.13313 0.58864
#
# Static dielectric constant tensor:
#      x y z
#    x 1.802510 0.000000 0.000000 
#    y 0.000000 1.765510 0.000000 
#    z 0.000000 0.000000 1.731820 
# 
# From -- ./inp_files/6297.got.cif
#   From: 2010.05.17/outbox.cif.g08.bks.cpg/sg58_4_cif.got.tgz:6297.got - 2010.06.03 14:20:14.
