data_PCOD9442074
_publ_section_title
;
Structure prediction by ZEFSAII (Michael W. Deem and Ramdas Pophale) SiO2 
 PCOD9442074
Probable space group: P N N M
;
_chemical_formula_sum "Si O2"
_cell_formula_units_Z 64
_cell_length_a 11.538798
_cell_length_b 33.619077
_cell_length_c 9.142728
_cell_angle_alpha 90.000000
_cell_angle_beta 90.000000
_cell_angle_gamma 90.000000
_cell_volume 3546.681225
_symmetry_space_group_name_H-M "P N N M"
_symmetry_group_IT_number 58
_symmetry_cell_setting 'orthorhombic'
loop_
_space_group_symop_operation_xyz
x,y,z
-x,-y,z
1/2+x,1/2-y,1/2-z
1/2-x,1/2+y,1/2-z
-x,-y,-z
x,y,-z
1/2-x,1/2+y,1/2+z
1/2+x,1/2-y,1/2+z
loop_
_atom_site_type_symbol
_atom_site_label
_atom_site_fract_x
_atom_site_fract_y
_atom_site_fract_z
Si Si1 0.690198 0.663083 0.828097
Si Si2 0.812380 0.590672 0.673936
Si Si3 0.962741 0.360591 0.674303
Si Si4 0.175770 0.974579 0.325619
Si Si5 0.441965 0.702018 0.824838
Si Si6 0.421187 0.786851 0.672807
Si Si7 0.695313 0.366064 0.674069
Si Si8 0.579353 0.440527 0.824851
O O1 0.726506 0.624747 0.735557
O O2 0.565915 0.681417 0.791963
O O3 0.790994 0.695865 0.807657
O O4 0.689623 0.651707 0.000000
O O5 0.802607 0.588523 0.500000
O O6 0.775864 0.549109 0.744317
O O7 0.941290 0.606180 0.712035
O O8 0.974043 0.352513 0.500000
O O9 0.831361 0.373061 0.703086
O O10 0.995976 0.320900 0.761817
O O11 0.192448 0.972165 0.500000
O O12 0.053038 0.952917 0.292857
O O13 0.157091 0.020811 0.287863
O O14 0.437323 0.745810 0.757347
O O15 0.345278 0.674296 0.751782
O O16 0.428817 0.703505 0.000000
O O17 0.441236 0.781553 0.500000
O O18 0.678447 0.362883 0.500000
O O19 0.620970 0.402072 0.739582
O O20 0.586926 0.433751 0.000000
#
# Coordination Sequence:
#
# PCOD9442074 Si02
#       8
#     8   8   8   8   8   8   8   8
#     4   9  20  37  54  74 106 140 171 215 270 323
#     4  10  19  33  56  82 105 137 182 226 267 317
#     4   9  21  40  56  74 109 150 181 221 277 326
#     4   9  18  34  57  82 112 146 177 220 275 329
#     4  11  23  37  55  79 108 143 176 217 276 329
#     4  10  21  37  57  81 104 135 182 226 265 319
#     4  11  23  38  56  79 110 146 184 226 272 322
#     4   9  19  36  56  81 113 147 181 219 273 331
#
# _framework density 18.045038999999999
#
# number of rings (size 3 to 8) (size 9 to 14) (size 15 to 20)
#    0.000    2.250    0.000    3.000    1.750    7.000 
#    0.000    1.875    0.000    3.750    0.000    0.000 
#    0.000    0.000    0.000    0.000    0.000    0.000 
#
# Total GULP energy -357363.912892 kJ/mol
# GULP energy per Si atom -5583.811139 kJ/mol
# Density = 1.800397 g / cm^3
# Si number density = 18.045039 Si / 1000 Ang^3
#
#
#
# Elastic Constant Matrix: (Units=GPa)
#
#
# Indices 1 2 3 4 5 6 
#
# 1 29.7008 -1.8479 14.5200 0.0000 0.0000 0.0000
# 2 -1.8479 44.8201 16.4902 0.0000 0.0000 0.0000
# 3 14.5200 16.4902 30.5301 0.0000 0.0000 0.0000
# 4 0.0000 0.0000 0.0000 26.4545 0.0000 0.0000
# 5 0.0000 0.0000 0.0000 0.0000 43.5062 0.0000
# 6 0.0000 0.0000 0.0000 0.0000 0.0000 11.4512
#
#
#
# Elastic Compliance Matrix: (Units=1/GPa)
#
#
# Indices 1 2 3 4 5 6 
#
# 1 0.049553 0.013371 -0.030789 0.000000 0.000000 0.000000
# 2 0.013371 0.031453 -0.023348 0.000000 0.000000 0.000000
# 3 -0.030789 -0.023348 0.060009 0.000000 0.000000 0.000000
# 4 0.000000 0.000000 0.000000 0.037801 0.000000 0.000000
# 5 0.000000 0.000000 0.000000 0.000000 0.022985 0.000000
# 6 0.000000 0.000000 0.000000 0.000000 0.000000 0.087327
#
#
# Mechanical properties :
#
#
# Convention : Reuss Voigt Hill
#
# Bulk Modulus (GPa) = 16.81170 18.15285 17.48227
# Shear Modulus (GPa) = 12.80451 21.34163 17.07307
#
# Velocity S-wave (km/s) = 2.66670 3.44275 3.07927
# Velocity P-wave (km/s) = 4.33802 5.08773 4.72776
#
# Compressibility (1/GPa) = 0.05948239
#
# Stress axis : x y z
#
# Youngs Moduli (GPa) = 20.18033 31.79369 16.66425
#
# Poissons Ratio (x) = -0.42511 0.51308
# Poissons Ratio (y) = -0.26983 0.38907
# Poissons Ratio (z) = 0.62134 0.74231
#
# Static dielectric constant tensor:
#      x y z
#    x 1.617180 0.000000 0.000000 
#    y 0.000000 1.594430 0.000000 
#    z 0.000000 0.000000 1.597640 
# 
# From -- ./inp_files/4806.got.cif
#   From: 2010.05.17/outbox.cif.g08.bks.cpg/sg58_3_cif.got.tgz:4806.got - 2010.06.03 14:20:14.
