data_PCOD9442705
_publ_section_title
;
Structure prediction by ZEFSAII (Michael W. Deem and Ramdas Pophale) SiO2 
 PCOD9442705
Probable space group: P N N M
;
_chemical_formula_sum "Si O2"
_cell_formula_units_Z 48
_cell_length_a 13.004942
_cell_length_b 10.136393
_cell_length_c 16.112606
_cell_angle_alpha 90.000000
_cell_angle_beta 90.000000
_cell_angle_gamma 90.000000
_cell_volume 2124.015332
_symmetry_space_group_name_H-M "P N N M"
_symmetry_group_IT_number 58
_symmetry_cell_setting 'orthorhombic'
loop_
_space_group_symop_operation_xyz
x,y,z
-x,-y,z
1/2+x,1/2-y,1/2-z
1/2-x,1/2+y,1/2-z
-x,-y,-z
x,y,-z
1/2-x,1/2+y,1/2+z
1/2+x,1/2-y,1/2+z
loop_
_atom_site_type_symbol
_atom_site_label
_atom_site_fract_x
_atom_site_fract_y
_atom_site_fract_z
Si Si1 0.403818 0.098625 0.155937
Si Si2 0.093355 0.895979 0.599237
Si Si3 0.138406 0.786923 0.900168
Si Si4 0.697377 0.434447 0.406806
Si Si5 0.286841 0.043837 0.326486
Si Si6 0.417435 0.820032 0.599674
O O1 0.319529 0.057327 0.088022
O O2 0.329910 0.079128 0.236103
O O3 0.500000 0.000000 0.160096
O O4 0.432161 0.250638 0.136042
O O5 0.122483 0.882471 0.500000
O O6 0.186246 0.958291 0.653137
O O7 0.000000 0.000000 0.603149
O O8 0.154345 0.933366 0.866068
O O9 0.223997 0.684221 0.871754
O O10 0.029141 0.728534 0.873005
O O11 0.139163 0.791678 0.000000
O O12 0.652454 0.432907 0.500000
O O13 0.660511 0.295194 0.371626
O O14 0.378259 0.957163 0.366124
O O15 0.417284 0.832214 0.500000
#
# Coordination Sequence:
#
# PCOD9442705 Si02
#       6
#     8   8   8   8   8   8
#     4  12  28  46  70 105 146 191 239 301 370 426
#     4  11  27  52  80 106 141 196 253 299 352 431
#     4  10  21  36  63 100 134 179 234 289 353 430
#     4  10  22  40  64  96 137 185 239 296 352 421
#     4  12  25  44  67 102 141 182 233 297 366 429
#     4  10  19  39  66  95 135 185 237 291 352 425
#
# _framework density 22.598707000000001
#
# number of rings (size 3 to 8) (size 9 to 14) (size 15 to 20)
#    0.000    1.167    1.667    4.000    4.667    4.667 
#    3.000    0.000    0.000    0.000    0.000    0.000 
#    0.000    0.000    0.000    0.000    0.000    0.000 
#
# Total GULP energy -268080.645114 kJ/mol
# GULP energy per Si atom -5585.013440 kJ/mol
# Density = 2.254727 g / cm^3
# Si number density = 22.598707 Si / 1000 Ang^3
#
#
#
# Elastic Constant Matrix: (Units=GPa)
#
#
# Indices 1 2 3 4 5 6 
#
# 1 84.4062 40.6606 32.7617 0.0000 0.0000 0.0000
# 2 40.6606 141.3098 48.4913 0.0000 0.0000 0.0000
# 3 32.7617 48.4913 87.4323 0.0000 0.0000 0.0000
# 4 0.0000 0.0000 0.0000 31.8603 0.0000 0.0000
# 5 0.0000 0.0000 0.0000 0.0000 -110.7447 0.0000
# 6 0.0000 0.0000 0.0000 0.0000 0.0000 41.3441
#
#
#
# Elastic Compliance Matrix: (Units=1/GPa)
#
#
# Indices 1 2 3 4 5 6 
#
# 1 0.014769 -0.002903 -0.003924 0.000000 0.000000 0.000000
# 2 -0.002903 0.009311 -0.004076 0.000000 0.000000 0.000000
# 3 -0.003924 -0.004076 0.015168 0.000000 0.000000 0.000000
# 4 0.000000 0.000000 0.000000 0.031387 0.000000 0.000000
# 5 0.000000 0.000000 0.000000 0.000000 -0.009030 0.000000
# 6 0.000000 0.000000 0.000000 0.000000 0.000000 0.024187
#
#
# Mechanical properties :
#
#
# Convention : Reuss Voigt Hill
#
# Bulk Modulus (GPa) = 57.33324 61.88614 59.60969
# Shear Modulus (GPa) = 44.08671 5.24093 24.66382
#
# Velocity S-wave (km/s) = 4.42164 1.52452 3.30719
# Velocity P-wave (km/s) = 7.17586 5.52659 6.40454
#
# Compressibility (1/GPa) = 0.01744189
#
# Stress axis : x y z
#
# Youngs Moduli (GPa) = 67.70920 107.40324 65.92655
#
# Poissons Ratio (x) = 0.31180 0.25869
# Poissons Ratio (y) = 0.19657 0.26872
# Poissons Ratio (z) = 0.26569 0.43778
#
# Static dielectric constant tensor:
#      x y z
#    x 1.853850 0.000000 0.000000 
#    y 0.000000 1.826990 0.000000 
#    z 0.000000 0.000000 1.956970 
# 
# From -- ./inp_files/26816.got.cif
#   From: 2010.05.17/outbox.cif.g08.bks.cpg/sg58_14_cif.got.tgz:26816.got - 2010.06.03 14:20:14.
