data_PCOD9442941
_publ_section_title
;
Structure prediction by ZEFSAII (Michael W. Deem and Ramdas Pophale) SiO2 
 PCOD9442941
Probable space group: P N N M
;
_chemical_formula_sum "Si O2"
_cell_formula_units_Z 48
_cell_length_a 31.933715
_cell_length_b 9.556719
_cell_length_c 7.579999
_cell_angle_alpha 90.000000
_cell_angle_beta 90.000000
_cell_angle_gamma 90.000000
_cell_volume 2313.275775
_symmetry_space_group_name_H-M "P N N M"
_symmetry_group_IT_number 58
_symmetry_cell_setting 'orthorhombic'
loop_
_space_group_symop_operation_xyz
x,y,z
-x,-y,z
1/2+x,1/2-y,1/2-z
1/2-x,1/2+y,1/2-z
-x,-y,-z
x,y,-z
1/2-x,1/2+y,1/2+z
1/2+x,1/2-y,1/2+z
loop_
_atom_site_type_symbol
_atom_site_label
_atom_site_fract_x
_atom_site_fract_y
_atom_site_fract_z
Si Si1 0.629292 0.420150 0.286609
Si Si2 0.712578 0.919659 0.287029
Si Si3 0.293901 0.396480 0.710364
Si Si4 0.133028 0.401571 0.783921
Si Si5 0.035155 0.105787 0.707592
Si Si6 0.540519 0.074055 0.703385
O O1 0.630068 0.420317 0.500000
O O2 0.664511 0.526486 0.220922
O O3 0.638847 0.260337 0.230125
O O4 0.581945 0.453275 0.231453
O O5 0.710910 0.916360 0.500000
O O6 0.713282 0.760215 0.220648
O O7 0.753902 0.005677 0.239637
O O8 0.671188 0.001934 0.225860
O O9 0.299542 0.383354 0.500000
O O10 0.087027 0.449985 0.721388
O O11 0.132223 0.402220 0.000000
O O12 0.027552 0.127729 0.500000
O O13 0.034239 0.258780 0.793535
O O14 0.000000 0.000000 0.775870
O O15 0.542703 0.025441 0.500000
O O16 0.500000 0.000000 0.785198
#
# Coordination Sequence:
#
# PCOD9442941 Si02
#       6
#     8   8   8   8   8   8
#     4   9  18  34  54  73  98 134 175 218 258 298
#     4  10  20  34  53  76 105 139 170 207 258 310
#     4  10  21  35  53  79 105 132 171 214 255 302
#     4   8  15  30  50  72  99 131 168 211 255 296
#     4  10  21  35  51  75 108 141 171 207 255 309
#     4   9  18  33  55  80 103 134 177 218 257 303
#
# _framework density 20.749796
#
# number of rings (size 3 to 8) (size 9 to 14) (size 15 to 20)
#    0.000    2.667    0.000    2.500    0.000    5.667 
#    0.000    8.333    0.000    0.000    0.000    0.000 
#    0.000    0.000    0.000    0.000    0.000    0.000 
#
# Total GULP energy -267912.544707 kJ/mol
# GULP energy per Si atom -5581.511348 kJ/mol
# Density = 2.070257 g / cm^3
# Si number density = 20.749796 Si / 1000 Ang^3
#
#
#
# Elastic Constant Matrix: (Units=GPa)
#
#
# Indices 1 2 3 4 5 6 
#
# 1 184.7552 109.7757 -14.3677 0.0000 0.0000 0.0000
# 2 109.7757 123.1292 -6.7444 0.0000 0.0000 0.0000
# 3 -14.3677 -6.7444 44.7368 0.0000 0.0000 0.0000
# 4 0.0000 0.0000 0.0000 -0.1100 0.0000 0.0000
# 5 0.0000 0.0000 0.0000 0.0000 18.4303 0.0000
# 6 0.0000 0.0000 0.0000 0.0000 0.0000 46.5999
#
#
#
# Elastic Compliance Matrix: (Units=1/GPa)
#
#
# Indices 1 2 3 4 5 6 
#
# 1 0.011722 -0.010330 0.002207 0.000000 0.000000 0.000000
# 2 -0.010330 0.017292 -0.000711 0.000000 0.000000 0.000000
# 3 0.002207 -0.000711 0.022955 0.000000 0.000000 0.000000
# 4 0.000000 0.000000 0.000000 -9.092640 0.000000 0.000000
# 5 0.000000 0.000000 0.000000 0.000000 0.054259 0.000000
# 6 0.000000 0.000000 0.000000 0.000000 0.000000 0.021459
#
#
# Mechanical properties :
#
#
# Convention : Reuss Voigt Hill
#
# Bulk Modulus (GPa) = 29.15223 58.88315 44.01769
# Shear Modulus (GPa) = -0.55954 30.58120 15.01083
#
# Velocity S-wave (km/s) = -0.51985 3.84318 2.69257
# Velocity P-wave (km/s) = 3.70399 6.93778 5.56113
#
# Compressibility (1/GPa) = 0.03430269
#
# Stress axis : x y z
#
# Youngs Moduli (GPa) = 85.31146 57.83025 43.56401
#
# Poissons Ratio (x) = 0.59736 -0.09616
# Poissons Ratio (y) = 0.88123 0.03096
# Poissons Ratio (z) = -0.18831 0.04109
#
# Static dielectric constant tensor:
#      x y z
#    x 1.728500 0.000000 0.000000 
#    y 0.000000 1.714170 0.000000 
#    z 0.000000 0.000000 1.801250 
# 
# From -- ./inp_files/10744.got.cif
#   From: 2010.05.17/outbox.cif.g08.bks.cpg/sg58_6_cif.got.tgz:10744.got - 2010.06.03 14:20:14.
