data_PCOD9442670
_publ_section_title
;
Structure prediction by ZEFSAII (Michael W. Deem and Ramdas Pophale) SiO2 
 PCOD9442670
Probable space group: P N N M
;
_chemical_formula_sum "Si O2"
_cell_formula_units_Z 64
_cell_length_a 17.792116
_cell_length_b 11.579915
_cell_length_c 17.278046
_cell_angle_alpha 90.000000
_cell_angle_beta 90.000000
_cell_angle_gamma 90.000000
_cell_volume 3559.816395
_symmetry_space_group_name_H-M "P N N M"
_symmetry_group_IT_number 58
_symmetry_cell_setting 'orthorhombic'
loop_
_space_group_symop_operation_xyz
x,y,z
-x,-y,z
1/2+x,1/2-y,1/2-z
1/2-x,1/2+y,1/2-z
-x,-y,-z
x,y,-z
1/2-x,1/2+y,1/2+z
1/2+x,1/2-y,1/2+z
loop_
_atom_site_type_symbol
_atom_site_label
_atom_site_fract_x
_atom_site_fract_y
_atom_site_fract_z
Si Si1 0.738321 0.126472 0.586703
Si Si2 0.561214 0.349596 0.907689
Si Si3 0.081960 0.958862 0.092033
Si Si4 0.656023 0.717755 0.302812
Si Si5 0.682529 0.970544 0.729672
Si Si6 0.838866 0.698570 0.308178
Si Si7 0.398513 0.395546 0.856998
Si Si8 0.684503 0.354247 0.671812
O O1 0.710204 0.103035 0.500000
O O2 0.828260 0.125996 0.587653
O O3 0.715109 0.252489 0.617327
O O4 0.711271 0.033950 0.651412
O O5 0.616854 0.247589 0.881366
O O6 0.474854 0.331884 0.882045
O O7 0.585795 0.467847 0.864608
O O8 0.564123 0.368340 0.000000
O O9 0.138129 0.055892 0.122764
O O10 0.110357 0.839321 0.127893
O O11 0.082067 0.952655 0.000000
O O12 0.000000 0.000000 0.118945
O O13 0.639682 0.853161 0.291462
O O14 0.747032 0.705205 0.314226
O O15 0.630275 0.647264 0.226572
O O16 0.751071 0.923767 0.782387
O O17 0.642702 0.069495 0.780283
O O18 0.860154 0.785609 0.238421
#
# Coordination Sequence:
#
# PCOD9442670 Si02
#       8
#     8   8   8   8   8   8   8   8
#     4  11  20  34  62  88 117 156 197 249 298 356
#     4  11  24  37  59  94 126 154 193 254 310 357
#     4  11  24  38  58  89 119 149 193 251 310 352
#     4  11  21  37  62  85 115 160 201 246 291 353
#     4  10  19  38  59  84 116 150 207 240 286 357
#     4  10  20  37  62  85 117 156 204 241 287 356
#     4  11  20  37  59  90 122 156 197 239 302 360
#     4  10  19  38  58  85 112 153 198 244 294 355
#
# _framework density 17.978456000000001
#
# number of rings (size 3 to 8) (size 9 to 14) (size 15 to 20)
#    0.000    1.375    5.000    4.125    3.500    1.000 
#    0.000    0.625    0.000    0.750    0.000    4.375 
#    0.000    0.000    0.000    0.000    0.000    0.000 
#
# Total GULP energy -356982.731656 kJ/mol
# GULP energy per Si atom -5577.855182 kJ/mol
# Density = 1.793754 g / cm^3
# Si number density = 17.978456 Si / 1000 Ang^3
#
#
#
# Elastic Constant Matrix: (Units=GPa)
#
#
# Indices 1 2 3 4 5 6 
#
# 1 68.8877 42.2410 41.7401 0.0000 0.0000 0.0000
# 2 42.2410 123.1424 42.4543 0.0000 0.0000 0.0000
# 3 41.7401 42.4543 91.2810 0.0000 0.0000 0.0000
# 4 0.0000 0.0000 0.0000 -8.7331 0.0000 0.0000
# 5 0.0000 0.0000 0.0000 0.0000 23.6223 0.0000
# 6 0.0000 0.0000 0.0000 0.0000 0.0000 20.7848
#
#
#
# Elastic Compliance Matrix: (Units=1/GPa)
#
#
# Indices 1 2 3 4 5 6 
#
# 1 0.022341 -0.004932 -0.007922 0.000000 0.000000 0.000000
# 2 -0.004932 0.010760 -0.002749 0.000000 0.000000 0.000000
# 3 -0.007922 -0.002749 0.015856 0.000000 0.000000 0.000000
# 4 0.000000 0.000000 0.000000 -0.114507 0.000000 0.000000
# 5 0.000000 0.000000 0.000000 0.000000 0.042333 0.000000
# 6 0.000000 0.000000 0.000000 0.000000 0.000000 0.048112
#
#
# Mechanical properties :
#
#
# Convention : Reuss Voigt Hill
#
# Bulk Modulus (GPa) = 56.33560 59.57576 57.95568
# Shear Modulus (GPa) = 80.62066 17.59319 49.10692
#
# Velocity S-wave (km/s) = 6.70375 3.13161 5.23198
# Velocity P-wave (km/s) = 9.55633 6.80332 8.29484
#
# Compressibility (1/GPa) = 0.01775077
#
# Stress axis : x y z
#
# Youngs Moduli (GPa) = 44.76129 92.93332 63.06689
#
# Poissons Ratio (x) = 0.45838 0.49960
# Poissons Ratio (y) = 0.22078 0.17338
# Poissons Ratio (z) = 0.35459 0.25549
#
# Static dielectric constant tensor:
#      x y z
#    x 1.632590 0.000000 0.000000 
#    y 0.000000 1.631600 0.000000 
#    z 0.000000 0.000000 1.628490 
# 
# From -- ./inp_files/22949.got.cif
#   From: 2010.05.17/outbox.cif.g08.bks.cpg/sg58_12_cif.got.tgz:22949.got - 2010.06.03 14:20:14.
