data_PCOD9442225
_publ_section_title
;
Structure prediction by ZEFSAII (Michael W. Deem and Ramdas Pophale) SiO2 
 PCOD9442225
Probable space group: P N N M
;
_chemical_formula_sum "Si O2"
_cell_formula_units_Z 48
_cell_length_a 19.161250
_cell_length_b 15.388646
_cell_length_c 7.396292
_cell_angle_alpha 90.000000
_cell_angle_beta 90.000000
_cell_angle_gamma 90.000000
_cell_volume 2180.912767
_symmetry_space_group_name_H-M "P N N M"
_symmetry_group_IT_number 58
_symmetry_cell_setting 'orthorhombic'
loop_
_space_group_symop_operation_xyz
x,y,z
-x,-y,z
1/2+x,1/2-y,1/2-z
1/2-x,1/2+y,1/2-z
-x,-y,-z
x,y,-z
1/2-x,1/2+y,1/2+z
1/2+x,1/2-y,1/2+z
loop_
_atom_site_type_symbol
_atom_site_label
_atom_site_fract_x
_atom_site_fract_y
_atom_site_fract_z
Si Si1 0.928478 0.246959 0.712466
Si Si2 0.796019 0.545171 0.289510
Si Si3 0.432331 0.055527 0.778839
Si Si4 0.267022 0.277447 0.718735
Si Si5 0.811045 0.896444 0.281497
Si Si6 0.528733 0.406075 0.778787
O O1 0.944998 0.253350 0.500000
O O2 0.935706 0.344888 0.785568
O O3 0.848032 0.219164 0.730157
O O4 0.979779 0.172791 0.784914
O O5 0.812756 0.560226 0.500000
O O6 0.862369 0.493156 0.214490
O O7 0.775263 0.638768 0.213537
O O8 0.729398 0.482503 0.277217
O O9 0.500000 0.000000 0.729000
O O10 0.429536 0.058644 0.000000
O O11 0.264796 0.278035 0.500000
O O12 0.232020 0.187803 0.780533
O O13 0.810750 0.896037 0.500000
O O14 0.891162 0.894453 0.222817
O O15 0.500000 0.500000 0.722247
O O16 0.527519 0.405869 0.000000
#
# Coordination Sequence:
#
# PCOD9442225 Si02
#       6
#     8   8   8   8   8   8
#     4  10  19  34  57  79 102 136 179 220 256 309
#     4  10  20  35  54  78 106 138 177 217 262 318
#     4   9  18  31  51  78 104 133 173 220 261 302
#     4  10  21  34  52  77 108 140 169 212 270 320
#     4  10  20  35  54  78 108 138 171 216 266 314
#     4   9  18  31  50  77 103 129 168 216 259 300
#
# _framework density 22.009132999999999
#
# number of rings (size 3 to 8) (size 9 to 14) (size 15 to 20)
#    0.000    2.333    1.667    1.000    2.333    2.000 
#    0.000    0.833    0.000    5.000    0.000    0.000 
#    0.000    0.000    0.000    0.000    0.000    0.000 
#
# Total GULP energy -268271.604504 kJ/mol
# GULP energy per Si atom -5588.991760 kJ/mol
# Density = 2.195904 g / cm^3
# Si number density = 22.009133 Si / 1000 Ang^3
#
#
#
# Elastic Constant Matrix: (Units=GPa)
#
#
# Indices 1 2 3 4 5 6 
#
# 1 91.5837 -3.6199 -15.2073 0.0000 0.0000 0.0000
# 2 -3.6199 85.0378 -5.4225 0.0000 0.0000 0.0000
# 3 -15.2073 -5.4225 71.0492 0.0000 0.0000 0.0000
# 4 0.0000 0.0000 0.0000 1.2547 0.0000 0.0000
# 5 0.0000 0.0000 0.0000 0.0000 9.1264 0.0000
# 6 0.0000 0.0000 0.0000 0.0000 0.0000 43.4516
#
#
#
# Elastic Compliance Matrix: (Units=1/GPa)
#
#
# Indices 1 2 3 4 5 6 
#
# 1 0.011356 0.000642 0.002480 0.000000 0.000000 0.000000
# 2 0.000642 0.011853 0.001042 0.000000 0.000000 0.000000
# 3 0.002480 0.001042 0.014685 0.000000 0.000000 0.000000
# 4 0.000000 0.000000 0.000000 0.796996 0.000000 0.000000
# 5 0.000000 0.000000 0.000000 0.000000 0.109572 0.000000
# 6 0.000000 0.000000 0.000000 0.000000 0.000000 0.023014
#
#
# Mechanical properties :
#
#
# Convention : Reuss Voigt Hill
#
# Bulk Modulus (GPa) = 21.63545 22.13015 21.88280
# Shear Modulus (GPa) = 5.13054 28.89458 17.01256
#
# Velocity S-wave (km/s) = 1.52845 3.62725 2.78326
# Velocity P-wave (km/s) = 3.60089 5.25542 4.50477
#
# Compressibility (1/GPa) = 0.04622043
#
# Stress axis : x y z
#
# Youngs Moduli (GPa) = 88.05867 84.36523 68.09670
#
# Poissons Ratio (x) = -0.05412 -0.16885
# Poissons Ratio (y) = -0.05649 -0.07095
# Poissons Ratio (z) = -0.21835 -0.08790
#
# Static dielectric constant tensor:
#      x y z
#    x 1.740890 0.000000 0.000000 
#    y 0.000000 1.770410 0.000000 
#    z 0.000000 0.000000 1.859430 
# 
# From -- ./inp_files/5810.got.cif
#   From: 2010.05.17/outbox.cif.g08.bks.cpg/sg58_3_cif.got.tgz:5810.got - 2010.06.03 14:20:14.
