data_PCOD9442375
_publ_section_title
;
Structure prediction by ZEFSAII (Michael W. Deem and Ramdas Pophale) SiO2 
 PCOD9442375
Probable space group: P N N M
;
_chemical_formula_sum "Si O2"
_cell_formula_units_Z 64
_cell_length_a 20.691399
_cell_length_b 17.239919
_cell_length_c 7.918515
_cell_angle_alpha 90.000000
_cell_angle_beta 90.000000
_cell_angle_gamma 90.000000
_cell_volume 2824.677172
_symmetry_space_group_name_H-M "P N N M"
_symmetry_group_IT_number 58
_symmetry_cell_setting 'orthorhombic'
loop_
_space_group_symop_operation_xyz
x,y,z
-x,-y,z
1/2+x,1/2-y,1/2-z
1/2-x,1/2+y,1/2-z
-x,-y,-z
x,y,-z
1/2-x,1/2+y,1/2+z
1/2+x,1/2-y,1/2+z
loop_
_atom_site_type_symbol
_atom_site_label
_atom_site_fract_x
_atom_site_fract_y
_atom_site_fract_z
Si Si1 0.400235 0.764995 0.297923
Si Si2 0.364428 0.603961 0.304348
Si Si3 0.881584 0.229535 0.697225
Si Si4 0.802871 0.614500 0.703163
Si Si5 0.480380 0.142944 0.694162
Si Si6 0.729408 0.835551 0.306969
Si Si7 0.659142 0.566463 0.704685
Si Si8 0.628658 0.961084 0.802245
O O1 0.410426 0.760344 0.500000
O O2 0.402930 0.677263 0.229336
O O3 0.331074 0.804793 0.268279
O O4 0.454433 0.822765 0.226855
O O5 0.384197 0.596517 0.500000
O O6 0.290444 0.633911 0.296057
O O7 0.364319 0.517382 0.230821
O O8 0.893281 0.242483 0.500000
O O9 0.931365 0.283689 0.796768
O O10 0.809966 0.261436 0.740809
O O11 0.883889 0.139391 0.742191
O O12 0.800234 0.619752 0.500000
O O13 0.732509 0.585743 0.761961
O O14 0.854402 0.547721 0.751530
O O15 0.491618 0.121135 0.500000
O O16 0.443171 0.071557 0.778701
O O17 0.749374 0.822437 0.500000
O O18 0.676127 0.903725 0.296962
O O19 0.660926 0.562952 0.500000
O O20 0.645647 0.954009 0.000000
#
# Coordination Sequence:
#
# PCOD9442375 Si02
#       8
#     8   8   8   8   8   8   8   8
#     4  10  23  39  58  82 111 150 191 234 281 333
#     4  10  20  38  59  81 113 150 186 231 283 339
#     4  11  22  36  57  83 110 146 189 232 282 334
#     4  10  21  36  57  85 117 149 184 227 280 339
#     4  10  21  39  58  81 111 148 195 237 279 330
#     4  11  20  32  54  84 114 146 183 227 282 336
#     4  10  20  37  59  85 116 146 182 231 283 336
#     4  10  19  35  57  83 112 151 190 227 278 334
#
# _framework density 22.657457000000001
#
# number of rings (size 3 to 8) (size 9 to 14) (size 15 to 20)
#    0.000    1.750    1.250    5.250    0.000    6.000 
#    0.000    3.125    0.000    3.750    0.000    0.000 
#    0.000    0.000    0.000    0.000    0.000    0.000 
#
# Total GULP energy -357580.958316 kJ/mol
# GULP energy per Si atom -5587.202474 kJ/mol
# Density = 2.260589 g / cm^3
# Si number density = 22.657457 Si / 1000 Ang^3
#
#
#
# Elastic Constant Matrix: (Units=GPa)
#
#
# Indices 1 2 3 4 5 6 
#
# 1 35.5367 -10.0686 -14.1389 0.0000 0.0000 0.0000
# 2 -10.0686 115.1201 -2.3119 0.0000 0.0000 0.0000
# 3 -14.1389 -2.3119 43.9550 0.0000 0.0000 0.0000
# 4 0.0000 0.0000 0.0000 -784.7934 0.0000 0.0000
# 5 0.0000 0.0000 0.0000 0.0000 18.4326 0.0000
# 6 0.0000 0.0000 0.0000 0.0000 0.0000 28.4896
#
#
#
# Elastic Compliance Matrix: (Units=1/GPa)
#
#
# Indices 1 2 3 4 5 6 
#
# 1 0.033364 0.003137 0.010897 0.000000 0.000000 0.000000
# 2 0.003137 0.008991 0.001482 0.000000 0.000000 0.000000
# 3 0.010897 0.001482 0.026334 0.000000 0.000000 0.000000
# 4 0.000000 0.000000 0.000000 -0.001274 0.000000 0.000000
# 5 0.000000 0.000000 0.000000 0.000000 0.054252 0.000000
# 6 0.000000 0.000000 0.000000 0.000000 0.000000 0.035101
#
#
# Mechanical properties :
#
#
# Convention : Reuss Voigt Hill
#
# Bulk Modulus (GPa) = 10.02796 15.73031 12.87913
# Shear Modulus (GPa) = 31.45151 -132.83216 -50.69032
#
# Velocity S-wave (km/s) = 3.72980 -7.66508 -4.73509
# Velocity P-wave (km/s) = 4.79417 8.44869 4.91916
#
# Compressibility (1/GPa) = 0.09972122
#
# Stress axis : x y z
#
# Youngs Moduli (GPa) = 29.97208 111.22592 37.97402
#
# Poissons Ratio (x) = -0.34891 -0.41381
# Poissons Ratio (y) = -0.09402 -0.05628
# Poissons Ratio (z) = -0.32661 -0.16483
#
# Static dielectric constant tensor:
#      x y z
#    x 1.859310 0.000000 0.000000 
#    y 0.000000 1.868030 0.000000 
#    z 0.000000 0.000000 1.805510 
# 
# From -- ./inp_files/10142.got.cif
#   From: 2010.05.17/outbox.cif.g08.bks.cpg/sg58_6_cif.got.tgz:10142.got - 2010.06.03 14:20:14.
