data_PCOD9442773
_publ_section_title
;
Structure prediction by ZEFSAII (Michael W. Deem and Ramdas Pophale) SiO2 
 PCOD9442773
Probable space group: P N N M
;
_chemical_formula_sum "Si O2"
_cell_formula_units_Z 64
_cell_length_a 20.724215
_cell_length_b 20.242343
_cell_length_c 8.820851
_cell_angle_alpha 90.000000
_cell_angle_beta 90.000000
_cell_angle_gamma 90.000000
_cell_volume 3700.405816
_symmetry_space_group_name_H-M "P N N M"
_symmetry_group_IT_number 58
_symmetry_cell_setting 'orthorhombic'
loop_
_space_group_symop_operation_xyz
x,y,z
-x,-y,z
1/2+x,1/2-y,1/2-z
1/2-x,1/2+y,1/2-z
-x,-y,-z
x,y,-z
1/2-x,1/2+y,1/2+z
1/2+x,1/2-y,1/2+z
loop_
_atom_site_type_symbol
_atom_site_label
_atom_site_fract_x
_atom_site_fract_y
_atom_site_fract_z
Si Si1 0.330660 0.560374 0.818153
Si Si2 0.336920 0.940701 0.819204
Si Si3 0.802528 0.408143 0.318890
Si Si4 0.915396 0.323480 0.181767
Si Si5 0.024159 0.072383 0.684777
Si Si6 0.417269 0.321325 0.183642
Si Si7 0.295895 0.408274 0.181341
Si Si8 0.525474 0.072403 0.317265
O O1 0.270887 0.595771 0.738281
O O2 0.401747 0.582777 0.769034
O O3 0.323614 0.481796 0.786630
O O4 0.324965 0.568524 0.000000
O O5 0.273495 0.903519 0.759336
O O6 0.403782 0.916403 0.749575
O O7 0.327126 0.018056 0.775391
O O8 0.339332 0.937144 0.000000
O O9 0.805044 0.402569 0.500000
O O10 0.849595 0.355389 0.243854
O O11 0.924548 0.250689 0.247196
O O12 0.973818 0.372220 0.228322
O O13 0.913466 0.321812 0.000000
O O14 0.023765 0.071033 0.500000
O O15 0.974646 0.129213 0.731439
O O16 0.000000 0.000000 0.734442
O O17 0.349230 0.354967 0.227776
O O18 0.418253 0.317443 0.000000
O O19 0.287406 0.404036 0.000000
O O20 0.529659 0.071906 0.500000
O O21 0.500000 0.000000 0.268653
#
# Coordination Sequence:
#
# PCOD9442773 Si02
#       8
#     8   8   8   8   8   8   8   8
#     4   9  16  29  54  83 108 137 179 224 263 309
#     4  10  20  32  53  83 111 136 172 227 277 316
#     4  10  20  34  52  78 110 141 176 221 273 324
#     4  11  23  38  56  78 107 144 183 225 275 333
#     4   9  15  29  55  85 111 140 183 226 262 313
#     4  10  20  35  56  82 112 146 182 224 273 324
#     4   9  17  31  53  79 108 142 178 217 263 319
#     4  10  20  36  57  79 104 140 186 229 272 330
#
# _framework density 17.295400999999998
#
# number of rings (size 3 to 8) (size 9 to 14) (size 15 to 20)
#    0.000    2.250    2.500    1.125    0.000    2.750 
#    0.000    1.875    0.000    3.750    0.000    0.000 
#    0.000    0.000    0.000    0.000    0.000    0.000 
#
# Total GULP energy -357102.638252 kJ/mol
# GULP energy per Si atom -5579.728723 kJ/mol
# Density = 1.725604 g / cm^3
# Si number density = 17.295401 Si / 1000 Ang^3
#
#
#
# Elastic Constant Matrix: (Units=GPa)
#
#
# Indices 1 2 3 4 5 6 
#
# 1 179.5797 90.0782 40.7914 0.0000 0.0000 0.0000
# 2 90.0782 123.6110 35.6278 0.0000 0.0000 0.0000
# 3 40.7914 35.6278 19.1261 0.0000 0.0000 0.0000
# 4 0.0000 0.0000 0.0000 24.1334 0.0000 0.0000
# 5 0.0000 0.0000 0.0000 0.0000 5.4736 0.0000
# 6 0.0000 0.0000 0.0000 0.0000 0.0000 25.2524
#
#
#
# Elastic Compliance Matrix: (Units=1/GPa)
#
#
# Indices 1 2 3 4 5 6 
#
# 1 0.011222 -0.002763 -0.018787 0.000000 0.000000 0.000000
# 2 -0.002763 0.018149 -0.027916 0.000000 0.000000 0.000000
# 3 -0.018787 -0.027916 0.144356 0.000000 0.000000 0.000000
# 4 0.000000 0.000000 0.000000 0.041436 0.000000 0.000000
# 5 0.000000 0.000000 0.000000 0.000000 0.182696 0.000000
# 6 0.000000 0.000000 0.000000 0.000000 0.000000 0.039600
#
#
# Mechanical properties :
#
#
# Convention : Reuss Voigt Hill
#
# Bulk Modulus (GPa) = 13.36999 72.81239 43.09119
# Shear Modulus (GPa) = 8.90753 21.35983 15.13368
#
# Velocity S-wave (km/s) = 2.27187 3.51807 2.96127
# Velocity P-wave (km/s) = 3.82479 7.66114 6.05484
#
# Compressibility (1/GPa) = 0.07479437
#
# Stress axis : x y z
#
# Youngs Moduli (GPa) = 89.11187 55.09883 6.92734
#
# Poissons Ratio (x) = 0.15222 0.13015
# Poissons Ratio (y) = 0.24618 0.19338
# Poissons Ratio (z) = 1.67418 1.53814
#
# Static dielectric constant tensor:
#      x y z
#    x 1.580020 0.000000 0.000000 
#    y 0.000000 1.567940 0.000000 
#    z 0.000000 0.000000 1.577860 
# 
# From -- ./inp_files/8412.got.cif
#   From: 2010.05.17/outbox.cif.g08.bks.cpg/sg58_5_cif.got.tgz:8412.got - 2010.06.03 14:20:14.
