data_PCOD9442465
_publ_section_title
;
Structure prediction by ZEFSAII (Michael W. Deem and Ramdas Pophale) SiO2 
 PCOD9442465
Probable space group: P N N M
;
_chemical_formula_sum "Si O2"
_cell_formula_units_Z 58
_cell_length_a 7.845902
_cell_length_b 20.571496
_cell_length_c 17.225415
_cell_angle_alpha 90.000000
_cell_angle_beta 90.000000
_cell_angle_gamma 90.000000
_cell_volume 2780.215426
_symmetry_space_group_name_H-M "P N N M"
_symmetry_group_IT_number 58
_symmetry_cell_setting 'orthorhombic'
loop_
_space_group_symop_operation_xyz
x,y,z
-x,-y,z
1/2+x,1/2-y,1/2-z
1/2-x,1/2+y,1/2-z
-x,-y,-z
x,y,-z
1/2-x,1/2+y,1/2+z
1/2+x,1/2-y,1/2+z
loop_
_atom_site_type_symbol
_atom_site_label
_atom_site_fract_x
_atom_site_fract_y
_atom_site_fract_z
Si Si1 0.002570 0.206200 0.846813
Si Si2 0.966866 0.352076 0.322242
Si Si3 0.666587 0.579243 0.311411
Si Si4 0.942477 0.102761 0.638309
Si Si5 0.324061 0.264724 0.087817
Si Si6 0.000000 0.000000 0.500000
Si Si7 0.810602 0.467694 0.587990
Si Si8 0.269498 0.690849 0.194024
O O1 0.955878 0.130661 0.854334
O O2 0.831913 0.249451 0.843959
O O3 0.137745 0.233200 0.907257
O O4 0.378999 0.152203 0.738927
O O5 0.949671 0.281871 0.363224
O O6 0.849671 0.398124 0.375583
O O7 0.150931 0.383715 0.313365
O O8 0.103300 0.212390 0.235831
O O9 0.601717 0.573410 0.222883
O O10 0.696577 0.512182 0.356033
O O11 0.816477 0.163569 0.623860
O O12 0.942165 0.052026 0.568972
O O13 0.124041 0.140822 0.642190
O O14 0.385108 0.269044 0.000000
O O15 0.745512 0.464923 0.500000
O O16 0.000000 0.500000 0.585326
#
# Coordination Sequence:
#
# PCOD9442465 Si02
#       8
#     8   8   8   8   8   2   8   8
#     4  10  19  35  60  92 123 153 210 266 314 377
#     4  10  19  35  64  94 124 160 210 253 318 386
#     4  10  20  37  65  94 123 170 209 262 314 381
#     4  11  24  43  67  85 122 164 221 265 323 383
#     4  11  22  39  59  90 127 169 204 267 328 369
#     4  12  28  48  64  90 126 172 216 274 320 392
#     4   9  19  34  53  87 129 164 196 243 308 381
#     4  10  19  35  62  91 114 154 205 263 311 371
#
# _framework density 20.861692000000001
#
# number of rings (size 3 to 8) (size 9 to 14) (size 15 to 20)
#    0.000    1.793    0.690    6.207    1.931    1.103 
#    1.241    0.000    0.000   11.586    0.000    0.000 
#    0.000    0.000    0.000    0.000    0.000    0.000 
#
# Total GULP energy -323478.655456 kJ/mol
# GULP energy per Si atom -5577.218198 kJ/mol
# Density = 2.081421 g / cm^3
# Si number density = 20.861692 Si / 1000 Ang^3
#
#
#
# Elastic Constant Matrix: (Units=GPa)
#
#
# Indices 1 2 3 4 5 6 
#
# 1 82.1263 12.7446 -2.1068 0.0000 0.0000 0.0000
# 2 12.7446 112.3720 43.4368 0.0000 0.0000 0.0000
# 3 -2.1068 43.4368 75.6986 0.0000 0.0000 0.0000
# 4 0.0000 0.0000 0.0000 26.2634 0.0000 0.0000
# 5 0.0000 0.0000 0.0000 0.0000 13.0645 0.0000
# 6 0.0000 0.0000 0.0000 0.0000 0.0000 25.9168
#
#
#
# Elastic Compliance Matrix: (Units=1/GPa)
#
#
# Indices 1 2 3 4 5 6 
#
# 1 0.012525 -0.001999 0.001495 0.000000 0.000000 0.000000
# 2 -0.001999 0.011754 -0.006800 0.000000 0.000000 0.000000
# 3 0.001495 -0.006800 0.017154 0.000000 0.000000 0.000000
# 4 0.000000 0.000000 0.000000 0.038076 0.000000 0.000000
# 5 0.000000 0.000000 0.000000 0.000000 0.076543 0.000000
# 6 0.000000 0.000000 0.000000 0.000000 0.000000 0.038585
#
#
# Mechanical properties :
#
#
# Convention : Reuss Voigt Hill
#
# Bulk Modulus (GPa) = 37.27708 42.03844 39.65776
# Shear Modulus (GPa) = 22.91620 27.45711 25.18666
#
# Velocity S-wave (km/s) = 3.31793 3.63181 3.47841
# Velocity P-wave (km/s) = 5.70839 6.14667 5.93158
#
# Compressibility (1/GPa) = 0.02682613
#
# Stress axis : x y z
#
# Youngs Moduli (GPa) = 79.84120 85.07505 58.29526
#
# Poissons Ratio (x) = 0.17002 -0.08717
# Poissons Ratio (y) = 0.15956 0.39643
# Poissons Ratio (z) = -0.11939 0.57854
#
# Static dielectric constant tensor:
#      x y z
#    x 1.799600 0.000000 0.000000 
#    y 0.000000 1.769870 0.000000 
#    z 0.000000 0.000000 1.719500 
# 
# From -- ./inp_files/25552.got.cif
#   From: 2010.05.17/outbox.cif.g08.bks.cpg/sg58_13_cif.got.tgz:25552.got - 2010.06.03 14:20:14.
