data_PCOD9442644
_publ_section_title
;
Structure prediction by ZEFSAII (Michael W. Deem and Ramdas Pophale) SiO2 
 PCOD9442644
Probable space group: P N N M
;
_chemical_formula_sum "Si O2"
_cell_formula_units_Z 56
_cell_length_a 14.800264
_cell_length_b 20.902571
_cell_length_c 8.739395
_cell_angle_alpha 90.000000
_cell_angle_beta 90.000000
_cell_angle_gamma 90.000000
_cell_volume 2703.650429
_symmetry_space_group_name_H-M "P N N M"
_symmetry_group_IT_number 58
_symmetry_cell_setting 'orthorhombic'
loop_
_space_group_symop_operation_xyz
x,y,z
-x,-y,z
1/2+x,1/2-y,1/2-z
1/2-x,1/2+y,1/2-z
-x,-y,-z
x,y,-z
1/2-x,1/2+y,1/2+z
1/2+x,1/2-y,1/2+z
loop_
_atom_site_type_symbol
_atom_site_label
_atom_site_fract_x
_atom_site_fract_y
_atom_site_fract_z
Si Si1 0.112413 0.828526 0.180231
Si Si2 0.099602 0.968892 0.318310
Si Si3 0.708611 0.408072 0.183710
Si Si4 0.099870 0.423735 0.683028
Si Si5 0.602690 0.923716 0.181666
Si Si6 0.424695 0.706148 0.817806
Si Si7 0.699938 0.187832 0.679157
O O1 0.105361 0.903225 0.227021
O O2 0.198098 0.800253 0.268684
O O3 0.019825 0.796221 0.233346
O O4 0.126221 0.822235 0.000000
O O5 0.112959 0.955320 0.500000
O O6 0.171452 0.022465 0.266456
O O7 0.000000 0.000000 0.303421
O O8 0.809256 0.394501 0.241112
O O9 0.636569 0.354473 0.231346
O O10 0.709075 0.408671 0.000000
O O11 0.110315 0.412896 0.500000
O O12 0.106464 0.499647 0.708437
O O13 0.173072 0.384537 0.776769
O O14 0.997967 0.402783 0.729544
O O15 0.608242 0.913475 0.000000
O O16 0.367810 0.768208 0.774891
O O17 0.439543 0.701903 0.000000
O O18 0.688962 0.199106 0.500000
#
# Coordination Sequence:
#
# PCOD9442644 Si02
#       7
#     8   8   8   8   8   8   8
#     4  12  25  42  65  95 126 163 209 257 311 378
#     4  10  19  37  62  91 127 165 202 251 316 374
#     4  10  21  36  59  89 122 159 200 247 308 370
#     4   9  19  39  61  87 120 160 202 249 302 360
#     4   9  19  35  60  89 122 157 197 247 303 360
#     4  11  24  45  65  86 120 163 206 258 309 364
#     4  12  26  43  64  91 122 164 210 257 310 373
#
# _framework density 20.712737000000001
#
# number of rings (size 3 to 8) (size 9 to 14) (size 15 to 20)
#    0.000    1.571    1.429    4.714    0.000    6.571 
#    0.000    4.286    0.000    0.000    0.000    0.000 
#    0.000    0.000    0.000    0.000    0.000    0.000 
#
# Total GULP energy -313201.242895 kJ/mol
# GULP energy per Si atom -5592.879337 kJ/mol
# Density = 2.066559 g / cm^3
# Si number density = 20.712737 Si / 1000 Ang^3
#
#
#
# Elastic Constant Matrix: (Units=GPa)
#
#
# Indices 1 2 3 4 5 6 
#
# 1 104.7271 -7.5147 -2.6744 0.0000 0.0000 0.0000
# 2 -7.5147 21.8177 -4.6133 0.0000 0.0000 0.0000
# 3 -2.6744 -4.6133 12.0115 0.0000 0.0000 0.0000
# 4 0.0000 0.0000 0.0000 1556.6058 0.0000 0.0000
# 5 0.0000 0.0000 0.0000 0.0000 28.6327 0.0000
# 6 0.0000 0.0000 0.0000 0.0000 0.0000 19.4287
#
#
#
# Elastic Compliance Matrix: (Units=1/GPa)
#
#
# Indices 1 2 3 4 5 6 
#
# 1 0.009951 0.004240 0.003844 0.000000 0.000000 0.000000
# 2 0.004240 0.051693 0.020798 0.000000 0.000000 0.000000
# 3 0.003844 0.020798 0.092098 0.000000 0.000000 0.000000
# 4 0.000000 0.000000 0.000000 0.000642 0.000000 0.000000
# 5 0.000000 0.000000 0.000000 0.000000 0.034925 0.000000
# 6 0.000000 0.000000 0.000000 0.000000 0.000000 0.051470
#
#
# Mechanical properties :
#
#
# Convention : Reuss Voigt Hill
#
# Bulk Modulus (GPa) = 4.72799 12.10570 8.41685
# Shear Modulus (GPa) = 19.72261 331.15734 175.43997
#
# Velocity S-wave (km/s) = 3.08912 12.65812 9.21333
# Velocity P-wave (km/s) = 3.87442 14.81535 10.82834
#
# Compressibility (1/GPa) = 0.21150642
#
# Stress axis : x y z
#
# Youngs Moduli (GPa) = 100.49174 19.34511 10.85805
#
# Poissons Ratio (x) = -0.08203 -0.04174
# Poissons Ratio (y) = -0.42612 -0.22583
# Poissons Ratio (z) = -0.38632 -0.40234
#
# Static dielectric constant tensor:
#      x y z
#    x 1.738500 0.000000 0.000000 
#    y 0.000000 1.753460 0.000000 
#    z 0.000000 0.000000 1.688750 
# 
# From -- ./inp_files/6476.got.cif
#   From: 2010.05.17/outbox.cif.g08.bks.cpg/sg58_4_cif.got.tgz:6476.got - 2010.06.03 14:20:14.
