data_PCOD9442983
_publ_section_title
;
Structure prediction by ZEFSAII (Michael W. Deem and Ramdas Pophale) SiO2 
 PCOD9442983
Probable space group: P N N M
;
_chemical_formula_sum "Si O2"
_cell_formula_units_Z 48
_cell_length_a 9.558296
_cell_length_b 31.898942
_cell_length_c 8.405579
_cell_angle_alpha 90.000000
_cell_angle_beta 90.000000
_cell_angle_gamma 90.000000
_cell_volume 2562.857084
_symmetry_space_group_name_H-M "P N N M"
_symmetry_group_IT_number 58
_symmetry_cell_setting 'orthorhombic'
loop_
_space_group_symop_operation_xyz
x,y,z
-x,-y,z
1/2+x,1/2-y,1/2-z
1/2-x,1/2+y,1/2-z
-x,-y,-z
x,y,-z
1/2-x,1/2+y,1/2+z
1/2+x,1/2-y,1/2+z
loop_
_atom_site_type_symbol
_atom_site_label
_atom_site_fract_x
_atom_site_fract_y
_atom_site_fract_z
Si Si1 0.397980 0.287399 0.692647
Si Si2 0.415871 0.882747 0.190316
Si Si3 0.092883 0.539244 0.810014
Si Si4 0.091481 0.881008 0.806381
Si Si5 0.089764 0.040280 0.807626
Si Si6 0.417589 0.791013 0.309374
O O1 0.394219 0.287137 0.500000
O O2 0.450153 0.333785 0.741861
O O3 0.489965 0.248217 0.746140
O O4 0.241174 0.283591 0.755748
O O5 0.514422 0.918285 0.260874
O O6 0.253241 0.888249 0.242910
O O7 0.461037 0.836023 0.240012
O O8 0.418337 0.885799 0.000000
O O9 0.250265 0.537794 0.745496
O O10 0.000000 0.500000 0.750587
O O11 0.099379 0.536876 0.000000
O O12 0.988304 0.917478 0.751087
O O13 0.091397 0.881953 0.000000
O O14 0.088118 0.040619 0.000000
O O15 0.000000 0.000000 0.754767
O O16 0.424531 0.793276 0.500000
#
# Coordination Sequence:
#
# PCOD9442983 Si02
#       6
#     8   8   8   8   8   8
#     4   9  19  35  53  76 109 147 184 222 268 323
#     4  10  20  37  60  81 106 142 183 225 272 326
#     4  11  24  39  55  80 114 146 177 218 269 324
#     4   8  16  33  55  78 104 137 180 226 267 312
#     4  10  20  35  57  83 109 141 183 225 266 318
#     4  10  20  34  54  81 112 144 183 230 276 323
#
# _framework density 18.729098
#
# number of rings (size 3 to 8) (size 9 to 14) (size 15 to 20)
#    0.000    2.333    0.000    3.500    0.000    5.667 
#    0.000    5.833    0.000    0.000    0.000    0.000 
#    0.000    0.000    0.000    0.000    0.000    0.000 
#
# Total GULP energy -267910.910110 kJ/mol
# GULP energy per Si atom -5581.477294 kJ/mol
# Density = 1.868647 g / cm^3
# Si number density = 18.729098 Si / 1000 Ang^3
#
#
#
# Elastic Constant Matrix: (Units=GPa)
#
#
# Indices 1 2 3 4 5 6 
#
# 1 121.0949 110.1649 8.8398 0.0000 0.0000 0.0000
# 2 110.1649 169.5413 7.9492 0.0000 0.0000 0.0000
# 3 8.8398 7.9492 6.3425 0.0000 0.0000 0.0000
# 4 0.0000 0.0000 0.0000 23.3210 0.0000 0.0000
# 5 0.0000 0.0000 0.0000 0.0000 23.3910 0.0000
# 6 0.0000 0.0000 0.0000 0.0000 0.0000 39.4759
#
#
#
# Elastic Compliance Matrix: (Units=1/GPa)
#
#
# Indices 1 2 3 4 5 6 
#
# 1 0.021164 -0.013141 -0.013027 0.000000 0.000000 0.000000
# 2 -0.013141 0.014426 0.000235 0.000000 0.000000 0.000000
# 3 -0.013027 0.000235 0.175528 0.000000 0.000000 0.000000
# 4 0.000000 0.000000 0.000000 0.042880 0.000000 0.000000
# 5 0.000000 0.000000 0.000000 0.000000 0.042752 0.000000
# 6 0.000000 0.000000 0.000000 0.000000 0.000000 0.025332
#
#
# Mechanical properties :
#
#
# Convention : Reuss Voigt Hill
#
# Bulk Modulus (GPa) = 6.27939 61.20960 33.74449
# Shear Modulus (GPa) = 11.70874 28.57255 20.14064
#
# Velocity S-wave (km/s) = 2.50304 3.91009 3.28284
# Velocity P-wave (km/s) = 3.42252 7.28955 5.69435
#
# Compressibility (1/GPa) = 0.15925125
#
# Stress axis : x y z
#
# Youngs Moduli (GPa) = 47.25001 69.31835 5.69711
#
# Poissons Ratio (x) = 0.91093 0.07421
# Poissons Ratio (y) = 0.62092 -0.00134
# Poissons Ratio (z) = 0.61551 -0.01627
#
# Static dielectric constant tensor:
#      x y z
#    x 1.609400 0.000000 0.000000 
#    y 0.000000 1.655670 0.000000 
#    z 0.000000 0.000000 1.642850 
# 
# From -- ./inp_files/2868.got.cif
#   From: 2010.05.17/outbox.cif.g08.bks.cpg/sg58_2_cif.got.tgz:2868.got - 2010.06.03 14:20:14.
