data_PCOD9442543
_publ_section_title
;
Structure prediction by ZEFSAII (Michael W. Deem and Ramdas Pophale) SiO2 
 PCOD9442543
Probable space group: P N N M
;
_chemical_formula_sum "Si O2"
_cell_formula_units_Z 64
_cell_length_a 18.539021
_cell_length_b 19.837167
_cell_length_c 7.490095
_cell_angle_alpha 90.000000
_cell_angle_beta 90.000000
_cell_angle_gamma 90.000000
_cell_volume 2754.569738
_symmetry_space_group_name_H-M "P N N M"
_symmetry_group_IT_number 58
_symmetry_cell_setting 'orthorhombic'
loop_
_space_group_symop_operation_xyz
x,y,z
-x,-y,z
1/2+x,1/2-y,1/2-z
1/2-x,1/2+y,1/2-z
-x,-y,-z
x,y,-z
1/2-x,1/2+y,1/2+z
1/2+x,1/2-y,1/2+z
loop_
_atom_site_type_symbol
_atom_site_label
_atom_site_fract_x
_atom_site_fract_y
_atom_site_fract_z
Si Si1 0.627394 0.951100 0.289617
Si Si2 0.750676 0.723981 0.780997
Si Si3 0.494418 0.867368 0.794042
Si Si4 0.537442 0.601676 0.715747
Si Si5 0.164172 0.405002 0.203143
Si Si6 0.766925 0.871547 0.785224
Si Si7 0.911436 0.245955 0.295000
Si Si8 0.611926 0.471698 0.282951
O O1 0.615624 0.961036 0.500000
O O2 0.550953 0.928820 0.212118
O O3 0.685677 0.892178 0.262471
O O4 0.661077 0.020335 0.213810
O O5 0.789181 0.655958 0.716998
O O6 0.785720 0.795580 0.727344
O O7 0.667786 0.730522 0.720676
O O8 0.752575 0.721683 0.000000
O O9 0.419218 0.882188 0.701113
O O10 0.538912 0.804296 0.714830
O O11 0.476036 0.852835 0.000000
O O12 0.539790 0.606244 0.500000
O O13 0.547430 0.675416 0.790725
O O14 0.460800 0.568880 0.763195
O O15 0.599185 0.548671 0.774803
O O16 0.190823 0.413761 0.000000
O O17 0.820157 0.929598 0.716789
O O18 0.771560 0.871690 0.000000
O O19 0.898741 0.267920 0.500000
O O20 0.615190 0.473589 0.500000
#
# Coordination Sequence:
#
# PCOD9442543 Si02
#       8
#     8   8   8   8   8   8   8   8
#     4  11  23  39  59  87 118 149 189 240 290 341
#     4   9  19  38  59  80 111 151 188 224 277 342
#     4  11  23  41  62  85 115 153 194 238 286 339
#     4   9  18  34  55  83 113 145 188 236 279 329
#     4  10  23  40  62  89 116 147 190 239 289 343
#     4  10  19  36  60  81 110 155 195 227 277 341
#     4  10  21  37  56  80 113 150 188 230 280 339
#     4   8  17  33  55  83 113 145 189 235 276 332
#
# _framework density 23.234117999999999
#
# number of rings (size 3 to 8) (size 9 to 14) (size 15 to 20)
#    0.000    2.250    1.250    1.875    3.500    3.500 
#    0.000    3.125    0.000    0.000    0.000    0.000 
#    0.000    0.000    0.000    0.000    0.000    0.000 
#
# Total GULP energy -357559.049186 kJ/mol
# GULP energy per Si atom -5586.860144 kJ/mol
# Density = 2.318124 g / cm^3
# Si number density = 23.234118 Si / 1000 Ang^3
#
#
#
# Elastic Constant Matrix: (Units=GPa)
#
#
# Indices 1 2 3 4 5 6 
#
# 1 32.2261 16.5313 -7.2264 0.0000 0.0000 0.0000
# 2 16.5313 139.4008 -4.2432 0.0000 0.0000 0.0000
# 3 -7.2264 -4.2432 67.9986 0.0000 0.0000 0.0000
# 4 0.0000 0.0000 0.0000 8.2329 0.0000 0.0000
# 5 0.0000 0.0000 0.0000 0.0000 13.8185 0.0000
# 6 0.0000 0.0000 0.0000 0.0000 0.0000 42.6243
#
#
#
# Elastic Compliance Matrix: (Units=1/GPa)
#
#
# Indices 1 2 3 4 5 6 
#
# 1 0.033784 -0.003905 0.003347 0.000000 0.000000 0.000000
# 2 -0.003905 0.007638 0.000062 0.000000 0.000000 0.000000
# 3 0.003347 0.000062 0.015066 0.000000 0.000000 0.000000
# 4 0.000000 0.000000 0.000000 0.121464 0.000000 0.000000
# 5 0.000000 0.000000 0.000000 0.000000 0.072367 0.000000
# 6 0.000000 0.000000 0.000000 0.000000 0.000000 0.023461
#
#
# Mechanical properties :
#
#
# Convention : Reuss Voigt Hill
#
# Bulk Modulus (GPa) = 18.01931 27.74987 22.88459
# Shear Modulus (GPa) = 17.04911 28.57273 22.81092
#
# Velocity S-wave (km/s) = 2.71181 3.51062 3.13674
# Velocity P-wave (km/s) = 4.19256 5.32936 4.79477
#
# Compressibility (1/GPa) = 0.05549601
#
# Stress axis : x y z
#
# Youngs Moduli (GPa) = 29.59970 130.91625 66.37598
#
# Poissons Ratio (x) = 0.51117 -0.22214
# Poissons Ratio (y) = 0.11557 -0.00410
# Poissons Ratio (z) = -0.09906 -0.00808
#
# Static dielectric constant tensor:
#      x y z
#    x 1.837020 0.000000 0.000000 
#    y 0.000000 1.881050 0.000000 
#    z 0.000000 0.000000 1.872510 
# 
# From -- ./inp_files/8396.got.cif
#   From: 2010.05.17/outbox.cif.g08.bks.cpg/sg58_5_cif.got.tgz:8396.got - 2010.06.03 14:20:14.
