data_PCOD9442363
_publ_section_title
;
Structure prediction by ZEFSAII (Michael W. Deem and Ramdas Pophale) SiO2 
 PCOD9442363
Probable space group: P N N M
;
_chemical_formula_sum "Si O2"
_cell_formula_units_Z 48
_cell_length_a 29.997491
_cell_length_b 7.705643
_cell_length_c 10.611412
_cell_angle_alpha 90.000000
_cell_angle_beta 90.000000
_cell_angle_gamma 90.000000
_cell_volume 2452.827423
_symmetry_space_group_name_H-M "P N N M"
_symmetry_group_IT_number 58
_symmetry_cell_setting 'orthorhombic'
loop_
_space_group_symop_operation_xyz
x,y,z
-x,-y,z
1/2+x,1/2-y,1/2-z
1/2-x,1/2+y,1/2-z
-x,-y,-z
x,y,-z
1/2-x,1/2+y,1/2+z
1/2+x,1/2-y,1/2+z
loop_
_atom_site_type_symbol
_atom_site_label
_atom_site_fract_x
_atom_site_fract_y
_atom_site_fract_z
Si Si1 0.441792 0.379108 0.645103
Si Si2 0.610189 0.273706 0.647140
Si Si3 0.978156 0.313323 0.363121
Si Si4 0.612150 0.903096 0.232113
Si Si5 0.296811 0.247648 0.855142
Si Si6 0.704299 0.459570 0.357026
O O1 0.456208 0.383978 0.500000
O O2 0.420545 0.562849 0.683556
O O3 0.479453 0.311831 0.742026
O O4 0.401893 0.235695 0.659285
O O5 0.601181 0.237505 0.500000
O O6 0.603995 0.098518 0.724031
O O7 0.661313 0.336713 0.657677
O O8 0.994038 0.249028 0.500000
O O9 0.925250 0.351055 0.368519
O O10 0.000000 0.500000 0.337364
O O11 0.661561 0.873327 0.182549
O O12 0.296591 0.400183 0.753156
O O13 0.250134 0.146745 0.848300
O O14 0.302599 0.308163 0.000000
O O15 0.701770 0.534513 0.500000
#
# Coordination Sequence:
#
# PCOD9442363 Si02
#       6
#     8   8   8   8   8   8
#     4   9  19  35  59  84 107 144 187 227 273 328
#     4  10  19  35  56  85 114 145 189 229 276 332
#     4   9  19  37  59  82 113 149 183 227 283 338
#     4  10  20  34  59  80 112 147 179 231 279 328
#     4  11  22  37  56  82 115 149 191 236 278 330
#     4  10  21  36  55  80 113 149 189 234 275 327
#
# _framework density 19.569254999999998
#
# number of rings (size 3 to 8) (size 9 to 14) (size 15 to 20)
#    1.000    1.167    1.667    2.000    0.000    1.667 
#    0.000    4.167    0.000    4.000    0.000    0.000 
#    0.000    0.000    0.000    0.000    0.000    0.000 
#
# Total GULP energy -267459.973710 kJ/mol
# GULP energy per Si atom -5572.082786 kJ/mol
# Density = 1.952471 g / cm^3
# Si number density = 19.569255 Si / 1000 Ang^3
#
#
#
# Elastic Constant Matrix: (Units=GPa)
#
#
# Indices 1 2 3 4 5 6 
#
# 1 61.6390 5.7757 15.3065 0.0000 0.0000 0.0000
# 2 5.7757 96.6958 60.8448 0.0000 0.0000 0.0000
# 3 15.3065 60.8448 113.3403 0.0000 0.0000 0.0000
# 4 0.0000 0.0000 0.0000 48.3529 0.0000 0.0000
# 5 0.0000 0.0000 0.0000 0.0000 -7.4495 0.0000
# 6 0.0000 0.0000 0.0000 0.0000 0.0000 27.5113
#
#
#
# Elastic Compliance Matrix: (Units=1/GPa)
#
#
# Indices 1 2 3 4 5 6 
#
# 1 0.016813 0.000641 -0.002615 0.000000 0.000000 0.000000
# 2 0.000641 0.015642 -0.008483 0.000000 0.000000 0.000000
# 3 -0.002615 -0.008483 0.013730 0.000000 0.000000 0.000000
# 4 0.000000 0.000000 0.000000 0.020681 0.000000 0.000000
# 5 0.000000 0.000000 0.000000 0.000000 -0.134237 0.000000
# 6 0.000000 0.000000 0.000000 0.000000 0.000000 0.036349
#
#
# Mechanical properties :
#
#
# Convention : Reuss Voigt Hill
#
# Bulk Modulus (GPa) = 39.57206 48.39211 43.98209
# Shear Modulus (GPa) = -2967.51473 26.33281 -1470.59096
#
# Velocity S-wave (km/s) = -38.98344 3.67225 -27.44288
# Velocity P-wave (km/s) = 44.78854 6.53933 31.33090
#
# Compressibility (1/GPa) = 0.02527035
#
# Stress axis : x y z
#
# Youngs Moduli (GPa) = 59.47875 63.93228 72.83163
#
# Poissons Ratio (x) = -0.04098 0.19043
# Poissons Ratio (y) = -0.03813 0.61786
# Poissons Ratio (z) = 0.15552 0.54237
#
# Static dielectric constant tensor:
#      x y z
#    x 1.700260 0.000000 0.000000 
#    y 0.000000 1.663330 0.000000 
#    z 0.000000 0.000000 1.698400 
# 
# From -- ./inp_files/10727.got.cif
#   From: 2010.05.17/outbox.cif.g08.bks.cpg/sg58_6_cif.got.tgz:10727.got - 2010.06.03 14:20:14.
