data_PCOD9442041
_publ_section_title
;
Structure prediction by ZEFSAII (Michael W. Deem and Ramdas Pophale) SiO2 
 PCOD9442041
Probable space group: P N N M
;
_chemical_formula_sum "Si O2"
_cell_formula_units_Z 56
_cell_length_a 22.317286
_cell_length_b 15.037874
_cell_length_c 7.680872
_cell_angle_alpha 90.000000
_cell_angle_beta 90.000000
_cell_angle_gamma 90.000000
_cell_volume 2577.735475
_symmetry_space_group_name_H-M "P N N M"
_symmetry_group_IT_number 58
_symmetry_cell_setting 'orthorhombic'
loop_
_space_group_symop_operation_xyz
x,y,z
-x,-y,z
1/2+x,1/2-y,1/2-z
1/2-x,1/2+y,1/2-z
-x,-y,-z
x,y,-z
1/2-x,1/2+y,1/2+z
1/2+x,1/2-y,1/2+z
loop_
_atom_site_type_symbol
_atom_site_label
_atom_site_fract_x
_atom_site_fract_y
_atom_site_fract_z
Si Si1 0.432842 0.484671 0.706834
Si Si2 0.728683 0.816248 0.701871
Si Si3 0.844949 0.484023 0.697069
Si Si4 0.637013 0.336509 0.211236
Si Si5 0.618903 0.700625 0.287849
Si Si6 0.589504 0.148531 0.210657
Si Si7 0.954039 0.371616 0.795863
O O1 0.500000 0.500000 0.778172
O O2 0.439580 0.469170 0.500000
O O3 0.393682 0.572595 0.731747
O O4 0.399549 0.396568 0.776252
O O5 0.736457 0.791304 0.500000
O O6 0.697167 0.912836 0.710282
O O7 0.794975 0.824501 0.776714
O O8 0.681026 0.745148 0.776468
O O9 0.822205 0.492845 0.500000
O O10 0.858460 0.581273 0.772318
O O11 0.910578 0.438303 0.696222
O O12 0.600512 0.249312 0.267408
O O13 0.637885 0.338063 0.000000
O O14 0.623156 0.697866 0.500000
O O15 0.567015 0.772132 0.246426
O O16 0.524014 0.117450 0.267215
O O17 0.591380 0.145757 0.000000
O O18 0.940438 0.384154 0.000000
#
# Coordination Sequence:
#
# PCOD9442041 Si02
#       7
#     8   8   8   8   8   8   8
#     4  10  20  35  56  82 109 138 178 225 270 322
#     4   9  19  37  56  75 103 140 181 220 263 317
#     4  10  20  34  54  79 107 139 174 213 258 311
#     4  10  22  38  54  75 106 141 178 224 270 312
#     4   8  16  32  54  76 101 137 175 212 259 315
#     4  10  21  35  51  75 108 142 172 208 260 315
#     4  10  19  33  55  81 108 138 172 211 256 309
#
# _framework density 21.724492999999999
#
# number of rings (size 3 to 8) (size 9 to 14) (size 15 to 20)
#    0.000    2.429    0.000    3.000    0.000    6.571 
#    0.000    6.429    0.000    0.000    0.000    0.000 
#    0.000    0.000    0.000    0.000    0.000    0.000 
#
# Total GULP energy -312613.185550 kJ/mol
# GULP energy per Si atom -5582.378313 kJ/mol
# Density = 2.167505 g / cm^3
# Si number density = 21.724493 Si / 1000 Ang^3
#
#
#
# Elastic Constant Matrix: (Units=GPa)
#
#
# Indices 1 2 3 4 5 6 
#
# 1 86.3715 5.0677 -3.3632 0.0000 0.0000 0.0000
# 2 5.0677 105.5857 -3.0279 0.0000 0.0000 0.0000
# 3 -3.3632 -3.0279 37.7405 0.0000 0.0000 0.0000
# 4 0.0000 0.0000 0.0000 17.8965 0.0000 0.0000
# 5 0.0000 0.0000 0.0000 0.0000 8.7684 0.0000
# 6 0.0000 0.0000 0.0000 0.0000 0.0000 10.9990
#
#
#
# Elastic Compliance Matrix: (Units=1/GPa)
#
#
# Indices 1 2 3 4 5 6 
#
# 1 0.011648 -0.000530 0.000995 0.000000 0.000000 0.000000
# 2 -0.000530 0.009517 0.000716 0.000000 0.000000 0.000000
# 3 0.000995 0.000716 0.026643 0.000000 0.000000 0.000000
# 4 0.000000 0.000000 0.000000 0.055877 0.000000 0.000000
# 5 0.000000 0.000000 0.000000 0.000000 0.114046 0.000000
# 6 0.000000 0.000000 0.000000 0.000000 0.000000 0.090918
#
#
# Mechanical properties :
#
#
# Convention : Reuss Voigt Hill
#
# Bulk Modulus (GPa) = 19.93219 25.22785 22.58002
# Shear Modulus (GPa) = 15.47943 22.93418 19.20680
#
# Velocity S-wave (km/s) = 2.67223 3.25265 2.97662
# Velocity P-wave (km/s) = 4.32620 5.07387 4.71488
#
# Compressibility (1/GPa) = 0.05017010
#
# Stress axis : x y z
#
# Youngs Moduli (GPa) = 85.85326 105.07530 37.53341
#
# Poissons Ratio (x) = 0.05574 -0.03736
# Poissons Ratio (y) = 0.04554 -0.02688
# Poissons Ratio (z) = -0.08546 -0.07526
#
# Static dielectric constant tensor:
#      x y z
#    x 1.768540 0.000000 0.000000 
#    y 0.000000 1.790350 0.000000 
#    z 0.000000 0.000000 1.815230 
# 
# From -- ./inp_files/6396.got.cif
#   From: 2010.05.17/outbox.cif.g08.bks.cpg/sg58_4_cif.got.tgz:6396.got - 2010.06.03 14:20:14.
