data_PCOD9442476
_publ_section_title
;
Structure prediction by ZEFSAII (Michael W. Deem and Ramdas Pophale) SiO2 
 PCOD9442476
Probable space group: P N N M
;
_chemical_formula_sum "Si O2"
_cell_formula_units_Z 64
_cell_length_a 15.719290
_cell_length_b 23.859382
_cell_length_c 8.043654
_cell_angle_alpha 90.000000
_cell_angle_beta 90.000000
_cell_angle_gamma 90.000000
_cell_volume 3016.792903
_symmetry_space_group_name_H-M "P N N M"
_symmetry_group_IT_number 58
_symmetry_cell_setting 'orthorhombic'
loop_
_space_group_symop_operation_xyz
x,y,z
-x,-y,z
1/2+x,1/2-y,1/2-z
1/2-x,1/2+y,1/2-z
-x,-y,-z
x,y,-z
1/2-x,1/2+y,1/2+z
1/2+x,1/2-y,1/2+z
loop_
_atom_site_type_symbol
_atom_site_label
_atom_site_fract_x
_atom_site_fract_y
_atom_site_fract_z
Si Si1 0.100763 0.878444 0.297880
Si Si2 0.570105 0.858958 0.194458
Si Si3 0.346694 0.253281 0.202411
Si Si4 0.750281 0.039403 0.810226
Si Si5 0.109879 0.376675 0.806459
Si Si6 0.586255 0.365060 0.802823
Si Si7 0.260855 0.083095 0.692442
Si Si8 0.348681 0.750343 0.299014
O O1 0.102486 0.879382 0.500000
O O2 0.128682 0.815780 0.245215
O O3 0.167710 0.923598 0.235145
O O4 0.003949 0.887362 0.239316
O O5 0.591301 0.796290 0.259331
O O6 0.490308 0.886088 0.286179
O O7 0.656639 0.893583 0.215349
O O8 0.548127 0.855512 0.000000
O O9 0.249505 0.240368 0.251281
O O10 0.348466 0.252499 0.000000
O O11 0.668553 0.079049 0.785897
O O12 0.743164 0.983775 0.701740
O O13 0.755700 0.020816 0.000000
O O14 0.126792 0.313070 0.746905
O O15 0.135115 0.378872 0.000000
O O16 0.672677 0.392347 0.735194
O O17 0.593346 0.298525 0.774006
O O18 0.586356 0.375975 0.000000
O O19 0.268339 0.101107 0.500000
O O20 0.353812 0.747632 0.500000
#
# Coordination Sequence:
#
# PCOD9442476 Si02
#       8
#     8   8   8   8   8   8   8   8
#     4  10  20  40  64  89 124 163 200 242 300 361
#     4  11  22  39  64  94 126 160 202 251 300 356
#     4   9  17  33  60  90 124 163 195 236 299 358
#     4  12  26  43  63  89 117 156 208 258 304 354
#     4  11  23  41  64  91 125 163 200 245 303 364
#     4  10  22  38  63  94 123 159 203 249 298 359
#     4  11  24  43  63  88 121 161 206 252 305 363
#     4  10  19  35  61  91 124 163 199 240 301 362
#
# _framework density 21.214582
#
# number of rings (size 3 to 8) (size 9 to 14) (size 15 to 20)
#    0.000    1.500    2.500    3.000    0.000    4.000 
#    0.000    6.250    0.000    0.000    0.000    0.000 
#    0.000    0.000    0.000    0.000    0.000    0.000 
#
# Total GULP energy -357839.791927 kJ/mol
# GULP energy per Si atom -5591.246749 kJ/mol
# Density = 2.116630 g / cm^3
# Si number density = 21.214582 Si / 1000 Ang^3
#
#
#
# Elastic Constant Matrix: (Units=GPa)
#
#
# Indices 1 2 3 4 5 6 
#
# 1 102.4943 15.1770 -3.5959 0.0000 0.0000 0.0000
# 2 15.1770 77.2383 -12.6396 0.0000 0.0000 0.0000
# 3 -3.5959 -12.6396 25.6063 0.0000 0.0000 0.0000
# 4 0.0000 0.0000 0.0000 24.3071 0.0000 0.0000
# 5 0.0000 0.0000 0.0000 0.0000 22.9481 0.0000
# 6 0.0000 0.0000 0.0000 0.0000 0.0000 3.8705
#
#
#
# Elastic Compliance Matrix: (Units=1/GPa)
#
#
# Indices 1 2 3 4 5 6 
#
# 1 0.010054 -0.001898 0.000475 0.000000 0.000000 0.000000
# 2 -0.001898 0.014443 0.006863 0.000000 0.000000 0.000000
# 3 0.000475 0.006863 0.042507 0.000000 0.000000 0.000000
# 4 0.000000 0.000000 0.000000 0.041140 0.000000 0.000000
# 5 0.000000 0.000000 0.000000 0.000000 0.043577 0.000000
# 6 0.000000 0.000000 0.000000 0.000000 0.000000 0.258366
#
#
# Mechanical properties :
#
#
# Convention : Reuss Voigt Hill
#
# Bulk Modulus (GPa) = 12.83957 22.58022 17.70990
# Shear Modulus (GPa) = 11.76003 23.98497 17.87250
#
# Velocity S-wave (km/s) = 2.35699 3.36607 2.90567
# Velocity P-wave (km/s) = 3.67050 5.07682 4.42982
#
# Compressibility (1/GPa) = 0.07788421
#
# Stress axis : x y z
#
# Youngs Moduli (GPa) = 99.45957 69.23816 23.52546
#
# Poissons Ratio (x) = 0.13141 -0.01118
# Poissons Ratio (y) = 0.18876 -0.16145
# Poissons Ratio (z) = -0.04726 -0.47516
#
# Static dielectric constant tensor:
#      x y z
#    x 1.765660 0.000000 0.000000 
#    y 0.000000 1.732780 0.000000 
#    z 0.000000 0.000000 1.741680 
# 
# From -- ./inp_files/6940.got.cif
#   From: 2010.05.17/outbox.cif.g08.bks.cpg/sg58_4_cif.got.tgz:6940.got - 2010.06.03 14:20:14.
