data_PCOD9442008
_publ_section_title
;
Structure prediction by ZEFSAII (Michael W. Deem and Ramdas Pophale) SiO2 
 PCOD9442008
Probable space group: P N N M
;
_chemical_formula_sum "Si O2"
_cell_formula_units_Z 56
_cell_length_a 11.261789
_cell_length_b 21.719325
_cell_length_c 13.209182
_cell_angle_alpha 90.000000
_cell_angle_beta 90.000000
_cell_angle_gamma 90.000000
_cell_volume 3230.945514
_symmetry_space_group_name_H-M "P N N M"
_symmetry_group_IT_number 58
_symmetry_cell_setting 'orthorhombic'
loop_
_space_group_symop_operation_xyz
x,y,z
-x,-y,z
1/2+x,1/2-y,1/2-z
1/2-x,1/2+y,1/2-z
-x,-y,-z
x,y,-z
1/2-x,1/2+y,1/2+z
1/2+x,1/2-y,1/2+z
loop_
_atom_site_type_symbol
_atom_site_label
_atom_site_fract_x
_atom_site_fract_y
_atom_site_fract_z
Si Si1 0.607602 0.363877 0.248254
Si Si2 0.085410 0.808147 0.882207
Si Si3 0.020487 0.570038 0.239470
Si Si4 0.757387 0.455266 0.617913
Si Si5 0.246475 0.413325 0.706915
Si Si6 0.925442 0.063259 0.382713
Si Si7 0.331761 0.167793 0.382708
O O1 0.536254 0.319715 0.322696
O O2 0.658025 0.419802 0.316699
O O3 0.514506 0.387157 0.164868
O O4 0.717526 0.335802 0.188905
O O5 0.184635 0.853681 0.834389
O O6 0.118471 0.736674 0.875072
O O7 0.072631 0.824435 0.000000
O O8 0.116171 0.562362 0.330636
O O9 0.078038 0.616029 0.158534
O O10 0.000000 0.500000 0.200882
O O11 0.893499 0.595384 0.275731
O O12 0.753505 0.438766 0.500000
O O13 0.740021 0.528311 0.632437
O O14 0.310013 0.434960 0.811326
O O15 0.896645 0.074129 0.500000
O O16 0.000000 0.000000 0.375681
O O17 0.302012 0.155248 0.500000
#
# Coordination Sequence:
#
# PCOD9442008 Si02
#       7
#     8   8   8   8   8   8   8
#     4  10  20  37  57  79 111 142 180 224 272 322
#     4  10  22  36  57  82 108 146 184 223 270 324
#     4   9  21  37  56  83 111 143 181 228 280 319
#     4  10  19  34  57  84 113 144 178 222 274 327
#     4  10  20  35  55  83 113 143 180 223 272 322
#     4  10  19  33  54  80 109 140 174 220 271 320
#     4  10  22  39  58  80 108 146 186 224 272 327
#
# _framework density 17.332388000000002
#
# number of rings (size 3 to 8) (size 9 to 14) (size 15 to 20)
#    0.000    2.143    1.429    1.286    2.000    4.000 
#    0.000    2.143    0.000    4.286    0.000    0.000 
#    0.000    0.000    0.000    0.000    0.000    0.000 
#
# Total GULP energy -312332.943857 kJ/mol
# GULP energy per Si atom -5577.373997 kJ/mol
# Density = 1.729294 g / cm^3
# Si number density = 17.332388 Si / 1000 Ang^3
#
#
#
# Elastic Constant Matrix: (Units=GPa)
#
#
# Indices 1 2 3 4 5 6 
#
# 1 51.3111 18.2207 29.0614 0.0000 0.0000 0.0000
# 2 18.2207 64.9729 46.6204 0.0000 0.0000 0.0000
# 3 29.0614 46.6204 120.7331 0.0000 0.0000 0.0000
# 4 0.0000 0.0000 0.0000 26.9002 0.0000 0.0000
# 5 0.0000 0.0000 0.0000 0.0000 15.8251 0.0000
# 6 0.0000 0.0000 0.0000 0.0000 0.0000 14.1880
#
#
#
# Elastic Compliance Matrix: (Units=1/GPa)
#
#
# Indices 1 2 3 4 5 6 
#
# 1 0.023109 -0.003443 -0.004233 0.000000 0.000000 0.000000
# 2 -0.003443 0.021803 -0.007590 0.000000 0.000000 0.000000
# 3 -0.004233 -0.007590 0.012233 0.000000 0.000000 0.000000
# 4 0.000000 0.000000 0.000000 0.037174 0.000000 0.000000
# 5 0.000000 0.000000 0.000000 0.000000 0.063191 0.000000
# 6 0.000000 0.000000 0.000000 0.000000 0.000000 0.070482
#
#
# Mechanical properties :
#
#
# Convention : Reuss Voigt Hill
#
# Bulk Modulus (GPa) = 37.57758 47.20246 42.39002
# Shear Modulus (GPa) = 18.69892 20.92365 19.81128
#
# Velocity S-wave (km/s) = 3.28814 3.47825 3.38453
# Velocity P-wave (km/s) = 6.01194 6.58967 6.30742
#
# Compressibility (1/GPa) = 0.02661162
#
# Stress axis : x y z
#
# Youngs Moduli (GPa) = 43.27300 45.86541 81.74903
#
# Poissons Ratio (x) = 0.15793 0.34604
# Poissons Ratio (y) = 0.14900 0.62049
# Poissons Ratio (z) = 0.18317 0.34813
#
# Static dielectric constant tensor:
#      x y z
#    x 1.582280 0.000000 0.000000 
#    y 0.000000 1.577520 0.000000 
#    z 0.000000 0.000000 1.569600 
# 
# From -- ./inp_files/14776.got.cif
#   From: 2010.05.17/outbox.cif.g08.bks.cpg/sg58_8_cif.got.tgz:14776.got - 2010.06.03 14:20:14.
