data_PCOD9442907
_publ_section_title
;
Structure prediction by ZEFSAII (Michael W. Deem and Ramdas Pophale) SiO2 
 PCOD9442907
Probable space group: P N N M
;
_chemical_formula_sum "Si O2"
_cell_formula_units_Z 56
_cell_length_a 14.405492
_cell_length_b 20.718175
_cell_length_c 9.600301
_cell_angle_alpha 90.000000
_cell_angle_beta 90.000000
_cell_angle_gamma 90.000000
_cell_volume 2865.262676
_symmetry_space_group_name_H-M "P N N M"
_symmetry_group_IT_number 58
_symmetry_cell_setting 'orthorhombic'
loop_
_space_group_symop_operation_xyz
x,y,z
-x,-y,z
1/2+x,1/2-y,1/2-z
1/2-x,1/2+y,1/2-z
-x,-y,-z
x,y,-z
1/2-x,1/2+y,1/2+z
1/2+x,1/2-y,1/2+z
loop_
_atom_site_type_symbol
_atom_site_label
_atom_site_fract_x
_atom_site_fract_y
_atom_site_fract_z
Si Si1 0.330927 0.852479 0.833777
Si Si2 0.984250 0.746582 0.339782
Si Si3 0.573406 0.558062 0.849859
Si Si4 0.451630 0.636372 0.660229
Si Si5 0.748188 0.900557 0.162603
Si Si6 0.711487 0.020842 0.338278
Si Si7 0.294935 0.249618 0.834751
O O1 0.433575 0.821495 0.818657
O O2 0.327359 0.920420 0.753831
O O3 0.259326 0.801950 0.759321
O O4 0.310656 0.858489 0.000000
O O5 0.966506 0.764081 0.500000
O O6 0.935625 0.797877 0.241333
O O7 0.093928 0.750981 0.314934
O O8 0.500000 0.500000 0.851113
O O9 0.541184 0.603157 0.725973
O O10 0.677608 0.534062 0.839793
O O11 0.564067 0.592702 0.000000
O O12 0.465204 0.650035 0.500000
O O13 0.360021 0.592575 0.675244
O O14 0.729919 0.825308 0.194138
O O15 0.699442 0.951915 0.262762
O O16 0.723355 0.911532 0.000000
O O17 0.680417 0.021198 0.500000
O O18 0.274905 0.262022 0.000000
#
# Coordination Sequence:
#
# PCOD9442907 Si02
#       7
#     8   8   8   8   8   8   8
#     4  11  23  39  60  89 121 153 194 245 296 346
#     4  10  22  39  61  85 114 154 197 237 286 353
#     4  10  20  34  51  76 111 150 188 225 277 352
#     4  11  21  33  55  85 115 147 185 238 293 340
#     4  10  21  37  58  84 115 150 191 240 290 342
#     4  11  23  38  58  82 115 158 197 237 292 353
#     4  10  21  41  64  87 117 157 200 240 290 351
#
# _framework density 19.544454999999999
#
# number of rings (size 3 to 8) (size 9 to 14) (size 15 to 20)
#    0.000    1.571    2.857    2.143    0.000    7.143 
#    0.000    0.714    0.000    4.286    0.000    0.000 
#    0.000    0.000    0.000    0.000    0.000    0.000 
#
# Total GULP energy -312532.161527 kJ/mol
# GULP energy per Si atom -5580.931456 kJ/mol
# Density = 1.949997 g / cm^3
# Si number density = 19.544455 Si / 1000 Ang^3
#
#
#
# Elastic Constant Matrix: (Units=GPa)
#
#
# Indices 1 2 3 4 5 6 
#
# 1 20.0330 3.7267 26.3577 0.0000 0.0000 0.0000
# 2 3.7267 86.0701 57.6516 0.0000 0.0000 0.0000
# 3 26.3577 57.6516 105.4715 0.0000 0.0000 0.0000
# 4 0.0000 0.0000 0.0000 32.4431 0.0000 0.0000
# 5 0.0000 0.0000 0.0000 0.0000 37.2982 0.0000
# 6 0.0000 0.0000 0.0000 0.0000 0.0000 25.3235
#
#
#
# Elastic Compliance Matrix: (Units=1/GPa)
#
#
# Indices 1 2 3 4 5 6 
#
# 1 0.088066 0.017241 -0.031432 0.000000 0.000000 0.000000
# 2 0.017241 0.021705 -0.016172 0.000000 0.000000 0.000000
# 3 -0.031432 -0.016172 0.026176 0.000000 0.000000 0.000000
# 4 0.000000 0.000000 0.000000 0.030823 0.000000 0.000000
# 5 0.000000 0.000000 0.000000 0.000000 0.026811 0.000000
# 6 0.000000 0.000000 0.000000 0.000000 0.000000 0.039489
#
#
# Mechanical properties :
#
#
# Convention : Reuss Voigt Hill
#
# Bulk Modulus (GPa) = 13.29442 43.00518 28.14980
# Shear Modulus (GPa) = 15.68035 27.26887 21.47461
#
# Velocity S-wave (km/s) = 2.83555 3.73932 3.31835
# Velocity P-wave (km/s) = 4.18776 6.37926 5.39594
#
# Compressibility (1/GPa) = 0.07521951
#
# Stress axis : x y z
#
# Youngs Moduli (GPa) = 11.35511 46.07321 38.20267
#
# Poissons Ratio (x) = -0.79434 1.20078
# Poissons Ratio (y) = -0.19577 0.61783
# Poissons Ratio (z) = 0.35691 0.74512
#
# Static dielectric constant tensor:
#      x y z
#    x 1.701450 0.000000 0.000000 
#    y 0.000000 1.707140 0.000000 
#    z 0.000000 0.000000 1.676110 
# 
# From -- ./inp_files/6400.got.cif
#   From: 2010.05.17/outbox.cif.g08.bks.cpg/sg58_4_cif.got.tgz:6400.got - 2010.06.03 14:20:14.
