data_PCOD9442024
_publ_section_title
;
Structure prediction by ZEFSAII (Michael W. Deem and Ramdas Pophale) SiO2 
 PCOD9442024
Probable space group: P N N M
;
_chemical_formula_sum "Si O2"
_cell_formula_units_Z 64
_cell_length_a 14.857673
_cell_length_b 25.462018
_cell_length_c 8.822741
_cell_angle_alpha 90.000000
_cell_angle_beta 90.000000
_cell_angle_gamma 90.000000
_cell_volume 3337.698833
_symmetry_space_group_name_H-M "P N N M"
_symmetry_group_IT_number 58
_symmetry_cell_setting 'orthorhombic'
loop_
_space_group_symop_operation_xyz
x,y,z
-x,-y,z
1/2+x,1/2-y,1/2-z
1/2-x,1/2+y,1/2-z
-x,-y,-z
x,y,-z
1/2-x,1/2+y,1/2+z
1/2+x,1/2-y,1/2+z
loop_
_atom_site_type_symbol
_atom_site_label
_atom_site_fract_x
_atom_site_fract_y
_atom_site_fract_z
Si Si1 0.750179 0.339062 0.319332
Si Si2 0.235919 0.270853 0.677416
Si Si3 0.952141 0.215886 0.176542
Si Si4 0.710599 0.547430 0.318099
Si Si5 0.150274 0.061611 0.319229
Si Si6 0.959998 0.105054 0.680779
Si Si7 0.864099 0.622970 0.315803
Si Si8 0.541270 0.826996 0.182493
O O1 0.742891 0.344505 0.500000
O O2 0.715222 0.281901 0.268704
O O3 0.698997 0.386109 0.238773
O O4 0.856245 0.340282 0.275742
O O5 0.214079 0.262201 0.500000
O O6 0.342983 0.281547 0.687423
O O7 0.185443 0.323071 0.730435
O O8 0.981710 0.164007 0.264946
O O9 0.984218 0.270648 0.247462
O O10 0.976779 0.211947 0.000000
O O11 0.709937 0.545956 0.500000
O O12 0.692961 0.489799 0.254389
O O13 0.629250 0.584399 0.262253
O O14 0.804253 0.573915 0.265227
O O15 0.157216 0.057939 0.500000
O O16 0.044663 0.068086 0.281125
O O17 0.946794 0.104370 0.500000
O O18 0.861932 0.621867 0.500000
O O19 0.967818 0.629739 0.270614
O O20 0.538831 0.821762 0.000000
#
# Coordination Sequence:
#
# PCOD9442024 Si02
#       8
#     8   8   8   8   8   8   8   8
#     4  10  21  37  57  85 115 147 193 245 284 325
#     4   9  17  33  55  80 115 154 184 222 283 346
#     4  10  19  33  54  84 118 150 188 232 280 331
#     4  11  22  40  63  88 115 147 190 242 288 337
#     4  11  25  42  59  80 111 157 198 235 289 349
#     4  11  23  38  57  82 115 154 192 229 281 348
#     4   9  18  35  59  85 115 152 188 225 285 350
#     4   9  19  36  58  84 117 153 190 231 282 345
#
# _framework density 19.174887999999999
#
# number of rings (size 3 to 8) (size 9 to 14) (size 15 to 20)
#    0.000    2.000    1.250    2.250    1.750    4.500 
#    0.000    1.875    0.000    3.750    0.000    0.000 
#    0.000    0.000    0.000    0.000    0.000    0.000 
#
# Total GULP energy -357487.104973 kJ/mol
# GULP energy per Si atom -5585.736015 kJ/mol
# Density = 1.913125 g / cm^3
# Si number density = 19.174888 Si / 1000 Ang^3
#
#
#
# Elastic Constant Matrix: (Units=GPa)
#
#
# Indices 1 2 3 4 5 6 
#
# 1 26.9979 0.8193 9.3214 0.0000 0.0000 0.0000
# 2 0.8193 58.3558 9.2727 0.0000 0.0000 0.0000
# 3 9.3214 9.2727 27.5003 0.0000 0.0000 0.0000
# 4 0.0000 0.0000 0.0000 34.1986 0.0000 0.0000
# 5 0.0000 0.0000 0.0000 0.0000 19.7749 0.0000
# 6 0.0000 0.0000 0.0000 0.0000 0.0000 27.0110
#
#
#
# Elastic Compliance Matrix: (Units=1/GPa)
#
#
# Indices 1 2 3 4 5 6 
#
# 1 0.042122 0.001772 -0.014875 0.000000 0.000000 0.000000
# 2 0.001772 0.018181 -0.006731 0.000000 0.000000 0.000000
# 3 -0.014875 -0.006731 0.043675 0.000000 0.000000 0.000000
# 4 0.000000 0.000000 0.000000 0.029241 0.000000 0.000000
# 5 0.000000 0.000000 0.000000 0.000000 0.050569 0.000000
# 6 0.000000 0.000000 0.000000 0.000000 0.000000 0.037022
#
#
# Mechanical properties :
#
#
# Convention : Reuss Voigt Hill
#
# Bulk Modulus (GPa) = 15.54968 16.85341 16.20154
# Shear Modulus (GPa) = 17.73588 22.42626 20.08107
#
# Velocity S-wave (km/s) = 3.04460 3.42360 3.23965
# Velocity P-wave (km/s) = 4.52620 4.94332 4.73935
#
# Compressibility (1/GPa) = 0.06431002
#
# Stress axis : x y z
#
# Youngs Moduli (GPa) = 23.74058 55.00265 22.89644
#
# Poissons Ratio (x) = -0.09748 0.34059
# Poissons Ratio (y) = -0.04208 0.15412
# Poissons Ratio (z) = 0.35314 0.37023
#
# Static dielectric constant tensor:
#      x y z
#    x 1.698470 0.000000 0.000000 
#    y 0.000000 1.640040 0.000000 
#    z 0.000000 0.000000 1.641150 
# 
# From -- ./inp_files/6828.got.cif
#   From: 2010.05.17/outbox.cif.g08.bks.cpg/sg58_4_cif.got.tgz:6828.got - 2010.06.03 14:20:14.
