data_PCOD9442761
_publ_section_title
;
Structure prediction by ZEFSAII (Michael W. Deem and Ramdas Pophale) SiO2 
 PCOD9442761
Probable space group: P N N M
;
_chemical_formula_sum "Si O2"
_cell_formula_units_Z 48
_cell_length_a 5.043849
_cell_length_b 16.420436
_cell_length_c 31.267038
_cell_angle_alpha 90.000000
_cell_angle_beta 90.000000
_cell_angle_gamma 90.000000
_cell_volume 2589.604865
_symmetry_space_group_name_H-M "P N N M"
_symmetry_group_IT_number 58
_symmetry_cell_setting 'orthorhombic'
loop_
_space_group_symop_operation_xyz
x,y,z
-x,-y,z
1/2+x,1/2-y,1/2-z
1/2-x,1/2+y,1/2-z
-x,-y,-z
x,y,-z
1/2-x,1/2+y,1/2+z
1/2+x,1/2-y,1/2+z
loop_
_atom_site_type_symbol
_atom_site_label
_atom_site_fract_x
_atom_site_fract_y
_atom_site_fract_z
Si Si1 0.893347 0.680184 0.335627
Si Si2 0.239812 0.944466 0.665945
Si Si3 0.877846 0.819683 0.952256
Si Si4 0.629023 0.088427 0.923976
Si Si5 0.740769 0.556206 0.735486
Si Si6 0.904010 0.728602 0.864471
O O1 0.854970 0.615640 0.374395
O O2 0.810198 0.634328 0.292743
O O3 0.691005 0.754280 0.344201
O O4 0.191707 0.712806 0.340490
O O5 0.176012 0.921449 0.715424
O O6 0.302369 0.862486 0.640769
O O7 0.500000 0.000000 0.666425
O O8 0.000000 0.000000 0.649465
O O9 0.579455 0.851539 0.946689
O O10 0.921894 0.756516 0.913770
O O11 0.082947 0.894063 0.943606
O O12 0.921005 0.788341 0.000000
O O13 0.500000 0.000000 0.927766
O O14 0.500000 0.500000 0.718540
O O15 0.000000 0.500000 0.735333
#
# Coordination Sequence:
#
# PCOD9442761 Si02
#       6
#     8   8   8   8   8   8
#     4  10  20  33  51  76 106 139 173 207 245 292
#     4  10  21  37  56  77 101 131 167 211 263 312
#     4  10  21  35  51  73 101 134 170 211 258 301
#     4  10  20  32  49  74 104 139 174 206 242 290
#     4  10  20  33  51  76 107 141 173 206 245 290
#     4  10  21  36  54  76 101 133 171 211 259 308
#
# _framework density 18.535646
#
# number of rings (size 3 to 8) (size 9 to 14) (size 15 to 20)
#    0.000    2.000    0.000    3.500    0.000    6.000 
#    0.000    0.000    0.000    1.000    0.000    0.000 
#    0.000    0.000    0.000    0.000    0.000    0.000 
#
# Total GULP energy -267959.924500 kJ/mol
# GULP energy per Si atom -5582.498427 kJ/mol
# Density = 1.849346 g / cm^3
# Si number density = 18.535646 Si / 1000 Ang^3
#
#
#
# Elastic Constant Matrix: (Units=GPa)
#
#
# Indices 1 2 3 4 5 6 
#
# 1 78.7816 1.0518 8.4891 0.0000 0.0000 0.0000
# 2 1.0518 83.3501 48.2000 0.0000 0.0000 0.0000
# 3 8.4891 48.2000 57.4046 0.0000 0.0000 0.0000
# 4 0.0000 0.0000 0.0000 1.4769 0.0000 0.0000
# 5 0.0000 0.0000 0.0000 0.0000 30.6640 0.0000
# 6 0.0000 0.0000 0.0000 0.0000 0.0000 29.9661
#
#
#
# Elastic Compliance Matrix: (Units=1/GPa)
#
#
# Indices 1 2 3 4 5 6 
#
# 1 0.013044 0.001848 -0.003481 0.000000 0.000000 0.000000
# 2 0.001848 0.023583 -0.020075 0.000000 0.000000 0.000000
# 3 -0.003481 -0.020075 0.034791 0.000000 0.000000 0.000000
# 4 0.000000 0.000000 0.000000 0.677079 0.000000 0.000000
# 5 0.000000 0.000000 0.000000 0.000000 0.032612 0.000000
# 6 0.000000 0.000000 0.000000 0.000000 0.000000 0.033371
#
#
# Mechanical properties :
#
#
# Convention : Reuss Voigt Hill
#
# Bulk Modulus (GPa) = 35.71076 37.22424 36.46750
# Shear Modulus (GPa) = 5.76548 23.20775 14.48662
#
# Velocity S-wave (km/s) = 1.76557 3.54229 2.79866
# Velocity P-wave (km/s) = 4.84398 6.07095 5.49184
#
# Compressibility (1/GPa) = 0.02800277
#
# Stress axis : x y z
#
# Youngs Moduli (GPa) = 76.66517 42.40253 28.74282
#
# Poissons Ratio (x) = -0.07838 0.10005
# Poissons Ratio (y) = -0.14171 0.57702
# Poissons Ratio (z) = 0.26687 0.85124
#
# Static dielectric constant tensor:
#      x y z
#    x 1.673910 0.000000 0.000000 
#    y 0.000000 1.614760 0.000000 
#    z 0.000000 0.000000 1.651090 
# 
# From -- ./inp_files/34163.got.cif
#   From: 2010.05.17/outbox.cif.g08.bks.cpg/sg58_18_cif.got.tgz:34163.got - 2010.06.03 14:20:14.
