data_PCOD9442899
_publ_section_title
;
Structure prediction by ZEFSAII (Michael W. Deem and Ramdas Pophale) SiO2 
 PCOD9442899
Probable space group: P N N M
;
_chemical_formula_sum "Si O2"
_cell_formula_units_Z 64
_cell_length_a 13.363649
_cell_length_b 8.940871
_cell_length_c 21.677236
_cell_angle_alpha 90.000000
_cell_angle_beta 90.000000
_cell_angle_gamma 90.000000
_cell_volume 2590.053858
_symmetry_space_group_name_H-M "P N N M"
_symmetry_group_IT_number 58
_symmetry_cell_setting 'orthorhombic'
loop_
_space_group_symop_operation_xyz
x,y,z
-x,-y,z
1/2+x,1/2-y,1/2-z
1/2-x,1/2+y,1/2-z
-x,-y,-z
x,y,-z
1/2-x,1/2+y,1/2+z
1/2+x,1/2-y,1/2+z
loop_
_atom_site_type_symbol
_atom_site_label
_atom_site_fract_x
_atom_site_fract_y
_atom_site_fract_z
Si Si1 0.341959 0.341037 0.401871
Si Si2 0.353721 0.648971 0.925116
Si Si3 0.618807 0.642694 0.736956
Si Si4 0.043370 0.343239 0.245810
Si Si5 0.533266 0.163533 0.405335
Si Si6 0.926288 0.182117 0.427200
Si Si7 0.726225 0.342888 0.596660
Si Si8 0.717713 0.346644 0.745041
O O1 0.248028 0.225009 0.399530
O O2 0.383139 0.392806 0.334821
O O3 0.442474 0.268266 0.427682
O O4 0.301457 0.494762 0.429198
O O5 0.460951 0.722382 0.905977
O O6 0.377157 0.476424 0.906699
O O7 0.341648 0.656380 0.000000
O O8 0.514006 0.689983 0.764443
O O9 0.674698 0.503834 0.767390
O O10 0.671594 0.805329 0.736146
O O11 0.037189 0.342871 0.170507
O O12 0.000000 0.500000 0.268985
O O13 0.154990 0.299993 0.265244
O O14 0.642033 0.223954 0.424569
O O15 0.500000 0.000000 0.425535
O O16 0.939867 0.160547 0.500000
O O17 0.840036 0.301710 0.417126
O O18 0.719611 0.344657 0.671051
#
# Coordination Sequence:
#
# PCOD9442899 Si02
#       8
#     8   8   8   8   8   8   8   8
#     4  10  20  34  54  81 110 139 176 224 273 322
#     4   9  19  37  59  81 107 142 183 224 268 324
#     4  10  20  34  51  74 104 140 178 218 264 317
#     4   9  17  31  51  72  96 131 172 214 260 314
#     4   9  17  31  54  78 103 139 175 211 259 318
#     4   9  19  37  59  81 107 142 183 224 268 324
#     4  10  20  34  54  81 110 139 176 224 273 322
#     4  10  20  34  51  74 104 140 178 218 264 317
#
# _framework density 24.709911999999999
#
# number of rings (size 3 to 8) (size 9 to 14) (size 15 to 20)
#    0.000    2.500    0.000    3.000    0.000    7.000 
#    2.250    1.875    0.000    3.750    0.000    0.000 
#    0.000    0.000    0.000    0.000    0.000    0.000 
#
# Total GULP energy -357064.391244 kJ/mol
# GULP energy per Si atom -5579.131113 kJ/mol
# Density = 2.465367 g / cm^3
# Si number density = 24.709912 Si / 1000 Ang^3
#
#
#
# Elastic Constant Matrix: (Units=GPa)
#
#
# Indices 1 2 3 4 5 6 
#
# 1 99.7994 0.9072 -7.7973 0.0000 0.0000 0.0000
# 2 0.9072 54.8630 -18.0222 0.0000 0.0000 0.0000
# 3 -7.7973 -18.0222 73.3450 0.0000 0.0000 0.0000
# 4 0.0000 0.0000 0.0000 73.0220 0.0000 0.0000
# 5 0.0000 0.0000 0.0000 0.0000 17.9094 0.0000
# 6 0.0000 0.0000 0.0000 0.0000 0.0000 49.9551
#
#
#
# Elastic Compliance Matrix: (Units=1/GPa)
#
#
# Indices 1 2 3 4 5 6 
#
# 1 0.010106 0.000202 0.001124 0.000000 0.000000 0.000000
# 2 0.000202 0.019832 0.004894 0.000000 0.000000 0.000000
# 3 0.001124 0.004894 0.014956 0.000000 0.000000 0.000000
# 4 0.000000 0.000000 0.000000 0.013695 0.000000 0.000000
# 5 0.000000 0.000000 0.000000 0.000000 0.055837 0.000000
# 6 0.000000 0.000000 0.000000 0.000000 0.000000 0.020018
#
#
# Mechanical properties :
#
#
# Convention : Reuss Voigt Hill
#
# Bulk Modulus (GPa) = 17.44121 19.79809 18.61965
# Shear Modulus (GPa) = 35.43240 45.03861 40.23550
#
# Velocity S-wave (km/s) = 3.79084 4.27393 4.03962
# Velocity P-wave (km/s) = 5.12195 5.69078 5.41384
#
# Compressibility (1/GPa) = 0.05733546
#
# Stress axis : x y z
#
# Youngs Moduli (GPa) = 98.95030 50.42433 66.86125
#
# Poissons Ratio (x) = -0.01019 -0.07516
# Poissons Ratio (y) = -0.02000 -0.32725
# Poissons Ratio (z) = -0.11123 -0.24680
#
# Static dielectric constant tensor:
#      x y z
#    x 2.379450 0.000000 0.000000 
#    y 0.000000 1.960900 0.000000 
#    z 0.000000 0.000000 1.981050 
# 
# From -- ./inp_files/34934.got.cif
#   From: 2010.05.17/outbox.cif.g08.bks.cpg/sg58_18_cif.got.tgz:34934.got - 2010.06.03 14:20:14.
