data_PCOD9442548
_publ_section_title
;
Structure prediction by ZEFSAII (Michael W. Deem and Ramdas Pophale) SiO2 
 PCOD9442548
Probable space group: P N N M
;
_chemical_formula_sum "Si O2"
_cell_formula_units_Z 36
_cell_length_a 12.477133
_cell_length_b 14.451085
_cell_length_c 9.502142
_cell_angle_alpha 90.000000
_cell_angle_beta 90.000000
_cell_angle_gamma 90.000000
_cell_volume 1713.313261
_symmetry_space_group_name_H-M "P N N M"
_symmetry_group_IT_number 58
_symmetry_cell_setting 'orthorhombic'
loop_
_space_group_symop_operation_xyz
x,y,z
-x,-y,z
1/2+x,1/2-y,1/2-z
1/2-x,1/2+y,1/2-z
-x,-y,-z
x,y,-z
1/2-x,1/2+y,1/2+z
1/2+x,1/2-y,1/2+z
loop_
_atom_site_type_symbol
_atom_site_label
_atom_site_fract_x
_atom_site_fract_y
_atom_site_fract_z
Si Si1 0.679871 0.366726 0.336478
Si Si2 0.589848 0.862066 0.162217
Si Si3 0.140006 0.321795 0.330088
Si Si4 0.162206 0.852187 0.653843
Si Si5 0.500000 0.500000 0.752038
O O1 0.693768 0.338129 0.500000
O O2 0.797014 0.400633 0.281848
O O3 0.644316 0.279675 0.242011
O O4 0.589083 0.443430 0.331993
O O5 0.469436 0.872977 0.218481
O O6 0.612832 0.751004 0.167310
O O7 0.583778 0.893300 0.000000
O O8 0.138485 0.314888 0.500000
O O9 0.249269 0.366795 0.273728
O O10 0.214012 0.859221 0.500000
O O11 0.067165 0.924970 0.662581
#
# Coordination Sequence:
#
# PCOD9442548 Si02
#       5
#     8   8   8   8   4
#     4  10  21  36  56  85 121 155 193 245 296 346
#     4   8  16  35  57  79 110 152 194 234 287 349
#     4  10  19  36  60  85 111 151 201 241 289 359
#     4  10  21  37  58  84 118 156 194 242 297 349
#     4  12  22  36  60  90 122 156 198 244 296 350
#
# _framework density 21.011918999999999
#
# number of rings (size 3 to 8) (size 9 to 14) (size 15 to 20)
#    0.000    2.222    2.222    2.667    0.000    2.667 
#    0.000    2.222    0.000    5.333    0.000    0.000 
#    0.000    0.000    0.000    0.000    0.000    0.000 
#
# Total GULP energy -200616.731417 kJ/mol
# GULP energy per Si atom -5572.686984 kJ/mol
# Density = 2.096409 g / cm^3
# Si number density = 21.011919 Si / 1000 Ang^3
#
#
#
# Elastic Constant Matrix: (Units=GPa)
#
#
# Indices 1 2 3 4 5 6 
#
# 1 141.0009 12.8699 23.3123 0.0000 0.0000 0.0000
# 2 12.8699 49.8114 5.1767 0.0000 0.0000 0.0000
# 3 23.3123 5.1767 72.6729 0.0000 0.0000 0.0000
# 4 0.0000 0.0000 0.0000 -13.3031 0.0000 0.0000
# 5 0.0000 0.0000 0.0000 0.0000 27.0202 0.0000
# 6 0.0000 0.0000 0.0000 0.0000 0.0000 49.8496
#
#
#
# Elastic Compliance Matrix: (Units=1/GPa)
#
#
# Indices 1 2 3 4 5 6 
#
# 1 0.007635 -0.001731 -0.002326 0.000000 0.000000 0.000000
# 2 -0.001731 0.020618 -0.000913 0.000000 0.000000 0.000000
# 3 -0.002326 -0.000913 0.014571 0.000000 0.000000 0.000000
# 4 0.000000 0.000000 0.000000 -0.075170 0.000000 0.000000
# 5 0.000000 0.000000 0.000000 0.000000 0.037009 0.000000
# 6 0.000000 0.000000 0.000000 0.000000 0.000000 0.020060
#
#
# Mechanical properties :
#
#
# Convention : Reuss Voigt Hill
#
# Bulk Modulus (GPa) = 30.41016 38.46701 34.43859
# Shear Modulus (GPa) = 109.59006 27.52177 68.55591
#
# Velocity S-wave (km/s) = 7.22976 3.62307 5.71822
# Velocity P-wave (km/s) = 9.17588 5.98741 7.74745
#
# Compressibility (1/GPa) = 0.03288375
#
# Stress axis : x y z
#
# Youngs Moduli (GPa) = 130.98137 48.50166 68.62748
#
# Poissons Ratio (x) = 0.08395 0.15961
# Poissons Ratio (y) = 0.22671 0.06269
# Poissons Ratio (z) = 0.30463 0.04430
#
# Static dielectric constant tensor:
#      x y z
#    x 1.808180 0.000000 0.000000 
#    y 0.000000 1.794870 0.000000 
#    z 0.000000 0.000000 1.725010 
# 
# From -- ./inp_files/14031.got.cif
#   From: 2010.05.17/outbox.cif.g08.bks.cpg/sg58_8_cif.got.tgz:14031.got - 2010.06.03 14:20:14.
