data_PCOD9442936
_publ_section_title
;
Structure prediction by ZEFSAII (Michael W. Deem and Ramdas Pophale) SiO2 
 PCOD9442936
Probable space group: P N N M
;
_chemical_formula_sum "Si O2"
_cell_formula_units_Z 64
_cell_length_a 20.709523
_cell_length_b 18.759752
_cell_length_c 7.431935
_cell_angle_alpha 90.000000
_cell_angle_beta 90.000000
_cell_angle_gamma 90.000000
_cell_volume 2887.347738
_symmetry_space_group_name_H-M "P N N M"
_symmetry_group_IT_number 58
_symmetry_cell_setting 'orthorhombic'
loop_
_space_group_symop_operation_xyz
x,y,z
-x,-y,z
1/2+x,1/2-y,1/2-z
1/2-x,1/2+y,1/2-z
-x,-y,-z
x,y,-z
1/2-x,1/2+y,1/2+z
1/2+x,1/2-y,1/2+z
loop_
_atom_site_type_symbol
_atom_site_label
_atom_site_fract_x
_atom_site_fract_y
_atom_site_fract_z
Si Si1 0.955867 0.061691 0.794989
Si Si2 0.688981 0.956912 0.280835
Si Si3 0.960931 0.705107 0.712904
Si Si4 0.917625 0.210528 0.791831
Si Si5 0.936318 0.540496 0.215784
Si Si6 0.334486 0.527128 0.782083
Si Si7 0.151326 0.190505 0.280961
Si Si8 0.703166 0.793712 0.719755
O O1 0.950922 0.140082 0.711075
O O2 0.884044 0.029743 0.793376
O O3 0.980611 0.070468 0.000000
O O4 0.000000 0.000000 0.709397
O O5 0.688999 0.957479 0.500000
O O6 0.629456 0.004222 0.216954
O O7 0.760169 0.983021 0.226470
O O8 0.683437 0.874075 0.227264
O O9 0.965709 0.715564 0.500000
O O10 0.941521 0.624011 0.746724
O O11 0.906254 0.759333 0.782775
O O12 0.030666 0.725970 0.788395
O O13 0.849934 0.237718 0.714785
O O14 0.904643 0.191738 0.000000
O O15 0.000000 0.500000 0.284101
O O16 0.935702 0.531915 0.000000
O O17 0.354814 0.607621 0.728787
O O18 0.337297 0.523596 0.000000
O O19 0.151058 0.191486 0.500000
O O20 0.222597 0.216978 0.225131
O O21 0.702106 0.792437 0.500000
#
# Coordination Sequence:
#
# PCOD9442936 Si02
#       8
#     8   8   8   8   8   8   8   8
#     4  10  21  34  48  72 105 135 167 211 257 301
#     4   8  15  29  51  77  99 122 162 214 252 286
#     4  11  22  34  51  77 107 134 164 210 261 301
#     4  10  20  34  53  73  96 134 176 209 246 296
#     4  10  20  35  55  76 100 135 176 210 245 297
#     4   9  17  32  54  75  97 129 167 205 250 304
#     4   8  16  31  51  75 100 128 164 206 251 300
#     4   8  14  29  53  75  94 124 172 214 240 286
#
# _framework density 22.165671
#
# number of rings (size 3 to 8) (size 9 to 14) (size 15 to 20)
#    0.000    2.750    0.000    3.375    0.000    4.000 
#    0.000    2.500    0.000    6.000    0.000    0.000 
#    0.000    0.000    0.000    0.000    0.000    0.000 
#
# Total GULP energy -357442.805564 kJ/mol
# GULP energy per Si atom -5585.043837 kJ/mol
# Density = 2.211522 g / cm^3
# Si number density = 22.165671 Si / 1000 Ang^3
#
#
#
# Elastic Constant Matrix: (Units=GPa)
#
#
# Indices 1 2 3 4 5 6 
#
# 1 77.4533 23.9074 -0.7219 0.0000 0.0000 0.0000
# 2 23.9074 49.8363 -3.5849 0.0000 0.0000 0.0000
# 3 -0.7219 -3.5849 71.5812 0.0000 0.0000 0.0000
# 4 0.0000 0.0000 0.0000 0.5399 0.0000 0.0000
# 5 0.0000 0.0000 0.0000 0.0000 0.6819 0.0000
# 6 0.0000 0.0000 0.0000 0.0000 0.0000 46.3705
#
#
#
# Elastic Compliance Matrix: (Units=1/GPa)
#
#
# Indices 1 2 3 4 5 6 
#
# 1 0.015158 -0.007287 -0.000212 0.000000 0.000000 0.000000
# 2 -0.007287 0.023641 0.001111 0.000000 0.000000 0.000000
# 3 -0.000212 0.001111 0.014024 0.000000 0.000000 0.000000
# 4 0.000000 0.000000 0.000000 1.852210 0.000000 0.000000
# 5 0.000000 0.000000 0.000000 0.000000 1.466556 0.000000
# 6 0.000000 0.000000 0.000000 0.000000 0.000000 0.021565
#
#
# Mechanical properties :
#
#
# Convention : Reuss Voigt Hill
#
# Bulk Modulus (GPa) = 24.97120 26.45244 25.71182
# Shear Modulus (GPa) = 1.46230 21.46982 11.46606
#
# Velocity S-wave (km/s) = 0.81311 3.11562 2.27687
# Velocity P-wave (km/s) = 3.48880 4.99026 4.30548
#
# Compressibility (1/GPa) = 0.04004613
#
# Stress axis : x y z
#
# Youngs Moduli (GPa) = 65.97061 42.29894 71.30825
#
# Poissons Ratio (x) = 0.30823 0.01512
# Poissons Ratio (y) = 0.48072 -0.07919
# Poissons Ratio (z) = 0.01399 -0.04697
#
# Static dielectric constant tensor:
#      x y z
#    x 1.801810 0.000000 0.000000 
#    y 0.000000 1.786190 0.000000 
#    z 0.000000 0.000000 1.845890 
# 
# From -- ./inp_files/9305.got.cif
#   From: 2010.05.17/outbox.cif.g08.bks.cpg/sg58_5_cif.got.tgz:9305.got - 2010.06.03 14:20:14.
