data_PCOD9442906
_publ_section_title
;
Structure prediction by ZEFSAII (Michael W. Deem and Ramdas Pophale) SiO2 
 PCOD9442906
Probable space group: P N N M
;
_chemical_formula_sum "Si O2"
_cell_formula_units_Z 64
_cell_length_a 17.006936
_cell_length_b 9.100543
_cell_length_c 22.353075
_cell_angle_alpha 90.000000
_cell_angle_beta 90.000000
_cell_angle_gamma 90.000000
_cell_volume 3459.638000
_symmetry_space_group_name_H-M "P N N M"
_symmetry_group_IT_number 58
_symmetry_cell_setting 'orthorhombic'
loop_
_space_group_symop_operation_xyz
x,y,z
-x,-y,z
1/2+x,1/2-y,1/2-z
1/2-x,1/2+y,1/2-z
-x,-y,-z
x,y,-z
1/2-x,1/2+y,1/2+z
1/2+x,1/2-y,1/2+z
loop_
_atom_site_type_symbol
_atom_site_label
_atom_site_fract_x
_atom_site_fract_y
_atom_site_fract_z
Si Si1 0.760312 0.310643 0.666783
Si Si2 0.314881 0.197899 0.636222
Si Si3 0.946092 0.869385 0.068542
Si Si4 0.605293 0.676255 0.244853
Si Si5 0.546793 0.137347 0.767068
Si Si6 0.880402 0.601926 0.861974
Si Si7 0.166169 0.130564 0.712225
Si Si8 0.775034 0.021661 0.933544
O O1 0.841203 0.261426 0.696366
O O2 0.705262 0.181316 0.639861
O O3 0.707827 0.361836 0.722943
O O4 0.771819 0.436677 0.618003
O O5 0.355183 0.291027 0.690387
O O6 0.236778 0.125717 0.665196
O O7 0.291347 0.311894 0.585462
O O8 0.369278 0.063315 0.614783
O O9 0.936950 0.716942 0.104014
O O10 0.859381 0.939660 0.066420
O O11 0.972851 0.842534 0.000000
O O12 0.000000 0.000000 0.095249
O O13 0.518813 0.741345 0.247335
O O14 0.611464 0.510487 0.221183
O O15 0.587034 0.083883 0.705389
O O16 0.616035 0.223014 0.800502
O O17 0.500000 0.000000 0.794514
O O18 0.741163 0.010378 0.000000
#
# Coordination Sequence:
#
# PCOD9442906 Si02
#       8
#     8   8   8   8   8   8   8   8
#     4   9  19  34  55  76 104 150 184 225 275 334
#     4  11  21  34  55  81 110 149 188 234 281 329
#     4   9  20  36  54  73 103 151 196 230 273 324
#     4  11  20  34  54  78 114 145 182 226 285 342
#     4  11  23  32  50  84 112 141 177 228 283 344
#     4  10  20  34  51  76 110 143 190 230 270 324
#     4  10  21  35  54  79 112 147 185 221 285 344
#     4  10  21  36  54  79 109 147 196 236 274 330
#
# _framework density 18.499046
#
# number of rings (size 3 to 8) (size 9 to 14) (size 15 to 20)
#    0.000    1.875    3.750    0.375    3.500    0.500 
#    0.000    0.000    0.000    2.625    0.000    1.750 
#    0.000    2.000    0.000    0.000    0.000    0.000 
#
# Total GULP energy -356924.755803 kJ/mol
# GULP energy per Si atom -5576.949309 kJ/mol
# Density = 1.845694 g / cm^3
# Si number density = 18.499046 Si / 1000 Ang^3
#
#
#
# Elastic Constant Matrix: (Units=GPa)
#
#
# Indices 1 2 3 4 5 6 
#
# 1 35.0490 16.8344 5.3788 0.0000 0.0000 0.0000
# 2 16.8344 107.6357 26.8923 0.0000 0.0000 0.0000
# 3 5.3788 26.8923 46.3209 0.0000 0.0000 0.0000
# 4 0.0000 0.0000 0.0000 10.7998 0.0000 0.0000
# 5 0.0000 0.0000 0.0000 0.0000 7.2676 0.0000
# 6 0.0000 0.0000 0.0000 0.0000 0.0000 33.4961
#
#
#
# Elastic Compliance Matrix: (Units=1/GPa)
#
#
# Indices 1 2 3 4 5 6 
#
# 1 0.030882 -0.004601 -0.000915 0.000000 0.000000 0.000000
# 2 -0.004601 0.011552 -0.006173 0.000000 0.000000 0.000000
# 3 -0.000915 -0.006173 0.025278 0.000000 0.000000 0.000000
# 4 0.000000 0.000000 0.000000 0.092595 0.000000 0.000000
# 5 0.000000 0.000000 0.000000 0.000000 0.137597 0.000000
# 6 0.000000 0.000000 0.000000 0.000000 0.000000 0.029854
#
#
# Mechanical properties :
#
#
# Convention : Reuss Voigt Hill
#
# Bulk Modulus (GPa) = 22.55534 31.91295 27.23415
# Shear Modulus (GPa) = 13.66439 19.63937 16.65188
#
# Velocity S-wave (km/s) = 2.72077 3.26182 3.00350
# Velocity P-wave (km/s) = 4.69992 5.61022 5.17512
#
# Compressibility (1/GPa) = 0.04433540
#
# Stress axis : x y z
#
# Youngs Moduli (GPa) = 32.38138 86.56151 39.55957
#
# Poissons Ratio (x) = 0.39831 0.03618
# Poissons Ratio (y) = 0.14900 0.24419
# Poissons Ratio (z) = 0.02961 0.53431
#
# Static dielectric constant tensor:
#      x y z
#    x 1.652280 0.000000 0.000000 
#    y 0.000000 1.705310 0.000000 
#    z 0.000000 0.000000 1.622460 
# 
# From -- ./inp_files/31690.got.cif
#   From: 2010.05.17/outbox.cif.g08.bks.cpg/sg58_16_cif.got.tgz:31690.got - 2010.06.03 14:20:14.
