data_PCOD9442299
_publ_section_title
;
Structure prediction by ZEFSAII (Michael W. Deem and Ramdas Pophale) SiO2 
 PCOD9442299
Probable space group: P N N M
;
_chemical_formula_sum "Si O2"
_cell_formula_units_Z 64
_cell_length_a 25.532447
_cell_length_b 14.386131
_cell_length_c 7.706422
_cell_angle_alpha 90.000000
_cell_angle_beta 90.000000
_cell_angle_gamma 90.000000
_cell_volume 2830.669965
_symmetry_space_group_name_H-M "P N N M"
_symmetry_group_IT_number 58
_symmetry_cell_setting 'orthorhombic'
loop_
_space_group_symop_operation_xyz
x,y,z
-x,-y,z
1/2+x,1/2-y,1/2-z
1/2-x,1/2+y,1/2-z
-x,-y,-z
x,y,-z
1/2-x,1/2+y,1/2+z
1/2+x,1/2-y,1/2+z
loop_
_atom_site_type_symbol
_atom_site_label
_atom_site_fract_x
_atom_site_fract_y
_atom_site_fract_z
Si Si1 0.558792 0.974500 0.208971
Si Si2 0.808884 0.286963 0.210374
Si Si3 0.410225 0.746080 0.201165
Si Si4 0.173160 0.501938 0.798707
Si Si5 0.478610 0.217562 0.211840
Si Si6 0.601418 0.637447 0.206118
Si Si7 0.201723 0.302507 0.296431
Si Si8 0.054777 0.044177 0.798655
O O1 0.611084 0.019318 0.280680
O O2 0.559692 0.865976 0.257790
O O3 0.500000 0.000000 0.263705
O O4 0.560549 0.985815 0.000000
O O5 0.818148 0.393383 0.272862
O O6 0.851811 0.209253 0.259392
O O7 0.753003 0.248058 0.274459
O O8 0.809597 0.290776 0.000000
O O9 0.462331 0.794534 0.276016
O O10 0.353751 0.767628 0.279866
O O11 0.425508 0.637487 0.207297
O O12 0.407341 0.776883 0.000000
O O13 0.203054 0.414322 0.718101
O O14 0.187594 0.503622 0.000000
O O15 0.451262 0.311079 0.271294
O O16 0.480909 0.218683 0.000000
O O17 0.599204 0.535330 0.284954
O O18 0.597688 0.625709 0.000000
O O19 0.201109 0.278082 0.500000
O O20 0.046295 0.067475 0.000000
O O21 0.000000 0.000000 0.729228
#
# Coordination Sequence:
#
# PCOD9442299 Si02
#       8
#     8   8   8   8   8   8   8   8
#     4  10  19  34  58  87 119 157 203 249 297 360
#     4  10  23  43  63  88 122 158 199 250 303 357
#     4  10  20  38  62  88 119 159 207 254 300 356
#     4  11  23  39  61  90 126 160 197 248 306 364
#     4   9  17  30  53  85 115 146 195 250 293 346
#     4  11  21  36  61  88 115 155 205 251 295 353
#     4  10  23  43  66  89 119 160 204 250 299 353
#     4  11  23  37  56  87 127 166 201 247 309 367
#
# _framework density 22.609487999999999
#
# number of rings (size 3 to 8) (size 9 to 14) (size 15 to 20)
#    0.000    1.750    2.500    1.875    0.000    5.250 
#    0.000    1.875    0.000    0.000    0.000    0.000 
#    0.000    0.000    0.000    0.000    0.000    0.000 
#
# Total GULP energy -357335.694195 kJ/mol
# GULP energy per Si atom -5583.370222 kJ/mol
# Density = 2.255803 g / cm^3
# Si number density = 22.609488 Si / 1000 Ang^3
#
#
#
# Elastic Constant Matrix: (Units=GPa)
#
#
# Indices 1 2 3 4 5 6 
#
# 1 132.0258 43.6052 -1.4751 0.0000 0.0000 0.0000
# 2 43.6052 99.8587 -12.0975 0.0000 0.0000 0.0000
# 3 -1.4751 -12.0975 45.0031 0.0000 0.0000 0.0000
# 4 0.0000 0.0000 0.0000 19.0172 0.0000 0.0000
# 5 0.0000 0.0000 0.0000 0.0000 11.1760 0.0000
# 6 0.0000 0.0000 0.0000 0.0000 0.0000 37.1111
#
#
#
# Elastic Compliance Matrix: (Units=1/GPa)
#
#
# Indices 1 2 3 4 5 6 
#
# 1 0.008877 -0.003970 -0.000776 0.000000 0.000000 0.000000
# 2 -0.003970 0.012127 0.003130 0.000000 0.000000 0.000000
# 3 -0.000776 0.003130 0.023037 0.000000 0.000000 0.000000
# 4 0.000000 0.000000 0.000000 0.052584 0.000000 0.000000
# 5 0.000000 0.000000 0.000000 0.000000 0.089477 0.000000
# 6 0.000000 0.000000 0.000000 0.000000 0.000000 0.026946
#
#
# Mechanical properties :
#
#
# Convention : Reuss Voigt Hill
#
# Bulk Modulus (GPa) = 24.50569 37.43920 30.97245
# Shear Modulus (GPa) = 21.75011 29.91785 25.83398
#
# Velocity S-wave (km/s) = 3.10496 3.64159 3.38393
# Velocity P-wave (km/s) = 4.86997 5.85462 5.38485
#
# Compressibility (1/GPa) = 0.04080685
#
# Stress axis : x y z
#
# Youngs Moduli (GPa) = 112.65173 82.46040 43.40919
#
# Poissons Ratio (x) = 0.32739 0.03370
# Poissons Ratio (y) = 0.44726 -0.13586
# Poissons Ratio (z) = 0.08745 -0.25808
#
# Static dielectric constant tensor:
#      x y z
#    x 1.851860 0.000000 0.000000 
#    y 0.000000 1.870200 0.000000 
#    z 0.000000 0.000000 1.841480 
# 
# From -- ./inp_files/9956.got.cif
#   From: 2010.05.17/outbox.cif.g08.bks.cpg/sg58_5_cif.got.tgz:9956.got - 2010.06.03 14:20:14.
