data_PCOD9442878
_publ_section_title
;
Structure prediction by ZEFSAII (Michael W. Deem and Ramdas Pophale) SiO2 
 PCOD9442878
Probable space group: P N N M
;
_chemical_formula_sum "Si O2"
_cell_formula_units_Z 48
_cell_length_a 7.773744
_cell_length_b 7.495564
_cell_length_c 34.665253
_cell_angle_alpha 90.000000
_cell_angle_beta 90.000000
_cell_angle_gamma 90.000000
_cell_volume 2019.895611
_symmetry_space_group_name_H-M "P N N M"
_symmetry_group_IT_number 58
_symmetry_cell_setting 'orthorhombic'
loop_
_space_group_symop_operation_xyz
x,y,z
-x,-y,z
1/2+x,1/2-y,1/2-z
1/2-x,1/2+y,1/2-z
-x,-y,-z
x,y,-z
1/2-x,1/2+y,1/2+z
1/2+x,1/2-y,1/2+z
loop_
_atom_site_type_symbol
_atom_site_label
_atom_site_fract_x
_atom_site_fract_y
_atom_site_fract_z
Si Si1 0.770156 0.862907 0.815640
Si Si2 0.300632 0.455939 0.756862
Si Si3 0.700475 0.806104 0.399062
Si Si4 0.116787 0.673409 0.819243
Si Si5 0.699321 0.239100 0.599181
Si Si6 0.999407 0.781343 0.455882
O O1 0.708982 0.700712 0.788302
O O2 0.729842 0.828521 0.860851
O O3 0.973486 0.822119 0.816094
O O4 0.728233 0.030431 0.787337
O O5 0.500000 0.500000 0.755051
O O6 0.197969 0.611038 0.779669
O O7 0.741654 0.775168 0.354003
O O8 0.506625 0.730734 0.405246
O O9 0.837809 0.732493 0.428934
O O10 0.707662 0.022119 0.400928
O O11 0.000000 0.500000 0.831899
O O12 0.826116 0.287151 0.564278
O O13 0.982680 0.723067 0.500000
O O14 0.000000 0.000000 0.456378
#
# Coordination Sequence:
#
# PCOD9442878 Si02
#       6
#     8   8   8   8   8   8
#     4  10  20  34  48  73 104 136 182 216 265 312
#     4  11  21  31  51  75  96 139 179 225 260 304
#     4   9  14  27  45  57  88 133 167 202 253 313
#     4   9  16  31  44  61  93 127 174 209 244 312
#     4   9  16  29  46  62  94 136 168 207 260 320
#     4   9  18  26  40  69  96 125 173 215 253 324
#
# _framework density 23.763605999999999
#
# number of rings (size 3 to 8) (size 9 to 14) (size 15 to 20)
#    0.000    2.500    5.000    1.000    2.333    0.667 
#    0.000    3.333    0.000    0.000    0.000    0.000 
#    0.000    0.667    0.000   17.333    0.000    2.000 
#
# Total GULP energy -267476.749604 kJ/mol
# GULP energy per Si atom -5572.432283 kJ/mol
# Density = 2.370952 g / cm^3
# Si number density = 23.763606 Si / 1000 Ang^3
#
#
#
# Elastic Constant Matrix: (Units=GPa)
#
#
# Indices 1 2 3 4 5 6 
#
# 1 76.7586 -7.5741 87.8306 0.0000 0.0000 0.0000
# 2 -7.5741 69.1058 0.0135 0.0000 0.0000 0.0000
# 3 87.8306 0.0135 237.6047 0.0000 0.0000 0.0000
# 4 0.0000 0.0000 0.0000 64.2006 0.0000 0.0000
# 5 0.0000 0.0000 0.0000 0.0000 27.6422 0.0000
# 6 0.0000 0.0000 0.0000 0.0000 0.0000 0.3094
#
#
#
# Elastic Compliance Matrix: (Units=1/GPa)
#
#
# Indices 1 2 3 4 5 6 
#
# 1 0.023009 0.002524 -0.008505 0.000000 0.000000 0.000000
# 2 0.002524 0.014747 -0.000934 0.000000 0.000000 0.000000
# 3 -0.008505 -0.000934 0.007353 0.000000 0.000000 0.000000
# 4 0.000000 0.000000 0.000000 0.015576 0.000000 0.000000
# 5 0.000000 0.000000 0.000000 0.000000 0.036177 0.000000
# 6 0.000000 0.000000 0.000000 0.000000 0.000000 3.232584
#
#
# Mechanical properties :
#
#
# Convention : Reuss Voigt Hill
#
# Bulk Modulus (GPa) = 31.97132 60.44546 46.20839
# Shear Modulus (GPa) = 1.49089 38.64371 20.06730
#
# Velocity S-wave (km/s) = 0.79293 4.03696 2.90910
# Velocity P-wave (km/s) = 3.78437 6.87173 5.54717
#
# Compressibility (1/GPa) = 0.03127803
#
# Stress axis : x y z
#
# Youngs Moduli (GPa) = 43.46085 67.80890 136.00294
#
# Poissons Ratio (x) = -0.17112 1.15677
# Poissons Ratio (y) = -0.10967 0.12698
# Poissons Ratio (z) = 0.36966 0.06331
#
# Static dielectric constant tensor:
#      x y z
#    x 1.919100 0.000000 0.000000 
#    y 0.000000 2.146390 0.000000 
#    z 0.000000 0.000000 1.925490 
# 
# From -- ./inp_files/34684.got.cif
#   From: 2010.05.17/outbox.cif.g08.bks.cpg/sg58_18_cif.got.tgz:34684.got - 2010.06.03 14:20:14.
