data_PCOD9442770
_publ_section_title
;
Structure prediction by ZEFSAII (Michael W. Deem and Ramdas Pophale) SiO2 
 PCOD9442770
Probable space group: P N N M
;
_chemical_formula_sum "Si O2"
_cell_formula_units_Z 64
_cell_length_a 21.100540
_cell_length_b 19.875062
_cell_length_c 8.634871
_cell_angle_alpha 90.000000
_cell_angle_beta 90.000000
_cell_angle_gamma 90.000000
_cell_volume 3621.245060
_symmetry_space_group_name_H-M "P N N M"
_symmetry_group_IT_number 58
_symmetry_cell_setting 'orthorhombic'
loop_
_space_group_symop_operation_xyz
x,y,z
-x,-y,z
1/2+x,1/2-y,1/2-z
1/2-x,1/2+y,1/2-z
-x,-y,-z
x,y,-z
1/2-x,1/2+y,1/2+z
1/2+x,1/2-y,1/2+z
loop_
_atom_site_type_symbol
_atom_site_label
_atom_site_fract_x
_atom_site_fract_y
_atom_site_fract_z
Si Si1 0.438215 0.541194 0.186589
Si Si2 0.991442 0.826167 0.184509
Si Si3 0.490365 0.818559 0.186208
Si Si4 0.639168 0.820039 0.813834
Si Si5 0.687844 0.537454 0.814188
Si Si6 0.638546 0.673943 0.314603
Si Si7 0.188596 0.536345 0.687744
Si Si8 0.561937 0.041289 0.188811
O O1 0.500000 0.500000 0.240672
O O2 0.447284 0.616542 0.245596
O O3 0.374562 0.503956 0.238072
O O4 0.438568 0.541582 0.000000
O O5 0.972574 0.751829 0.237899
O O6 0.064908 0.836298 0.237351
O O7 0.990742 0.830537 0.000000
O O8 0.564610 0.832377 0.222874
O O9 0.448123 0.881625 0.236459
O O10 0.486351 0.812311 0.000000
O O11 0.657518 0.748614 0.740583
O O12 0.678550 0.885741 0.764896
O O13 0.643577 0.814191 0.000000
O O14 0.679912 0.613392 0.752878
O O15 0.749460 0.499356 0.752755
O O16 0.688635 0.538928 0.000000
O O17 0.640084 0.671472 0.500000
O O18 0.190713 0.535332 0.500000
O O19 0.126321 0.494610 0.737815
O O20 0.500000 0.000000 0.239022
O O21 0.561644 0.040318 0.000000
#
# Coordination Sequence:
#
# PCOD9442770 Si02
#       8
#     8   8   8   8   8   8   8   8
#     4  10  20  36  57  78 101 135 180 223 264 320
#     4  10  20  32  51  81 113 139 170 221 279 326
#     4   9  16  29  53  81 109 141 180 222 261 311
#     4   9  17  31  54  81 108 141 179 220 265 318
#     4  11  23  38  56  79 109 144 183 226 272 326
#     4  10  20  34  54  80 109 140 177 222 270 324
#     4  10  20  35  56  83 114 145 181 224 271 320
#     4   9  15  29  55  84 108 137 181 223 258 307
#
# _framework density 17.673480000000001
#
# number of rings (size 3 to 8) (size 9 to 14) (size 15 to 20)
#    0.000    2.250    2.500    1.125    0.000    2.750 
#    0.000    1.875    0.000    2.250    0.000    0.000 
#    0.000    0.000    0.000    0.000    0.000    0.000 
#
# Total GULP energy -357067.744088 kJ/mol
# GULP energy per Si atom -5579.183501 kJ/mol
# Density = 1.763325 g / cm^3
# Si number density = 17.673480 Si / 1000 Ang^3
#
#
#
# Elastic Constant Matrix: (Units=GPa)
#
#
# Indices 1 2 3 4 5 6 
#
# 1 112.7197 83.4960 26.9679 0.0000 0.0000 0.0000
# 2 83.4960 173.2883 33.0528 0.0000 0.0000 0.0000
# 3 26.9679 33.0528 16.7612 0.0000 0.0000 0.0000
# 4 0.0000 0.0000 0.0000 16.3169 0.0000 0.0000
# 5 0.0000 0.0000 0.0000 0.0000 20.7773 0.0000
# 6 0.0000 0.0000 0.0000 0.0000 0.0000 30.2195
#
#
#
# Elastic Compliance Matrix: (Units=1/GPa)
#
#
# Indices 1 2 3 4 5 6 
#
# 1 0.016440 -0.004610 -0.017360 0.000000 0.000000 0.000000
# 2 -0.004610 0.010543 -0.013373 0.000000 0.000000 0.000000
# 3 -0.017360 -0.013373 0.113963 0.000000 0.000000 0.000000
# 4 0.000000 0.000000 0.000000 0.061286 0.000000 0.000000
# 5 0.000000 0.000000 0.000000 0.000000 0.048130 0.000000
# 6 0.000000 0.000000 0.000000 0.000000 0.000000 0.033091
#
#
# Mechanical properties :
#
#
# Convention : Reuss Voigt Hill
#
# Bulk Modulus (GPa) = 14.23267 65.53361 39.88314
# Shear Modulus (GPa) = 13.24300 24.07958 18.66129
#
# Velocity S-wave (km/s) = 2.74033 3.69517 3.25297
# Velocity P-wave (km/s) = 4.25243 7.44086 6.06010
#
# Compressibility (1/GPa) = 0.07026087
#
# Stress axis : x y z
#
# Youngs Moduli (GPa) = 60.82866 94.85259 8.77474
#
# Poissons Ratio (x) = 0.43727 0.15233
# Poissons Ratio (y) = 0.28042 0.11734
# Poissons Ratio (z) = 1.05597 1.26844
#
# Static dielectric constant tensor:
#      x y z
#    x 1.586670 0.000000 0.000000 
#    y 0.000000 1.599160 0.000000 
#    z 0.000000 0.000000 1.598190 
# 
# From -- ./inp_files/9323.got.cif
#   From: 2010.05.17/outbox.cif.g08.bks.cpg/sg58_5_cif.got.tgz:9323.got - 2010.06.03 14:20:14.
