data_PCOD9442145
_publ_section_title
;
Structure prediction by ZEFSAII (Michael W. Deem and Ramdas Pophale) SiO2 
 PCOD9442145
Probable space group: P N N M
;
_chemical_formula_sum "Si O2"
_cell_formula_units_Z 56
_cell_length_a 20.003487
_cell_length_b 19.814901
_cell_length_c 7.778124
_cell_angle_alpha 90.000000
_cell_angle_beta 90.000000
_cell_angle_gamma 90.000000
_cell_volume 3082.992567
_symmetry_space_group_name_H-M "P N N M"
_symmetry_group_IT_number 58
_symmetry_cell_setting 'orthorhombic'
loop_
_space_group_symop_operation_xyz
x,y,z
-x,-y,z
1/2+x,1/2-y,1/2-z
1/2-x,1/2+y,1/2-z
-x,-y,-z
x,y,-z
1/2-x,1/2+y,1/2+z
1/2+x,1/2-y,1/2+z
loop_
_atom_site_type_symbol
_atom_site_label
_atom_site_fract_x
_atom_site_fract_y
_atom_site_fract_z
Si Si1 0.626519 0.238863 0.206058
Si Si2 0.734609 0.129784 0.206839
Si Si3 0.796441 0.480273 0.292430
Si Si4 0.479293 0.211042 0.203496
Si Si5 0.948692 0.442485 0.205308
Si Si6 0.268182 0.655616 0.707389
Si Si7 0.840703 0.234739 0.293015
O O1 0.676544 0.180356 0.272686
O O2 0.551788 0.230440 0.275704
O O3 0.662411 0.309856 0.241684
O O4 0.623675 0.230394 0.000000
O O5 0.805066 0.164650 0.248891
O O6 0.723908 0.054166 0.272253
O O7 0.729036 0.127964 0.000000
O O8 0.791954 0.481594 0.500000
O O9 0.872972 0.462838 0.248787
O O10 0.749300 0.419230 0.230801
O O11 0.466023 0.131283 0.223351
O O12 0.414902 0.250778 0.274235
O O13 0.481663 0.225816 0.000000
O O14 0.000000 0.500000 0.268836
O O15 0.955237 0.438405 0.000000
O O16 0.265701 0.655084 0.500000
O O17 0.209489 0.706241 0.769352
O O18 0.842661 0.240062 0.500000
#
# Coordination Sequence:
#
# PCOD9442145 Si02
#       7
#     8   8   8   8   8   8   8
#     4   9  18  31  49  73  98 126 163 206 247 292
#     4   9  18  31  49  73  98 126 163 206 247 292
#     4  10  19  34  53  72  97 134 173 203 244 302
#     4  10  19  34  53  72  97 134 173 203 244 302
#     4  11  23  33  45  73 109 137 163 202 253 300
#     4   9  17  31  50  71  95 126 164 205 248 294
#     4   9  17  31  50  71  95 126 164 205 248 294
#
# _framework density 18.164169999999999
#
# number of rings (size 3 to 8) (size 9 to 14) (size 15 to 20)
#    0.000    2.429    1.429    1.286    0.000    4.571 
#    0.000    2.857    0.000    0.857    0.000    6.000 
#    0.000    0.000    0.000    0.000    0.000    0.000 
#
# Total GULP energy -312383.289354 kJ/mol
# GULP energy per Si atom -5578.273024 kJ/mol
# Density = 1.812283 g / cm^3
# Si number density = 18.164170 Si / 1000 Ang^3
#
#
#
# Elastic Constant Matrix: (Units=GPa)
#
#
# Indices 1 2 3 4 5 6 
#
# 1 164.8338 101.2361 -0.6542 0.0000 0.0000 0.0000
# 2 101.2361 93.0624 -6.4633 0.0000 0.0000 0.0000
# 3 -0.6542 -6.4633 19.5769 0.0000 0.0000 0.0000
# 4 0.0000 0.0000 0.0000 19.0576 0.0000 0.0000
# 5 0.0000 0.0000 0.0000 0.0000 17.8554 0.0000
# 6 0.0000 0.0000 0.0000 0.0000 0.0000 29.0309
#
#
#
# Elastic Compliance Matrix: (Units=1/GPa)
#
#
# Indices 1 2 3 4 5 6 
#
# 1 0.019019 -0.021129 -0.006340 0.000000 0.000000 0.000000
# 2 -0.021129 0.034472 0.010675 0.000000 0.000000 0.000000
# 3 -0.006340 0.010675 0.054393 0.000000 0.000000 0.000000
# 4 0.000000 0.000000 0.000000 0.052472 0.000000 0.000000
# 5 0.000000 0.000000 0.000000 0.000000 0.056006 0.000000
# 6 0.000000 0.000000 0.000000 0.000000 0.000000 0.034446
#
#
# Mechanical properties :
#
#
# Convention : Reuss Voigt Hill
#
# Bulk Modulus (GPa) = 13.46004 51.74557 32.60280
# Shear Modulus (GPa) = 16.17277 25.41242 20.79260
#
# Velocity S-wave (km/s) = 2.98714 3.74443 3.38702
# Velocity P-wave (km/s) = 4.39586 6.87342 5.76921
#
# Compressibility (1/GPa) = 0.07429399
#
# Stress axis : x y z
#
# Youngs Moduli (GPa) = 52.58030 29.00910 18.38472
#
# Poissons Ratio (x) = 0.61294 0.11656
# Poissons Ratio (y) = 1.11098 -0.19625
# Poissons Ratio (z) = 0.33337 -0.30967
#
# Static dielectric constant tensor:
#      x y z
#    x 1.627040 0.000000 0.000000 
#    y 0.000000 1.617230 0.000000 
#    z 0.000000 0.000000 1.661450 
# 
# From -- ./inp_files/8124.got.cif
#   From: 2010.05.17/outbox.cif.g08.bks.cpg/sg58_5_cif.got.tgz:8124.got - 2010.06.03 14:20:14.
