data_PCOD9442812
_publ_section_title
;
Structure prediction by ZEFSAII (Michael W. Deem and Ramdas Pophale) SiO2 
 PCOD9442812
Probable space group: P N N M
;
_chemical_formula_sum "Si O2"
_cell_formula_units_Z 32
_cell_length_a 10.587364
_cell_length_b 20.147334
_cell_length_c 7.607902
_cell_angle_alpha 90.000000
_cell_angle_beta 90.000000
_cell_angle_gamma 90.000000
_cell_volume 1622.819959
_symmetry_space_group_name_H-M "P N N M"
_symmetry_group_IT_number 58
_symmetry_cell_setting 'orthorhombic'
loop_
_space_group_symop_operation_xyz
x,y,z
-x,-y,z
1/2+x,1/2-y,1/2-z
1/2-x,1/2+y,1/2-z
-x,-y,-z
x,y,-z
1/2-x,1/2+y,1/2+z
1/2+x,1/2-y,1/2+z
loop_
_atom_site_type_symbol
_atom_site_label
_atom_site_fract_x
_atom_site_fract_y
_atom_site_fract_z
Si Si1 0.110764 0.296662 0.788131
Si Si2 0.100739 0.805543 0.791197
Si Si3 0.114157 0.957937 0.295251
Si Si4 0.105644 0.448214 0.215605
O O1 0.256038 0.281015 0.741501
O O2 0.083405 0.372119 0.728671
O O3 0.006457 0.244602 0.723932
O O4 0.103807 0.297157 0.000000
O O5 0.088977 0.879290 0.713685
O O6 0.084829 0.812325 0.000000
O O7 0.122863 0.977569 0.500000
O O8 0.254501 0.968235 0.221597
O O9 0.000000 0.000000 0.215516
O O10 0.000000 0.500000 0.272010
O O11 0.106856 0.447815 0.000000
#
# Coordination Sequence:
#
# PCOD9442812 Si02
#       4
#     8   8   8   8
#     4   9  19  34  50  72 101 131 166 206 248 297
#     4  10  20  33  51  74 101 134 168 207 253 296
#     4   9  18  32  50  71  96 128 165 205 248 296
#     4   8  14  27  47  68  90 118 157 202 239 278
#
# _framework density 19.718762000000002
#
# number of rings (size 3 to 8) (size 9 to 14) (size 15 to 20)
#    0.000    3.000    0.000    2.250    0.000    4.500 
#    0.000    5.000    0.000   12.000    0.000    0.000 
#    0.000    0.000    0.000    0.000    0.000    0.000 
#
# Total GULP energy -178428.751296 kJ/mol
# GULP energy per Si atom -5575.898478 kJ/mol
# Density = 1.967388 g / cm^3
# Si number density = 19.718762 Si / 1000 Ang^3
#
#
#
# Elastic Constant Matrix: (Units=GPa)
#
#
# Indices 1 2 3 4 5 6 
#
# 1 192.1812 119.6982 -9.1085 0.0000 0.0000 0.0000
# 2 119.6982 86.3259 -11.4988 0.0000 0.0000 0.0000
# 3 -9.1085 -11.4988 38.5264 0.0000 0.0000 0.0000
# 4 0.0000 0.0000 0.0000 15.8790 0.0000 0.0000
# 5 0.0000 0.0000 0.0000 0.0000 13.2647 0.0000
# 6 0.0000 0.0000 0.0000 0.0000 0.0000 47.6061
#
#
#
# Elastic Compliance Matrix: (Units=1/GPa)
#
#
# Indices 1 2 3 4 5 6 
#
# 1 0.040086 -0.056569 -0.007407 0.000000 0.000000 0.000000
# 2 -0.056569 0.091893 0.014053 0.000000 0.000000 0.000000
# 3 -0.007407 0.014053 0.028399 0.000000 0.000000 0.000000
# 4 0.000000 0.000000 0.000000 0.062976 0.000000 0.000000
# 5 0.000000 0.000000 0.000000 0.000000 0.075388 0.000000
# 6 0.000000 0.000000 0.000000 0.000000 0.000000 0.021006
#
#
# Mechanical properties :
#
#
# Convention : Reuss Voigt Hill
#
# Bulk Modulus (GPa) = 16.51987 57.24614 36.88300
# Shear Modulus (GPa) = 11.36954 29.87947 20.62451
#
# Velocity S-wave (km/s) = 2.40382 3.89688 3.23760
# Velocity P-wave (km/s) = 4.01253 7.02438 5.72024
#
# Compressibility (1/GPa) = 0.06053317
#
# Stress axis : x y z
#
# Youngs Moduli (GPa) = 24.94655 10.88219 35.21200
#
# Poissons Ratio (x) = 0.61559 0.26080
# Poissons Ratio (y) = 1.41120 -0.49483
# Poissons Ratio (z) = 0.18477 -0.15293
#
# Static dielectric constant tensor:
#      x y z
#    x 1.681830 0.000000 0.000000 
#    y 0.000000 1.664230 0.000000 
#    z 0.000000 0.000000 1.730060 
# 
# From -- ./inp_files/2157.got.cif
#   From: 2010.05.17/outbox.cif.g08.bks.cpg/sg58_2_cif.got.tgz:2157.got - 2010.06.03 14:20:14.
