data_PCOD9442911
_publ_section_title
;
Structure prediction by ZEFSAII (Michael W. Deem and Ramdas Pophale) SiO2 
 PCOD9442911
Probable space group: P N N M
;
_chemical_formula_sum "Si O2"
_cell_formula_units_Z 56
_cell_length_a 21.646372
_cell_length_b 15.058210
_cell_length_c 8.272301
_cell_angle_alpha 90.000000
_cell_angle_beta 90.000000
_cell_angle_gamma 90.000000
_cell_volume 2696.402963
_symmetry_space_group_name_H-M "P N N M"
_symmetry_group_IT_number 58
_symmetry_cell_setting 'orthorhombic'
loop_
_space_group_symop_operation_xyz
x,y,z
-x,-y,z
1/2+x,1/2-y,1/2-z
1/2-x,1/2+y,1/2-z
-x,-y,-z
x,y,-z
1/2-x,1/2+y,1/2+z
1/2+x,1/2-y,1/2+z
loop_
_atom_site_type_symbol
_atom_site_label
_atom_site_fract_x
_atom_site_fract_y
_atom_site_fract_z
Si Si1 0.270859 0.999765 0.814566
Si Si2 0.974257 0.274328 0.812994
Si Si3 0.740574 0.197434 0.306956
Si Si4 0.893891 0.765720 0.196429
Si Si5 0.648654 0.446307 0.187801
Si Si6 0.655951 0.837190 0.193940
Si Si7 0.454858 0.419166 0.808597
O O1 0.208079 0.056767 0.800452
O O2 0.322227 0.066197 0.743913
O O3 0.256502 0.906853 0.730443
O O4 0.285492 0.979748 0.000000
O O5 0.915279 0.317863 0.729440
O O6 0.964020 0.168602 0.793169
O O7 0.044664 0.287598 0.751803
O O8 0.972517 0.299986 0.000000
O O9 0.741154 0.207089 0.500000
O O10 0.672522 0.228366 0.250072
O O11 0.797154 0.259287 0.245043
O O12 0.895531 0.864660 0.268330
O O13 0.895201 0.770047 0.000000
O O14 0.612796 0.538515 0.210127
O O15 0.666787 0.439475 0.000000
O O16 0.663555 0.839781 0.000000
O O17 0.500000 0.500000 0.765788
O O18 0.463883 0.398551 0.000000
#
# Coordination Sequence:
#
# PCOD9442911 Si02
#       7
#     8   8   8   8   8   8   8
#     4  11  23  40  61  88 118 152 196 250 300 348
#     4  11  23  36  57  87 118 154 197 248 295 345
#     4  10  21  41  64  86 115 158 200 241 296 357
#     4  10  21  39  59  83 119 156 192 240 298 347
#     4  11  21  34  57  85 114 153 195 237 289 352
#     4  10  22  41  62  83 119 162 193 236 302 359
#     4  10  20  34  51  78 117 156 189 227 286 358
#
# _framework density 20.768409999999999
#
# number of rings (size 3 to 8) (size 9 to 14) (size 15 to 20)
#    0.000    1.571    2.857    2.143    0.000    7.714 
#    0.000    0.714    0.000    4.286    0.000    0.000 
#    0.000    0.000    0.000    0.000    0.000    0.000 
#
# Total GULP energy -312547.363856 kJ/mol
# GULP energy per Si atom -5581.202926 kJ/mol
# Density = 2.072114 g / cm^3
# Si number density = 20.768410 Si / 1000 Ang^3
#
#
#
# Elastic Constant Matrix: (Units=GPa)
#
#
# Indices 1 2 3 4 5 6 
#
# 1 89.2063 12.1440 7.6122 0.0000 0.0000 0.0000
# 2 12.1440 37.6809 -1.6195 0.0000 0.0000 0.0000
# 3 7.6122 -1.6195 7.0097 0.0000 0.0000 0.0000
# 4 0.0000 0.0000 0.0000 6.9680 0.0000 0.0000
# 5 0.0000 0.0000 0.0000 0.0000 25.0348 0.0000
# 6 0.0000 0.0000 0.0000 0.0000 0.0000 26.0528
#
#
#
# Elastic Compliance Matrix: (Units=1/GPa)
#
#
# Indices 1 2 3 4 5 6 
#
# 1 0.013200 -0.004919 -0.015471 0.000000 0.000000 0.000000
# 2 -0.004919 0.028638 0.011958 0.000000 0.000000 0.000000
# 3 -0.015471 0.011958 0.162222 0.000000 0.000000 0.000000
# 4 0.000000 0.000000 0.000000 0.143513 0.000000 0.000000
# 5 0.000000 0.000000 0.000000 0.000000 0.039944 0.000000
# 6 0.000000 0.000000 0.000000 0.000000 0.000000 0.038384
#
#
# Mechanical properties :
#
#
# Convention : Reuss Voigt Hill
#
# Bulk Modulus (GPa) = 5.34199 18.90781 12.12490
# Shear Modulus (GPa) = 9.89781 19.32847 14.61314
#
# Velocity S-wave (km/s) = 2.18544 3.05399 2.65547
# Velocity P-wave (km/s) = 2.99098 4.64324 3.90549
#
# Compressibility (1/GPa) = 0.18719614
#
# Stress axis : x y z
#
# Youngs Moduli (GPa) = 75.75897 34.91881 6.16440
#
# Poissons Ratio (x) = 0.17176 0.09537
# Poissons Ratio (y) = 0.37266 -0.07371
# Poissons Ratio (z) = 1.17204 -0.41756
#
# Static dielectric constant tensor:
#      x y z
#    x 1.810530 0.000000 0.000000 
#    y 0.000000 1.744020 0.000000 
#    z 0.000000 0.000000 1.724510 
# 
# From -- ./inp_files/6318.got.cif
#   From: 2010.05.17/outbox.cif.g08.bks.cpg/sg58_4_cif.got.tgz:6318.got - 2010.06.03 14:20:14.
