data_PCOD9442141
_publ_section_title
;
Structure prediction by ZEFSAII (Michael W. Deem and Ramdas Pophale) SiO2 
 PCOD9442141
Probable space group: P N N M
;
_chemical_formula_sum "Si O2"
_cell_formula_units_Z 56
_cell_length_a 11.476877
_cell_length_b 10.704106
_cell_length_c 24.153476
_cell_angle_alpha 90.000000
_cell_angle_beta 90.000000
_cell_angle_gamma 90.000000
_cell_volume 2967.247473
_symmetry_space_group_name_H-M "P N N M"
_symmetry_group_IT_number 58
_symmetry_cell_setting 'orthorhombic'
loop_
_space_group_symop_operation_xyz
x,y,z
-x,-y,z
1/2+x,1/2-y,1/2-z
1/2-x,1/2+y,1/2-z
-x,-y,-z
x,y,-z
1/2-x,1/2+y,1/2+z
1/2+x,1/2-y,1/2+z
loop_
_atom_site_type_symbol
_atom_site_label
_atom_site_fract_x
_atom_site_fract_y
_atom_site_fract_z
Si Si1 0.434875 0.300974 0.566048
Si Si2 0.658030 0.846358 0.339781
Si Si3 0.321777 0.566468 0.433698
Si Si4 0.573773 0.601344 0.723934
Si Si5 0.419950 0.723053 0.185442
Si Si6 0.834598 0.525790 0.255838
Si Si7 0.910443 0.392068 0.633456
O O1 0.426991 0.283855 0.500000
O O2 0.393067 0.179583 0.599581
O O3 0.566852 0.345778 0.578670
O O4 0.353909 0.422032 0.580672
O O5 0.602151 0.729403 0.306825
O O6 0.798004 0.827065 0.337750
O O7 0.632706 0.969956 0.303766
O O8 0.305717 0.569652 0.500000
O O9 0.205423 0.608964 0.402699
O O10 0.500000 0.500000 0.689570
O O11 0.491281 0.632318 0.775366
O O12 0.696744 0.544658 0.741312
O O13 0.388105 0.843314 0.224087
O O14 0.509667 0.770343 0.138805
O O15 0.870056 0.428514 0.304056
O O16 0.000000 0.500000 0.614532
#
# Coordination Sequence:
#
# PCOD9442141 Si02
#       7
#     8   8   8   8   8   8   8
#     4   9  19  34  52  80 111 143 196 246 280 336
#     4  11  21  34  56  80 112 154 188 224 291 339
#     4   9  18  33  54  79 110 151 190 234 294 343
#     4  11  21  33  53  79 114 145 182 223 273 344
#     4  10  21  36  51  80 120 145 183 232 275 336
#     4  10  21  34  51  79 111 149 186 218 276 340
#     4  10  19  34  49  75 118 145 177 232 274 330
#
# _framework density 18.872710000000001
#
# number of rings (size 3 to 8) (size 9 to 14) (size 15 to 20)
#    0.000    2.000    2.857    3.429    4.000    0.286 
#    0.000    0.714    0.000    0.000    0.000    5.000 
#    0.000    0.000    0.000    0.000    0.000    0.000 
#
# Total GULP energy -312436.144168 kJ/mol
# GULP energy per Si atom -5579.216860 kJ/mol
# Density = 1.882975 g / cm^3
# Si number density = 18.872710 Si / 1000 Ang^3
#
#
#
# Elastic Constant Matrix: (Units=GPa)
#
#
# Indices 1 2 3 4 5 6 
#
# 1 138.2813 18.7677 43.6377 0.0000 0.0000 0.0000
# 2 18.7677 24.4489 12.4428 0.0000 0.0000 0.0000
# 3 43.6377 12.4428 61.0199 0.0000 0.0000 0.0000
# 4 0.0000 0.0000 0.0000 22.4620 0.0000 0.0000
# 5 0.0000 0.0000 0.0000 0.0000 32.8281 0.0000
# 6 0.0000 0.0000 0.0000 0.0000 0.0000 18.3598
#
#
#
# Elastic Compliance Matrix: (Units=1/GPa)
#
#
# Indices 1 2 3 4 5 6 
#
# 1 0.009744 -0.004389 -0.006073 0.000000 0.000000 0.000000
# 2 -0.004389 0.047615 -0.006571 0.000000 0.000000 0.000000
# 3 -0.006073 -0.006571 0.022071 0.000000 0.000000 0.000000
# 4 0.000000 0.000000 0.000000 0.044520 0.000000 0.000000
# 5 0.000000 0.000000 0.000000 0.000000 0.030462 0.000000
# 6 0.000000 0.000000 0.000000 0.000000 0.000000 0.054467
#
#
# Mechanical properties :
#
#
# Convention : Reuss Voigt Hill
#
# Bulk Modulus (GPa) = 22.04384 41.49406 31.76895
# Shear Modulus (GPa) = 19.37500 24.65678 22.01589
#
# Velocity S-wave (km/s) = 3.20756 3.61845 3.41918
# Velocity P-wave (km/s) = 5.04218 6.28423 5.69715
#
# Compressibility (1/GPa) = 0.04536414
#
# Stress axis : x y z
#
# Youngs Moduli (GPa) = 102.62905 21.00198 45.30801
#
# Poissons Ratio (x) = 0.09217 0.27517
# Poissons Ratio (y) = 0.45042 0.29770
# Poissons Ratio (z) = 0.62329 0.13800
#
# Static dielectric constant tensor:
#      x y z
#    x 1.662650 0.000000 0.000000 
#    y 0.000000 1.725940 0.000000 
#    z 0.000000 0.000000 1.675690 
# 
# From -- ./inp_files/29611.got.cif
#   From: 2010.05.17/outbox.cif.g08.bks.cpg/sg58_15_cif.got.tgz:29611.got - 2010.06.03 14:20:14.
