data_PCOD9442404
_publ_section_title
;
Structure prediction by ZEFSAII (Michael W. Deem and Ramdas Pophale) SiO2 
 PCOD9442404
Probable space group: P N N M
;
_chemical_formula_sum "Si O2"
_cell_formula_units_Z 64
_cell_length_a 13.208848
_cell_length_b 26.868105
_cell_length_c 7.732305
_cell_angle_alpha 90.000000
_cell_angle_beta 90.000000
_cell_angle_gamma 90.000000
_cell_volume 2744.169644
_symmetry_space_group_name_H-M "P N N M"
_symmetry_group_IT_number 58
_symmetry_cell_setting 'orthorhombic'
loop_
_space_group_symop_operation_xyz
x,y,z
-x,-y,z
1/2+x,1/2-y,1/2-z
1/2-x,1/2+y,1/2-z
-x,-y,-z
x,y,-z
1/2-x,1/2+y,1/2+z
1/2+x,1/2-y,1/2+z
loop_
_atom_site_type_symbol
_atom_site_label
_atom_site_fract_x
_atom_site_fract_y
_atom_site_fract_z
Si Si1 0.696475 0.299754 0.803567
Si Si2 0.361348 0.262184 0.708380
Si Si3 0.475797 0.111733 0.300246
Si Si4 0.580633 0.393986 0.302054
Si Si5 0.645692 0.625671 0.287468
Si Si6 0.167378 0.442538 0.299210
Si Si7 0.069915 0.286571 0.793646
Si Si8 0.215775 0.553232 0.202489
O O1 0.805808 0.287912 0.725634
O O2 0.625667 0.337953 0.705418
O O3 0.658905 0.242477 0.799984
O O4 0.701951 0.318787 0.000000
O O5 0.347452 0.261477 0.500000
O O6 0.338787 0.317546 0.773181
O O7 0.478274 0.251289 0.735769
O O8 0.454760 0.125996 0.500000
O O9 0.560952 0.068852 0.292071
O O10 0.534056 0.159986 0.227328
O O11 0.369503 0.091709 0.227654
O O12 0.572568 0.410355 0.500000
O O13 0.466079 0.392992 0.230345
O O14 0.670165 0.426770 0.221152
O O15 0.643121 0.626273 0.500000
O O16 0.739627 0.591494 0.232963
O O17 0.151627 0.429979 0.500000
O O18 0.199880 0.499646 0.285584
O O19 0.092588 0.289345 0.000000
O O20 0.193592 0.547169 0.000000
#
# Coordination Sequence:
#
# PCOD9442404 Si02
#       8
#     8   8   8   8   8   8   8   8
#     4  11  21  34  56  87 121 156 195 243 296 352
#     4   9  17  33  56  80 113 158 197 230 283 352
#     4  10  22  40  62  89 124 163 200 248 312 375
#     4  11  22  40  64  87 119 162 208 251 296 362
#     4   9  19  37  61  86 118 161 204 247 300 360
#     4  11  23  40  64  92 119 155 207 261 310 368
#     4  10  19  35  58  82 112 154 198 233 280 351
#     4  11  24  43  64  88 121 160 202 254 319 374
#
# _framework density 23.322174
#
# number of rings (size 3 to 8) (size 9 to 14) (size 15 to 20)
#    0.000    1.750    1.250    3.375    0.000    6.500 
#    0.000    7.500    0.000    0.000    0.000    0.000 
#    0.000    0.000    0.000    0.000    0.000    0.000 
#
# Total GULP energy -357360.748052 kJ/mol
# GULP energy per Si atom -5583.761688 kJ/mol
# Density = 2.326909 g / cm^3
# Si number density = 23.322174 Si / 1000 Ang^3
#
#
#
# Elastic Constant Matrix: (Units=GPa)
#
#
# Indices 1 2 3 4 5 6 
#
# 1 61.2706 -4.8747 -3.2509 0.0000 0.0000 0.0000
# 2 -4.8747 81.9020 -1.5003 0.0000 0.0000 0.0000
# 3 -3.2509 -1.5003 38.9748 0.0000 0.0000 0.0000
# 4 0.0000 0.0000 0.0000 23.9200 0.0000 0.0000
# 5 0.0000 0.0000 0.0000 0.0000 16.1737 0.0000
# 6 0.0000 0.0000 0.0000 0.0000 0.0000 38.1786
#
#
#
# Elastic Compliance Matrix: (Units=1/GPa)
#
#
# Indices 1 2 3 4 5 6 
#
# 1 0.016476 0.001007 0.001413 0.000000 0.000000 0.000000
# 2 0.001007 0.012280 0.000557 0.000000 0.000000 0.000000
# 3 0.001413 0.000557 0.025797 0.000000 0.000000 0.000000
# 4 0.000000 0.000000 0.000000 0.041806 0.000000 0.000000
# 5 0.000000 0.000000 0.000000 0.000000 0.061829 0.000000
# 6 0.000000 0.000000 0.000000 0.000000 0.000000 0.026193
#
#
# Mechanical properties :
#
#
# Convention : Reuss Voigt Hill
#
# Bulk Modulus (GPa) = 16.52752 18.09952 17.31352
# Shear Modulus (GPa) = 25.17669 28.43934 26.80801
#
# Velocity S-wave (km/s) = 3.28917 3.49580 3.39405
# Velocity P-wave (km/s) = 4.63970 4.90628 4.77485
#
# Compressibility (1/GPa) = 0.06050515
#
# Stress axis : x y z
#
# Youngs Moduli (GPa) = 60.69399 81.43442 38.76439
#
# Poissons Ratio (x) = -0.08197 -0.05477
# Poissons Ratio (y) = -0.06109 -0.02158
# Poissons Ratio (z) = -0.08576 -0.04533
#
# Static dielectric constant tensor:
#      x y z
#    x 1.922750 0.000000 0.000000 
#    y 0.000000 1.867870 0.000000 
#    z 0.000000 0.000000 1.852050 
# 
# From -- ./inp_files/4693.got.cif
#   From: 2010.05.17/outbox.cif.g08.bks.cpg/sg58_3_cif.got.tgz:4693.got - 2010.06.03 14:20:14.
