data_PCOD9442680
_publ_section_title
;
Structure prediction by ZEFSAII (Michael W. Deem and Ramdas Pophale) SiO2 
 PCOD9442680
Probable space group: P N N M
;
_chemical_formula_sum "Si O2"
_cell_formula_units_Z 40
_cell_length_a 12.659451
_cell_length_b 9.031062
_cell_length_c 17.820705
_cell_angle_alpha 90.000000
_cell_angle_beta 90.000000
_cell_angle_gamma 90.000000
_cell_volume 2037.410673
_symmetry_space_group_name_H-M "P N N M"
_symmetry_group_IT_number 58
_symmetry_cell_setting 'orthorhombic'
loop_
_space_group_symop_operation_xyz
x,y,z
-x,-y,z
1/2+x,1/2-y,1/2-z
1/2-x,1/2+y,1/2-z
-x,-y,-z
x,y,-z
1/2-x,1/2+y,1/2+z
1/2+x,1/2-y,1/2+z
loop_
_atom_site_type_symbol
_atom_site_label
_atom_site_fract_x
_atom_site_fract_y
_atom_site_fract_z
Si Si1 0.871926 0.726991 0.337292
Si Si2 0.145986 0.663737 0.129028
Si Si3 0.625682 0.617137 0.000000
Si Si4 0.561765 0.151073 0.000000
Si Si5 0.958892 0.167896 0.000000
Si Si6 0.000000 0.000000 0.631808
Si Si7 0.000000 0.500000 0.241331
Si Si8 0.853685 0.588002 0.000000
O O1 0.754948 0.794199 0.329016
O O2 0.875019 0.677831 0.424424
O O3 0.911635 0.586696 0.289779
O O4 0.961159 0.854977 0.325199
O O5 0.058473 0.619251 0.189318
O O6 0.108815 0.796153 0.074444
O O7 0.150351 0.521732 0.072021
O O8 0.598842 0.527293 0.075344
O O9 0.534208 0.734963 0.000000
O O10 0.743166 0.674459 0.000000
O O11 0.500000 0.000000 0.000000
O O12 0.050668 0.296085 0.000000
O O13 0.000000 0.000000 0.000000
#
# Coordination Sequence:
#
# PCOD9442680 Si02
#       8
#     8   8   4   4   4   4   4   4
#     4  11  23  41  69  92 135 176 219 272 332 388
#     4  11  23  46  68  92 133 178 219 270 344 397
#     4   9  17  29  64  93 119 155 212 264 324 369
#     4  10  19  38  61  98 131 163 219 280 313 378
#     4  11  24  45  72 101 124 166 233 290 322 404
#     4   9  18  36  58  98 122 155 218 266 306 395
#     4  12  26  46  60  98 138 180 220 270 338 412
#     4  11  18  42  76  89 123 175 212 281 334 393
#
# _framework density 19.632762
#
# number of rings (size 3 to 8) (size 9 to 14) (size 15 to 20)
#    0.000    1.400    5.000    2.400    0.000    3.200 
#    5.400    0.000    0.000    0.000    0.000    0.000 
#    0.000    0.000    0.000    0.000    0.000    0.000 
#
# Total GULP energy -223019.840518 kJ/mol
# GULP energy per Si atom -5575.496013 kJ/mol
# Density = 1.958808 g / cm^3
# Si number density = 19.632762 Si / 1000 Ang^3
#
#
#
# Elastic Constant Matrix: (Units=GPa)
#
#
# Indices 1 2 3 4 5 6 
#
# 1 111.8863 15.4520 26.9348 0.0000 0.0000 0.0000
# 2 15.4520 88.4509 21.2465 0.0000 0.0000 0.0000
# 3 26.9348 21.2465 75.2018 0.0000 0.0000 0.0000
# 4 0.0000 0.0000 0.0000 4.4198 0.0000 0.0000
# 5 0.0000 0.0000 0.0000 0.0000 6.0299 0.0000
# 6 0.0000 0.0000 0.0000 0.0000 0.0000 23.5739
#
#
#
# Elastic Compliance Matrix: (Units=1/GPa)
#
#
# Indices 1 2 3 4 5 6 
#
# 1 0.009853 -0.000937 -0.003264 0.000000 0.000000 0.000000
# 2 -0.000937 0.012218 -0.003116 0.000000 0.000000 0.000000
# 3 -0.003264 -0.003116 0.015347 0.000000 0.000000 0.000000
# 4 0.000000 0.000000 0.000000 0.226256 0.000000 0.000000
# 5 0.000000 0.000000 0.000000 0.000000 0.165840 0.000000
# 6 0.000000 0.000000 0.000000 0.000000 0.000000 0.042420
#
#
# Mechanical properties :
#
#
# Convention : Reuss Voigt Hill
#
# Bulk Modulus (GPa) = 43.89288 44.75617 44.32452
# Shear Modulus (GPa) = 10.11811 20.93177 15.52494
#
# Velocity S-wave (km/s) = 2.27264 3.26876 2.81511
# Velocity P-wave (km/s) = 5.41221 6.09037 5.76127
#
# Compressibility (1/GPa) = 0.02278274
#
# Stress axis : x y z
#
# Youngs Moduli (GPa) = 101.49327 81.84670 65.15886
#
# Poissons Ratio (x) = 0.07670 0.21269
# Poissons Ratio (y) = 0.09512 0.20305
# Poissons Ratio (z) = 0.33129 0.25505
#
# Static dielectric constant tensor:
#      x y z
#    x 1.722680 0.000000 0.000000 
#    y 0.000000 1.558280 0.000000 
#    z 0.000000 0.000000 1.659160 
# 
# From -- ./inp_files/28780.got.cif
#   From: 2010.05.17/outbox.cif.g08.bks.cpg/sg58_15_cif.got.tgz:28780.got - 2010.06.03 14:20:14.
