data_PCOD9442161
_publ_section_title
;
Structure prediction by ZEFSAII (Michael W. Deem and Ramdas Pophale) SiO2 
 PCOD9442161
Probable space group: P N N M
;
_chemical_formula_sum "Si O2"
_cell_formula_units_Z 48
_cell_length_a 7.479187
_cell_length_b 26.974097
_cell_length_c 13.627117
_cell_angle_alpha 90.000000
_cell_angle_beta 90.000000
_cell_angle_gamma 90.000000
_cell_volume 2749.193393
_symmetry_space_group_name_H-M "P N N M"
_symmetry_group_IT_number 58
_symmetry_cell_setting 'orthorhombic'
loop_
_space_group_symop_operation_xyz
x,y,z
-x,-y,z
1/2+x,1/2-y,1/2-z
1/2-x,1/2+y,1/2-z
-x,-y,-z
x,y,-z
1/2-x,1/2+y,1/2+z
1/2+x,1/2-y,1/2+z
loop_
_atom_site_type_symbol
_atom_site_label
_atom_site_fract_x
_atom_site_fract_y
_atom_site_fract_z
Si Si1 0.280995 0.620742 0.614180
Si Si2 0.564199 0.555538 0.269991
Si Si3 0.461699 0.359839 0.114559
Si Si4 0.867709 0.599838 0.614993
Si Si5 0.269228 0.194359 0.286183
Si Si6 0.680552 0.192957 0.751061
O O1 0.310037 0.631542 0.500000
O O2 0.428166 0.583539 0.656270
O O3 0.284025 0.669895 0.681247
O O4 0.082130 0.597695 0.625352
O O5 0.500000 0.500000 0.254871
O O6 0.559229 0.587931 0.170772
O O7 0.758054 0.560308 0.321053
O O8 0.658051 0.337432 0.135629
O O9 0.325874 0.323040 0.170758
O O10 0.425581 0.363276 0.000000
O O11 0.824013 0.596224 0.500000
O O12 0.810874 0.653044 0.660675
O O13 0.482000 0.189679 0.293612
O O14 0.215499 0.251673 0.287755
#
# Coordination Sequence:
#
# PCOD9442161 Si02
#       6
#     8   8   8   8   8   8
#     4   9  19  34  52  77 108 139 172 214 266 325
#     4  10  21  37  56  77 103 136 177 228 274 313
#     4  10  22  38  55  78 108 143 184 222 260 313
#     4   9  19  34  52  77 108 139 172 214 266 325
#     4  10  19  34  54  78 112 144 178 217 260 312
#     4  10  19  34  54  78 112 144 178 217 260 312
#
# _framework density 17.459667
#
# number of rings (size 3 to 8) (size 9 to 14) (size 15 to 20)
#    0.000    2.333    1.667    0.500    0.000    4.333 
#    0.000    1.667    0.000    0.000    0.000    9.333 
#    0.000    0.000    0.000    0.000    0.000    0.000 
#
# Total GULP energy -267795.573704 kJ/mol
# GULP energy per Si atom -5579.074452 kJ/mol
# Density = 1.741993 g / cm^3
# Si number density = 17.459667 Si / 1000 Ang^3
#
#
#
# Elastic Constant Matrix: (Units=GPa)
#
#
# Indices 1 2 3 4 5 6 
#
# 1 36.6498 -6.6434 0.5251 0.0000 0.0000 0.0000
# 2 -6.6434 28.1741 -12.2252 0.0000 0.0000 0.0000
# 3 0.5251 -12.2252 70.1443 0.0000 0.0000 0.0000
# 4 0.0000 0.0000 0.0000 3.9934 0.0000 0.0000
# 5 0.0000 0.0000 0.0000 0.0000 13.0258 0.0000
# 6 0.0000 0.0000 0.0000 0.0000 0.0000 -0.2066
#
#
#
# Elastic Compliance Matrix: (Units=1/GPa)
#
#
# Indices 1 2 3 4 5 6 
#
# 1 0.028573 0.007188 0.001039 0.000000 0.000000 0.000000
# 2 0.007188 0.040206 0.006954 0.000000 0.000000 0.000000
# 3 0.001039 0.006954 0.015460 0.000000 0.000000 0.000000
# 4 0.000000 0.000000 0.000000 0.250412 0.000000 0.000000
# 5 0.000000 0.000000 0.000000 0.000000 0.076771 0.000000
# 6 0.000000 0.000000 0.000000 0.000000 0.000000 -4.839411
#
#
# Mechanical properties :
#
#
# Convention : Reuss Voigt Hill
#
# Bulk Modulus (GPa) = 8.72591 10.92014 9.82303
# Shear Modulus (GPa) = -1.13118 13.58329 6.22606
#
# Velocity S-wave (km/s) = -0.80579 2.79226 1.89042
# Velocity P-wave (km/s) = 2.03541 4.08212 3.22541
#
# Compressibility (1/GPa) = 0.11460118
#
# Stress axis : x y z
#
# Youngs Moduli (GPa) = 34.99758 24.87206 64.68119
#
# Poissons Ratio (x) = -0.17879 -0.06720
# Poissons Ratio (y) = -0.25158 -0.44976
# Poissons Ratio (z) = -0.03636 -0.17295
#
# Static dielectric constant tensor:
#      x y z
#    x 1.622000 0.000000 0.000000 
#    y 0.000000 1.569050 0.000000 
#    z 0.000000 0.000000 1.559360 
# 
# From -- ./inp_files/13085.got.cif
#   From: 2010.05.17/outbox.cif.g08.bks.cpg/sg58_7_cif.got.tgz:13085.got - 2010.06.03 14:20:14.
