data_PCOD9442651
_publ_section_title
;
Structure prediction by ZEFSAII (Michael W. Deem and Ramdas Pophale) SiO2 
 PCOD9442651
Probable space group: P N N M
;
_chemical_formula_sum "Si O2"
_cell_formula_units_Z 58
_cell_length_a 12.785514
_cell_length_b 12.262820
_cell_length_c 14.689723
_cell_angle_alpha 90.000000
_cell_angle_beta 90.000000
_cell_angle_gamma 90.000000
_cell_volume 2303.149620
_symmetry_space_group_name_H-M "P N N M"
_symmetry_group_IT_number 58
_symmetry_cell_setting 'orthorhombic'
loop_
_space_group_symop_operation_xyz
x,y,z
-x,-y,z
1/2+x,1/2-y,1/2-z
1/2-x,1/2+y,1/2-z
-x,-y,-z
x,y,-z
1/2-x,1/2+y,1/2+z
1/2+x,1/2-y,1/2+z
loop_
_atom_site_type_symbol
_atom_site_label
_atom_site_fract_x
_atom_site_fract_y
_atom_site_fract_z
Si Si1 0.417007 0.165614 0.390481
Si Si2 0.214123 0.880223 0.890215
Si Si3 0.914073 0.926025 0.852254
Si Si4 0.500000 0.500000 0.000000
Si Si5 0.851472 0.683597 0.107040
Si Si6 0.540208 0.117703 0.109328
Si Si7 0.474212 0.648084 0.163184
Si Si8 0.227150 0.011044 0.390819
O O1 0.429986 0.176189 0.500000
O O2 0.353622 0.274704 0.364526
O O3 0.534266 0.151218 0.354123
O O4 0.340295 0.065625 0.375682
O O5 0.336542 0.866599 0.874942
O O6 0.178076 0.988347 0.838626
O O7 0.201935 0.897356 0.000000
O O8 0.859887 0.815126 0.886844
O O9 0.982413 0.889658 0.765796
O O10 0.000000 0.000000 0.905695
O O11 0.532274 0.586438 0.082026
O O12 0.753213 0.612621 0.143273
O O13 0.848794 0.655751 0.000000
O O14 0.495869 0.226667 0.153594
O O15 0.500000 0.000000 0.140211
O O16 0.521721 0.123766 0.000000
O O17 0.355249 0.601632 0.145454
O O18 0.200423 0.015695 0.500000
#
# Coordination Sequence:
#
# PCOD9442651 Si02
#       8
#     8   8   8   2   8   8   8   8
#     4   9  16  31  63  93 121 158 211 260 317 394
#     4  10  20  38  66  96 127 176 222 267 338 409
#     4  12  25  40  59  91 134 175 218 274 336 404
#     4  12  24  44  70  96 116 180 228 266 340 394
#     4  10  21  37  59  94 131 168 210 261 327 408
#     4  10  21  43  72  99 127 171 232 288 334 393
#     4  12  24  44  67  92 129 169 226 282 334 402
#     4  10  19  37  63  90 123 165 215 266 325 399
#
# _framework density 25.182905999999999
#
# number of rings (size 3 to 8) (size 9 to 14) (size 15 to 20)
#    0.000    1.517    4.828    0.828    0.000    3.310 
#    2.483    4.138    0.000    0.000    0.000    0.000 
#    0.000    0.000    0.000    0.000    0.000    0.000 
#
# Total GULP energy -323216.180391 kJ/mol
# GULP energy per Si atom -5572.692765 kJ/mol
# Density = 2.512559 g / cm^3
# Si number density = 25.182906 Si / 1000 Ang^3
#
#
#
# Elastic Constant Matrix: (Units=GPa)
#
#
# Indices 1 2 3 4 5 6 
#
# 1 54.1648 29.3920 8.3334 0.0000 0.0000 0.0000
# 2 29.3920 184.4840 32.3742 0.0000 0.0000 0.0000
# 3 8.3334 32.3742 68.1688 0.0000 0.0000 0.0000
# 4 0.0000 0.0000 0.0000 31.8494 0.0000 0.0000
# 5 0.0000 0.0000 0.0000 0.0000 22.9393 0.0000
# 6 0.0000 0.0000 0.0000 0.0000 0.0000 55.6729
#
#
#
# Elastic Compliance Matrix: (Units=1/GPa)
#
#
# Indices 1 2 3 4 5 6 
#
# 1 0.020275 -0.003049 -0.001030 0.000000 0.000000 0.000000
# 2 -0.003049 0.006372 -0.002653 0.000000 0.000000 0.000000
# 3 -0.001030 -0.002653 0.016056 0.000000 0.000000 0.000000
# 4 0.000000 0.000000 0.000000 0.031398 0.000000 0.000000
# 5 0.000000 0.000000 0.000000 0.000000 0.043593 0.000000
# 6 0.000000 0.000000 0.000000 0.000000 0.000000 0.017962
#
#
# Mechanical properties :
#
#
# Convention : Reuss Voigt Hill
#
# Bulk Modulus (GPa) = 34.20373 49.66854 41.93613
# Shear Modulus (GPa) = 31.47267 37.87352 34.67310
#
# Velocity S-wave (km/s) = 3.53903 3.88227 3.71462
# Velocity P-wave (km/s) = 5.50557 6.31363 5.92340
#
# Compressibility (1/GPa) = 0.02923658
#
# Stress axis : x y z
#
# Youngs Moduli (GPa) = 49.32067 156.93683 62.28384
#
# Poissons Ratio (x) = 0.47857 0.06418
# Poissons Ratio (y) = 0.15040 0.16526
# Poissons Ratio (z) = 0.05082 0.41641
#
# Static dielectric constant tensor:
#      x y z
#    x 1.928170 0.000000 0.000000 
#    y 0.000000 2.042010 0.000000 
#    z 0.000000 0.000000 1.962790 
# 
# From -- ./inp_files/26968.got.cif
#   From: 2010.05.17/outbox.cif.g08.bks.cpg/sg58_14_cif.got.tgz:26968.got - 2010.06.03 14:20:14.
