data_PCOD9442843
_publ_section_title
;
Structure prediction by ZEFSAII (Michael W. Deem and Ramdas Pophale) SiO2 
 PCOD9442843
Probable space group: P N N M
;
_chemical_formula_sum "Si O2"
_cell_formula_units_Z 58
_cell_length_a 23.494660
_cell_length_b 13.531564
_cell_length_c 7.360486
_cell_angle_alpha 90.000000
_cell_angle_beta 90.000000
_cell_angle_gamma 90.000000
_cell_volume 2340.041995
_symmetry_space_group_name_H-M "P N N M"
_symmetry_group_IT_number 58
_symmetry_cell_setting 'orthorhombic'
loop_
_space_group_symop_operation_xyz
x,y,z
-x,-y,z
1/2+x,1/2-y,1/2-z
1/2-x,1/2+y,1/2-z
-x,-y,-z
x,y,-z
1/2-x,1/2+y,1/2+z
1/2+x,1/2-y,1/2+z
loop_
_atom_site_type_symbol
_atom_site_label
_atom_site_fract_x
_atom_site_fract_y
_atom_site_fract_z
Si Si1 0.500000 0.500000 0.000000
Si Si2 0.696403 0.450388 0.295335
Si Si3 0.036935 0.356292 0.221726
Si Si4 0.332789 0.220359 0.706777
Si Si5 0.100830 0.901530 0.297332
Si Si6 0.583683 0.931460 0.278058
Si Si7 0.735327 0.131057 0.779251
Si Si8 0.135611 0.235777 0.789898
O O1 0.461466 0.442235 0.841786
O O2 0.715741 0.425663 0.500000
O O3 0.639805 0.518070 0.301002
O O4 0.743481 0.523833 0.215110
O O5 0.673651 0.350675 0.204461
O O6 0.069038 0.457240 0.276907
O O7 0.073967 0.263333 0.286875
O O8 0.971905 0.368123 0.278307
O O9 0.037445 0.354133 0.000000
O O10 0.316387 0.197656 0.500000
O O11 0.386113 0.297136 0.706431
O O12 0.358850 0.120750 0.788571
O O13 0.280286 0.283985 0.781577
O O14 0.126429 0.891433 0.500000
O O15 0.585229 0.930880 0.500000
O O16 0.673984 0.166300 0.717754
O O17 0.737474 0.128455 0.000000
O O18 0.126990 0.207275 0.000000
#
# Coordination Sequence:
#
# PCOD9442843 Si02
#       8
#     2   8   8   8   8   8   8   8
#     4   8  20  32  46  72 108 130 170 212 252 318
#     4   9  19  36  54  73 101 136 173 221 261 302
#     4   8  15  28  46  74 106 129 160 217 264 310
#     4   9  17  31  53  76  97 134 179 218 256 310
#     4   9  18  33  49  69 103 133 165 206 259 308
#     4   8  14  27  49  75 103 131 163 210 270 304
#     4   9  19  34  49  71 106 137 170 213 263 313
#     4  10  20  33  53  80 103 131 179 218 259 313
#
# _framework density 24.785879999999999
#
# number of rings (size 3 to 8) (size 9 to 14) (size 15 to 20)
#    0.414    2.759    0.000    2.069    0.000    4.966 
#    0.000    4.138    0.000    0.828    0.000    1.931 
#    0.000    0.000    0.000    0.000    0.000    0.000 
#
# Total GULP energy -322883.244772 kJ/mol
# GULP energy per Si atom -5566.952496 kJ/mol
# Density = 2.472947 g / cm^3
# Si number density = 24.785880 Si / 1000 Ang^3
#
#
#
# Elastic Constant Matrix: (Units=GPa)
#
#
# Indices 1 2 3 4 5 6 
#
# 1 64.8299 32.6700 -6.5587 0.0000 0.0000 0.0000
# 2 32.6700 71.7606 -4.6214 0.0000 0.0000 0.0000
# 3 -6.5587 -4.6214 101.5434 0.0000 0.0000 0.0000
# 4 0.0000 0.0000 0.0000 1.7260 0.0000 0.0000
# 5 0.0000 0.0000 0.0000 0.0000 -17.9116 0.0000
# 6 0.0000 0.0000 0.0000 0.0000 0.0000 26.9760
#
#
#
# Elastic Compliance Matrix: (Units=1/GPa)
#
#
# Indices 1 2 3 4 5 6 
#
# 1 0.020096 -0.009092 0.000884 0.000000 0.000000 0.000000
# 2 -0.009092 0.018090 0.000236 0.000000 0.000000 0.000000
# 3 0.000884 0.000236 0.009916 0.000000 0.000000 0.000000
# 4 0.000000 0.000000 0.000000 0.579366 0.000000 0.000000
# 5 0.000000 0.000000 0.000000 0.000000 -0.055830 0.000000
# 6 0.000000 0.000000 0.000000 0.000000 0.000000 0.037070
#
#
# Mechanical properties :
#
#
# Convention : Reuss Voigt Hill
#
# Bulk Modulus (GPa) = 31.09637 31.23484 31.16560
# Shear Modulus (GPa) = 7.86942 16.60104 12.23523
#
# Velocity S-wave (km/s) = 1.78378 2.59081 2.22420
# Velocity P-wave (km/s) = 4.10070 4.64532 4.38148
#
# Compressibility (1/GPa) = 0.03215809
#
# Stress axis : x y z
#
# Youngs Moduli (GPa) = 49.76046 55.27992 100.84854
#
# Poissons Ratio (x) = 0.50261 -0.08917
# Poissons Ratio (y) = 0.45243 -0.02380
# Poissons Ratio (z) = -0.04400 -0.01305
#
# Static dielectric constant tensor:
#      x y z
#    x 1.939840 0.000000 0.000000 
#    y 0.000000 2.018630 0.000000 
#    z 0.000000 0.000000 1.940350 
# 
# From -- ./inp_files/9900.got.cif
#   From: 2010.05.17/outbox.cif.g08.bks.cpg/sg58_5_cif.got.tgz:9900.got - 2010.06.03 14:20:14.
