data_PCOD9442296
_publ_section_title
;
Structure prediction by ZEFSAII (Michael W. Deem and Ramdas Pophale) SiO2 
 PCOD9442296
Probable space group: P N N M
;
_chemical_formula_sum "Si O2"
_cell_formula_units_Z 64
_cell_length_a 14.308404
_cell_length_b 25.238559
_cell_length_c 7.840069
_cell_angle_alpha 90.000000
_cell_angle_beta 90.000000
_cell_angle_gamma 90.000000
_cell_volume 2831.233146
_symmetry_space_group_name_H-M "P N N M"
_symmetry_group_IT_number 58
_symmetry_cell_setting 'orthorhombic'
loop_
_space_group_symop_operation_xyz
x,y,z
-x,-y,z
1/2+x,1/2-y,1/2-z
1/2-x,1/2+y,1/2-z
-x,-y,-z
x,y,-z
1/2-x,1/2+y,1/2+z
1/2+x,1/2-y,1/2+z
loop_
_atom_site_type_symbol
_atom_site_label
_atom_site_fract_x
_atom_site_fract_y
_atom_site_fract_z
Si Si1 0.042008 0.055753 0.199219
Si Si2 0.794386 0.689401 0.803407
Si Si3 0.246352 0.089316 0.699634
Si Si4 0.301019 0.204566 0.299938
Si Si5 0.993640 0.327915 0.701830
Si Si6 0.516385 0.057536 0.801809
Si Si7 0.858113 0.105125 0.294894
Si Si8 0.206206 0.476647 0.794339
O O1 0.960676 0.099501 0.218933
O O2 0.136925 0.075529 0.284994
O O3 0.063273 0.047652 0.000000
O O4 0.000000 0.000000 0.268338
O O5 0.752775 0.748077 0.789945
O O6 0.713061 0.650610 0.732508
O O7 0.898303 0.687140 0.727069
O O8 0.806669 0.673034 0.000000
O O9 0.270768 0.091238 0.500000
O O10 0.271358 0.146748 0.771184
O O11 0.298184 0.037015 0.770316
O O12 0.276606 0.207088 0.500000
O O13 0.413119 0.208293 0.280297
O O14 0.976829 0.329434 0.500000
O O15 0.979625 0.387862 0.773728
O O16 0.628433 0.059914 0.789886
O O17 0.488241 0.055016 0.000000
O O18 0.867832 0.110642 0.500000
O O19 0.805317 0.049813 0.257716
O O20 0.000000 0.500000 0.781227
O O21 0.194383 0.475576 0.000000
#
# Coordination Sequence:
#
# PCOD9442296 Si02
#       8
#     8   8   8   8   8   8   8   8
#     4  11  23  36  57  91 127 164 205 252 310 372
#     4  11  24  44  68  93 123 163 211 261 310 365
#     4  10  22  40  62  88 123 165 207 253 308 371
#     4  11  25  44  66  94 125 163 211 260 311 367
#     4  11  23  41  66  94 127 166 206 252 308 369
#     4  10  21  35  55  88 127 164 199 244 306 368
#     4  10  21  38  62  88 118 158 204 250 303 364
#     4  10  19  34  58  87 117 155 200 248 302 361
#
# _framework density 22.604991999999999
#
# number of rings (size 3 to 8) (size 9 to 14) (size 15 to 20)
#    0.000    1.500    2.500    2.250    0.000    5.250 
#    0.000    1.250    0.000    0.000    0.000    0.000 
#    0.000    0.000    0.000    0.000    0.000    0.000 
#
# Total GULP energy -357583.036420 kJ/mol
# GULP energy per Si atom -5587.234944 kJ/mol
# Density = 2.255354 g / cm^3
# Si number density = 22.604992 Si / 1000 Ang^3
#
#
#
# Elastic Constant Matrix: (Units=GPa)
#
#
# Indices 1 2 3 4 5 6 
#
# 1 95.0360 29.6329 -6.3259 0.0000 0.0000 0.0000
# 2 29.6329 105.8759 -1.6274 0.0000 0.0000 0.0000
# 3 -6.3259 -1.6274 38.3171 0.0000 0.0000 0.0000
# 4 0.0000 0.0000 0.0000 17.9659 0.0000 0.0000
# 5 0.0000 0.0000 0.0000 0.0000 23.2938 0.0000
# 6 0.0000 0.0000 0.0000 0.0000 0.0000 35.2344
#
#
#
# Elastic Compliance Matrix: (Units=1/GPa)
#
#
# Indices 1 2 3 4 5 6 
#
# 1 0.011649 -0.003233 0.001786 0.000000 0.000000 0.000000
# 2 -0.003233 0.010348 -0.000094 0.000000 0.000000 0.000000
# 3 0.001786 -0.000094 0.026389 0.000000 0.000000 0.000000
# 4 0.000000 0.000000 0.000000 0.055661 0.000000 0.000000
# 5 0.000000 0.000000 0.000000 0.000000 0.042930 0.000000
# 6 0.000000 0.000000 0.000000 0.000000 0.000000 0.028381
#
#
# Mechanical properties :
#
#
# Convention : Reuss Voigt Hill
#
# Bulk Modulus (GPa) = 22.07313 31.39870 26.73592
# Shear Modulus (GPa) = 25.83409 29.80212 27.81811
#
# Velocity S-wave (km/s) = 3.38427 3.63490 3.51182
# Velocity P-wave (km/s) = 5.00569 5.61578 5.31949
#
# Compressibility (1/GPa) = 0.04530395
#
# Stress axis : x y z
#
# Youngs Moduli (GPa) = 85.84229 96.63303 37.89475
#
# Poissons Ratio (x) = 0.31241 -0.06768
# Poissons Ratio (y) = 0.27753 0.00357
# Poissons Ratio (z) = -0.15331 0.00911
#
# Static dielectric constant tensor:
#      x y z
#    x 1.862620 0.000000 0.000000 
#    y 0.000000 1.874550 0.000000 
#    z 0.000000 0.000000 1.815790 
# 
# From -- ./inp_files/4638.got.cif
#   From: 2010.05.17/outbox.cif.g08.bks.cpg/sg58_3_cif.got.tgz:4638.got - 2010.06.03 14:20:14.
