data_PCOD9442992
_publ_section_title
;
Structure prediction by ZEFSAII (Michael W. Deem and Ramdas Pophale) SiO2 
 PCOD9442992
Probable space group: P N N M
;
_chemical_formula_sum "Si O2"
_cell_formula_units_Z 64
_cell_length_a 9.980478
_cell_length_b 16.251001
_cell_length_c 18.153214
_cell_angle_alpha 90.000000
_cell_angle_beta 90.000000
_cell_angle_gamma 90.000000
_cell_volume 2944.319844
_symmetry_space_group_name_H-M "P N N M"
_symmetry_group_IT_number 58
_symmetry_cell_setting 'orthorhombic'
loop_
_space_group_symop_operation_xyz
x,y,z
-x,-y,z
1/2+x,1/2-y,1/2-z
1/2-x,1/2+y,1/2-z
-x,-y,-z
x,y,-z
1/2-x,1/2+y,1/2+z
1/2+x,1/2-y,1/2+z
loop_
_atom_site_type_symbol
_atom_site_label
_atom_site_fract_x
_atom_site_fract_y
_atom_site_fract_z
Si Si1 0.289056 0.728531 0.917788
Si Si2 0.014196 0.334569 0.916024
Si Si3 0.238673 0.578919 0.580322
Si Si4 0.485378 0.586888 0.315834
Si Si5 0.791266 0.242357 0.419932
Si Si6 0.985948 0.228512 0.701642
Si Si7 0.736489 0.089836 0.125742
Si Si8 0.442956 0.907820 0.260244
O O1 0.135921 0.699664 0.904605
O O2 0.387754 0.706831 0.851041
O O3 0.296962 0.827184 0.915435
O O4 0.327965 0.699589 0.000000
O O5 0.130542 0.264841 0.915146
O O6 0.055102 0.393349 0.848286
O O7 0.018232 0.369375 0.000000
O O8 0.306176 0.576522 0.500000
O O9 0.341753 0.588361 0.646681
O O10 0.157816 0.663430 0.579982
O O11 0.170336 0.491516 0.592349
O O12 0.500000 0.500000 0.272753
O O13 0.506849 0.668728 0.270352
O O14 0.603152 0.581439 0.376142
O O15 0.828006 0.206131 0.500000
O O16 0.857918 0.206348 0.347942
O O17 0.985236 0.324171 0.728343
O O18 0.692371 0.094917 0.211422
O O19 0.500000 0.000000 0.247143
#
# Coordination Sequence:
#
# PCOD9442992 Si02
#       8
#     8   8   8   8   8   8   8   8
#     4  10  21  37  58  84 113 149 191 234 286 341
#     4  10  22  39  58  80 108 147 196 242 281 328
#     4  10  20  34  55  85 119 151 187 233 286 347
#     4  10  22  36  56  85 114 148 190 233 284 340
#     4  10  20  36  59  83 110 149 192 232 281 341
#     4  11  22  38  59  84 117 151 186 234 287 337
#     4  10  20  34  54  83 116 149 184 232 289 346
#     4  11  23  37  57  83 114 151 192 234 282 341
#
# _framework density 21.736768999999999
#
# number of rings (size 3 to 8) (size 9 to 14) (size 15 to 20)
#    0.000    1.750    0.000    4.500    0.000    9.000 
#    0.000    0.000    0.000    9.000    0.000    0.000 
#    0.000    0.000    0.000    0.000    0.000    0.000 
#
# Total GULP energy -356741.940891 kJ/mol
# GULP energy per Si atom -5574.092826 kJ/mol
# Density = 2.168730 g / cm^3
# Si number density = 21.736769 Si / 1000 Ang^3
#
#
#
# Elastic Constant Matrix: (Units=GPa)
#
#
# Indices 1 2 3 4 5 6 
#
# 1 54.5377 0.3602 15.9785 0.0000 0.0000 0.0000
# 2 0.3602 72.8158 18.8844 0.0000 0.0000 0.0000
# 3 15.9785 18.8844 111.9916 0.0000 0.0000 0.0000
# 4 0.0000 0.0000 0.0000 18.3506 0.0000 0.0000
# 5 0.0000 0.0000 0.0000 0.0000 15.5499 0.0000
# 6 0.0000 0.0000 0.0000 0.0000 0.0000 15.6850
#
#
#
# Elastic Compliance Matrix: (Units=1/GPa)
#
#
# Indices 1 2 3 4 5 6 
#
# 1 0.019165 0.000642 -0.002843 0.000000 0.000000 0.000000
# 2 0.000642 0.014383 -0.002517 0.000000 0.000000 0.000000
# 3 -0.002843 -0.002517 0.009759 0.000000 0.000000 0.000000
# 4 0.000000 0.000000 0.000000 0.054494 0.000000 0.000000
# 5 0.000000 0.000000 0.000000 0.000000 0.064309 0.000000
# 6 0.000000 0.000000 0.000000 0.000000 0.000000 0.063755
#
#
# Mechanical properties :
#
#
# Convention : Reuss Voigt Hill
#
# Bulk Modulus (GPa) = 29.52263 34.42124 31.97193
# Shear Modulus (GPa) = 20.27654 23.52522 21.90088
#
# Velocity S-wave (km/s) = 3.05753 3.29337 3.17764
# Velocity P-wave (km/s) = 5.10647 5.50741 5.31072
#
# Compressibility (1/GPa) = 0.03387232
#
# Stress axis : x y z
#
# Youngs Moduli (GPa) = 52.17968 69.52716 102.46701
#
# Poissons Ratio (x) = -0.04467 0.29128
# Poissons Ratio (y) = -0.03352 0.25790
# Poissons Ratio (z) = 0.14833 0.17500
#
# Static dielectric constant tensor:
#      x y z
#    x 1.829620 0.000000 0.000000 
#    y 0.000000 1.836120 0.000000 
#    z 0.000000 0.000000 1.821810 
# 
# From -- ./inp_files/26370.got.cif
#   From: 2010.05.17/outbox.cif.g08.bks.cpg/sg58_14_cif.got.tgz:26370.got - 2010.06.03 14:20:14.
