data_PCOD9442454
_publ_section_title
;
Structure prediction by ZEFSAII (Michael W. Deem and Ramdas Pophale) SiO2 
 PCOD9442454
Probable space group: P N N M
;
_chemical_formula_sum "Si O2"
_cell_formula_units_Z 48
_cell_length_a 15.573527
_cell_length_b 19.485028
_cell_length_c 7.742688
_cell_angle_alpha 90.000000
_cell_angle_beta 90.000000
_cell_angle_gamma 90.000000
_cell_volume 2349.523394
_symmetry_space_group_name_H-M "P N N M"
_symmetry_group_IT_number 58
_symmetry_cell_setting 'orthorhombic'
loop_
_space_group_symop_operation_xyz
x,y,z
-x,-y,z
1/2+x,1/2-y,1/2-z
1/2-x,1/2+y,1/2-z
-x,-y,-z
x,y,-z
1/2-x,1/2+y,1/2+z
1/2+x,1/2-y,1/2+z
loop_
_atom_site_type_symbol
_atom_site_label
_atom_site_fract_x
_atom_site_fract_y
_atom_site_fract_z
Si Si1 0.629762 0.822237 0.200497
Si Si2 0.725972 0.426224 0.711297
Si Si3 0.031230 0.076185 0.210862
Si Si4 0.625318 0.666254 0.702549
Si Si5 0.285556 0.921066 0.790549
Si Si6 0.481375 0.923105 0.702714
O O1 0.706621 0.869374 0.272210
O O2 0.622667 0.747664 0.282225
O O3 0.543432 0.866891 0.215246
O O4 0.648337 0.809853 0.000000
O O5 0.727115 0.425900 0.500000
O O6 0.628771 0.412722 0.768877
O O7 0.756635 0.502295 0.762213
O O8 0.960563 0.130405 0.273855
O O9 0.033994 0.078493 0.000000
O O10 0.000000 0.000000 0.257902
O O11 0.625752 0.648103 0.500000
O O12 0.712937 0.632191 0.771411
O O13 0.381295 0.907107 0.726278
O O14 0.289505 0.919665 0.000000
O O15 0.502426 0.923844 0.500000
O O16 0.500000 0.000000 0.772412
#
# Coordination Sequence:
#
# PCOD9442454 Si02
#       6
#     8   8   8   8   8   8
#     4  11  23  38  57  82 119 158 194 236 287 353
#     4   9  17  31  55  84 109 144 192 233 274 335
#     4   9  15  29  56  87 112 141 187 235 278 334
#     4  10  21  36  58  88 121 150 186 240 292 340
#     4  10  19  35  60  87 114 149 193 237 284 346
#     4  11  23  38  59  86 114 148 195 250 300 344
#
# _framework density 20.429676000000001
#
# number of rings (size 3 to 8) (size 9 to 14) (size 15 to 20)
#    0.000    2.000    3.333    1.000    0.000    2.667 
#    0.000    1.667    0.000    2.500    0.000    0.000 
#    0.000    0.000    0.000    0.000    0.000    0.000 
#
# Total GULP energy -268089.343408 kJ/mol
# GULP energy per Si atom -5585.194654 kJ/mol
# Density = 2.038318 g / cm^3
# Si number density = 20.429676 Si / 1000 Ang^3
#
#
#
# Elastic Constant Matrix: (Units=GPa)
#
#
# Indices 1 2 3 4 5 6 
#
# 1 191.6004 78.9899 -12.2475 0.0000 0.0000 0.0000
# 2 78.9899 126.8603 -14.0651 0.0000 0.0000 0.0000
# 3 -12.2475 -14.0651 26.5049 0.0000 0.0000 0.0000
# 4 0.0000 0.0000 0.0000 8.1249 0.0000 0.0000
# 5 0.0000 0.0000 0.0000 0.0000 -674.3334 0.0000
# 6 0.0000 0.0000 0.0000 0.0000 0.0000 34.2001
#
#
#
# Elastic Compliance Matrix: (Units=1/GPa)
#
#
# Indices 1 2 3 4 5 6 
#
# 1 0.007046 -0.004278 0.000986 0.000000 0.000000 0.000000
# 2 -0.004278 0.010973 0.003846 0.000000 0.000000 0.000000
# 3 0.000986 0.003846 0.040225 0.000000 0.000000 0.000000
# 4 0.000000 0.000000 0.000000 0.123078 0.000000 0.000000
# 5 0.000000 0.000000 0.000000 0.000000 -0.001483 0.000000
# 6 0.000000 0.000000 0.000000 0.000000 0.000000 0.029240
#
#
# Mechanical properties :
#
#
# Convention : Reuss Voigt Hill
#
# Bulk Modulus (GPa) = 16.84872 50.03558 33.44215
# Shear Modulus (GPa) = 21.95346 -106.91579 -42.48117
#
# Velocity S-wave (km/s) = 3.28165 -7.24204 -4.56497
# Velocity P-wave (km/s) = 4.75647 6.73682 3.37348
#
# Compressibility (1/GPa) = 0.05935167
#
# Stress axis : x y z
#
# Youngs Moduli (GPa) = 141.92896 91.13549 24.86000
#
# Poissons Ratio (x) = 0.38986 -0.02450
# Poissons Ratio (y) = 0.60714 -0.09561
# Poissons Ratio (z) = -0.13990 -0.35051
#
# Static dielectric constant tensor:
#      x y z
#    x 1.713240 0.000000 0.000000 
#    y 0.000000 1.681330 0.000000 
#    z 0.000000 0.000000 1.755110 
# 
# From -- ./inp_files/5903.got.cif
#   From: 2010.05.17/outbox.cif.g08.bks.cpg/sg58_3_cif.got.tgz:5903.got - 2010.06.03 14:20:14.
