data_PCOD9442509
_publ_section_title
;
Structure prediction by ZEFSAII (Michael W. Deem and Ramdas Pophale) SiO2 
 PCOD9442509
Probable space group: P N N M
;
_chemical_formula_sum "Si O2"
_cell_formula_units_Z 64
_cell_length_a 12.193133
_cell_length_b 11.965324
_cell_length_c 18.183891
_cell_angle_alpha 90.000000
_cell_angle_beta 90.000000
_cell_angle_gamma 90.000000
_cell_volume 2652.934903
_symmetry_space_group_name_H-M "P N N M"
_symmetry_group_IT_number 58
_symmetry_cell_setting 'orthorhombic'
loop_
_space_group_symop_operation_xyz
x,y,z
-x,-y,z
1/2+x,1/2-y,1/2-z
1/2-x,1/2+y,1/2-z
-x,-y,-z
x,y,-z
1/2-x,1/2+y,1/2+z
1/2+x,1/2-y,1/2+z
loop_
_atom_site_type_symbol
_atom_site_label
_atom_site_fract_x
_atom_site_fract_y
_atom_site_fract_z
Si Si1 0.567311 0.228512 0.815304
Si Si2 0.149549 0.044058 0.243896
Si Si3 0.642043 0.404900 0.583531
Si Si4 0.320710 0.258307 0.868014
Si Si5 0.154320 0.418078 0.204969
Si Si6 0.620772 0.521178 0.900450
Si Si7 0.494146 0.825871 0.414745
Si Si8 0.241882 0.703146 0.916259
O O1 0.097847 0.163301 0.734708
O O2 0.447044 0.238524 0.848795
O O3 0.570216 0.120193 0.765918
O O4 0.669448 0.224344 0.871947
O O5 0.126898 0.021188 0.157963
O O6 0.106681 0.969387 0.311518
O O7 0.278515 0.024047 0.263959
O O8 0.633695 0.452166 0.500000
O O9 0.760338 0.347570 0.597890
O O10 0.560717 0.297849 0.587822
O O11 0.241237 0.312767 0.805076
O O12 0.326066 0.363641 0.922804
O O13 0.084657 0.410161 0.130081
O O14 0.500000 0.500000 0.927817
O O15 0.699363 0.418299 0.916299
O O16 0.499891 0.859855 0.500000
O O17 0.618776 0.811115 0.386141
O O18 0.231966 0.743621 0.000000
#
# Coordination Sequence:
#
# PCOD9442509 Si02
#       8
#     8   8   8   8   8   8   8   8
#     4  11  21  38  60  88 126 162 210 268 321 375
#     4  10  20  39  60  96 121 157 214 263 313 373
#     4  10  21  40  64  88 122 169 213 262 318 379
#     4  10  20  37  59  90 117 161 215 259 321 371
#     4  10  22  36  66  94 118 170 211 270 316 382
#     4  10  19  36  57  90 124 159 205 258 315 376
#     4   9  19  39  62  90 127 166 206 254 323 392
#     4  10  22  37  58  89 129 168 200 254 322 388
#
# _framework density 24.124226
#
# number of rings (size 3 to 8) (size 9 to 14) (size 15 to 20)
#    0.000    2.000    5.000    0.000    1.750    1.250 
#    0.000   21.250    0.000   25.875    0.000    0.000 
#    0.000    0.000    0.000    0.000    0.000    0.000 
#
# Total GULP energy -356683.725746 kJ/mol
# GULP energy per Si atom -5573.183215 kJ/mol
# Density = 2.406932 g / cm^3
# Si number density = 24.124226 Si / 1000 Ang^3
#
#
#
# Elastic Constant Matrix: (Units=GPa)
#
#
# Indices 1 2 3 4 5 6 
#
# 1 174.7777 23.5143 35.8576 0.0000 0.0000 0.0000
# 2 23.5143 20.4256 15.7663 0.0000 0.0000 0.0000
# 3 35.8576 15.7663 167.2251 0.0000 0.0000 0.0000
# 4 0.0000 0.0000 0.0000 24.3600 0.0000 0.0000
# 5 0.0000 0.0000 0.0000 0.0000 -10.7542 0.0000
# 6 0.0000 0.0000 0.0000 0.0000 0.0000 30.9399
#
#
#
# Elastic Compliance Matrix: (Units=1/GPa)
#
#
# Indices 1 2 3 4 5 6 
#
# 1 0.006864 -0.007297 -0.000784 0.000000 0.000000 0.000000
# 2 -0.007297 0.060558 -0.004145 0.000000 0.000000 0.000000
# 3 -0.000784 -0.004145 0.006539 0.000000 0.000000 0.000000
# 4 0.000000 0.000000 0.000000 0.041051 0.000000 0.000000
# 5 0.000000 0.000000 0.000000 0.000000 -0.092987 0.000000
# 6 0.000000 0.000000 0.000000 0.000000 0.000000 0.032321
#
#
# Mechanical properties :
#
#
# Convention : Reuss Voigt Hill
#
# Bulk Modulus (GPa) = 20.19819 56.96720 38.58270
# Shear Modulus (GPa) = 52.46585 28.06181 40.26383
#
# Velocity S-wave (km/s) = 4.66856 3.41430 4.08980
# Velocity P-wave (km/s) = 6.11975 6.26168 6.19112
#
# Compressibility (1/GPa) = 0.04950938
#
# Stress axis : x y z
#
# Youngs Moduli (GPa) = 145.68547 16.51313 152.93259
#
# Poissons Ratio (x) = 0.12050 0.11988
# Poissons Ratio (y) = 1.06307 0.63388
# Poissons Ratio (z) = 0.11420 0.06844
#
# Static dielectric constant tensor:
#      x y z
#    x 1.988130 0.000000 0.000000 
#    y 0.000000 1.975250 0.000000 
#    z 0.000000 0.000000 2.019400 
# 
# From -- ./inp_files/26379.got.cif
#   From: 2010.05.17/outbox.cif.g08.bks.cpg/sg58_14_cif.got.tgz:26379.got - 2010.06.03 14:20:14.
