data_PCOD9442910
_publ_section_title
;
Structure prediction by ZEFSAII (Michael W. Deem and Ramdas Pophale) SiO2 
 PCOD9442910
Probable space group: P N N M
;
_chemical_formula_sum "Si O2"
_cell_formula_units_Z 64
_cell_length_a 8.620629
_cell_length_b 29.054365
_cell_length_c 13.226846
_cell_angle_alpha 90.000000
_cell_angle_beta 90.000000
_cell_angle_gamma 90.000000
_cell_volume 3312.887134
_symmetry_space_group_name_H-M "P N N M"
_symmetry_group_IT_number 58
_symmetry_cell_setting 'orthorhombic'
loop_
_space_group_symop_operation_xyz
x,y,z
-x,-y,z
1/2+x,1/2-y,1/2-z
1/2-x,1/2+y,1/2-z
-x,-y,-z
x,y,-z
1/2-x,1/2+y,1/2+z
1/2+x,1/2-y,1/2+z
loop_
_atom_site_type_symbol
_atom_site_label
_atom_site_fract_x
_atom_site_fract_y
_atom_site_fract_z
Si Si1 0.024690 0.357032 0.618416
Si Si2 0.705791 0.682427 0.882102
Si Si3 0.313223 0.006368 0.889459
Si Si4 0.771787 0.286993 0.379496
Si Si5 0.335295 0.078993 0.271548
Si Si6 0.572736 0.357850 0.250134
Si Si7 0.859849 0.588710 0.115254
Si Si8 0.308810 0.412387 0.318005
O O1 0.009473 0.366603 0.500000
O O2 0.946301 0.307332 0.636749
O O3 0.923135 0.392599 0.682908
O O4 0.199197 0.369307 0.650027
O O5 0.745491 0.733951 0.848960
O O6 0.559922 0.663631 0.819794
O O7 0.844002 0.644716 0.876939
O O8 0.661680 0.685366 0.000000
O O9 0.234525 0.956481 0.882998
O O10 0.500000 0.000000 0.884919
O O11 0.272865 0.035150 0.789301
O O12 0.276833 0.027311 0.000000
O O13 0.740202 0.290916 0.500000
O O14 0.658107 0.319344 0.315866
O O15 0.199963 0.112276 0.309663
O O16 0.470259 0.071123 0.353063
O O17 0.482528 0.394418 0.320674
O O18 0.741075 0.573835 0.203100
O O19 0.821154 0.576226 0.000000
#
# Coordination Sequence:
#
# PCOD9442910 Si02
#       8
#     8   8   8   8   8   8   8   8
#     4   9  16  30  50  72 104 141 176 216 264 320
#     4   9  19  37  57  77 104 144 188 227 267 318
#     4  11  20  34  58  83 107 141 182 219 256 323
#     4   9  19  34  53  78 108 141 179 223 272 322
#     4  10  20  34  51  78 106 136 179 222 269 321
#     4  10  22  35  53  79 113 145 173 226 281 320
#     4   9  18  34  55  75 101 137 180 225 268 315
#     4  10  20  34  52  79 108 142 183 217 266 324
#
# _framework density 19.318498000000002
#
# number of rings (size 3 to 8) (size 9 to 14) (size 15 to 20)
#    0.000    2.375    2.500    0.750    0.000    6.500 
#    0.000    1.875    0.000    5.250    0.000    4.375 
#    0.000    0.000    0.000    0.000    0.000    0.000 
#
# Total GULP energy -356540.946212 kJ/mol
# GULP energy per Si atom -5570.952285 kJ/mol
# Density = 1.927453 g / cm^3
# Si number density = 19.318498 Si / 1000 Ang^3
#
#
#
# Elastic Constant Matrix: (Units=GPa)
#
#
# Indices 1 2 3 4 5 6 
#
# 1 54.5008 11.6888 2.2679 0.0000 0.0000 0.0000
# 2 11.6888 57.8740 14.7355 0.0000 0.0000 0.0000
# 3 2.2679 14.7355 67.4249 0.0000 0.0000 0.0000
# 4 0.0000 0.0000 0.0000 17.5128 0.0000 0.0000
# 5 0.0000 0.0000 0.0000 0.0000 13.8550 0.0000
# 6 0.0000 0.0000 0.0000 0.0000 0.0000 22.1682
#
#
#
# Elastic Compliance Matrix: (Units=1/GPa)
#
#
# Indices 1 2 3 4 5 6 
#
# 1 0.019182 -0.003929 0.000213 0.000000 0.000000 0.000000
# 2 -0.003929 0.019102 -0.004042 0.000000 0.000000 0.000000
# 3 0.000213 -0.004042 0.015708 0.000000 0.000000 0.000000
# 4 0.000000 0.000000 0.000000 0.057101 0.000000 0.000000
# 5 0.000000 0.000000 0.000000 0.000000 0.072176 0.000000
# 6 0.000000 0.000000 0.000000 0.000000 0.000000 0.045110
#
#
# Mechanical properties :
#
#
# Convention : Reuss Voigt Hill
#
# Bulk Modulus (GPa) = 25.99020 26.35378 26.17199
# Shear Modulus (GPa) = 19.47657 20.78103 20.12880
#
# Velocity S-wave (km/s) = 3.17863 3.28335 3.23142
# Velocity P-wave (km/s) = 5.19176 5.29578 5.24402
#
# Compressibility (1/GPa) = 0.03847604
#
# Stress axis : x y z
#
# Youngs Moduli (GPa) = 52.13214 52.35156 63.66341
#
# Poissons Ratio (x) = 0.20566 -0.01358
# Poissons Ratio (y) = 0.20480 0.25736
# Poissons Ratio (z) = -0.01112 0.21163
#
# Static dielectric constant tensor:
#      x y z
#    x 1.689450 0.000000 0.000000 
#    y 0.000000 1.718760 0.000000 
#    z 0.000000 0.000000 1.681940 
# 
# From -- ./inp_files/20425.got.cif
#   From: 2010.05.17/outbox.cif.g08.bks.cpg/sg58_11_cif.got.tgz:20425.got - 2010.06.03 14:20:14.
