data_PCOD9442231
_publ_section_title
;
Structure prediction by ZEFSAII (Michael W. Deem and Ramdas Pophale) SiO2 
 PCOD9442231
Probable space group: P N N M
;
_chemical_formula_sum "Si O2"
_cell_formula_units_Z 64
_cell_length_a 24.619765
_cell_length_b 15.639860
_cell_length_c 7.382906
_cell_angle_alpha 90.000000
_cell_angle_beta 90.000000
_cell_angle_gamma 90.000000
_cell_volume 2842.785577
_symmetry_space_group_name_H-M "P N N M"
_symmetry_group_IT_number 58
_symmetry_cell_setting 'orthorhombic'
loop_
_space_group_symop_operation_xyz
x,y,z
-x,-y,z
1/2+x,1/2-y,1/2-z
1/2-x,1/2+y,1/2-z
-x,-y,-z
x,y,-z
1/2-x,1/2+y,1/2+z
1/2+x,1/2-y,1/2+z
loop_
_atom_site_type_symbol
_atom_site_label
_atom_site_fract_x
_atom_site_fract_y
_atom_site_fract_z
Si Si1 0.104209 0.858305 0.707343
Si Si2 0.214419 0.932942 0.277757
Si Si3 0.376373 0.166365 0.719028
Si Si4 0.421758 0.756547 0.277771
Si Si5 0.987109 0.906465 0.795052
Si Si6 0.799726 0.709462 0.209347
Si Si7 0.260010 0.114223 0.281107
Si Si8 0.007447 0.597626 0.220745
O O1 0.093940 0.883450 0.500000
O O2 0.153106 0.914564 0.783638
O O3 0.127024 0.762795 0.713751
O O4 0.046059 0.861654 0.801020
O O5 0.212883 0.928221 0.500000
O O6 0.258375 0.862103 0.215829
O O7 0.232337 0.026930 0.222805
O O8 0.377034 0.168855 0.500000
O O9 0.322799 0.116335 0.775479
O O10 0.433191 0.127890 0.779260
O O11 0.422251 0.753288 0.500000
O O12 0.445717 0.664211 0.216967
O O13 0.360559 0.777392 0.216286
O O14 0.462312 0.833173 0.223192
O O15 0.967530 0.924140 0.000000
O O16 0.000000 0.000000 0.712539
O O17 0.769820 0.800467 0.217667
O O18 0.808060 0.684408 0.000000
O O19 0.258550 0.116219 0.500000
O O20 0.000000 0.500000 0.279262
O O21 0.006254 0.597615 0.000000
#
# Coordination Sequence:
#
# PCOD9442231 Si02
#       8
#     8   8   8   8   8   8   8   8
#     4  11  21  36  57  79 108 147 185 222 271 326
#     4   9  20  36  53  78 112 143 176 222 273 324
#     4  10  19  34  57  81 107 137 178 227 272 315
#     4   9  18  32  51  77 108 138 171 214 264 314
#     4  10  21  37  56  81 111 141 180 230 274 315
#     4  10  20  36  56  78 108 144 179 219 269 324
#     4  10  21  36  55  79 107 142 179 221 270 319
#     4   9  17  29  51  83 108 129 167 219 267 316
#
# _framework density 22.513128999999999
#
# number of rings (size 3 to 8) (size 9 to 14) (size 15 to 20)
#    0.000    2.250    2.500    0.375    3.500    0.250 
#    0.000    1.875    0.000    0.375    0.000    0.000 
#    0.000    0.000    0.000    0.000    0.000    0.000 
#
# Total GULP energy -357490.809388 kJ/mol
# GULP energy per Si atom -5585.793897 kJ/mol
# Density = 2.246189 g / cm^3
# Si number density = 22.513129 Si / 1000 Ang^3
#
#
#
# Elastic Constant Matrix: (Units=GPa)
#
#
# Indices 1 2 3 4 5 6 
#
# 1 66.3541 -40.1344 -4.1184 0.0000 0.0000 0.0000
# 2 -40.1344 45.9964 -12.0384 0.0000 0.0000 0.0000
# 3 -4.1184 -12.0384 76.7498 0.0000 0.0000 0.0000
# 4 0.0000 0.0000 0.0000 3.4507 0.0000 0.0000
# 5 0.0000 0.0000 0.0000 0.0000 19.1704 0.0000
# 6 0.0000 0.0000 0.0000 0.0000 0.0000 42.4521
#
#
#
# Elastic Compliance Matrix: (Units=1/GPa)
#
#
# Indices 1 2 3 4 5 6 
#
# 1 0.035175 0.032521 0.006989 0.000000 0.000000 0.000000
# 2 0.032521 0.052739 0.010017 0.000000 0.000000 0.000000
# 3 0.006989 0.010017 0.014976 0.000000 0.000000 0.000000
# 4 0.000000 0.000000 0.000000 0.289792 0.000000 0.000000
# 5 0.000000 0.000000 0.000000 0.000000 0.052164 0.000000
# 6 0.000000 0.000000 0.000000 0.000000 0.000000 0.023556
#
#
# Mechanical properties :
#
#
# Convention : Reuss Voigt Hill
#
# Bulk Modulus (GPa) = 4.95189 8.50198 6.72693
# Shear Modulus (GPa) = 11.45051 29.37410 20.41230
#
# Velocity S-wave (km/s) = 2.25770 3.61606 3.01439
# Velocity P-wave (km/s) = 3.00010 4.60642 3.88714
#
# Compressibility (1/GPa) = 0.20194329
#
# Stress axis : x y z
#
# Youngs Moduli (GPa) = 28.42941 18.96130 66.77524
#
# Poissons Ratio (x) = -0.61664 -0.46666
# Poissons Ratio (y) = -0.92455 -0.66891
# Poissons Ratio (z) = -0.19868 -0.18994
#
# Static dielectric constant tensor:
#      x y z
#    x 1.828180 0.000000 0.000000 
#    y 0.000000 1.799050 0.000000 
#    z 0.000000 0.000000 1.881270 
# 
# From -- ./inp_files/6986.got.cif
#   From: 2010.05.17/outbox.cif.g08.bks.cpg/sg58_4_cif.got.tgz:6986.got - 2010.06.03 14:20:14.
