data_PCOD9442242
_publ_section_title
;
Structure prediction by ZEFSAII (Michael W. Deem and Ramdas Pophale) SiO2 
 PCOD9442242
Probable space group: P N N M
;
_chemical_formula_sum "Si O2"
_cell_formula_units_Z 64
_cell_length_a 29.487290
_cell_length_b 12.966729
_cell_length_c 7.722183
_cell_angle_alpha 90.000000
_cell_angle_beta 90.000000
_cell_angle_gamma 90.000000
_cell_volume 2952.605230
_symmetry_space_group_name_H-M "P N N M"
_symmetry_group_IT_number 58
_symmetry_cell_setting 'orthorhombic'
loop_
_space_group_symop_operation_xyz
x,y,z
-x,-y,z
1/2+x,1/2-y,1/2-z
1/2-x,1/2+y,1/2-z
-x,-y,-z
x,y,-z
1/2-x,1/2+y,1/2+z
1/2+x,1/2-y,1/2+z
loop_
_atom_site_type_symbol
_atom_site_label
_atom_site_fract_x
_atom_site_fract_y
_atom_site_fract_z
Si Si1 0.552092 0.513302 0.290494
Si Si2 0.062959 0.752073 0.211238
Si Si3 0.622749 0.157194 0.791667
Si Si4 0.481580 0.889169 0.291095
Si Si5 0.203052 0.929855 0.204197
Si Si6 0.137143 0.113885 0.299493
Si Si7 0.300518 0.998981 0.208534
Si Si8 0.661407 0.783745 0.708124
O O1 0.500000 0.500000 0.240304
O O2 0.554897 0.505326 0.500000
O O3 0.566207 0.628475 0.239123
O O4 0.586191 0.429746 0.215815
O O5 0.109613 0.698906 0.268927
O O6 0.017167 0.697144 0.271885
O O7 0.061281 0.750210 0.000000
O O8 0.570409 0.132544 0.753571
O O9 0.637043 0.270613 0.725145
O O10 0.657237 0.069596 0.727277
O O11 0.626488 0.161124 0.000000
O O12 0.483785 0.889862 0.500000
O O13 0.500000 0.000000 0.229991
O O14 0.252483 0.957409 0.276388
O O15 0.180913 0.824901 0.275860
O O16 0.169750 0.027525 0.219752
O O17 0.209248 0.910582 0.000000
O O18 0.150346 0.120093 0.500000
O O19 0.308175 0.118381 0.250046
O O20 0.299938 0.990767 0.000000
O O21 0.658647 0.775446 0.500000
#
# Coordination Sequence:
#
# PCOD9442242 Si02
#       8
#     8   8   8   8   8   8   8   8
#     4  10  19  34  57  82 113 156 197 236 291 350
#     4   9  17  32  54  83 114 147 188 237 289 342
#     4  10  23  41  58  83 123 164 194 232 297 360
#     4  10  20  35  59  88 117 151 200 251 287 333
#     4  10  22  41  64  86 113 154 197 244 301 358
#     4  11  23  38  59  86 120 156 196 246 294 349
#     4  10  23  41  61  86 117 152 194 243 295 353
#     4  10  20  38  64  88 115 151 194 242 296 353
#
# _framework density 21.675771999999998
#
# number of rings (size 3 to 8) (size 9 to 14) (size 15 to 20)
#    0.000    2.000    1.250    1.875    1.750    5.000 
#    0.000    1.250    0.000    0.000    0.000    0.000 
#    0.000    0.000    0.000    0.000    0.000    0.000 
#
# Total GULP energy -357563.956150 kJ/mol
# GULP energy per Si atom -5586.936815 kJ/mol
# Density = 2.162644 g / cm^3
# Si number density = 21.675772 Si / 1000 Ang^3
#
#
#
# Elastic Constant Matrix: (Units=GPa)
#
#
# Indices 1 2 3 4 5 6 
#
# 1 154.1199 64.0439 0.1640 0.0000 0.0000 0.0000
# 2 64.0439 140.8633 -0.5203 0.0000 0.0000 0.0000
# 3 0.1640 -0.5203 28.9343 0.0000 0.0000 0.0000
# 4 0.0000 0.0000 0.0000 14.5820 0.0000 0.0000
# 5 0.0000 0.0000 0.0000 0.0000 20.8974 0.0000
# 6 0.0000 0.0000 0.0000 0.0000 0.0000 35.2138
#
#
#
# Elastic Compliance Matrix: (Units=1/GPa)
#
#
# Indices 1 2 3 4 5 6 
#
# 1 0.008000 -0.003638 -0.000111 0.000000 0.000000 0.000000
# 2 -0.003638 0.008754 0.000178 0.000000 0.000000 0.000000
# 3 -0.000111 0.000178 0.034565 0.000000 0.000000 0.000000
# 4 0.000000 0.000000 0.000000 0.068578 0.000000 0.000000
# 5 0.000000 0.000000 0.000000 0.000000 0.047853 0.000000
# 6 0.000000 0.000000 0.000000 0.000000 0.000000 0.028398
#
#
# Mechanical properties :
#
#
# Convention : Reuss Voigt Hill
#
# Bulk Modulus (GPa) = 22.63578 50.14363 36.38970
# Shear Modulus (GPa) = 22.93430 31.48730 27.21080
#
# Velocity S-wave (km/s) = 3.25631 3.81550 3.54694
# Velocity P-wave (km/s) = 4.96021 6.52644 5.79647
#
# Compressibility (1/GPa) = 0.04417785
#
# Stress axis : x y z
#
# Youngs Moduli (GPa) = 124.99660 114.23816 28.93108
#
# Poissons Ratio (x) = 0.41557 0.00320
# Poissons Ratio (y) = 0.45470 -0.00515
# Poissons Ratio (z) = 0.01385 -0.02034
#
# Static dielectric constant tensor:
#      x y z
#    x 1.769750 0.000000 0.000000 
#    y 0.000000 1.776910 0.000000 
#    z 0.000000 0.000000 1.820680 
# 
# From -- ./inp_files/10991.got.cif
#   From: 2010.05.17/outbox.cif.g08.bks.cpg/sg58_6_cif.got.tgz:10991.got - 2010.06.03 14:20:14.
