data_PCOD9442639
_publ_section_title
;
Structure prediction by ZEFSAII (Michael W. Deem and Ramdas Pophale) SiO2 
 PCOD9442639
Probable space group: P N N M
;
_chemical_formula_sum "Si O2"
_cell_formula_units_Z 58
_cell_length_a 5.174668
_cell_length_b 27.028599
_cell_length_c 18.272052
_cell_angle_alpha 90.000000
_cell_angle_beta 90.000000
_cell_angle_gamma 90.000000
_cell_volume 2555.602762
_symmetry_space_group_name_H-M "P N N M"
_symmetry_group_IT_number 58
_symmetry_cell_setting 'orthorhombic'
loop_
_space_group_symop_operation_xyz
x,y,z
-x,-y,z
1/2+x,1/2-y,1/2-z
1/2-x,1/2+y,1/2-z
-x,-y,-z
x,y,-z
1/2-x,1/2+y,1/2+z
1/2+x,1/2-y,1/2+z
loop_
_atom_site_type_symbol
_atom_site_label
_atom_site_fract_x
_atom_site_fract_y
_atom_site_fract_z
Si Si1 0.799096 0.456174 0.717131
Si Si2 0.974011 0.923227 0.919803
Si Si3 0.699728 0.927866 0.628966
Si Si4 0.137239 0.258590 0.200551
Si Si5 0.304764 0.184259 0.083927
Si Si6 0.819527 0.131262 0.328133
Si Si7 0.159597 0.374210 0.328416
Si Si8 0.000000 0.500000 0.000000
O O1 0.626034 0.455697 0.646074
O O2 0.702780 0.458243 0.799647
O O3 0.000000 0.500000 0.709657
O O4 0.929899 0.402251 0.711788
O O5 0.835272 0.869273 0.918880
O O6 0.261773 0.909161 0.895776
O O7 0.947386 0.944091 0.000000
O O8 0.418565 0.902693 0.643738
O O9 0.924803 0.885513 0.627265
O O10 0.649593 0.966036 0.563668
O O11 0.862231 0.258487 0.242203
O O12 0.137614 0.221597 0.131807
O O13 0.223751 0.312056 0.169441
O O14 0.561597 0.174989 0.132735
O O15 0.353831 0.199297 0.000000
O O16 0.861755 0.127128 0.238692
#
# Coordination Sequence:
#
# PCOD9442639 Si02
#       8
#     8   8   8   8   8   8   8   2
#     4  10  21  38  58  89 124 168 212 270 338 401
#     4  10  20  36  61  88 125 168 217 270 323 398
#     4  11  25  46  72 100 135 177 233 297 356 430
#     4  12  24  41  71 100 138 186 240 279 342 431
#     4  10  22  39  60  93 130 174 222 275 328 405
#     4  11  23  43  70 100 139 178 227 294 350 410
#     4  10  19  37  62  86 127 168 221 269 325 398
#     4  12  28  54  80 110 134 194 252 310 388 470
#
# _framework density 22.695233000000002
#
# number of rings (size 3 to 8) (size 9 to 14) (size 15 to 20)
#    0.000    1.379    3.448    2.069    1.931    3.034 
#    2.483    0.690    0.000    0.000    0.000    0.000 
#    0.000    0.000    0.000    0.000    0.000    0.000 
#
# Total GULP energy -322915.505852 kJ/mol
# GULP energy per Si atom -5567.508722 kJ/mol
# Density = 2.264358 g / cm^3
# Si number density = 22.695233 Si / 1000 Ang^3
#
#
#
# Elastic Constant Matrix: (Units=GPa)
#
#
# Indices 1 2 3 4 5 6 
#
# 1 79.1714 15.9098 17.7265 0.0000 0.0000 0.0000
# 2 15.9098 84.2098 50.0828 0.0000 0.0000 0.0000
# 3 17.7265 50.0828 166.0567 0.0000 0.0000 0.0000
# 4 0.0000 0.0000 0.0000 54.3847 0.0000 0.0000
# 5 0.0000 0.0000 0.0000 0.0000 -0.2367 0.0000
# 6 0.0000 0.0000 0.0000 0.0000 0.0000 33.0643
#
#
#
# Elastic Compliance Matrix: (Units=1/GPa)
#
#
# Indices 1 2 3 4 5 6 
#
# 1 0.013216 -0.002020 -0.000802 0.000000 0.000000 0.000000
# 2 -0.002020 0.014780 -0.004242 0.000000 0.000000 0.000000
# 3 -0.000802 -0.004242 0.007387 0.000000 0.000000 0.000000
# 4 0.000000 0.000000 0.000000 0.018388 0.000000 0.000000
# 5 0.000000 0.000000 0.000000 0.000000 -4.224067 0.000000
# 6 0.000000 0.000000 0.000000 0.000000 0.000000 0.030244
#
#
# Mechanical properties :
#
#
# Convention : Reuss Voigt Hill
#
# Bulk Modulus (GPa) = 47.04664 55.20847 51.12755
# Shear Modulus (GPa) = -1.21393 33.82370 16.30488
#
# Velocity S-wave (km/s) = -0.73215 3.86469 2.68326
# Velocity P-wave (km/s) = 4.47884 6.65532 5.67244
#
# Compressibility (1/GPa) = 0.02125550
#
# Stress axis : x y z
#
# Youngs Moduli (GPa) = 75.66433 67.66083 135.37382
#
# Poissons Ratio (x) = 0.13669 0.10850
# Poissons Ratio (y) = 0.15286 0.57424
# Poissons Ratio (z) = 0.06065 0.28701
#
# Static dielectric constant tensor:
#      x y z
#    x 1.981590 0.000000 0.000000 
#    y 0.000000 1.731120 0.000000 
#    z 0.000000 0.000000 1.847980 
# 
# From -- ./inp_files/24440.got.cif
#   From: 2010.05.17/outbox.cif.g08.bks.cpg/sg58_13_cif.got.tgz:24440.got - 2010.06.03 14:20:14.
