data_PCOD9442469
_publ_section_title
;
Structure prediction by ZEFSAII (Michael W. Deem and Ramdas Pophale) SiO2 
 PCOD9442469
Probable space group: P N N M
;
_chemical_formula_sum "Si O2"
_cell_formula_units_Z 48
_cell_length_a 9.798384
_cell_length_b 28.214073
_cell_length_c 7.531791
_cell_angle_alpha 90.000000
_cell_angle_beta 90.000000
_cell_angle_gamma 90.000000
_cell_volume 2082.181107
_symmetry_space_group_name_H-M "P N N M"
_symmetry_group_IT_number 58
_symmetry_cell_setting 'orthorhombic'
loop_
_space_group_symop_operation_xyz
x,y,z
-x,-y,z
1/2+x,1/2-y,1/2-z
1/2-x,1/2+y,1/2-z
-x,-y,-z
x,y,-z
1/2-x,1/2+y,1/2+z
1/2+x,1/2-y,1/2+z
loop_
_atom_site_type_symbol
_atom_site_label
_atom_site_fract_x
_atom_site_fract_y
_atom_site_fract_z
Si Si1 0.317170 0.608053 0.282869
Si Si2 0.686611 0.700574 0.214177
Si Si3 0.929010 0.048402 0.214032
Si Si4 0.073940 0.545672 0.298157
Si Si5 0.134595 0.211278 0.211858
Si Si6 0.674121 0.103883 0.295404
O O1 0.308188 0.607875 0.500000
O O2 0.467639 0.590284 0.236016
O O3 0.207762 0.569690 0.217943
O O4 0.301719 0.661823 0.220851
O O5 0.784832 0.742875 0.279457
O O6 0.528372 0.709873 0.258821
O O7 0.748175 0.650255 0.277014
O O8 0.692105 0.698898 0.000000
O O9 0.781517 0.060792 0.285907
O O10 0.917986 0.046586 0.000000
O O11 0.000000 0.000000 0.272388
O O12 0.111620 0.531008 0.500000
O O13 0.000000 0.500000 0.214756
O O14 0.961448 0.587159 0.301646
O O15 0.153784 0.211386 0.000000
O O16 0.636961 0.112620 0.500000
#
# Coordination Sequence:
#
# PCOD9442469 Si02
#       6
#     8   8   8   8   8   8
#     4   9  18  34  57  84 110 142 188 239 284 328
#     4  10  23  40  58  86 119 149 188 239 288 342
#     4  10  19  35  61  87 110 143 191 240 281 329
#     4  10  21  38  60  86 115 150 197 244 282 328
#     4  10  21  39  61  84 112 148 195 241 284 340
#     4  11  23  38  55  83 123 155 184 228 289 354
#
# _framework density 23.052752000000002
#
# number of rings (size 3 to 8) (size 9 to 14) (size 15 to 20)
#    0.000    2.000    1.667    1.500    2.333    4.667 
#    0.000    1.667    0.000    0.000    0.000    0.000 
#    0.000    0.000    0.000    0.000    0.000    0.000 
#
# Total GULP energy -268237.052182 kJ/mol
# GULP energy per Si atom -5588.271920 kJ/mol
# Density = 2.300028 g / cm^3
# Si number density = 23.052752 Si / 1000 Ang^3
#
#
#
# Elastic Constant Matrix: (Units=GPa)
#
#
# Indices 1 2 3 4 5 6 
#
# 1 91.8951 13.3335 -9.6514 0.0000 0.0000 0.0000
# 2 13.3335 100.6169 -1.2535 0.0000 0.0000 0.0000
# 3 -9.6514 -1.2535 61.1352 0.0000 0.0000 0.0000
# 4 0.0000 0.0000 0.0000 5.1797 0.0000 0.0000
# 5 0.0000 0.0000 0.0000 0.0000 18.8927 0.0000
# 6 0.0000 0.0000 0.0000 0.0000 0.0000 46.3849
#
#
#
# Elastic Compliance Matrix: (Units=1/GPa)
#
#
# Indices 1 2 3 4 5 6 
#
# 1 0.011280 -0.001473 0.001750 0.000000 0.000000 0.000000
# 2 -0.001473 0.010134 -0.000025 0.000000 0.000000 0.000000
# 3 0.001750 -0.000025 0.016633 0.000000 0.000000 0.000000
# 4 0.000000 0.000000 0.000000 0.193060 0.000000 0.000000
# 5 0.000000 0.000000 0.000000 0.000000 0.052930 0.000000
# 6 0.000000 0.000000 0.000000 0.000000 0.000000 0.021559
#
#
# Mechanical properties :
#
#
# Convention : Reuss Voigt Hill
#
# Bulk Modulus (GPa) = 25.93914 28.72270 27.33092
# Shear Modulus (GPa) = 15.72624 30.83938 23.28281
#
# Velocity S-wave (km/s) = 2.61470 3.66153 3.18147
# Velocity P-wave (km/s) = 4.51576 5.51020 5.03758
#
# Compressibility (1/GPa) = 0.03855178
#
# Stress axis : x y z
#
# Youngs Moduli (GPa) = 88.65613 98.68193 60.12132
#
# Poissons Ratio (x) = 0.14535 -0.10524
# Poissons Ratio (y) = 0.13058 0.00149
# Poissons Ratio (z) = -0.15519 0.00244
#
# Static dielectric constant tensor:
#      x y z
#    x 1.797770 0.000000 0.000000 
#    y 0.000000 1.887870 0.000000 
#    z 0.000000 0.000000 1.906120 
# 
# From -- ./inp_files/2933.got.cif
#   From: 2010.05.17/outbox.cif.g08.bks.cpg/sg58_2_cif.got.tgz:2933.got - 2010.06.03 14:20:14.
