data_PCOD9442044
_publ_section_title
;
Structure prediction by ZEFSAII (Michael W. Deem and Ramdas Pophale) SiO2 
 PCOD9442044
Probable space group: P N N M
;
_chemical_formula_sum "Si O2"
_cell_formula_units_Z 48
_cell_length_a 17.023127
_cell_length_b 18.450160
_cell_length_c 8.596910
_cell_angle_alpha 90.000000
_cell_angle_beta 90.000000
_cell_angle_gamma 90.000000
_cell_volume 2700.112480
_symmetry_space_group_name_H-M "P N N M"
_symmetry_group_IT_number 58
_symmetry_cell_setting 'orthorhombic'
loop_
_space_group_symop_operation_xyz
x,y,z
-x,-y,z
1/2+x,1/2-y,1/2-z
1/2-x,1/2+y,1/2-z
-x,-y,-z
x,y,-z
1/2-x,1/2+y,1/2+z
1/2+x,1/2-y,1/2+z
loop_
_atom_site_type_symbol
_atom_site_label
_atom_site_fract_x
_atom_site_fract_y
_atom_site_fract_z
Si Si1 0.510252 0.415728 0.814138
Si Si2 0.822552 0.909261 0.815698
Si Si3 0.139722 0.831475 0.185868
Si Si4 0.913649 0.478279 0.810774
Si Si5 0.745208 0.054009 0.686236
Si Si6 0.326589 0.167444 0.688043
O O1 0.500000 0.500000 0.767443
O O2 0.590480 0.388331 0.737297
O O3 0.434883 0.370671 0.761536
O O4 0.517646 0.413184 0.000000
O O5 0.757111 0.852141 0.761862
O O6 0.798354 0.984906 0.733681
O O7 0.819612 0.919418 0.000000
O O8 0.216997 0.875505 0.237581
O O9 0.145482 0.747349 0.231750
O O10 0.132253 0.835593 0.000000
O O11 0.843339 0.532751 0.764370
O O12 0.885740 0.397499 0.765730
O O13 0.000000 0.500000 0.754547
O O14 0.915436 0.479495 0.000000
O O15 0.747087 0.061195 0.500000
O O16 0.318794 0.164533 0.500000
#
# Coordination Sequence:
#
# PCOD9442044 Si02
#       6
#     8   8   8   8   8   8
#     4  11  22  36  58  84 114 150 187 230 283 340
#     4  11  21  35  58  83 108 144 190 230 274 335
#     4  11  22  36  55  82 116 149 186 233 283 336
#     4   8  15  32  58  81 102 136 185 230 269 325
#     4  10  19  33  55  81 109 144 184 226 281 338
#     4   9  20  38  57  79 114 150 182 229 289 335
#
# _framework density 17.777038000000001
#
# number of rings (size 3 to 8) (size 9 to 14) (size 15 to 20)
#    0.000    2.000    1.667    4.000    0.000    2.000 
#    3.000    0.000    0.000   12.500    0.000    0.000 
#    0.000    0.000    0.000    0.000    0.000    0.000 
#
# Total GULP energy -267937.432838 kJ/mol
# GULP energy per Si atom -5582.029851 kJ/mol
# Density = 1.773658 g / cm^3
# Si number density = 17.777038 Si / 1000 Ang^3
#
#
#
# Elastic Constant Matrix: (Units=GPa)
#
#
# Indices 1 2 3 4 5 6 
#
# 1 138.2631 62.9456 11.1376 0.0000 0.0000 0.0000
# 2 62.9456 100.2481 13.8328 0.0000 0.0000 0.0000
# 3 11.1376 13.8328 23.9552 0.0000 0.0000 0.0000
# 4 0.0000 0.0000 0.0000 20.5729 0.0000 0.0000
# 5 0.0000 0.0000 0.0000 0.0000 13.3215 0.0000
# 6 0.0000 0.0000 0.0000 0.0000 0.0000 21.1193
#
#
#
# Elastic Compliance Matrix: (Units=1/GPa)
#
#
# Indices 1 2 3 4 5 6 
#
# 1 0.010156 -0.006221 -0.001130 0.000000 0.000000 0.000000
# 2 -0.006221 0.014649 -0.005567 0.000000 0.000000 0.000000
# 3 -0.001130 -0.005567 0.045484 0.000000 0.000000 0.000000
# 4 0.000000 0.000000 0.000000 0.048608 0.000000 0.000000
# 5 0.000000 0.000000 0.000000 0.000000 0.075067 0.000000
# 6 0.000000 0.000000 0.000000 0.000000 0.000000 0.047350
#
#
# Mechanical properties :
#
#
# Convention : Reuss Voigt Hill
#
# Bulk Modulus (GPa) = 22.49477 48.69983 35.59730
# Shear Modulus (GPa) = 17.73257 22.63943 20.18600
#
# Velocity S-wave (km/s) = 3.16175 3.57251 3.37339
# Velocity P-wave (km/s) = 5.10002 6.66869 5.93639
#
# Compressibility (1/GPa) = 0.04445478
#
# Stress axis : x y z
#
# Youngs Moduli (GPa) = 98.46699 68.26177 21.98560
#
# Poissons Ratio (x) = 0.42465 0.02483
# Poissons Ratio (y) = 0.61255 0.12239
# Poissons Ratio (z) = 0.11122 0.38001
#
# Static dielectric constant tensor:
#      x y z
#    x 1.602150 0.000000 0.000000 
#    y 0.000000 1.593890 0.000000 
#    z 0.000000 0.000000 1.594630 
# 
# From -- ./inp_files/5841.got.cif
#   From: 2010.05.17/outbox.cif.g08.bks.cpg/sg58_3_cif.got.tgz:5841.got - 2010.06.03 14:20:14.
