data_PCOD9442854
_publ_section_title
;
Structure prediction by ZEFSAII (Michael W. Deem and Ramdas Pophale) SiO2 
 PCOD9442854
Probable space group: P N N M
;
_chemical_formula_sum "Si O2"
_cell_formula_units_Z 64
_cell_length_a 11.395848
_cell_length_b 13.119733
_cell_length_c 20.880585
_cell_angle_alpha 90.000000
_cell_angle_beta 90.000000
_cell_angle_gamma 90.000000
_cell_volume 3121.866350
_symmetry_space_group_name_H-M "P N N M"
_symmetry_group_IT_number 58
_symmetry_cell_setting 'orthorhombic'
loop_
_space_group_symop_operation_xyz
x,y,z
-x,-y,z
1/2+x,1/2-y,1/2-z
1/2-x,1/2+y,1/2-z
-x,-y,-z
x,y,-z
1/2-x,1/2+y,1/2+z
1/2+x,1/2-y,1/2+z
loop_
_atom_site_type_symbol
_atom_site_label
_atom_site_fract_x
_atom_site_fract_y
_atom_site_fract_z
Si Si1 0.874786 0.303059 0.299338
Si Si2 0.710438 0.356681 0.816485
Si Si3 0.616025 0.143486 0.789581
Si Si4 0.906373 0.587995 0.925279
Si Si5 0.377616 0.219508 0.423857
Si Si6 0.381672 0.448215 0.574240
Si Si7 0.705792 0.585381 0.821574
Si Si8 0.874739 0.474576 0.398616
O O1 0.768825 0.337302 0.253459
O O2 0.877346 0.183269 0.314849
O O3 0.874571 0.363758 0.366131
O O4 0.987589 0.342411 0.260317
O O5 0.636863 0.253014 0.822427
O O6 0.801672 0.349648 0.875866
O O7 0.657430 0.470251 0.817555
O O8 0.707576 0.106525 0.737724
O O9 0.617288 0.056305 0.841803
O O10 0.790209 0.592699 0.883335
O O11 0.000000 0.500000 0.906300
O O12 0.985735 0.689378 0.919954
O O13 0.877958 0.570337 0.000000
O O14 0.344199 0.208812 0.500000
O O15 0.361635 0.334935 0.399067
O O16 0.500000 0.500000 0.602427
O O17 0.410784 0.428542 0.500000
O O18 0.257114 0.507200 0.574842
O O19 0.000000 0.500000 0.433107
#
# Coordination Sequence:
#
# PCOD9442854 Si02
#       8
#     8   8   8   8   8   8   8   8
#     4  10  23  37  55  84 114 151 193 237 296 347
#     4  11  20  36  59  81 114 149 194 237 291 352
#     4  10  21  38  57  80 114 155 191 241 289 350
#     4  10  20  33  54  85 114 146 187 232 288 352
#     4  10  20  34  55  83 114 151 191 235 291 353
#     4  10  22  39  60  88 122 155 193 250 307 343
#     4  11  22  35  57  85 114 150 190 238 297 352
#     4  10  20  39  61  82 118 158 199 239 286 357
#
# _framework density 20.500558000000002
#
# number of rings (size 3 to 8) (size 9 to 14) (size 15 to 20)
#    0.000    1.750    3.750    0.750    1.750    0.750 
#    0.000    0.000    0.000    1.500    0.000    1.750 
#    0.000    0.000    0.000    0.000    0.000    0.000 
#
# Total GULP energy -356341.297926 kJ/mol
# GULP energy per Si atom -5567.832780 kJ/mol
# Density = 2.045390 g / cm^3
# Si number density = 20.500558 Si / 1000 Ang^3
#
#
#
# Elastic Constant Matrix: (Units=GPa)
#
#
# Indices 1 2 3 4 5 6 
#
# 1 52.2934 7.0954 3.2683 0.0000 0.0000 0.0000
# 2 7.0954 132.2594 12.0009 0.0000 0.0000 0.0000
# 3 3.2683 12.0009 52.1771 0.0000 0.0000 0.0000
# 4 0.0000 0.0000 0.0000 16.5585 0.0000 0.0000
# 5 0.0000 0.0000 0.0000 0.0000 43.6378 0.0000
# 6 0.0000 0.0000 0.0000 0.0000 0.0000 25.7663
#
#
#
# Elastic Compliance Matrix: (Units=1/GPa)
#
#
# Indices 1 2 3 4 5 6 
#
# 1 0.019313 -0.000946 -0.000992 0.000000 0.000000 0.000000
# 2 -0.000946 0.007768 -0.001728 0.000000 0.000000 0.000000
# 3 -0.000992 -0.001728 0.019625 0.000000 0.000000 0.000000
# 4 0.000000 0.000000 0.000000 0.060392 0.000000 0.000000
# 5 0.000000 0.000000 0.000000 0.000000 0.022916 0.000000
# 6 0.000000 0.000000 0.000000 0.000000 0.000000 0.038810
#
#
# Mechanical properties :
#
#
# Convention : Reuss Voigt Hill
#
# Bulk Modulus (GPa) = 25.39671 31.27323 28.33497
# Shear Modulus (GPa) = 26.41568 31.48354 28.94961
#
# Velocity S-wave (km/s) = 3.59351 3.92310 3.76192
# Velocity P-wave (km/s) = 5.44362 5.98406 5.72022
#
# Compressibility (1/GPa) = 0.03937518
#
# Stress axis : x y z
#
# Youngs Moduli (GPa) = 51.77798 128.72660 50.95544
#
# Poissons Ratio (x) = 0.12179 0.05056
# Poissons Ratio (y) = 0.04899 0.08803
# Poissons Ratio (z) = 0.05137 0.22238
#
# Static dielectric constant tensor:
#      x y z
#    x 1.818150 0.000000 0.000000 
#    y 0.000000 1.783910 0.000000 
#    z 0.000000 0.000000 1.724470 
# 
# From -- ./inp_files/32076.got.cif
#   From: 2010.05.17/outbox.cif.g08.bks.cpg/sg58_17_cif.got.tgz:32076.got - 2010.06.03 14:20:14.
