data_PCOD9442922
_publ_section_title
;
Structure prediction by ZEFSAII (Michael W. Deem and Ramdas Pophale) SiO2 
 PCOD9442922
Probable space group: P N N M
;
_chemical_formula_sum "Si O2"
_cell_formula_units_Z 48
_cell_length_a 32.516447
_cell_length_b 9.379305
_cell_length_c 7.676734
_cell_angle_alpha 90.000000
_cell_angle_beta 90.000000
_cell_angle_gamma 90.000000
_cell_volume 2341.263186
_symmetry_space_group_name_H-M "P N N M"
_symmetry_group_IT_number 58
_symmetry_cell_setting 'orthorhombic'
loop_
_space_group_symop_operation_xyz
x,y,z
-x,-y,z
1/2+x,1/2-y,1/2-z
1/2-x,1/2+y,1/2-z
-x,-y,-z
x,y,-z
1/2-x,1/2+y,1/2+z
1/2+x,1/2-y,1/2+z
loop_
_atom_site_type_symbol
_atom_site_label
_atom_site_fract_x
_atom_site_fract_y
_atom_site_fract_z
Si Si1 0.710771 0.580198 0.208767
Si Si2 0.039781 0.085772 0.286521
Si Si3 0.870202 0.926322 0.704460
Si Si4 0.130906 0.405193 0.793756
Si Si5 0.960506 0.585842 0.710149
Si Si6 0.208477 0.585975 0.210493
O O1 0.669325 0.506171 0.279828
O O2 0.751692 0.501106 0.274773
O O3 0.711049 0.748432 0.241860
O O4 0.710916 0.559316 0.000000
O O5 0.040180 0.082143 0.500000
O O6 0.084630 0.033910 0.224857
O O7 0.036167 0.250185 0.233604
O O8 0.000000 0.000000 0.227972
O O9 0.871371 0.962266 0.500000
O O10 0.866088 0.754841 0.718216
O O11 0.085083 0.464419 0.760984
O O12 0.166851 0.508321 0.727199
O O13 0.136134 0.388561 0.000000
O O14 0.961646 0.583426 0.500000
O O15 0.000000 0.500000 0.774910
O O16 0.208067 0.579378 0.000000
#
# Coordination Sequence:
#
# PCOD9442922 Si02
#       6
#     8   8   8   8   8   8
#     4  10  21  36  55  78 102 134 177 219 259 307
#     4   8  14  26  45  69  96 123 154 200 253 296
#     4   9  18  33  53  76 100 130 173 218 256 302
#     4  10  20  34  52  74 104 140 172 207 259 316
#     4   9  18  32  51  74  99 131 172 214 254 297
#     4  10  22  37  52  76 107 136 170 213 261 311
#
# _framework density 20.501753000000001
#
# number of rings (size 3 to 8) (size 9 to 14) (size 15 to 20)
#    0.000    2.667    0.000    2.500    0.000    4.333 
#    0.000    3.333    0.000    8.000    0.000    0.000 
#    0.000    0.000    0.000    0.000    0.000    0.000 
#
# Total GULP energy -267823.526382 kJ/mol
# GULP energy per Si atom -5579.656800 kJ/mol
# Density = 2.045509 g / cm^3
# Si number density = 20.501753 Si / 1000 Ang^3
#
#
#
# Elastic Constant Matrix: (Units=GPa)
#
#
# Indices 1 2 3 4 5 6 
#
# 1 257.1377 115.8110 4.4523 0.0000 0.0000 0.0000
# 2 115.8110 95.7586 -11.5142 0.0000 0.0000 0.0000
# 3 4.4523 -11.5142 32.4359 0.0000 0.0000 0.0000
# 4 0.0000 0.0000 0.0000 19.0047 0.0000 0.0000
# 5 0.0000 0.0000 0.0000 0.0000 11.6896 0.0000
# 6 0.0000 0.0000 0.0000 0.0000 0.0000 45.6015
#
#
#
# Elastic Compliance Matrix: (Units=1/GPa)
#
#
# Indices 1 2 3 4 5 6 
#
# 1 0.009416 -0.012058 -0.005573 0.000000 0.000000 0.000000
# 2 -0.012058 0.026350 0.011009 0.000000 0.000000 0.000000
# 3 -0.005573 0.011009 0.035503 0.000000 0.000000 0.000000
# 4 0.000000 0.000000 0.000000 0.052619 0.000000 0.000000
# 5 0.000000 0.000000 0.000000 0.000000 0.085546 0.000000
# 6 0.000000 0.000000 0.000000 0.000000 0.000000 0.021929
#
#
# Mechanical properties :
#
#
# Convention : Reuss Voigt Hill
#
# Bulk Modulus (GPa) = 17.23401 66.98116 42.10758
# Shear Modulus (GPa) = 18.94303 33.69802 26.32052
#
# Velocity S-wave (km/s) = 3.04299 4.05861 3.58693
# Velocity P-wave (km/s) = 4.55749 7.39628 6.14311
#
# Compressibility (1/GPa) = 0.05802480
#
# Stress axis : x y z
#
# Youngs Moduli (GPa) = 106.19848 37.95064 28.16659
#
# Poissons Ratio (x) = 0.45762 0.15697
# Poissons Ratio (y) = 1.28057 -0.31009
# Poissons Ratio (z) = 0.59185 -0.41780
#
# Static dielectric constant tensor:
#      x y z
#    x 1.757270 0.000000 0.000000 
#    y 0.000000 1.673210 0.000000 
#    z 0.000000 0.000000 1.761900 
# 
# From -- ./inp_files/2948.got.cif
#   From: 2010.05.17/outbox.cif.g08.bks.cpg/sg58_2_cif.got.tgz:2948.got - 2010.06.03 14:20:14.
