data_PCOD9442122
_publ_section_title
;
Structure prediction by ZEFSAII (Michael W. Deem and Ramdas Pophale) SiO2 
 PCOD9442122
Probable space group: P N N M
;
_chemical_formula_sum "Si O2"
_cell_formula_units_Z 64
_cell_length_a 29.910051
_cell_length_b 11.679874
_cell_length_c 7.759459
_cell_angle_alpha 90.000000
_cell_angle_beta 90.000000
_cell_angle_gamma 90.000000
_cell_volume 2710.733070
_symmetry_space_group_name_H-M "P N N M"
_symmetry_group_IT_number 58
_symmetry_cell_setting 'orthorhombic'
loop_
_space_group_symop_operation_xyz
x,y,z
-x,-y,z
1/2+x,1/2-y,1/2-z
1/2-x,1/2+y,1/2-z
-x,-y,-z
x,y,-z
1/2-x,1/2+y,1/2+z
1/2+x,1/2-y,1/2+z
loop_
_atom_site_type_symbol
_atom_site_label
_atom_site_fract_x
_atom_site_fract_y
_atom_site_fract_z
Si Si1 0.599964 0.422185 0.209254
Si Si2 0.669266 0.815917 0.300593
Si Si3 0.645961 0.182784 0.796828
Si Si4 0.275900 0.965297 0.291610
Si Si5 0.567591 0.825048 0.794410
Si Si6 0.512986 0.310905 0.802145
Si Si7 0.442463 0.921202 0.696900
Si Si8 0.321098 0.433804 0.802334
O O1 0.630183 0.310317 0.249564
O O2 0.549639 0.397644 0.275491
O O3 0.631107 0.525798 0.270800
O O4 0.504792 0.345906 0.000000
O O5 0.682131 0.800306 0.500000
O O6 0.694132 0.928004 0.233135
O O7 0.616042 0.826195 0.288038
O O8 0.681894 0.702018 0.200878
O O9 0.611177 0.097703 0.704859
O O10 0.696607 0.148284 0.757889
O O11 0.638659 0.169362 0.000000
O O12 0.274046 0.966219 0.500000
O O13 0.225523 0.975383 0.223346
O O14 0.534939 0.724650 0.727039
O O15 0.547510 0.951727 0.762494
O O16 0.572538 0.809864 0.000000
O O17 0.538095 0.186936 0.800310
O O18 0.594433 0.428704 0.000000
O O19 0.457343 0.909167 0.500000
O O20 0.321636 0.475973 0.000000
#
# Coordination Sequence:
#
# PCOD9442122 Si02
#       8
#     8   8   8   8   8   8   8   8
#     4   8  17  36  60  84 111 148 193 243 288 336
#     4  11  24  41  60  86 122 155 193 243 297 352
#     4  10  19  33  58  85 113 152 196 238 286 346
#     4  10  22  38  58  85 117 150 187 240 296 350
#     4  11  21  35  57  83 114 154 200 248 294 348
#     4   9  19  35  56  84 115 151 201 249 292 350
#     4  11  20  31  50  81 122 158 188 234 295 354
#     4  10  22  41  63  84 113 153 197 240 291 353
#
# _framework density 23.609850000000002
#
# number of rings (size 3 to 8) (size 9 to 14) (size 15 to 20)
#    0.000    2.000    1.250    3.375    1.750    3.500 
#    0.000    3.750    0.000    3.750    0.000    0.000 
#    0.000    0.000    0.000    0.000    0.000    0.000 
#
# Total GULP energy -357438.237488 kJ/mol
# GULP energy per Si atom -5584.972461 kJ/mol
# Density = 2.355611 g / cm^3
# Si number density = 23.609850 Si / 1000 Ang^3
#
#
#
# Elastic Constant Matrix: (Units=GPa)
#
#
# Indices 1 2 3 4 5 6 
#
# 1 89.2963 2.8643 -13.1581 0.0000 0.0000 0.0000
# 2 2.8643 25.0438 -5.7030 0.0000 0.0000 0.0000
# 3 -13.1581 -5.7030 52.5239 0.0000 0.0000 0.0000
# 4 0.0000 0.0000 0.0000 3.4679 0.0000 0.0000
# 5 0.0000 0.0000 0.0000 0.0000 19.6627 0.0000
# 6 0.0000 0.0000 0.0000 0.0000 0.0000 23.5044
#
#
#
# Elastic Compliance Matrix: (Units=1/GPa)
#
#
# Indices 1 2 3 4 5 6 
#
# 1 0.011639 -0.000684 0.002842 0.000000 0.000000 0.000000
# 2 -0.000684 0.040983 0.004278 0.000000 0.000000 0.000000
# 3 0.002842 0.004278 0.020215 0.000000 0.000000 0.000000
# 4 0.000000 0.000000 0.000000 0.288357 0.000000 0.000000
# 5 0.000000 0.000000 0.000000 0.000000 0.050858 0.000000
# 6 0.000000 0.000000 0.000000 0.000000 0.000000 0.042545
#
#
# Mechanical properties :
#
#
# Convention : Reuss Voigt Hill
#
# Bulk Modulus (GPa) = 11.66739 14.98562 13.32651
# Shear Modulus (GPa) = 10.63161 21.51771 16.07466
#
# Velocity S-wave (km/s) = 2.12434 3.02219 2.61213
# Velocity P-wave (km/s) = 3.31203 4.30571 3.84114
#
# Compressibility (1/GPa) = 0.08570895
#
# Stress axis : x y z
#
# Youngs Moduli (GPa) = 85.91564 24.40063 49.46734
#
# Poissons Ratio (x) = 0.01669 -0.14056
# Poissons Ratio (y) = 0.05878 -0.21164
# Poissons Ratio (z) = -0.24413 -0.10440
#
# Static dielectric constant tensor:
#      x y z
#    x 1.963010 0.000000 0.000000 
#    y 0.000000 1.879150 0.000000 
#    z 0.000000 0.000000 1.876210 
# 
# From -- ./inp_files/10999.got.cif
#   From: 2010.05.17/outbox.cif.g08.bks.cpg/sg58_6_cif.got.tgz:10999.got - 2010.06.03 14:20:14.
