data_PCOD9442419
_publ_section_title
;
Structure prediction by ZEFSAII (Michael W. Deem and Ramdas Pophale) SiO2 
 PCOD9442419
Probable space group: P N N M
;
_chemical_formula_sum "Si O2"
_cell_formula_units_Z 48
_cell_length_a 15.328869
_cell_length_b 19.422693
_cell_length_c 7.464501
_cell_angle_alpha 90.000000
_cell_angle_beta 90.000000
_cell_angle_gamma 90.000000
_cell_volume 2222.390331
_symmetry_space_group_name_H-M "P N N M"
_symmetry_group_IT_number 58
_symmetry_cell_setting 'orthorhombic'
loop_
_space_group_symop_operation_xyz
x,y,z
-x,-y,z
1/2+x,1/2-y,1/2-z
1/2-x,1/2+y,1/2-z
-x,-y,-z
x,y,-z
1/2-x,1/2+y,1/2+z
1/2+x,1/2-y,1/2+z
loop_
_atom_site_type_symbol
_atom_site_label
_atom_site_fract_x
_atom_site_fract_y
_atom_site_fract_z
Si Si1 0.691192 0.238587 0.784192
Si Si2 0.645791 0.825232 0.280401
Si Si3 0.744719 0.086597 0.785185
Si Si4 0.094273 0.523624 0.213760
Si Si5 0.441486 0.435796 0.719356
Si Si6 0.004181 0.785187 0.211410
O O1 0.760809 0.295566 0.724142
O O2 0.719738 0.162932 0.718635
O O3 0.593516 0.258653 0.734851
O O4 0.694987 0.236440 0.000000
O O5 0.645217 0.826375 0.500000
O O6 0.572609 0.770960 0.219001
O O7 0.624123 0.901870 0.217602
O O8 0.668315 0.033119 0.744157
O O9 0.840244 0.062348 0.723068
O O10 0.750941 0.091738 0.000000
O O11 0.000000 0.500000 0.284862
O O12 0.084324 0.531252 0.000000
O O13 0.500000 0.500000 0.779216
O O14 0.442597 0.437293 0.500000
O O15 0.480331 0.362356 0.779972
O O16 0.022436 0.789634 0.000000
#
# Coordination Sequence:
#
# PCOD9442419 Si02
#       6
#     8   8   8   8   8   8
#     4  10  20  35  54  77 107 142 173 212 271 323
#     4   9  18  35  55  75 106 143 175 210 264 324
#     4  10  20  36  57  80 109 143 176 217 271 321
#     4  10  21  36  55  79 107 141 180 221 263 312
#     4   9  18  33  54  80 109 140 176 219 267 318
#     4  10  19  35  59  81 102 138 184 222 258 312
#
# _framework density 21.598368000000001
#
# number of rings (size 3 to 8) (size 9 to 14) (size 15 to 20)
#    0.000    2.333    1.667    1.000    2.333    2.333 
#    0.000    2.500    0.000    1.000    0.000    0.000 
#    0.000    0.000    0.000    0.000    0.000    0.000 
#
# Total GULP energy -268212.528751 kJ/mol
# GULP energy per Si atom -5587.761016 kJ/mol
# Density = 2.154921 g / cm^3
# Si number density = 21.598368 Si / 1000 Ang^3
#
#
#
# Elastic Constant Matrix: (Units=GPa)
#
#
# Indices 1 2 3 4 5 6 
#
# 1 127.7557 41.9998 -17.6264 0.0000 0.0000 0.0000
# 2 41.9998 133.7351 -4.5081 0.0000 0.0000 0.0000
# 3 -17.6264 -4.5081 58.3605 0.0000 0.0000 0.0000
# 4 0.0000 0.0000 0.0000 5.9430 0.0000 0.0000
# 5 0.0000 0.0000 0.0000 0.0000 20.9569 0.0000
# 6 0.0000 0.0000 0.0000 0.0000 0.0000 41.5493
#
#
#
# Elastic Compliance Matrix: (Units=1/GPa)
#
#
# Indices 1 2 3 4 5 6 
#
# 1 0.009087 -0.002768 0.002531 0.000000 0.000000 0.000000
# 2 -0.002768 0.008340 -0.000192 0.000000 0.000000 0.000000
# 3 0.002531 -0.000192 0.017884 0.000000 0.000000 0.000000
# 4 0.000000 0.000000 0.000000 0.168264 0.000000 0.000000
# 5 0.000000 0.000000 0.000000 0.000000 0.047717 0.000000
# 6 0.000000 0.000000 0.000000 0.000000 0.000000 0.024068
#
#
# Mechanical properties :
#
#
# Convention : Reuss Voigt Hill
#
# Bulk Modulus (GPa) = 29.02582 39.95356 34.48969
# Shear Modulus (GPa) = 17.37900 33.68892 25.53396
#
# Velocity S-wave (km/s) = 2.83970 3.95370 3.44207
# Velocity P-wave (km/s) = 4.92138 6.27542 5.63919
#
# Compressibility (1/GPa) = 0.03445208
#
# Stress axis : x y z
#
# Youngs Moduli (GPa) = 110.05100 119.89804 55.91483
#
# Poissons Ratio (x) = 0.33193 -0.14150
# Poissons Ratio (y) = 0.30466 0.01073
# Poissons Ratio (z) = -0.27849 0.02300
#
# Static dielectric constant tensor:
#      x y z
#    x 1.726610 0.000000 0.000000 
#    y 0.000000 1.750990 0.000000 
#    z 0.000000 0.000000 1.842080 
# 
# From -- ./inp_files/5757.got.cif
#   From: 2010.05.17/outbox.cif.g08.bks.cpg/sg58_3_cif.got.tgz:5757.got - 2010.06.03 14:20:14.
