data_PCOD9442758
_publ_section_title
;
Structure prediction by ZEFSAII (Michael W. Deem and Ramdas Pophale) SiO2 
 PCOD9442758
Probable space group: P N N M
;
_chemical_formula_sum "Si O2"
_cell_formula_units_Z 64
_cell_length_a 15.302266
_cell_length_b 8.979683
_cell_length_c 26.253664
_cell_angle_alpha 90.000000
_cell_angle_beta 90.000000
_cell_angle_gamma 90.000000
_cell_volume 3607.502787
_symmetry_space_group_name_H-M "P N N M"
_symmetry_group_IT_number 58
_symmetry_cell_setting 'orthorhombic'
loop_
_space_group_symop_operation_xyz
x,y,z
-x,-y,z
1/2+x,1/2-y,1/2-z
1/2-x,1/2+y,1/2-z
-x,-y,-z
x,y,-z
1/2-x,1/2+y,1/2+z
1/2+x,1/2-y,1/2+z
loop_
_atom_site_type_symbol
_atom_site_label
_atom_site_fract_x
_atom_site_fract_y
_atom_site_fract_z
Si Si1 0.771908 0.480766 0.377820
Si Si2 0.082998 0.399541 0.439735
Si Si3 0.402068 0.560089 0.058363
Si Si4 0.336704 0.388463 0.699436
Si Si5 0.317027 0.348860 0.141738
Si Si6 0.591917 0.075622 0.791138
Si Si7 0.026773 0.839287 0.281292
Si Si8 0.271940 0.062162 0.721107
O O1 0.823592 0.523617 0.428886
O O2 0.682699 0.558843 0.358218
O O3 0.768592 0.302932 0.373435
O O4 0.842478 0.546098 0.337061
O O5 0.068458 0.383693 0.500000
O O6 0.090466 0.229087 0.420157
O O7 0.000000 0.500000 0.421037
O O8 0.500000 0.500000 0.055621
O O9 0.351798 0.444315 0.094297
O O10 0.366943 0.564494 0.000000
O O11 0.430300 0.354127 0.724993
O O12 0.296573 0.520903 0.734268
O O13 0.282442 0.236128 0.709940
O O14 0.395698 0.294386 0.179635
O O15 0.258826 0.462929 0.174136
O O16 0.560370 0.242510 0.782107
O O17 0.636518 0.000298 0.742406
O O18 0.500000 0.000000 0.801929
O O19 0.000000 0.000000 0.300367
#
# Coordination Sequence:
#
# PCOD9442758 Si02
#       8
#     8   8   8   8   8   8   8   8
#     4  11  22  32  51  68  99 130 167 202 244 296
#     4  10  21  35  52  73  98 129 163 205 248 285
#     4  10  21  35  51  72  99 127 165 208 241 285
#     4  10  20  34  45  69  94 128 163 203 246 288
#     4  11  22  34  48  72  96 134 167 200 247 289
#     4  11  19  34  47  69  96 130 166 202 239 287
#     4  11  23  30  48  71  98 129 167 203 240 290
#     4  10  20  32  49  64  96 127 162 204 243 289
#
# _framework density 17.740805000000002
#
# number of rings (size 3 to 8) (size 9 to 14) (size 15 to 20)
#    0.000    1.500    2.500    4.500   12.250    1.500 
#    0.000    0.000    0.000    0.000    0.000    0.000 
#    0.000    2.000    0.000    0.125    0.000    0.000 
#
# Total GULP energy -356771.303418 kJ/mol
# GULP energy per Si atom -5574.551616 kJ/mol
# Density = 1.770043 g / cm^3
# Si number density = 17.740805 Si / 1000 Ang^3
#
#
#
# Elastic Constant Matrix: (Units=GPa)
#
#
# Indices 1 2 3 4 5 6 
#
# 1 25.0387 3.3344 17.3821 0.0000 0.0000 0.0000
# 2 3.3344 107.9095 17.7962 0.0000 0.0000 0.0000
# 3 17.3821 17.7962 46.8604 0.0000 0.0000 0.0000
# 4 0.0000 0.0000 0.0000 11.2826 0.0000 0.0000
# 5 0.0000 0.0000 0.0000 0.0000 25.0002 0.0000
# 6 0.0000 0.0000 0.0000 0.0000 0.0000 27.6385
#
#
#
# Elastic Compliance Matrix: (Units=1/GPa)
#
#
# Indices 1 2 3 4 5 6 
#
# 1 0.054096 0.001747 -0.020730 0.000000 0.000000 0.000000
# 2 0.001747 0.009943 -0.004424 0.000000 0.000000 0.000000
# 3 -0.020730 -0.004424 0.030709 0.000000 0.000000 0.000000
# 4 0.000000 0.000000 0.000000 0.088632 0.000000 0.000000
# 5 0.000000 0.000000 0.000000 0.000000 0.040000 0.000000
# 6 0.000000 0.000000 0.000000 0.000000 0.000000 0.036181
#
#
# Mechanical properties :
#
#
# Convention : Reuss Voigt Hill
#
# Bulk Modulus (GPa) = 20.86151 28.53712 24.69931
# Shear Modulus (GPa) = 15.51096 22.20399 18.85747
#
# Velocity S-wave (km/s) = 2.96008 3.54160 3.26382
# Velocity P-wave (km/s) = 4.84431 5.73101 5.30621
#
# Compressibility (1/GPa) = 0.04793518
#
# Stress axis : x y z
#
# Youngs Moduli (GPa) = 18.48561 100.57698 32.56329
#
# Poissons Ratio (x) = -0.17572 0.67502
# Poissons Ratio (y) = -0.03230 0.14406
# Poissons Ratio (z) = 0.38320 0.44495
#
# Static dielectric constant tensor:
#      x y z
#    x 1.668080 0.000000 0.000000 
#    y 0.000000 1.710760 0.000000 
#    z 0.000000 0.000000 1.677460 
# 
# From -- ./inp_files/32343.got.cif
#   From: 2010.05.17/outbox.cif.g08.bks.cpg/sg58_17_cif.got.tgz:32343.got - 2010.06.03 14:20:14.
