data_PCOD9442311
_publ_section_title
;
Structure prediction by ZEFSAII (Michael W. Deem and Ramdas Pophale) SiO2 
 PCOD9442311
Probable space group: P N N M
;
_chemical_formula_sum "Si O2"
_cell_formula_units_Z 64
_cell_length_a 29.045964
_cell_length_b 12.679704
_cell_length_c 7.764123
_cell_angle_alpha 90.000000
_cell_angle_beta 90.000000
_cell_angle_gamma 90.000000
_cell_volume 2859.481670
_symmetry_space_group_name_H-M "P N N M"
_symmetry_group_IT_number 58
_symmetry_cell_setting 'orthorhombic'
loop_
_space_group_symop_operation_xyz
x,y,z
-x,-y,z
1/2+x,1/2-y,1/2-z
1/2-x,1/2+y,1/2-z
-x,-y,-z
x,y,-z
1/2-x,1/2+y,1/2+z
1/2+x,1/2-y,1/2+z
loop_
_atom_site_type_symbol
_atom_site_label
_atom_site_fract_x
_atom_site_fract_y
_atom_site_fract_z
Si Si1 0.316784 0.146135 0.295890
Si Si2 0.118581 0.188468 0.790114
Si Si3 0.586226 0.896536 0.805614
Si Si4 0.568262 0.518813 0.290961
Si Si5 0.022182 0.776854 0.801397
Si Si6 0.166425 0.878701 0.208788
Si Si7 0.557757 0.124893 0.708449
Si Si8 0.213684 0.084928 0.792131
O O1 0.323631 0.146313 0.500000
O O2 0.323780 0.263662 0.223572
O O3 0.264630 0.114610 0.261728
O O4 0.359749 0.081161 0.223169
O O5 0.102180 0.304971 0.742449
O O6 0.169849 0.155285 0.732841
O O7 0.080323 0.100602 0.734737
O O8 0.118743 0.183416 0.000000
O O9 0.559843 0.005216 0.769235
O O10 0.568096 0.796194 0.698112
O O11 0.578510 0.863568 0.000000
O O12 0.562885 0.514454 0.500000
O O13 0.530778 0.605287 0.228875
O O14 0.616156 0.577897 0.250314
O O15 0.984559 0.696637 0.726601
O O16 0.008235 0.794743 0.000000
O O17 0.202349 0.966591 0.266759
O O18 0.168791 0.874687 0.000000
O O19 0.555064 0.119205 0.500000
O O20 0.212288 0.087643 0.000000
#
# Coordination Sequence:
#
# PCOD9442311 Si02
#       8
#     8   8   8   8   8   8   8   8
#     4  11  21  36  58  82 106 138 184 234 280 332
#     4   8  16  32  55  83 117 150 182 224 275 331
#     4  12  25  39  55  77 109 149 192 237 283 334
#     4   8  13  27  54  83 109 140 178 224 272 318
#     4  10  19  34  59  86 113 146 187 233 280 329
#     4   8  15  30  53  75 103 140 176 217 269 322
#     4  10  21  36  56  85 118 152 187 228 276 329
#     4   9  18  34  55  81 112 145 178 219 275 336
#
# _framework density 22.381678999999998
#
# number of rings (size 3 to 8) (size 9 to 14) (size 15 to 20)
#    0.000    2.500    1.250    3.375    0.000    3.500 
#    0.000    6.875    0.000    0.750    0.000    1.750 
#    0.000    0.000    0.000    0.000    0.000    0.000 
#
# Total GULP energy -357062.110624 kJ/mol
# GULP energy per Si atom -5579.095479 kJ/mol
# Density = 2.233074 g / cm^3
# Si number density = 22.381679 Si / 1000 Ang^3
#
#
#
# Elastic Constant Matrix: (Units=GPa)
#
#
# Indices 1 2 3 4 5 6 
#
# 1 86.8190 11.1814 0.7311 0.0000 0.0000 0.0000
# 2 11.1814 91.9047 -1.1229 0.0000 0.0000 0.0000
# 3 0.7311 -1.1229 40.5834 0.0000 0.0000 0.0000
# 4 0.0000 0.0000 0.0000 -4.9883 0.0000 0.0000
# 5 0.0000 0.0000 0.0000 0.0000 -7.9732 0.0000
# 6 0.0000 0.0000 0.0000 0.0000 0.0000 33.5756
#
#
#
# Elastic Compliance Matrix: (Units=1/GPa)
#
#
# Indices 1 2 3 4 5 6 
#
# 1 0.011704 -0.001427 -0.000250 0.000000 0.000000 0.000000
# 2 -0.001427 0.011058 0.000332 0.000000 0.000000 0.000000
# 3 -0.000250 0.000332 0.024654 0.000000 0.000000 0.000000
# 4 0.000000 0.000000 0.000000 -0.200470 0.000000 0.000000
# 5 0.000000 0.000000 0.000000 0.000000 -0.125420 0.000000
# 6 0.000000 0.000000 0.000000 0.000000 0.000000 0.029784
#
#
# Mechanical properties :
#
#
# Convention : Reuss Voigt Hill
#
# Bulk Modulus (GPa) = 22.35858 26.76516 24.56187
# Shear Modulus (GPa) = -21.63663 18.02399 -1.80632
#
# Velocity S-wave (km/s) = -3.11257 2.84086 -0.89934
# Velocity P-wave (km/s) = 1.70473 4.76919 3.14953
#
# Compressibility (1/GPa) = 0.04472556
#
# Stress axis : x y z
#
# Youngs Moduli (GPa) = 85.44006 90.42819 40.56092
#
# Poissons Ratio (x) = 0.12904 0.01015
# Poissons Ratio (y) = 0.12192 -0.01345
# Poissons Ratio (z) = 0.02139 -0.02999
#
# Static dielectric constant tensor:
#      x y z
#    x 1.865600 0.000000 0.000000 
#    y 0.000000 1.816770 0.000000 
#    z 0.000000 0.000000 1.837990 
# 
# From -- ./inp_files/11040.got.cif
#   From: 2010.05.17/outbox.cif.g08.bks.cpg/sg58_6_cif.got.tgz:11040.got - 2010.06.03 14:20:14.
