data_PCOD9442137
_publ_section_title
;
Structure prediction by ZEFSAII (Michael W. Deem and Ramdas Pophale) SiO2 
 PCOD9442137
Probable space group: P N N M
;
_chemical_formula_sum "Si O2"
_cell_formula_units_Z 52
_cell_length_a 17.070840
_cell_length_b 8.287041
_cell_length_c 18.399590
_cell_angle_alpha 90.000000
_cell_angle_beta 90.000000
_cell_angle_gamma 90.000000
_cell_volume 2602.930217
_symmetry_space_group_name_H-M "P N N M"
_symmetry_group_IT_number 58
_symmetry_cell_setting 'orthorhombic'
loop_
_space_group_symop_operation_xyz
x,y,z
-x,-y,z
1/2+x,1/2-y,1/2-z
1/2-x,1/2+y,1/2-z
-x,-y,-z
x,y,-z
1/2-x,1/2+y,1/2+z
1/2+x,1/2-y,1/2+z
loop_
_atom_site_type_symbol
_atom_site_label
_atom_site_fract_x
_atom_site_fract_y
_atom_site_fract_z
Si Si1 0.785081 0.574360 0.789200
Si Si2 0.456530 0.832643 0.235123
Si Si3 0.000000 0.000000 0.801886
Si Si4 0.110853 0.377661 0.582846
Si Si5 0.729438 0.828497 0.580256
Si Si6 0.367389 0.499552 0.579299
Si Si7 0.720937 0.873173 0.854108
O O1 0.869333 0.656411 0.771267
O O2 0.790356 0.443229 0.852951
O O3 0.720200 0.700144 0.816861
O O4 0.762006 0.493133 0.713307
O O5 0.499072 0.668116 0.258160
O O6 0.446573 0.832984 0.147896
O O7 0.500000 0.000000 0.255655
O O8 0.073597 0.011381 0.855220
O O9 0.082088 0.376467 0.500000
O O10 0.184808 0.254043 0.587405
O O11 0.146927 0.552640 0.604583
O O12 0.725790 0.907438 0.500000
O O13 0.670061 0.678492 0.579739
O O14 0.402702 0.530511 0.500000
O O15 0.294585 0.618827 0.592406
#
# Coordination Sequence:
#
# PCOD9442137 Si02
#       7
#     8   8   4   8   8   8   8
#     4  11  20  36  55  90 117 151 199 244 300 352
#     4  11  24  40  60  88 119 162 205 246 287 359
#     4  12  23  40  61  82 120 166 200 238 285 360
#     4   9  20  41  61  86 118 149 191 251 310 355
#     4   9  19  35  59  85 119 149 188 250 305 351
#     4  10  20  36  56  82 112 154 193 235 292 347
#     4  10  19  33  60  83 114 149 188 246 299 354
#
# _framework density 19.977485000000001
#
# number of rings (size 3 to 8) (size 9 to 14) (size 15 to 20)
#    0.000    1.846    1.538    5.308    0.000    2.769 
#    0.000    0.385    0.000    3.231    0.000    0.000 
#    0.000    0.000    0.000    0.000    0.000    0.000 
#
# Total GULP energy -290196.615166 kJ/mol
# GULP energy per Si atom -5580.704138 kJ/mol
# Density = 1.993202 g / cm^3
# Si number density = 19.977485 Si / 1000 Ang^3
#
#
#
# Elastic Constant Matrix: (Units=GPa)
#
#
# Indices 1 2 3 4 5 6 
#
# 1 32.4776 -0.2875 16.9484 0.0000 0.0000 0.0000
# 2 -0.2875 70.6630 37.7989 0.0000 0.0000 0.0000
# 3 16.9484 37.7989 133.8285 0.0000 0.0000 0.0000
# 4 0.0000 0.0000 0.0000 -42.2714 0.0000 0.0000
# 5 0.0000 0.0000 0.0000 0.0000 19.1564 0.0000
# 6 0.0000 0.0000 0.0000 0.0000 0.0000 11.1367
#
#
#
# Elastic Compliance Matrix: (Units=1/GPa)
#
#
# Indices 1 2 3 4 5 6 
#
# 1 0.033443 0.002829 -0.005034 0.000000 0.000000 0.000000
# 2 0.002829 0.016910 -0.005134 0.000000 0.000000 0.000000
# 3 -0.005034 -0.005134 0.009560 0.000000 0.000000 0.000000
# 4 0.000000 0.000000 0.000000 -0.023657 0.000000 0.000000
# 5 0.000000 0.000000 0.000000 0.000000 0.052202 0.000000
# 6 0.000000 0.000000 0.000000 0.000000 0.000000 0.089793
#
#
# Mechanical properties :
#
#
# Convention : Reuss Voigt Hill
#
# Bulk Modulus (GPa) = 22.10770 38.43207 30.26988
# Shear Modulus (GPa) = 24.03761 9.77162 16.90461
#
# Velocity S-wave (km/s) = 3.47253 2.21403 2.91208
# Velocity P-wave (km/s) = 5.21232 5.08088 5.14702
#
# Compressibility (1/GPa) = 0.04523311
#
# Stress axis : x y z
#
# Youngs Moduli (GPa) = 29.90191 59.13800 104.60310
#
# Poissons Ratio (x) = -0.16730 0.52660
# Poissons Ratio (y) = -0.08459 0.53706
# Poissons Ratio (z) = 0.15054 0.30363
#
# Static dielectric constant tensor:
#      x y z
#    x 1.731100 0.000000 0.000000 
#    y 0.000000 1.722370 0.000000 
#    z 0.000000 0.000000 1.713740 
# 
# From -- ./inp_files/27252.got.cif
#   From: 2010.05.17/outbox.cif.g08.bks.cpg/sg58_14_cif.got.tgz:27252.got - 2010.06.03 14:20:14.
