data_PCOD9442617
_publ_section_title
;
Structure prediction by ZEFSAII (Michael W. Deem and Ramdas Pophale) SiO2 
 PCOD9442617
Probable space group: P N N M
;
_chemical_formula_sum "Si O2"
_cell_formula_units_Z 32
_cell_length_a 30.388790
_cell_length_b 7.288682
_cell_length_c 5.556487
_cell_angle_alpha 90.000000
_cell_angle_beta 90.000000
_cell_angle_gamma 90.000000
_cell_volume 1230.729791
_symmetry_space_group_name_H-M "P N N M"
_symmetry_group_IT_number 58
_symmetry_cell_setting 'orthorhombic'
loop_
_space_group_symop_operation_xyz
x,y,z
-x,-y,z
1/2+x,1/2-y,1/2-z
1/2-x,1/2+y,1/2-z
-x,-y,-z
x,y,-z
1/2-x,1/2+y,1/2+z
1/2+x,1/2-y,1/2+z
loop_
_atom_site_type_symbol
_atom_site_label
_atom_site_fract_x
_atom_site_fract_y
_atom_site_fract_z
Si Si1 0.311327 0.457792 0.500000
Si Si2 0.454214 0.891256 0.000000
Si Si3 0.836839 0.470739 0.000000
Si Si4 0.547363 0.596462 0.500000
Si Si5 0.709962 0.961375 0.000000
Si Si6 0.578931 0.231275 0.500000
Si Si7 0.077629 0.755258 0.500000
Si Si8 0.171745 0.941044 0.500000
O O1 0.258499 0.454665 0.500000
O O2 0.322414 0.549050 0.246194
O O3 0.335098 0.255552 0.500000
O O4 0.448354 0.790068 0.251792
O O5 0.500000 0.000000 0.000000
O O6 0.414985 0.039507 0.000000
O O7 0.812610 0.516737 0.750797
O O8 0.882869 0.580171 0.000000
O O9 0.500000 0.500000 0.500000
O O10 0.587246 0.448312 0.500000
O O11 0.552630 0.702461 0.248889
O O12 0.705110 0.735441 0.000000
O O13 0.123004 0.860276 0.500000
#
# Coordination Sequence:
#
# PCOD9442617 Si02
#       8
#     4   4   4   4   4   4   4   4
#     4  10  19  37  60  87 122 162 206 267 329 386
#     4  12  23  40  69 104 133 175 229 282 339 406
#     4  10  21  38  60  88 120 165 214 264 323 393
#     4  12  26  46  67  99 141 184 227 280 344 410
#     4  10  20  37  61  88 123 164 208 271 330 386
#     4  12  24  44  68  97 138 180 225 283 341 404
#     4  12  24  44  70  98 135 179 225 282 340 405
#     4  10  21  38  59  89 120 161 212 263 320 390
#
# _framework density 26.000833
#
# number of rings (size 3 to 8) (size 9 to 14) (size 15 to 20)
#    0.000    1.000    0.000    9.000    0.000    0.000 
#    0.000   15.000    0.000    0.000    0.000    0.000 
#    0.000    0.000    0.000    0.000    0.000    0.000 
#
# Total GULP energy -179106.146836 kJ/mol
# GULP energy per Si atom -5597.067089 kJ/mol
# Density = 2.594165 g / cm^3
# Si number density = 26.000833 Si / 1000 Ang^3
#
#
#
# Elastic Constant Matrix: (Units=GPa)
#
#
# Indices 1 2 3 4 5 6 
#
# 1 86.5480 1.5977 56.4495 0.0000 0.0000 0.0000
# 2 1.5977 86.8284 34.8539 0.0000 0.0000 0.0000
# 3 56.4495 34.8539 317.0343 0.0000 0.0000 0.0000
# 4 0.0000 0.0000 0.0000 -149.4974 0.0000 0.0000
# 5 0.0000 0.0000 0.0000 0.0000 1.3402 0.0000
# 6 0.0000 0.0000 0.0000 0.0000 0.0000 31.4966
#
#
#
# Elastic Compliance Matrix: (Units=1/GPa)
#
#
# Indices 1 2 3 4 5 6 
#
# 1 0.013116 0.000728 -0.002415 0.000000 0.000000 0.000000
# 2 0.000728 0.012089 -0.001459 0.000000 0.000000 0.000000
# 3 -0.002415 -0.001459 0.003745 0.000000 0.000000 0.000000
# 4 0.000000 0.000000 0.000000 -0.006689 0.000000 0.000000
# 5 0.000000 0.000000 0.000000 0.000000 0.746168 0.000000
# 6 0.000000 0.000000 0.000000 0.000000 0.000000 0.031749
#
#
# Mechanical properties :
#
#
# Convention : Reuss Voigt Hill
#
# Bulk Modulus (GPa) = 44.13413 75.13477 59.63445
# Shear Modulus (GPa) = 6.14233 3.16850 4.65542
#
# Velocity S-wave (km/s) = 1.53866 1.10511 1.33954
# Velocity P-wave (km/s) = 4.49084 5.53065 5.03765
#
# Compressibility (1/GPa) = 0.02265820
#
# Stress axis : x y z
#
# Youngs Moduli (GPa) = 76.24109 82.71903 267.04499
#
# Poissons Ratio (x) = -0.06024 0.64504
# Poissons Ratio (y) = -0.05552 0.38954
# Poissons Ratio (z) = 0.18416 0.12066
#
# Static dielectric constant tensor:
#      x y z
#    x 2.047800 0.000000 0.000000 
#    y 0.000000 2.016310 0.000000 
#    z 0.000000 0.000000 2.104230 
# 
# From -- ./inp_files/1001.got.cif
#   From: 2010.05.17/outbox.cif.g08.bks.cpg/sg58_1_cif.got.tgz:1001.got - 2010.06.03 14:20:14.
