data_PCOD9442183
_publ_section_title
;
Structure prediction by ZEFSAII (Michael W. Deem and Ramdas Pophale) SiO2 
 PCOD9442183
Probable space group: P N N M
;
_chemical_formula_sum "Si O2"
_cell_formula_units_Z 64
_cell_length_a 15.004686
_cell_length_b 22.410449
_cell_length_c 7.387782
_cell_angle_alpha 90.000000
_cell_angle_beta 90.000000
_cell_angle_gamma 90.000000
_cell_volume 2484.228507
_symmetry_space_group_name_H-M "P N N M"
_symmetry_group_IT_number 58
_symmetry_cell_setting 'orthorhombic'
loop_
_space_group_symop_operation_xyz
x,y,z
-x,-y,z
1/2+x,1/2-y,1/2-z
1/2-x,1/2+y,1/2-z
-x,-y,-z
x,y,-z
1/2-x,1/2+y,1/2+z
1/2+x,1/2-y,1/2+z
loop_
_atom_site_type_symbol
_atom_site_label
_atom_site_fract_x
_atom_site_fract_y
_atom_site_fract_z
Si Si1 0.859550 0.631476 0.279584
Si Si2 0.047757 0.908906 0.781798
Si Si3 0.371273 0.537489 0.280605
Si Si4 0.046583 0.581714 0.705156
Si Si5 0.430579 0.279008 0.792778
Si Si6 0.865767 0.765065 0.721528
Si Si7 0.194145 0.674145 0.205304
Si Si8 0.187871 0.495657 0.278752
O O1 0.857760 0.634147 0.500000
O O2 0.837582 0.698179 0.220680
O O3 0.802564 0.573506 0.226752
O O4 0.959965 0.614107 0.217910
O O5 0.091813 0.848757 0.714297
O O6 0.944894 0.915434 0.717821
O O7 0.093153 0.971295 0.732863
O O8 0.049236 0.905968 0.000000
O O9 0.371528 0.540904 0.500000
O O10 0.269941 0.536613 0.218937
O O11 0.020126 0.566796 0.500000
O O12 0.127189 0.629033 0.699878
O O13 0.094498 0.523390 0.784197
O O14 0.531978 0.274087 0.720145
O O15 0.358465 0.237219 0.701250
O O16 0.434293 0.258300 0.000000
O O17 0.864540 0.767587 0.500000
O O18 0.791693 0.812302 0.784258
O O19 0.203649 0.653259 0.000000
O O20 0.187156 0.497128 0.500000
#
# Coordination Sequence:
#
# PCOD9442183 Si02
#       8
#     8   8   8   8   8   8   8   8
#     4   9  16  31  53  78 107 138 176 225 274 323
#     4   9  18  33  54  79 111 146 181 222 273 330
#     4   8  16  31  49  78 114 143 177 226 274 319
#     4  10  19  34  55  82 112 139 177 232 283 326
#     4  11  22  39  59  83 113 146 184 233 283 330
#     4   9  20  36  55  80 111 146 183 224 279 335
#     4  11  23  38  58  83 109 148 191 226 274 339
#     4   9  17  27  51  83 106 137 184 229 270 320
#
# _framework density 25.762526000000001
#
# number of rings (size 3 to 8) (size 9 to 14) (size 15 to 20)
#    0.000    2.500    1.250    1.875    3.500    1.500 
#    0.000    3.125    0.000    2.250    0.000    0.000 
#    0.000    0.000    0.000    0.000    0.000    0.000 
#
# Total GULP energy -357903.242368 kJ/mol
# GULP energy per Si atom -5592.238162 kJ/mol
# Density = 2.570389 g / cm^3
# Si number density = 25.762526 Si / 1000 Ang^3
#
#
#
# Elastic Constant Matrix: (Units=GPa)
#
#
# Indices 1 2 3 4 5 6 
#
# 1 91.9433 -8.9294 3.7080 0.0000 0.0000 0.0000
# 2 -8.9294 84.3469 -1.3056 0.0000 0.0000 0.0000
# 3 3.7080 -1.3056 93.6514 0.0000 0.0000 0.0000
# 4 0.0000 0.0000 0.0000 -30.5156 0.0000 0.0000
# 5 0.0000 0.0000 0.0000 0.0000 1.8502 0.0000
# 6 0.0000 0.0000 0.0000 0.0000 0.0000 46.9676
#
#
#
# Elastic Compliance Matrix: (Units=1/GPa)
#
#
# Indices 1 2 3 4 5 6 
#
# 1 0.011006 0.001159 -0.000420 0.000000 0.000000 0.000000
# 2 0.001159 0.011980 0.000121 0.000000 0.000000 0.000000
# 3 -0.000420 0.000121 0.010696 0.000000 0.000000 0.000000
# 4 0.000000 0.000000 0.000000 -0.032770 0.000000 0.000000
# 5 0.000000 0.000000 0.000000 0.000000 0.540495 0.000000
# 6 0.000000 0.000000 0.000000 0.000000 0.000000 0.021291
#
#
# Mechanical properties :
#
#
# Convention : Reuss Voigt Hill
#
# Bulk Modulus (GPa) = 28.24652 28.54306 28.39479
# Shear Modulus (GPa) = 8.72937 22.09167 15.41052
#
# Velocity S-wave (km/s) = 1.84276 2.93151 2.44842
# Velocity P-wave (km/s) = 3.93899 4.74991 4.36333
#
# Compressibility (1/GPa) = 0.03540259
#
# Stress axis : x y z
#
# Youngs Moduli (GPa) = 90.86186 83.47014 93.49119
#
# Poissons Ratio (x) = -0.09671 0.03923
# Poissons Ratio (y) = -0.10528 -0.01133
# Poissons Ratio (z) = 0.03813 -0.01011
#
# Static dielectric constant tensor:
#      x y z
#    x 2.025770 0.000000 0.000000 
#    y 0.000000 2.005240 0.000000 
#    z 0.000000 0.000000 1.999540 
# 
# From -- ./inp_files/6921.got.cif
#   From: 2010.05.17/outbox.cif.g08.bks.cpg/sg58_4_cif.got.tgz:6921.got - 2010.06.03 14:20:14.
