data_PCOD9442944
_publ_section_title
;
Structure prediction by ZEFSAII (Michael W. Deem and Ramdas Pophale) SiO2 
 PCOD9442944
Probable space group: P N N M
;
_chemical_formula_sum "Si O2"
_cell_formula_units_Z 24
_cell_length_a 7.018829
_cell_length_b 15.423512
_cell_length_c 9.240541
_cell_angle_alpha 90.000000
_cell_angle_beta 90.000000
_cell_angle_gamma 90.000000
_cell_volume 1000.334704
_symmetry_space_group_name_H-M "P N N M"
_symmetry_group_IT_number 58
_symmetry_cell_setting 'orthorhombic'
loop_
_space_group_symop_operation_xyz
x,y,z
-x,-y,z
1/2+x,1/2-y,1/2-z
1/2-x,1/2+y,1/2-z
-x,-y,-z
x,y,-z
1/2-x,1/2+y,1/2+z
1/2+x,1/2-y,1/2+z
loop_
_atom_site_type_symbol
_atom_site_label
_atom_site_fract_x
_atom_site_fract_y
_atom_site_fract_z
Si Si1 0.225252 0.027547 0.834396
Si Si2 0.321354 0.862829 0.336790
Si Si3 0.381268 0.690682 0.162454
O O1 0.238070 0.114233 0.738357
O O2 0.334095 0.946746 0.764039
O O3 0.280849 0.044611 0.000000
O O4 0.000000 0.000000 0.836811
O O5 0.394165 0.876350 0.500000
O O6 0.392884 0.775538 0.261174
O O7 0.094254 0.846011 0.349125
O O8 0.313356 0.711881 0.000000
#
# Coordination Sequence:
#
# PCOD9442944 Si02
#       3
#     8   8   8
#     4   9  17  31  52  75 100 133 170 206 248 301
#     4  10  20  34  53  77 104 134 169 209 252 299
#     4  10  20  34  53  77 104 134 169 209 252 299
#
# _framework density 23.991973000000002
#
# number of rings (size 3 to 8) (size 9 to 14) (size 15 to 20)
#    0.000    2.333    0.000    3.000    0.000    8.000 
#    0.000    1.667    0.000   10.000    0.000    0.000 
#    0.000    0.000    0.000    0.000    0.000    0.000 
#
# Total GULP energy -134406.268107 kJ/mol
# GULP energy per Si atom -5600.261171 kJ/mol
# Density = 2.393737 g / cm^3
# Si number density = 23.991973 Si / 1000 Ang^3
#
#
#
# Elastic Constant Matrix: (Units=GPa)
#
#
# Indices 1 2 3 4 5 6 
#
# 1 51.1392 1.0733 -7.1073 0.0000 0.0000 0.0000
# 2 1.0733 134.3494 71.5219 0.0000 0.0000 0.0000
# 3 -7.1073 71.5219 210.0865 0.0000 0.0000 0.0000
# 4 0.0000 0.0000 0.0000 44.5310 0.0000 0.0000
# 5 0.0000 0.0000 0.0000 0.0000 22.8804 0.0000
# 6 0.0000 0.0000 0.0000 0.0000 0.0000 43.1412
#
#
#
# Elastic Compliance Matrix: (Units=1/GPa)
#
#
# Indices 1 2 3 4 5 6 
#
# 1 0.019690 -0.000625 0.000879 0.000000 0.000000 0.000000
# 2 -0.000625 0.009111 -0.003123 0.000000 0.000000 0.000000
# 3 0.000879 -0.003123 0.005853 0.000000 0.000000 0.000000
# 4 0.000000 0.000000 0.000000 0.022456 0.000000 0.000000
# 5 0.000000 0.000000 0.000000 0.000000 0.043706 0.000000
# 6 0.000000 0.000000 0.000000 0.000000 0.000000 0.023180
#
#
# Mechanical properties :
#
#
# Convention : Reuss Voigt Hill
#
# Bulk Modulus (GPa) = 34.58395 58.50567 46.54481
# Shear Modulus (GPa) = 35.87538 44.11633 39.99585
#
# Velocity S-wave (km/s) = 3.87112 4.29277 4.08738
# Velocity P-wave (km/s) = 5.86744 7.00064 6.45894
#
# Compressibility (1/GPa) = 0.02891514
#
# Stress axis : x y z
#
# Youngs Moduli (GPa) = 50.78786 109.76083 170.85819
#
# Poissons Ratio (x) = 0.06862 -0.15018
# Poissons Ratio (y) = 0.03175 0.53356
# Poissons Ratio (z) = -0.04464 0.34276
#
# Static dielectric constant tensor:
#      x y z
#    x 2.031680 0.000000 0.000000 
#    y 0.000000 1.813170 0.000000 
#    z 0.000000 0.000000 2.049080 
# 
# From -- ./inp_files/1738.got.cif
#   From: 2010.05.17/outbox.cif.g08.bks.cpg/sg58_1_cif.got.tgz:1738.got - 2010.06.03 14:20:14.
