data_PCOD9442599
_publ_section_title
;
Structure prediction by ZEFSAII (Michael W. Deem and Ramdas Pophale) SiO2 
 PCOD9442599
Probable space group: P N N M
;
_chemical_formula_sum "Si O2"
_cell_formula_units_Z 64
_cell_length_a 10.719212
_cell_length_b 9.644531
_cell_length_c 29.610954
_cell_angle_alpha 90.000000
_cell_angle_beta 90.000000
_cell_angle_gamma 90.000000
_cell_volume 3061.232908
_symmetry_space_group_name_H-M "P N N M"
_symmetry_group_IT_number 58
_symmetry_cell_setting 'orthorhombic'
loop_
_space_group_symop_operation_xyz
x,y,z
-x,-y,z
1/2+x,1/2-y,1/2-z
1/2-x,1/2+y,1/2-z
-x,-y,-z
x,y,-z
1/2-x,1/2+y,1/2+z
1/2+x,1/2-y,1/2+z
loop_
_atom_site_type_symbol
_atom_site_label
_atom_site_fract_x
_atom_site_fract_y
_atom_site_fract_z
Si Si1 0.927510 0.145353 0.644883
Si Si2 0.746007 0.287270 0.049039
Si Si3 0.478576 0.351601 0.336411
Si Si4 0.217444 0.879765 0.552919
Si Si5 0.221338 0.253557 0.214553
Si Si6 0.597722 0.110514 0.878107
Si Si7 0.494991 0.834206 0.580334
Si Si8 0.765011 0.544527 0.290023
O O1 0.874810 0.160627 0.593527
O O2 0.817164 0.166461 0.681387
O O3 0.024010 0.270558 0.648906
O O4 0.000000 0.000000 0.650035
O O5 0.722752 0.451729 0.057152
O O6 0.683721 0.189158 0.086016
O O7 0.896047 0.279084 0.048290
O O8 0.693562 0.252213 0.000000
O O9 0.500000 0.500000 0.360678
O O10 0.603773 0.302043 0.312853
O O11 0.459150 0.232762 0.372841
O O12 0.371809 0.388720 0.300197
O O13 0.186190 0.850380 0.500000
O O14 0.352429 0.811155 0.564697
O O15 0.176724 0.349040 0.255099
O O16 0.275895 0.107303 0.231509
O O17 0.677255 0.033582 0.839798
O O18 0.500000 0.000000 0.897971
O O19 0.500000 0.000000 0.583288
#
# Coordination Sequence:
#
# PCOD9442599 Si02
#       8
#     8   8   8   8   8   8   8   8
#     4  12  25  41  67  95 128 178 220 263 325 395
#     4  10  21  39  65  97 129 169 217 272 328 387
#     4  10  22  41  66  91 126 165 207 261 324 385
#     4  10  21  39  65  98 129 165 219 275 323 384
#     4  11  26  44  68  98 129 168 219 269 330 397
#     4  12  25  43  65  91 135 178 216 267 328 387
#     4  10  19  36  66  96 122 160 212 266 324 379
#     4  11  26  44  67  96 130 170 213 274 328 393
#
# _framework density 20.906609
#
# number of rings (size 3 to 8) (size 9 to 14) (size 15 to 20)
#    0.000    1.250    5.000    0.375    3.500    4.000 
#    0.000    0.000    0.000    0.750    0.000    0.000 
#    0.000    0.000    0.000    0.000    0.000    0.000 
#
# Total GULP energy -356917.595771 kJ/mol
# GULP energy per Si atom -5576.837434 kJ/mol
# Density = 2.085902 g / cm^3
# Si number density = 20.906609 Si / 1000 Ang^3
#
#
#
# Elastic Constant Matrix: (Units=GPa)
#
#
# Indices 1 2 3 4 5 6 
#
# 1 72.5420 28.8660 9.7888 0.0000 0.0000 0.0000
# 2 28.8660 63.1184 29.2800 0.0000 0.0000 0.0000
# 3 9.7888 29.2800 71.2492 0.0000 0.0000 0.0000
# 4 0.0000 0.0000 0.0000 15.9496 0.0000 0.0000
# 5 0.0000 0.0000 0.0000 0.0000 37.9065 0.0000
# 6 0.0000 0.0000 0.0000 0.0000 0.0000 29.6622
#
#
#
# Elastic Compliance Matrix: (Units=1/GPa)
#
#
# Indices 1 2 3 4 5 6 
#
# 1 0.016916 -0.008226 0.001057 0.000000 0.000000 0.000000
# 2 -0.008226 0.023575 -0.008558 0.000000 0.000000 0.000000
# 3 0.001057 -0.008558 0.017407 0.000000 0.000000 0.000000
# 4 0.000000 0.000000 0.000000 0.062697 0.000000 0.000000
# 5 0.000000 0.000000 0.000000 0.000000 0.026381 0.000000
# 6 0.000000 0.000000 0.000000 0.000000 0.000000 0.033713
#
#
# Mechanical properties :
#
#
# Convention : Reuss Voigt Hill
#
# Bulk Modulus (GPa) = 37.81771 38.08657 37.95214
# Shear Modulus (GPa) = 22.62855 25.96863 24.29859
#
# Velocity S-wave (km/s) = 3.29350 3.52820 3.41287
# Velocity P-wave (km/s) = 5.70885 5.90378 5.80714
#
# Compressibility (1/GPa) = 0.02644264
#
# Stress axis : x y z
#
# Youngs Moduli (GPa) = 59.11573 42.41701 57.44789
#
# Poissons Ratio (x) = 0.34894 -0.06070
# Poissons Ratio (y) = 0.48631 0.49165
# Poissons Ratio (z) = -0.06246 0.36301
#
# Static dielectric constant tensor:
#      x y z
#    x 1.834500 0.000000 0.000000 
#    y 0.000000 1.831660 0.000000 
#    z 0.000000 0.000000 1.754850 
# 
# From -- ./inp_files/34967.got.cif
#   From: 2010.05.17/outbox.cif.g08.bks.cpg/sg58_18_cif.got.tgz:34967.got - 2010.06.03 14:20:14.
