data_PCOD9442661
_publ_section_title
;
Structure prediction by ZEFSAII (Michael W. Deem and Ramdas Pophale) SiO2 
 PCOD9442661
Probable space group: P N N M
;
_chemical_formula_sum "Si O2"
_cell_formula_units_Z 58
_cell_length_a 12.234591
_cell_length_b 29.896214
_cell_length_c 7.879935
_cell_angle_alpha 90.000000
_cell_angle_beta 90.000000
_cell_angle_gamma 90.000000
_cell_volume 2882.227677
_symmetry_space_group_name_H-M "P N N M"
_symmetry_group_IT_number 58
_symmetry_cell_setting 'orthorhombic'
loop_
_space_group_symop_operation_xyz
x,y,z
-x,-y,z
1/2+x,1/2-y,1/2-z
1/2-x,1/2+y,1/2-z
-x,-y,-z
x,y,-z
1/2-x,1/2+y,1/2+z
1/2+x,1/2-y,1/2+z
loop_
_atom_site_type_symbol
_atom_site_label
_atom_site_fract_x
_atom_site_fract_y
_atom_site_fract_z
Si Si1 0.390520 0.660693 0.295296
Si Si2 0.744259 0.424007 0.797155
Si Si3 0.548877 0.864563 0.705281
Si Si4 0.500000 0.000000 0.500000
Si Si5 0.633096 0.680869 0.301127
Si Si6 0.323765 0.986573 0.809466
Si Si7 0.692499 0.108577 0.699583
Si Si8 0.686709 0.780667 0.201474
O O1 0.390554 0.664018 0.500000
O O2 0.349228 0.611349 0.248184
O O3 0.511208 0.672013 0.231953
O O4 0.297489 0.695391 0.233413
O O5 0.859144 0.400535 0.741708
O O6 0.740086 0.472386 0.713885
O O7 0.748374 0.428681 0.000000
O O8 0.548057 0.864879 0.500000
O O9 0.428253 0.877441 0.764495
O O10 0.590401 0.816184 0.763101
O O11 0.408225 0.991906 0.652714
O O12 0.631310 0.670247 0.500000
O O13 0.723042 0.648664 0.221336
O O14 0.663673 0.732641 0.279134
O O15 0.273248 0.937298 0.788415
O O16 0.370752 0.989665 0.000000
O O17 0.680855 0.099554 0.500000
O O18 0.696839 0.774668 0.000000
#
# Coordination Sequence:
#
# PCOD9442661 Si02
#       8
#     8   8   8   2   8   8   8   8
#     4   9  21  41  62  86 121 162 212 266 320 383
#     4  10  19  37  65  93 126 161 209 263 315 386
#     4   9  20  36  59  87 123 161 196 254 320 371
#     4  12  22  40  60  98 134 172 218 272 312 388
#     4  11  24  41  61  87 124 166 215 263 321 385
#     4  12  24  39  64  94 134 177 217 264 331 389
#     4  11  23  41  62  89 132 169 211 265 322 389
#     4  10  21  38  61  89 118 158 208 260 318 385
#
# _framework density 20.123322999999999
#
# number of rings (size 3 to 8) (size 9 to 14) (size 15 to 20)
#    0.000    1.655    1.379    2.690    3.862    3.310 
#    0.000    0.690    0.000    4.138    0.000    0.000 
#    0.000    0.000    0.000    0.000    0.000    0.000 
#
# Total GULP energy -323446.197387 kJ/mol
# GULP energy per Si atom -5576.658576 kJ/mol
# Density = 2.007752 g / cm^3
# Si number density = 20.123323 Si / 1000 Ang^3
#
#
#
# Elastic Constant Matrix: (Units=GPa)
#
#
# Indices 1 2 3 4 5 6 
#
# 1 126.1085 106.4301 21.6821 0.0000 0.0000 0.0000
# 2 106.4301 191.6429 23.8712 0.0000 0.0000 0.0000
# 3 21.6821 23.8712 78.5162 0.0000 0.0000 0.0000
# 4 0.0000 0.0000 0.0000 29.3035 0.0000 0.0000
# 5 0.0000 0.0000 0.0000 0.0000 16.1502 0.0000
# 6 0.0000 0.0000 0.0000 0.0000 0.0000 -43.1217
#
#
#
# Elastic Compliance Matrix: (Units=1/GPa)
#
#
# Indices 1 2 3 4 5 6 
#
# 1 0.015137 -0.008196 -0.001688 0.000000 0.000000 0.000000
# 2 -0.008196 0.009861 -0.000735 0.000000 0.000000 0.000000
# 3 -0.001688 -0.000735 0.013426 0.000000 0.000000 0.000000
# 4 0.000000 0.000000 0.000000 0.034126 0.000000 0.000000
# 5 0.000000 0.000000 0.000000 0.000000 0.061919 0.000000
# 6 0.000000 0.000000 0.000000 0.000000 0.000000 -0.023190
#
#
# Mechanical properties :
#
#
# Convention : Reuss Voigt Hill
#
# Bulk Modulus (GPa) = 58.18709 77.80383 67.99546
# Shear Modulus (GPa) = 36.16749 16.75202 26.45976
#
# Velocity S-wave (km/s) = 4.24405 2.88838 3.63006
# Velocity P-wave (km/s) = 7.27969 7.06195 7.17165
#
# Compressibility (1/GPa) = 0.01718594
#
# Stress axis : x y z
#
# Youngs Moduli (GPa) = 66.06221 101.40524 74.48343
#
# Poissons Ratio (x) = 0.83115 0.12574
# Poissons Ratio (y) = 0.54146 0.05473
# Poissons Ratio (z) = 0.11153 0.07451
#
# Static dielectric constant tensor:
#      x y z
#    x 1.701540 0.000000 0.000000 
#    y 0.000000 1.705830 0.000000 
#    z 0.000000 0.000000 1.722310 
# 
# From -- ./inp_files/4444.got.cif
#   From: 2010.05.17/outbox.cif.g08.bks.cpg/sg58_3_cif.got.tgz:4444.got - 2010.06.03 14:20:14.
