data_PCOD9442650
_publ_section_title
;
Structure prediction by ZEFSAII (Michael W. Deem and Ramdas Pophale) SiO2 
 PCOD9442650
Probable space group: P N N M
;
_chemical_formula_sum "Si O2"
_cell_formula_units_Z 48
_cell_length_a 12.398778
_cell_length_b 21.812449
_cell_length_c 8.980641
_cell_angle_alpha 90.000000
_cell_angle_beta 90.000000
_cell_angle_gamma 90.000000
_cell_volume 2428.793818
_symmetry_space_group_name_H-M "P N N M"
_symmetry_group_IT_number 58
_symmetry_cell_setting 'orthorhombic'
loop_
_space_group_symop_operation_xyz
x,y,z
-x,-y,z
1/2+x,1/2-y,1/2-z
1/2-x,1/2+y,1/2-z
-x,-y,-z
x,y,-z
1/2-x,1/2+y,1/2+z
1/2+x,1/2-y,1/2+z
loop_
_atom_site_type_symbol
_atom_site_label
_atom_site_fract_x
_atom_site_fract_y
_atom_site_fract_z
Si Si1 0.483680 0.428581 0.178478
Si Si2 0.352098 0.144464 0.325492
Si Si3 0.628425 0.998870 0.671786
Si Si4 0.863182 0.830736 0.175863
Si Si5 0.757460 0.104866 0.823985
Si Si6 0.412712 0.806933 0.321985
O O1 0.500000 0.500000 0.221810
O O2 0.579744 0.385803 0.237089
O O3 0.373193 0.402557 0.246860
O O4 0.479060 0.426198 0.000000
O O5 0.339345 0.161298 0.500000
O O6 0.337232 0.071384 0.313268
O O7 0.260418 0.174889 0.227043
O O8 0.473669 0.161806 0.281236
O O9 0.648938 0.018774 0.500000
O O10 0.500000 0.000000 0.694632
O O11 0.690204 0.043992 0.780498
O O12 0.917987 0.765362 0.208538
O O13 0.870155 0.842391 0.000000
O O14 0.686106 0.160623 0.760631
O O15 0.770779 0.110602 0.000000
O O16 0.397844 0.815255 0.500000
#
# Coordination Sequence:
#
# PCOD9442650 Si02
#       6
#     8   8   8   8   8   8
#     4  11  25  46  70  94 126 173 220 259 317 394
#     4  10  21  40  66  90 122 167 213 256 307 381
#     4  10  19  37  63  89 121 166 210 253 309 375
#     4  11  25  42  65  97 130 164 209 268 322 370
#     4  12  25  39  63  97 133 167 209 270 324 370
#     4  10  23  44  64  90 128 173 216 255 313 387
#
# _framework density 19.762896000000001
#
# number of rings (size 3 to 8) (size 9 to 14) (size 15 to 20)
#    0.000    1.333    1.667    3.500    2.333    8.333 
#    0.000    0.000    0.000    0.000    0.000    0.000 
#    0.000    0.000    0.000    0.000    0.000    0.000 
#
# Total GULP energy -268437.363764 kJ/mol
# GULP energy per Si atom -5592.445078 kJ/mol
# Density = 1.971792 g / cm^3
# Si number density = 19.762896 Si / 1000 Ang^3
#
#
#
# Elastic Constant Matrix: (Units=GPa)
#
#
# Indices 1 2 3 4 5 6 
#
# 1 95.4797 39.8238 43.5587 0.0000 0.0000 0.0000
# 2 39.8238 85.8855 44.3389 0.0000 0.0000 0.0000
# 3 43.5587 44.3389 68.1645 0.0000 0.0000 0.0000
# 4 0.0000 0.0000 0.0000 282.6194 0.0000 0.0000
# 5 0.0000 0.0000 0.0000 0.0000 -10.5661 0.0000
# 6 0.0000 0.0000 0.0000 0.0000 0.0000 18.5170
#
#
#
# Elastic Compliance Matrix: (Units=1/GPa)
#
#
# Indices 1 2 3 4 5 6 
#
# 1 0.015307 -0.003083 -0.007776 0.000000 0.000000 0.000000
# 2 -0.003083 0.018151 -0.009837 0.000000 0.000000 0.000000
# 3 -0.007776 -0.009837 0.026038 0.000000 0.000000 0.000000
# 4 0.000000 0.000000 0.000000 0.003538 0.000000 0.000000
# 5 0.000000 0.000000 0.000000 0.000000 -0.094642 0.000000
# 6 0.000000 0.000000 0.000000 0.000000 0.000000 0.054004
#
#
# Mechanical properties :
#
#
# Convention : Reuss Voigt Hill
#
# Bulk Modulus (GPa) = 55.23494 56.10805 55.67149
# Shear Modulus (GPa) = 71.61023 66.23462 68.92242
#
# Velocity S-wave (km/s) = 6.02606 5.79546 5.91188
# Velocity P-wave (km/s) = 8.74227 8.55777 8.65051
#
# Compressibility (1/GPa) = 0.01810448
#
# Stress axis : x y z
#
# Youngs Moduli (GPa) = 65.33033 55.09269 38.40576
#
# Poissons Ratio (x) = 0.16986 0.29864
# Poissons Ratio (y) = 0.20143 0.37778
# Poissons Ratio (z) = 0.50800 0.54192
#
# Static dielectric constant tensor:
#      x y z
#    x 1.691060 0.000000 0.000000 
#    y 0.000000 1.694930 0.000000 
#    z 0.000000 0.000000 1.663900 
# 
# From -- ./inp_files/4207.got.cif
#   From: 2010.05.17/outbox.cif.g08.bks.cpg/sg58_3_cif.got.tgz:4207.got - 2010.06.03 14:20:14.
