data_PCOD9442891
_publ_section_title
;
Structure prediction by ZEFSAII (Michael W. Deem and Ramdas Pophale) SiO2 
 PCOD9442891
Probable space group: P N N M
;
_chemical_formula_sum "Si O2"
_cell_formula_units_Z 64
_cell_length_a 17.938371
_cell_length_b 23.317503
_cell_length_c 8.435319
_cell_angle_alpha 90.000000
_cell_angle_beta 90.000000
_cell_angle_gamma 90.000000
_cell_volume 3528.308526
_symmetry_space_group_name_H-M "P N N M"
_symmetry_group_IT_number 58
_symmetry_cell_setting 'orthorhombic'
loop_
_space_group_symop_operation_xyz
x,y,z
-x,-y,z
1/2+x,1/2-y,1/2-z
1/2-x,1/2+y,1/2-z
-x,-y,-z
x,y,-z
1/2-x,1/2+y,1/2+z
1/2+x,1/2-y,1/2+z
loop_
_atom_site_type_symbol
_atom_site_label
_atom_site_fract_x
_atom_site_fract_y
_atom_site_fract_z
Si Si1 0.735934 0.510730 0.692099
Si Si2 0.084096 0.277289 0.189096
Si Si3 0.014528 0.433913 0.322608
Si Si4 0.935558 0.334912 0.180792
Si Si5 0.788328 0.391188 0.192065
Si Si6 0.676372 0.118129 0.818345
Si Si7 0.073071 0.034214 0.808588
Si Si8 0.124572 0.152272 0.310535
O O1 0.739280 0.512100 0.500000
O O2 0.786802 0.456910 0.747231
O O3 0.762797 0.573558 0.749475
O O4 0.651251 0.495389 0.741512
O O5 0.147672 0.322929 0.240618
O O6 0.102509 0.213566 0.242762
O O7 0.001790 0.296130 0.253679
O O8 0.079327 0.280379 0.000000
O O9 0.987264 0.416664 0.500000
O O10 0.101535 0.420162 0.319422
O O11 0.000000 0.500000 0.302444
O O12 0.974350 0.397081 0.189871
O O13 0.854717 0.349727 0.251318
O O14 0.923713 0.315401 0.000000
O O15 0.708916 0.364289 0.237675
O O16 0.793305 0.393381 0.000000
O O17 0.697292 0.131904 0.000000
O O18 0.074633 0.099441 0.748964
O O19 0.073178 0.034881 0.000000
O O20 0.000000 0.000000 0.754774
O O21 0.121971 0.154598 0.500000
#
# Coordination Sequence:
#
# PCOD9442891 Si02
#       8
#     8   8   8   8   8   8   8   8
#     4   9  17  30  50  75 101 130 163 199 242 292
#     4  10  20  34  51  70  96 132 170 205 243 291
#     4   9  16  25  39  62  92 124 155 187 225 269
#     4   9  18  31  46  66  92 122 158 198 237 281
#     4   9  18  32  50  72  96 123 158 201 248 294
#     4   9  17  29  45  67  97 130 161 193 232 281
#     4   9  18  34  56  80 103 127 160 204 252 299
#     4  10  20  35  55  75  97 128 164 204 250 297
#
# _framework density 18.139002999999999
#
# number of rings (size 3 to 8) (size 9 to 14) (size 15 to 20)
#    0.000    2.750    0.000    1.500    0.000    3.500 
#    0.000    3.750    0.000    7.500    0.000    0.000 
#    0.000    0.000    0.000    0.000    0.000    0.000 
#
# Total GULP energy -356284.984854 kJ/mol
# GULP energy per Si atom -5566.952888 kJ/mol
# Density = 1.809772 g / cm^3
# Si number density = 18.139003 Si / 1000 Ang^3
#
#
#
# Elastic Constant Matrix: (Units=GPa)
#
#
# Indices 1 2 3 4 5 6 
#
# 1 80.8921 68.4604 13.0745 0.0000 0.0000 0.0000
# 2 68.4604 147.7689 22.9346 0.0000 0.0000 0.0000
# 3 13.0745 22.9346 13.0163 0.0000 0.0000 0.0000
# 4 0.0000 0.0000 0.0000 21.5707 0.0000 0.0000
# 5 0.0000 0.0000 0.0000 0.0000 10.6589 0.0000
# 6 0.0000 0.0000 0.0000 0.0000 0.0000 22.3947
#
#
#
# Elastic Compliance Matrix: (Units=1/GPa)
#
#
# Indices 1 2 3 4 5 6 
#
# 1 0.020601 -0.008716 -0.005335 0.000000 0.000000 0.000000
# 2 -0.008716 0.013003 -0.014155 0.000000 0.000000 0.000000
# 3 -0.005335 -0.014155 0.107126 0.000000 0.000000 0.000000
# 4 0.000000 0.000000 0.000000 0.046359 0.000000 0.000000
# 5 0.000000 0.000000 0.000000 0.000000 0.093818 0.000000
# 6 0.000000 0.000000 0.000000 0.000000 0.000000 0.044653
#
#
# Mechanical properties :
#
#
# Convention : Reuss Voigt Hill
#
# Bulk Modulus (GPa) = 11.85996 50.06847 30.96422
# Shear Modulus (GPa) = 12.19275 20.07205 16.13240
#
# Velocity S-wave (km/s) = 2.59546 3.33012 2.98548
# Velocity P-wave (km/s) = 3.94138 6.51528 5.38439
#
# Compressibility (1/GPa) = 0.08431730
#
# Stress axis : x y z
#
# Youngs Moduli (GPa) = 48.54063 76.90825 9.33477
#
# Poissons Ratio (x) = 0.67036 0.04980
# Poissons Ratio (y) = 0.42310 0.13213
# Poissons Ratio (z) = 0.25897 1.08863
#
# Static dielectric constant tensor:
#      x y z
#    x 1.673100 0.000000 0.000000 
#    y 0.000000 1.603990 0.000000 
#    z 0.000000 0.000000 1.661160 
# 
# From -- ./inp_files/8302.got.cif
#   From: 2010.05.17/outbox.cif.g08.bks.cpg/sg58_5_cif.got.tgz:8302.got - 2010.06.03 14:20:14.
