data_PCOD9442744
_publ_section_title
;
Structure prediction by ZEFSAII (Michael W. Deem and Ramdas Pophale) SiO2 
 PCOD9442744
Probable space group: P N N M
;
_chemical_formula_sum "Si O2"
_cell_formula_units_Z 64
_cell_length_a 24.053586
_cell_length_b 19.902366
_cell_length_c 7.524186
_cell_angle_alpha 90.000000
_cell_angle_beta 90.000000
_cell_angle_gamma 90.000000
_cell_volume 3602.002942
_symmetry_space_group_name_H-M "P N N M"
_symmetry_group_IT_number 58
_symmetry_cell_setting 'orthorhombic'
loop_
_space_group_symop_operation_xyz
x,y,z
-x,-y,z
1/2+x,1/2-y,1/2-z
1/2-x,1/2+y,1/2-z
-x,-y,-z
x,y,-z
1/2-x,1/2+y,1/2+z
1/2+x,1/2-y,1/2+z
loop_
_atom_site_type_symbol
_atom_site_label
_atom_site_fract_x
_atom_site_fract_y
_atom_site_fract_z
Si Si1 0.168882 0.785359 0.715613
Si Si2 0.218786 0.364813 0.708803
Si Si3 0.226197 0.653484 0.710139
Si Si4 0.161116 0.233046 0.716045
Si Si5 0.619117 0.485570 0.708716
Si Si6 0.252670 0.507598 0.281416
Si Si7 0.558508 0.349792 0.794872
Si Si8 0.435060 0.371344 0.215348
O O1 0.169247 0.784444 0.500000
O O2 0.219539 0.833393 0.772638
O O3 0.184452 0.710590 0.780434
O O4 0.110997 0.817394 0.774446
O O5 0.206076 0.370570 0.500000
O O6 0.177662 0.307461 0.781231
O O7 0.222016 0.440162 0.781057
O O8 0.215661 0.648584 0.500000
O O9 0.288005 0.683966 0.734116
O O10 0.226181 0.577736 0.779669
O O11 0.160100 0.234130 0.500000
O O12 0.103401 0.202139 0.782355
O O13 0.622345 0.470365 0.500000
O O14 0.682482 0.493650 0.773886
O O15 0.587305 0.422853 0.792373
O O16 0.586067 0.554716 0.733611
O O17 0.252744 0.506595 0.500000
O O18 0.496911 0.355986 0.716935
O O19 0.550901 0.329417 0.000000
O O20 0.436270 0.370602 0.000000
#
# Coordination Sequence:
#
# PCOD9442744 Si02
#       8
#     8   8   8   8   8   8   8   8
#     4   9  17  28  43  61  79 106 140 171 203 242
#     4   9  16  28  44  61  82 105 133 169 210 249
#     4   9  16  28  44  61  82 105 133 169 210 249
#     4   9  17  28  43  61  79 106 140 171 203 242
#     4  11  20  30  43  62  86 113 146 175 201 240
#     4   9  16  26  42  63  85 108 129 163 210 249
#     4  10  20  32  43  58  84 116 146 174 204 240
#     4  10  20  32  43  58  84 116 146 174 204 240
#
# _framework density 17.767893000000001
#
# number of rings (size 3 to 8) (size 9 to 14) (size 15 to 20)
#    0.000    2.500    2.500    0.750    0.000    2.000 
#    0.000    0.625    0.000    0.000    0.000    0.875 
#    0.000    7.000    0.000    0.000    0.000   25.375 
#
# Total GULP energy -356915.076136 kJ/mol
# GULP energy per Si atom -5576.798065 kJ/mol
# Density = 1.772745 g / cm^3
# Si number density = 17.767893 Si / 1000 Ang^3
#
#
#
# Elastic Constant Matrix: (Units=GPa)
#
#
# Indices 1 2 3 4 5 6 
#
# 1 64.4337 39.4954 -6.3066 0.0000 0.0000 0.0000
# 2 39.4954 139.1306 -5.8595 0.0000 0.0000 0.0000
# 3 -6.3066 -5.8595 43.9566 0.0000 0.0000 0.0000
# 4 0.0000 0.0000 0.0000 -22.0183 0.0000 0.0000
# 5 0.0000 0.0000 0.0000 0.0000 11.4694 0.0000
# 6 0.0000 0.0000 0.0000 0.0000 0.0000 17.7824
#
#
#
# Elastic Compliance Matrix: (Units=1/GPa)
#
#
# Indices 1 2 3 4 5 6 
#
# 1 0.018965 -0.005299 0.002015 0.000000 0.000000 0.000000
# 2 -0.005299 0.008709 0.000401 0.000000 0.000000 0.000000
# 3 0.002015 0.000401 0.023092 0.000000 0.000000 0.000000
# 4 0.000000 0.000000 0.000000 -0.045417 0.000000 0.000000
# 5 0.000000 0.000000 0.000000 0.000000 0.087189 0.000000
# 6 0.000000 0.000000 0.000000 0.000000 0.000000 0.056236
#
#
# Mechanical properties :
#
#
# Convention : Reuss Voigt Hill
#
# Bulk Modulus (GPa) = 22.22291 33.57550 27.89920
# Shear Modulus (GPa) = 29.49163 16.12613 22.80888
#
# Velocity S-wave (km/s) = 4.07852 3.01591 3.58678
# Velocity P-wave (km/s) = 5.89182 5.57363 5.73493
#
# Compressibility (1/GPa) = 0.04499862
#
# Stress axis : x y z
#
# Youngs Moduli (GPa) = 52.72879 114.82978 43.30476
#
# Poissons Ratio (x) = 0.60846 -0.08724
# Poissons Ratio (y) = 0.27940 -0.01735
# Poissons Ratio (z) = -0.10623 -0.04600
#
# Static dielectric constant tensor:
#      x y z
#    x 1.593480 0.000000 0.000000 
#    y 0.000000 1.622130 0.000000 
#    z 0.000000 0.000000 1.682860 
# 
# From -- ./inp_files/8475.got.cif
#   From: 2010.05.17/outbox.cif.g08.bks.cpg/sg58_5_cif.got.tgz:8475.got - 2010.06.03 14:20:14.
