data_PCOD9442606
_publ_section_title
;
Structure prediction by ZEFSAII (Michael W. Deem and Ramdas Pophale) SiO2 
 PCOD9442606
Probable space group: P N N M
;
_chemical_formula_sum "Si O2"
_cell_formula_units_Z 56
_cell_length_a 10.634420
_cell_length_b 18.670206
_cell_length_c 14.029602
_cell_angle_alpha 90.000000
_cell_angle_beta 90.000000
_cell_angle_gamma 90.000000
_cell_volume 2785.532752
_symmetry_space_group_name_H-M "P N N M"
_symmetry_group_IT_number 58
_symmetry_cell_setting 'orthorhombic'
loop_
_space_group_symop_operation_xyz
x,y,z
-x,-y,z
1/2+x,1/2-y,1/2-z
1/2-x,1/2+y,1/2-z
-x,-y,-z
x,y,-z
1/2-x,1/2+y,1/2+z
1/2+x,1/2-y,1/2+z
loop_
_atom_site_type_symbol
_atom_site_label
_atom_site_fract_x
_atom_site_fract_y
_atom_site_fract_z
Si Si1 0.428122 0.574204 0.200100
Si Si2 0.004059 0.371762 0.392935
Si Si3 0.542116 0.725431 0.804197
Si Si4 0.664995 0.944417 0.612305
Si Si5 0.284761 0.601552 0.604431
Si Si6 0.593357 0.098795 0.312019
Si Si7 0.685601 0.242573 0.333808
O O1 0.500000 0.500000 0.183887
O O2 0.517386 0.641870 0.177543
O O3 0.303310 0.582473 0.136604
O O4 0.371352 0.575879 0.308325
O O5 0.047498 0.389859 0.500000
O O6 0.983935 0.285466 0.384772
O O7 0.865490 0.407504 0.378500
O O8 0.091174 0.392917 0.303226
O O9 0.439415 0.744115 0.725748
O O10 0.685328 0.739559 0.773821
O O11 0.645241 0.949475 0.500000
O O12 0.552443 0.898024 0.656606
O O13 0.647675 0.022602 0.658612
O O14 0.316197 0.571673 0.500000
O O15 0.301638 0.687918 0.601804
O O16 0.667167 0.161451 0.367112
#
# Coordination Sequence:
#
# PCOD9442606 Si02
#       7
#     8   8   8   8   8   8   8
#     4  11  22  38  58  82 121 160 203 246 306 359
#     4   9  17  34  61  89 117 150 192 243 298 357
#     4   9  19  34  58  87 119 155 198 243 296 349
#     4  11  24  39  56  82 115 156 202 251 302 364
#     4   9  18  34  56  86 117 152 198 242 297 358
#     4  10  19  37  59  83 119 151 197 242 303 353
#     4   9  18  33  60  85 116 157 196 244 295 349
#
# _framework density 20.103874000000001
#
# number of rings (size 3 to 8) (size 9 to 14) (size 15 to 20)
#    0.000    2.286    1.429    1.714    2.000    2.286 
#    0.000    5.000    0.000   14.571    0.000    0.000 
#    0.000    0.000    0.000    0.000    0.000    0.000 
#
# Total GULP energy -311967.678258 kJ/mol
# GULP energy per Si atom -5570.851397 kJ/mol
# Density = 2.005812 g / cm^3
# Si number density = 20.103874 Si / 1000 Ang^3
#
#
#
# Elastic Constant Matrix: (Units=GPa)
#
#
# Indices 1 2 3 4 5 6 
#
# 1 34.9251 6.4034 -11.2804 0.0000 0.0000 0.0000
# 2 6.4034 43.3994 -2.2995 0.0000 0.0000 0.0000
# 3 -11.2804 -2.2995 88.0715 0.0000 0.0000 0.0000
# 4 0.0000 0.0000 0.0000 6.3431 0.0000 0.0000
# 5 0.0000 0.0000 0.0000 0.0000 -2.0745 0.0000
# 6 0.0000 0.0000 0.0000 0.0000 0.0000 22.9881
#
#
#
# Elastic Compliance Matrix: (Units=1/GPa)
#
#
# Indices 1 2 3 4 5 6 
#
# 1 0.030657 -0.004321 0.003814 0.000000 0.000000 0.000000
# 2 -0.004321 0.023683 0.000065 0.000000 0.000000 0.000000
# 3 0.003814 0.000065 0.011845 0.000000 0.000000 0.000000
# 4 0.000000 0.000000 0.000000 0.157652 0.000000 0.000000
# 5 0.000000 0.000000 0.000000 0.000000 -0.482041 0.000000
# 6 0.000000 0.000000 0.000000 0.000000 0.000000 0.043501
#
#
# Mechanical properties :
#
#
# Convention : Reuss Voigt Hill
#
# Bulk Modulus (GPa) = 15.31416 16.89366 16.10391
# Shear Modulus (GPa) = -26.03458 17.02283 -4.50587
#
# Velocity S-wave (km/s) = -3.60252 2.91304 -1.49872
# Velocity P-wave (km/s) = 3.10969 4.44251 2.24340
#
# Compressibility (1/GPa) = 0.06529906
#
# Stress axis : x y z
#
# Youngs Moduli (GPa) = 32.61917 42.22474 84.42680
#
# Poissons Ratio (x) = 0.18246 -0.32198
# Poissons Ratio (y) = 0.14095 -0.00548
# Poissons Ratio (z) = -0.12440 -0.00274
#
# Static dielectric constant tensor:
#      x y z
#    x 1.713530 0.000000 0.000000 
#    y 0.000000 1.774640 0.000000 
#    z 0.000000 0.000000 1.709420 
# 
# From -- ./inp_files/20107.got.cif
#   From: 2010.05.17/outbox.cif.g08.bks.cpg/sg58_11_cif.got.tgz:20107.got - 2010.06.03 14:20:14.
