data_PCOD9442539
_publ_section_title
;
Structure prediction by ZEFSAII (Michael W. Deem and Ramdas Pophale) SiO2 
 PCOD9442539
Probable space group: P N N M
;
_chemical_formula_sum "Si O2"
_cell_formula_units_Z 36
_cell_length_a 6.656821
_cell_length_b 22.730218
_cell_length_c 11.404497
_cell_angle_alpha 90.000000
_cell_angle_beta 90.000000
_cell_angle_gamma 90.000000
_cell_volume 1725.625760
_symmetry_space_group_name_H-M "P N N M"
_symmetry_group_IT_number 58
_symmetry_cell_setting 'orthorhombic'
loop_
_space_group_symop_operation_xyz
x,y,z
-x,-y,z
1/2+x,1/2-y,1/2-z
1/2-x,1/2+y,1/2-z
-x,-y,-z
x,y,-z
1/2-x,1/2+y,1/2+z
1/2+x,1/2-y,1/2+z
loop_
_atom_site_type_symbol
_atom_site_label
_atom_site_fract_x
_atom_site_fract_y
_atom_site_fract_z
Si Si1 0.739792 0.816450 0.871801
Si Si2 0.883743 0.444310 0.676635
Si Si3 0.195247 0.405233 0.129059
Si Si4 0.000000 0.000000 0.709204
Si Si5 0.505075 0.697908 0.863544
O O1 0.645807 0.881149 0.880443
O O2 0.573669 0.765512 0.862050
O O3 0.864090 0.813997 0.749291
O O4 0.845803 0.805676 0.000000
O O5 0.664243 0.466773 0.712573
O O6 0.000000 0.500000 0.621633
O O7 0.023415 0.428095 0.786841
O O8 0.376719 0.452077 0.136562
O O9 0.297983 0.342841 0.156057
O O10 0.109251 0.402382 0.000000
O O11 0.434997 0.684862 0.000000
#
# Coordination Sequence:
#
# PCOD9442539 Si02
#       5
#     8   8   8   4   8
#     4  11  23  42  66  93 128 170 214 262 322 386
#     4  10  22  38  61  90 131 170 217 265 318 374
#     4  10  20  35  59  93 128 167 212 261 319 379
#     4  10  19  36  59  88 130 170 212 264 310 376
#     4  10  22  40  65  95 129 164 210 268 323 382
#
# _framework density 20.861996000000001
#
# number of rings (size 3 to 8) (size 9 to 14) (size 15 to 20)
#    0.000    1.778    2.222    1.667    0.000    7.111 
#    0.000    1.667    0.000    0.000    0.000    0.000 
#    0.000    0.000    0.000    0.000    0.000    0.000 
#
# Total GULP energy -200581.145676 kJ/mol
# GULP energy per Si atom -5571.698491 kJ/mol
# Density = 2.081451 g / cm^3
# Si number density = 20.861996 Si / 1000 Ang^3
#
#
#
# Elastic Constant Matrix: (Units=GPa)
#
#
# Indices 1 2 3 4 5 6 
#
# 1 80.3516 30.6214 66.0194 0.0000 0.0000 0.0000
# 2 30.6214 163.8298 42.7376 0.0000 0.0000 0.0000
# 3 66.0194 42.7376 167.9509 0.0000 0.0000 0.0000
# 4 0.0000 0.0000 0.0000 91.3062 0.0000 0.0000
# 5 0.0000 0.0000 0.0000 0.0000 19.7388 0.0000
# 6 0.0000 0.0000 0.0000 0.0000 0.0000 28.9602
#
#
#
# Elastic Compliance Matrix: (Units=1/GPa)
#
#
# Indices 1 2 3 4 5 6 
#
# 1 0.018814 -0.001700 -0.006963 0.000000 0.000000 0.000000
# 2 -0.001700 0.006692 -0.001034 0.000000 0.000000 0.000000
# 3 -0.006963 -0.001034 0.008954 0.000000 0.000000 0.000000
# 4 0.000000 0.000000 0.000000 0.010952 0.000000 0.000000
# 5 0.000000 0.000000 0.000000 0.000000 0.050662 0.000000
# 6 0.000000 0.000000 0.000000 0.000000 0.000000 0.034530
#
#
# Mechanical properties :
#
#
# Convention : Reuss Voigt Hill
#
# Bulk Modulus (GPa) = 66.37920 76.76545 71.57233
# Shear Modulus (GPa) = 32.25367 46.18462 39.21914
#
# Velocity S-wave (km/s) = 3.93625 4.71022 4.34052
# Velocity P-wave (km/s) = 7.24887 8.15220 7.71377
#
# Compressibility (1/GPa) = 0.01506496
#
# Stress axis : x y z
#
# Youngs Moduli (GPa) = 53.15119 149.44283 111.67668
#
# Poissons Ratio (x) = 0.25408 0.77761
# Poissons Ratio (y) = 0.09037 0.11552
# Poissons Ratio (z) = 0.37009 0.15459
#
# Static dielectric constant tensor:
#      x y z
#    x 1.713050 0.000000 0.000000 
#    y 0.000000 1.770040 0.000000 
#    z 0.000000 0.000000 1.775520 
# 
# From -- ./inp_files/11649.got.cif
#   From: 2010.05.17/outbox.cif.g08.bks.cpg/sg58_6_cif.got.tgz:11649.got - 2010.06.03 14:20:14.
