data_PCOD9442248
_publ_section_title
;
Structure prediction by ZEFSAII (Michael W. Deem and Ramdas Pophale) SiO2 
 PCOD9442248
Probable space group: P N N M
;
_chemical_formula_sum "Si O2"
_cell_formula_units_Z 56
_cell_length_a 15.134439
_cell_length_b 21.691263
_cell_length_c 7.598253
_cell_angle_alpha 90.000000
_cell_angle_beta 90.000000
_cell_angle_gamma 90.000000
_cell_volume 2494.393221
_symmetry_space_group_name_H-M "P N N M"
_symmetry_group_IT_number 58
_symmetry_cell_setting 'orthorhombic'
loop_
_space_group_symop_operation_xyz
x,y,z
-x,-y,z
1/2+x,1/2-y,1/2-z
1/2-x,1/2+y,1/2-z
-x,-y,-z
x,y,-z
1/2-x,1/2+y,1/2+z
1/2+x,1/2-y,1/2+z
loop_
_atom_site_type_symbol
_atom_site_label
_atom_site_fract_x
_atom_site_fract_y
_atom_site_fract_z
Si Si1 0.754532 0.617029 0.712912
Si Si2 0.348558 0.645175 0.207331
Si Si3 0.421766 0.046699 0.785335
Si Si4 0.697117 0.754142 0.798704
Si Si5 0.946665 0.641516 0.712519
Si Si6 0.771591 0.985534 0.209146
Si Si7 0.000525 0.771353 0.715314
O O1 0.747339 0.624009 0.500000
O O2 0.731909 0.683773 0.788950
O O3 0.703831 0.554835 0.771964
O O4 0.857611 0.606297 0.759839
O O5 0.268133 0.694795 0.234624
O O6 0.328551 0.575828 0.267582
O O7 0.441680 0.671630 0.279373
O O8 0.358804 0.641331 0.000000
O O9 0.462235 0.111592 0.726808
O O10 0.500000 0.000000 0.737909
O O11 0.325189 0.032127 0.717867
O O12 0.416380 0.045907 0.000000
O O13 0.598777 0.744519 0.718863
O O14 0.682572 0.773306 0.000000
O O15 0.949394 0.639361 0.500000
O O16 0.941875 0.712103 0.762434
O O17 0.762199 0.994112 0.000000
O O18 0.006455 0.775759 0.500000
#
# Coordination Sequence:
#
# PCOD9442248 Si02
#       7
#     8   8   8   8   8   8   8
#     4  10  19  34  57  83 114 152 188 228 282 340
#     4  11  22  39  61  84 115 152 190 235 290 344
#     4   9  14  23  46  79 107 138 181 222 261 324
#     4  11  22  38  61  87 113 146 193 243 284 333
#     4   9  14  26  50  77 104 137 180 225 268 323
#     4  10  20  34  55  84 117 150 190 235 283 337
#     4   9  19  35  57  81 107 146 195 236 275 338
#
# _framework density 22.450348000000002
#
# number of rings (size 3 to 8) (size 9 to 14) (size 15 to 20)
#    0.000    2.143    2.857    1.714    0.000    2.857 
#    0.000    3.571    0.000    4.714    0.000    0.000 
#    0.000    0.000    0.000    0.000    0.000    0.000 
#
# Total GULP energy -312019.505280 kJ/mol
# GULP energy per Si atom -5571.776880 kJ/mol
# Density = 2.239925 g / cm^3
# Si number density = 22.450348 Si / 1000 Ang^3
#
#
#
# Elastic Constant Matrix: (Units=GPa)
#
#
# Indices 1 2 3 4 5 6 
#
# 1 41.6378 -2.4356 -5.2926 0.0000 0.0000 0.0000
# 2 -2.4356 81.8203 -10.1010 0.0000 0.0000 0.0000
# 3 -5.2926 -10.1010 43.7180 0.0000 0.0000 0.0000
# 4 0.0000 0.0000 0.0000 22.3858 0.0000 0.0000
# 5 0.0000 0.0000 0.0000 0.0000 14.7728 0.0000
# 6 0.0000 0.0000 0.0000 0.0000 0.0000 28.9465
#
#
#
# Elastic Compliance Matrix: (Units=1/GPa)
#
#
# Indices 1 2 3 4 5 6 
#
# 1 0.024493 0.001127 0.003226 0.000000 0.000000 0.000000
# 2 0.001127 0.012633 0.003055 0.000000 0.000000 0.000000
# 3 0.003226 0.003055 0.023970 0.000000 0.000000 0.000000
# 4 0.000000 0.000000 0.000000 0.044671 0.000000 0.000000
# 5 0.000000 0.000000 0.000000 0.000000 0.067692 0.000000
# 6 0.000000 0.000000 0.000000 0.000000 0.000000 0.034547
#
#
# Mechanical properties :
#
#
# Convention : Reuss Voigt Hill
#
# Bulk Modulus (GPa) = 13.17322 14.61310 13.89316
# Shear Modulus (GPa) = 22.88402 25.55468 24.21935
#
# Velocity S-wave (km/s) = 3.19614 3.37749 3.28807
# Velocity P-wave (km/s) = 4.41598 4.66188 4.54060
#
# Compressibility (1/GPa) = 0.07591161
#
# Stress axis : x y z
#
# Youngs Moduli (GPa) = 40.82867 79.16002 41.71838
#
# Poissons Ratio (x) = -0.08924 -0.13457
# Poissons Ratio (y) = -0.04603 -0.12746
# Poissons Ratio (z) = -0.13170 -0.24185
#
# Static dielectric constant tensor:
#      x y z
#    x 1.857990 0.000000 0.000000 
#    y 0.000000 1.907070 0.000000 
#    z 0.000000 0.000000 1.862680 
# 
# From -- ./inp_files/6263.got.cif
#   From: 2010.05.17/outbox.cif.g08.bks.cpg/sg58_4_cif.got.tgz:6263.got - 2010.06.03 14:20:14.
