data_PCOD9442194
_publ_section_title
;
Structure prediction by ZEFSAII (Michael W. Deem and Ramdas Pophale) SiO2 
 PCOD9442194
Probable space group: P N N M
;
_chemical_formula_sum "Si O2"
_cell_formula_units_Z 64
_cell_length_a 20.418830
_cell_length_b 19.834344
_cell_length_c 8.943366
_cell_angle_alpha 90.000000
_cell_angle_beta 90.000000
_cell_angle_gamma 90.000000
_cell_volume 3622.010449
_symmetry_space_group_name_H-M "P N N M"
_symmetry_group_IT_number 58
_symmetry_cell_setting 'orthorhombic'
loop_
_space_group_symop_operation_xyz
x,y,z
-x,-y,z
1/2+x,1/2-y,1/2-z
1/2-x,1/2+y,1/2-z
-x,-y,-z
x,y,-z
1/2-x,1/2+y,1/2+z
1/2+x,1/2-y,1/2+z
loop_
_atom_site_type_symbol
_atom_site_label
_atom_site_fract_x
_atom_site_fract_y
_atom_site_fract_z
Si Si1 0.008702 0.712992 0.680575
Si Si2 0.959963 0.565617 0.682258
Si Si3 0.187359 0.406240 0.321845
Si Si4 0.647987 0.723368 0.179678
Si Si5 0.405706 0.683903 0.321384
Si Si6 0.929967 0.970275 0.819896
Si Si7 0.284045 0.748405 0.176712
Si Si8 0.324480 0.431573 0.178423
O O1 0.003297 0.715960 0.500000
O O2 0.080582 0.740193 0.721775
O O3 0.993976 0.636055 0.726578
O O4 0.954914 0.762434 0.749339
O O5 0.959524 0.564717 0.500000
O O6 0.883645 0.567362 0.728443
O O7 0.000000 0.500000 0.732844
O O8 0.193707 0.417952 0.500000
O O9 0.190913 0.325373 0.298642
O O10 0.250548 0.436206 0.240026
O O11 0.710907 0.754795 0.259730
O O12 0.648801 0.643603 0.217896
O O13 0.655901 0.728469 0.000000
O O14 0.407715 0.690075 0.500000
O O15 0.425606 0.608145 0.279276
O O16 0.333483 0.699893 0.261765
O O17 0.871749 0.013112 0.748652
O O18 0.925245 0.975575 0.000000
O O19 0.000000 0.000000 0.773088
O O20 0.285259 0.735704 0.000000
O O21 0.324074 0.437051 0.000000
#
# Coordination Sequence:
#
# PCOD9442194 Si02
#       8
#     8   8   8   8   8   8   8   8
#     4  10  19  35  57  82 111 142 181 225 275 330
#     4   9  17  32  55  81 106 138 183 228 268 320
#     4   9  17  33  56  79 105 142 185 223 264 320
#     4   9  19  34  54  82 114 144 179 227 275 324
#     4  11  22  35  56  82 109 142 183 231 278 326
#     4  10  22  39  56  78 109 144 184 227 273 331
#     4  10  19  34  56  79 106 142 184 225 269 327
#     4  10  20  34  54  81 111 146 183 223 275 325
#
# _framework density 17.669744000000001
#
# number of rings (size 3 to 8) (size 9 to 14) (size 15 to 20)
#    0.000    2.250    1.250    1.875    0.000    2.750 
#    2.250    0.000    0.000    1.500    0.000    0.000 
#    0.000    0.000    0.000    0.000    0.000    0.000 
#
# Total GULP energy -357205.639172 kJ/mol
# GULP energy per Si atom -5581.338112 kJ/mol
# Density = 1.762953 g / cm^3
# Si number density = 17.669744 Si / 1000 Ang^3
#
#
#
# Elastic Constant Matrix: (Units=GPa)
#
#
# Indices 1 2 3 4 5 6 
#
# 1 144.5512 90.0854 32.6017 0.0000 0.0000 0.0000
# 2 90.0854 129.8033 37.1868 0.0000 0.0000 0.0000
# 3 32.6017 37.1868 14.4594 0.0000 0.0000 0.0000
# 4 0.0000 0.0000 0.0000 94.8716 0.0000 0.0000
# 5 0.0000 0.0000 0.0000 0.0000 28.3582 0.0000
# 6 0.0000 0.0000 0.0000 0.0000 0.0000 32.3551
#
#
#
# Elastic Compliance Matrix: (Units=1/GPa)
#
#
# Indices 1 2 3 4 5 6 
#
# 1 0.014305 -0.002613 -0.025535 0.000000 0.000000 0.000000
# 2 -0.002613 0.029746 -0.070611 0.000000 0.000000 0.000000
# 3 -0.025535 -0.070611 0.308331 0.000000 0.000000 0.000000
# 4 0.000000 0.000000 0.000000 0.010541 0.000000 0.000000
# 5 0.000000 0.000000 0.000000 0.000000 0.035263 0.000000
# 6 0.000000 0.000000 0.000000 0.000000 0.000000 0.030907
#
#
# Mechanical properties :
#
#
# Convention : Reuss Voigt Hill
#
# Bulk Modulus (GPa) = 6.45722 67.61797 37.03759
# Shear Modulus (GPa) = 7.37211 39.71298 23.54255
#
# Velocity S-wave (km/s) = 2.04480 4.74594 3.65412
# Velocity P-wave (km/s) = 3.03929 8.26938 6.22976
#
# Compressibility (1/GPa) = 0.15486548
#
# Stress axis : x y z
#
# Youngs Moduli (GPa) = 69.90426 33.61772 3.24327
#
# Poissons Ratio (x) = 0.08783 0.08282
# Poissons Ratio (y) = 0.18264 0.22901
# Poissons Ratio (z) = 1.78499 2.37377
#
# Static dielectric constant tensor:
#      x y z
#    x 1.580380 0.000000 0.000000 
#    y 0.000000 1.588650 0.000000 
#    z 0.000000 0.000000 1.586000 
# 
# From -- ./inp_files/9274.got.cif
#   From: 2010.05.17/outbox.cif.g08.bks.cpg/sg58_5_cif.got.tgz:9274.got - 2010.06.03 14:20:14.
