data_PCOD9442238
_publ_section_title
;
Structure prediction by ZEFSAII (Michael W. Deem and Ramdas Pophale) SiO2 
 PCOD9442238
Probable space group: P N N M
;
_chemical_formula_sum "Si O2"
_cell_formula_units_Z 64
_cell_length_a 19.857814
_cell_length_b 20.195690
_cell_length_c 8.897420
_cell_angle_alpha 90.000000
_cell_angle_beta 90.000000
_cell_angle_gamma 90.000000
_cell_volume 3568.241386
_symmetry_space_group_name_H-M "P N N M"
_symmetry_group_IT_number 58
_symmetry_cell_setting 'orthorhombic'
loop_
_space_group_symop_operation_xyz
x,y,z
-x,-y,z
1/2+x,1/2-y,1/2-z
1/2-x,1/2+y,1/2-z
-x,-y,-z
x,y,-z
1/2-x,1/2+y,1/2+z
1/2+x,1/2-y,1/2+z
loop_
_atom_site_type_symbol
_atom_site_label
_atom_site_fract_x
_atom_site_fract_y
_atom_site_fract_z
Si Si1 0.203960 0.009528 0.681159
Si Si2 0.540106 0.067846 0.179147
Si Si3 0.073208 0.670496 0.680718
Si Si4 0.599169 0.679886 0.819843
Si Si5 0.819546 0.597293 0.178576
Si Si6 0.256915 0.290040 0.679062
Si Si7 0.716304 0.859850 0.680158
Si Si8 0.065921 0.957469 0.819944
O O1 0.194704 0.010071 0.500000
O O2 0.259410 0.953526 0.716869
O O3 0.133494 0.991920 0.757388
O O4 0.236549 0.079573 0.728209
O O5 0.491308 0.127952 0.226333
O O6 0.609821 0.068995 0.266350
O O7 0.500000 0.000000 0.204072
O O8 0.553208 0.073567 0.000000
O O9 0.078708 0.666549 0.500000
O O10 0.068641 0.748220 0.720926
O O11 0.142011 0.640926 0.748388
O O12 0.675590 0.683425 0.759270
O O13 0.563843 0.616380 0.748309
O O14 0.599957 0.673407 0.000000
O O15 0.803926 0.666220 0.260569
O O16 0.819412 0.606418 0.000000
O O17 0.263959 0.297464 0.500000
O O18 0.252092 0.212069 0.713976
O O19 0.708277 0.864896 0.500000
O O20 0.069924 0.953073 0.000000
O O21 0.000000 0.000000 0.779352
#
# Coordination Sequence:
#
# PCOD9442238 Si02
#       8
#     8   8   8   8   8   8   8   8
#     4  10  21  38  59  84 113 145 186 229 279 337
#     4  10  21  37  56  81 115 153 191 231 281 335
#     4   9  19  35  56  84 115 150 192 232 275 333
#     4  10  19  35  59  83 109 144 187 231 277 334
#     4  11  22  35  56  84 113 148 190 234 278 331
#     4  10  19  34  57  82 111 144 182 227 275 330
#     4   9  19  35  57  85 113 146 185 229 277 329
#     4  11  24  40  58  82 111 143 185 235 287 342
#
# _framework density 17.936005999999999
#
# number of rings (size 3 to 8) (size 9 to 14) (size 15 to 20)
#    0.000    2.000    1.250    2.250    0.000    3.750 
#    2.250    0.000    0.000    0.000    0.000    0.000 
#    0.000    0.000    0.000    0.000    0.000    0.000 
#
# Total GULP energy -357337.285279 kJ/mol
# GULP energy per Si atom -5583.395082 kJ/mol
# Density = 1.789518 g / cm^3
# Si number density = 17.936006 Si / 1000 Ang^3
#
#
#
# Elastic Constant Matrix: (Units=GPa)
#
#
# Indices 1 2 3 4 5 6 
#
# 1 115.2389 67.1833 45.0357 0.0000 0.0000 0.0000
# 2 67.1833 119.9178 44.2812 0.0000 0.0000 0.0000
# 3 45.0357 44.2812 35.8187 0.0000 0.0000 0.0000
# 4 0.0000 0.0000 0.0000 26.3271 0.0000 0.0000
# 5 0.0000 0.0000 0.0000 0.0000 31.0109 0.0000
# 6 0.0000 0.0000 0.0000 0.0000 0.0000 28.0984
#
#
#
# Elastic Compliance Matrix: (Units=1/GPa)
#
#
# Indices 1 2 3 4 5 6 
#
# 1 0.017673 -0.003120 -0.018363 0.000000 0.000000 0.000000
# 2 -0.003120 0.015894 -0.015726 0.000000 0.000000 0.000000
# 3 -0.018363 -0.015726 0.070449 0.000000 0.000000 0.000000
# 4 0.000000 0.000000 0.000000 0.037984 0.000000 0.000000
# 5 0.000000 0.000000 0.000000 0.000000 0.032247 0.000000
# 6 0.000000 0.000000 0.000000 0.000000 0.000000 0.035589
#
#
# Mechanical properties :
#
#
# Convention : Reuss Voigt Hill
#
# Bulk Modulus (GPa) = 33.78790 64.88621 49.33705
# Shear Modulus (GPa) = 16.99981 24.71896 20.85938
#
# Velocity S-wave (km/s) = 3.08198 3.71641 3.41396
# Velocity P-wave (km/s) = 5.61638 7.39396 6.56561
#
# Compressibility (1/GPa) = 0.02959640
#
# Stress axis : x y z
#
# Youngs Moduli (GPa) = 56.58262 62.91546 14.19475
#
# Poissons Ratio (x) = 0.19633 0.26066
# Poissons Ratio (y) = 0.17656 0.22323
# Poissons Ratio (z) = 1.03904 0.98942
#
# Static dielectric constant tensor:
#      x y z
#    x 1.579700 0.000000 0.000000 
#    y 0.000000 1.602110 0.000000 
#    z 0.000000 0.000000 1.601450 
# 
# From -- ./inp_files/8405.got.cif
#   From: 2010.05.17/outbox.cif.g08.bks.cpg/sg58_5_cif.got.tgz:8405.got - 2010.06.03 14:20:14.
