data_PCOD9442438
_publ_section_title
;
Structure prediction by ZEFSAII (Michael W. Deem and Ramdas Pophale) SiO2 
 PCOD9442438
Probable space group: P N N M
;
_chemical_formula_sum "Si O2"
_cell_formula_units_Z 58
_cell_length_a 12.377253
_cell_length_b 23.092685
_cell_length_c 8.520087
_cell_angle_alpha 90.000000
_cell_angle_beta 90.000000
_cell_angle_gamma 90.000000
_cell_volume 2435.245387
_symmetry_space_group_name_H-M "P N N M"
_symmetry_group_IT_number 58
_symmetry_cell_setting 'orthorhombic'
loop_
_space_group_symop_operation_xyz
x,y,z
-x,-y,z
1/2+x,1/2-y,1/2-z
1/2-x,1/2+y,1/2-z
-x,-y,-z
x,y,-z
1/2-x,1/2+y,1/2+z
1/2+x,1/2-y,1/2+z
loop_
_atom_site_type_symbol
_atom_site_label
_atom_site_fract_x
_atom_site_fract_y
_atom_site_fract_z
Si Si1 0.161068 0.141793 0.677009
Si Si2 0.543038 0.260781 0.681299
Si Si3 0.336368 0.425516 0.824239
Si Si4 0.146826 0.697185 0.673509
Si Si5 0.504858 0.920217 0.822595
Si Si6 0.721421 0.967666 0.815408
Si Si7 0.187913 0.342503 0.690394
Si Si8 0.500000 0.500000 0.000000
O O1 0.121692 0.140998 0.500000
O O2 0.077015 0.173209 0.789294
O O3 0.265357 0.183524 0.695756
O O4 0.206200 0.079715 0.726588
O O5 0.521483 0.249296 0.500000
O O6 0.438142 0.245617 0.782457
O O7 0.637028 0.216121 0.739250
O O8 0.277806 0.471943 0.714051
O O9 0.304750 0.363603 0.751206
O O10 0.453231 0.453778 0.863901
O O11 0.286728 0.426816 0.000000
O O12 0.195924 0.706194 0.500000
O O13 0.077161 0.638248 0.666204
O O14 0.596171 0.964229 0.757753
O O15 0.395682 0.893511 0.753346
O O16 0.475680 0.938546 0.000000
O O17 0.719071 0.953802 0.000000
O O18 0.185388 0.338932 0.500000
#
# Coordination Sequence:
#
# PCOD9442438 Si02
#       8
#     8   8   8   8   8   8   8   2
#     4  11  21  35  56  84 117 157 196 239 293 355
#     4  11  21  35  56  84 117 157 196 239 293 355
#     4  10  21  40  60  80 106 154 193 242 303 353
#     4   9  17  33  53  77 114 153 188 231 287 340
#     4   7  14  28  50  82 119 147 165 213 280 341
#     4  10  19  35  59  87 116 150 193 238 294 362
#     4  10  19  35  59  87 116 150 193 238 294 362
#     4   8  24  44  62  70 116 152 190 264 328 340
#
# _framework density 23.816901999999999
#
# number of rings (size 3 to 8) (size 9 to 14) (size 15 to 20)
#    0.414    1.931    0.000    5.793    0.000    0.552 
#    0.000    7.586    3.034    0.000    0.000    0.000 
#    0.000    0.000    0.000    0.000    0.000    0.000 
#
# Total GULP energy -323035.453466 kJ/mol
# GULP energy per Si atom -5569.576784 kJ/mol
# Density = 2.376269 g / cm^3
# Si number density = 23.816902 Si / 1000 Ang^3
#
#
#
# Elastic Constant Matrix: (Units=GPa)
#
#
# Indices 1 2 3 4 5 6 
#
# 1 49.3344 18.0848 1.0515 0.0000 0.0000 0.0000
# 2 18.0848 66.0053 -0.4480 0.0000 0.0000 0.0000
# 3 1.0515 -0.4480 81.5817 0.0000 0.0000 0.0000
# 4 0.0000 0.0000 0.0000 28.8255 0.0000 0.0000
# 5 0.0000 0.0000 0.0000 0.0000 21.6774 0.0000
# 6 0.0000 0.0000 0.0000 0.0000 0.0000 42.2519
#
#
#
# Elastic Compliance Matrix: (Units=1/GPa)
#
#
# Indices 1 2 3 4 5 6 
#
# 1 0.022542 -0.006178 -0.000324 0.000000 0.000000 0.000000
# 2 -0.006178 0.016844 0.000172 0.000000 0.000000 0.000000
# 3 -0.000324 0.000172 0.012263 0.000000 0.000000 0.000000
# 4 0.000000 0.000000 0.000000 0.034691 0.000000 0.000000
# 5 0.000000 0.000000 0.000000 0.000000 0.046131 0.000000
# 6 0.000000 0.000000 0.000000 0.000000 0.000000 0.023668
#
#
# Mechanical properties :
#
#
# Convention : Reuss Voigt Hill
#
# Bulk Modulus (GPa) = 25.64943 26.03312 25.84127
# Shear Modulus (GPa) = 27.50339 30.43318 28.96828
#
# Velocity S-wave (km/s) = 3.40190 3.57851 3.49132
# Velocity P-wave (km/s) = 5.12087 5.29420 5.20826
#
# Compressibility (1/GPa) = 0.03898722
#
# Stress axis : x y z
#
# Youngs Moduli (GPa) = 44.36245 59.36729 81.54762
#
# Poissons Ratio (x) = 0.36679 0.02646
# Poissons Ratio (y) = 0.27409 -0.01404
# Poissons Ratio (z) = 0.01439 -0.01022
#
# Static dielectric constant tensor:
#      x y z
#    x 2.011870 0.000000 0.000000 
#    y 0.000000 1.954080 0.000000 
#    z 0.000000 0.000000 1.816510 
# 
# From -- ./inp_files/6634.got.cif
#   From: 2010.05.17/outbox.cif.g08.bks.cpg/sg58_4_cif.got.tgz:6634.got - 2010.06.03 14:20:14.
