data_PCOD9442234
_publ_section_title
;
Structure prediction by ZEFSAII (Michael W. Deem and Ramdas Pophale) SiO2 
 PCOD9442234
Probable space group: P N N M
;
_chemical_formula_sum "Si O2"
_cell_formula_units_Z 64
_cell_length_a 11.929227
_cell_length_b 28.902068
_cell_length_c 8.196715
_cell_angle_alpha 90.000000
_cell_angle_beta 90.000000
_cell_angle_gamma 90.000000
_cell_volume 2826.057905
_symmetry_space_group_name_H-M "P N N M"
_symmetry_group_IT_number 58
_symmetry_cell_setting 'orthorhombic'
loop_
_space_group_symop_operation_xyz
x,y,z
-x,-y,z
1/2+x,1/2-y,1/2-z
1/2-x,1/2+y,1/2-z
-x,-y,-z
x,y,-z
1/2-x,1/2+y,1/2+z
1/2+x,1/2-y,1/2+z
loop_
_atom_site_type_symbol
_atom_site_label
_atom_site_fract_x
_atom_site_fract_y
_atom_site_fract_z
Si Si1 0.908804 0.436361 0.811577
Si Si2 0.083827 0.089842 0.308356
Si Si3 0.078720 0.833942 0.689184
Si Si4 0.790739 0.351892 0.687911
Si Si5 0.701661 0.494113 0.310804
Si Si6 0.129164 0.223414 0.808131
Si Si7 0.184249 0.321357 0.312193
Si Si8 0.652890 0.074611 0.801817
O O1 0.881066 0.381776 0.785465
O O2 0.816637 0.464029 0.707509
O O3 0.035066 0.445544 0.758184
O O4 0.891063 0.448347 0.000000
O O5 0.105577 0.099013 0.500000
O O6 0.177402 0.117370 0.205306
O O7 0.106250 0.036138 0.275586
O O8 0.967376 0.114723 0.268706
O O9 0.113773 0.832981 0.500000
O O10 0.181451 0.818728 0.798671
O O11 0.972852 0.800266 0.713565
O O12 0.827335 0.349539 0.500000
O O13 0.746229 0.301742 0.743499
O O14 0.671254 0.498269 0.500000
O O15 0.742557 0.543519 0.244716
O O16 0.133818 0.277778 0.779819
O O17 0.116552 0.213078 0.000000
O O18 0.147866 0.318898 0.500000
O O19 0.157710 0.372397 0.246560
O O20 0.654487 0.073830 0.000000
#
# Coordination Sequence:
#
# PCOD9442234 Si02
#       8
#     8   8   8   8   8   8   8   8
#     4  11  21  32  53  84 114 145 182 227 279 331
#     4   9  17  31  54  83 111 138 175 224 272 321
#     4  10  21  39  62  86 114 147 182 224 277 333
#     4   9  17  31  53  80 110 143 179 221 268 324
#     4  10  19  34  57  81 109 146 186 228 273 327
#     4  10  21  38  61  87 113 145 186 229 277 332
#     4  11  24  41  60  82 112 149 189 233 278 326
#     4  10  23  40  54  74 108 150 191 229 275 330
#
# _framework density 22.646386
#
# number of rings (size 3 to 8) (size 9 to 14) (size 15 to 20)
#    0.000    2.000    0.000    5.250    0.000    7.500 
#    0.000    1.875    0.000    3.750    0.000    0.000 
#    0.000    0.000    0.000    0.000    0.000    0.000 
#
# Total GULP energy -357530.763331 kJ/mol
# GULP energy per Si atom -5586.418177 kJ/mol
# Density = 2.259484 g / cm^3
# Si number density = 22.646386 Si / 1000 Ang^3
#
#
#
# Elastic Constant Matrix: (Units=GPa)
#
#
# Indices 1 2 3 4 5 6 
#
# 1 33.8343 24.2809 -3.6314 0.0000 0.0000 0.0000
# 2 24.2809 104.9362 -0.6274 0.0000 0.0000 0.0000
# 3 -3.6314 -0.6274 32.9912 0.0000 0.0000 0.0000
# 4 0.0000 0.0000 0.0000 51.5263 0.0000 0.0000
# 5 0.0000 0.0000 0.0000 0.0000 -4.7330 0.0000
# 6 0.0000 0.0000 0.0000 0.0000 0.0000 24.9982
#
#
#
# Elastic Compliance Matrix: (Units=1/GPa)
#
#
# Indices 1 2 3 4 5 6 
#
# 1 0.035910 -0.008286 0.003795 0.000000 0.000000 0.000000
# 2 -0.008286 0.011443 -0.000694 0.000000 0.000000 0.000000
# 3 0.003795 -0.000694 0.030716 0.000000 0.000000 0.000000
# 4 0.000000 0.000000 0.000000 0.019408 0.000000 0.000000
# 5 0.000000 0.000000 0.000000 0.000000 -0.211281 0.000000
# 6 0.000000 0.000000 0.000000 0.000000 0.000000 0.040003
#
#
# Mechanical properties :
#
#
# Convention : Reuss Voigt Hill
#
# Bulk Modulus (GPa) = 14.77181 23.53400 19.15291
# Shear Modulus (GPa) = -122.35388 24.47428 -48.93980
#
# Velocity S-wave (km/s) = -7.35835 3.29099 -4.65374
# Velocity P-wave (km/s) = 8.10288 4.98551 4.51671
#
# Compressibility (1/GPa) = 0.06769651
#
# Stress axis : x y z
#
# Youngs Moduli (GPa) = 27.84761 87.39115 32.55676
#
# Poissons Ratio (x) = 0.72415 -0.12355
# Poissons Ratio (y) = 0.23076 0.02261
# Poissons Ratio (z) = -0.10568 0.06069
#
# Static dielectric constant tensor:
#      x y z
#    x 1.826680 0.000000 0.000000 
#    y 0.000000 1.909320 0.000000 
#    z 0.000000 0.000000 1.771560 
# 
# From -- ./inp_files/4809.got.cif
#   From: 2010.05.17/outbox.cif.g08.bks.cpg/sg58_3_cif.got.tgz:4809.got - 2010.06.03 14:20:14.
