data_PCOD9442334
_publ_section_title
;
Structure prediction by ZEFSAII (Michael W. Deem and Ramdas Pophale) SiO2 
 PCOD9442334
Probable space group: P N N M
;
_chemical_formula_sum "Si O2"
_cell_formula_units_Z 46
_cell_length_a 5.567633
_cell_length_b 12.738253
_cell_length_c 27.110037
_cell_angle_alpha 90.000000
_cell_angle_beta 90.000000
_cell_angle_gamma 90.000000
_cell_volume 1922.695815
_symmetry_space_group_name_H-M "P N N M"
_symmetry_group_IT_number 58
_symmetry_cell_setting 'orthorhombic'
loop_
_space_group_symop_operation_xyz
x,y,z
-x,-y,z
1/2+x,1/2-y,1/2-z
1/2-x,1/2+y,1/2-z
-x,-y,-z
x,y,-z
1/2-x,1/2+y,1/2+z
1/2+x,1/2-y,1/2+z
loop_
_atom_site_type_symbol
_atom_site_label
_atom_site_fract_x
_atom_site_fract_y
_atom_site_fract_z
Si Si1 0.859763 0.630752 0.634748
Si Si2 0.183777 0.313618 0.253752
Si Si3 0.858200 0.864174 0.105074
Si Si4 0.119180 0.371372 0.147547
Si Si5 0.618275 0.373918 0.900911
Si Si6 0.247359 0.067692 0.000000
Si Si7 0.000000 0.000000 0.500000
O O1 0.796766 0.637032 0.692369
O O2 0.625595 0.589052 0.606769
O O3 0.883973 0.747273 0.608811
O O4 0.128400 0.586188 0.631613
O O5 0.442485 0.258651 0.243787
O O6 0.133736 0.384660 0.206121
O O7 0.885975 0.753455 0.133716
O O8 0.773358 0.860799 0.048517
O O9 0.368485 0.406630 0.124114
O O10 0.867381 0.407445 0.124848
O O11 0.600322 0.418510 0.956237
O O12 0.500000 0.000000 0.000000
O O13 0.000000 0.000000 0.000000
#
# Coordination Sequence:
#
# PCOD9442334 Si02
#       7
#     8   8   8   8   8   4   2
#     4  10  19  34  60  96 114 144 184 265 295 350
#     4  12  16  31  60 100 118 139 172 239 340 347
#     4  10  20  36  58  86 114 146 191 239 301 344
#     4  10  20  36  61  95 114 142 190 266 296 346
#     4  10  22  37  54  83 120 156 208 243 280 351
#     4  12  26  42  57  80 112 167 196 235 290 362
#     4  12  28  42  58  78 120 198 208 230 300 344
#
# _framework density 23.92474
#
# number of rings (size 3 to 8) (size 9 to 14) (size 15 to 20)
#    0.000    1.391    6.957    1.043    0.000    7.652 
#    0.000    0.000    0.000    0.000   38.435    0.000 
#    0.000    0.000    0.000    0.000    0.000    0.000 
#
# Total GULP energy -256175.028797 kJ/mol
# GULP energy per Si atom -5569.022365 kJ/mol
# Density = 2.387029 g / cm^3
# Si number density = 23.924740 Si / 1000 Ang^3
#
#
#
# Elastic Constant Matrix: (Units=GPa)
#
#
# Indices 1 2 3 4 5 6 
#
# 1 240.3403 47.4999 46.5959 0.0000 0.0000 0.0000
# 2 47.4999 57.0278 11.2169 0.0000 0.0000 0.0000
# 3 46.5959 11.2169 235.9576 0.0000 0.0000 0.0000
# 4 0.0000 0.0000 0.0000 20.5083 0.0000 0.0000
# 5 0.0000 0.0000 0.0000 0.0000 31.8802 0.0000
# 6 0.0000 0.0000 0.0000 0.0000 0.0000 65.5868
#
#
#
# Elastic Compliance Matrix: (Units=1/GPa)
#
#
# Indices 1 2 3 4 5 6 
#
# 1 0.005132 -0.004114 -0.000818 0.000000 0.000000 0.000000
# 2 -0.004114 0.020999 -0.000186 0.000000 0.000000 0.000000
# 3 -0.000818 -0.000186 0.004408 0.000000 0.000000 0.000000
# 4 0.000000 0.000000 0.000000 0.048761 0.000000 0.000000
# 5 0.000000 0.000000 0.000000 0.000000 0.031367 0.000000
# 6 0.000000 0.000000 0.000000 0.000000 0.000000 0.015247
#
#
# Mechanical properties :
#
#
# Convention : Reuss Voigt Hill
#
# Bulk Modulus (GPa) = 49.25193 82.66125 65.95659
# Shear Modulus (GPa) = 34.98506 52.12926 43.55716
#
# Velocity S-wave (km/s) = 3.82815 4.67292 4.27147
# Velocity P-wave (km/s) = 6.33802 7.98376 7.20801
#
# Compressibility (1/GPa) = 0.02030377
#
# Stress axis : x y z
#
# Youngs Moduli (GPa) = 194.83942 47.62235 226.83921
#
# Poissons Ratio (x) = 0.19592 0.18555
# Poissons Ratio (y) = 0.80158 0.04215
# Poissons Ratio (z) = 0.15937 0.00885
#
# Static dielectric constant tensor:
#      x y z
#    x 1.915410 0.000000 0.000000 
#    y 0.000000 1.763370 0.000000 
#    z 0.000000 0.000000 1.825220 
# 
# From -- ./inp_files/30986.got.cif
#   From: 2010.05.17/outbox.cif.g08.bks.cpg/sg58_16_cif.got.tgz:30986.got - 2010.06.03 14:20:14.
