data_PCOD9442330
_publ_section_title
;
Structure prediction by ZEFSAII (Michael W. Deem and Ramdas Pophale) SiO2 
 PCOD9442330
Probable space group: P N N M
;
_chemical_formula_sum "Si O2"
_cell_formula_units_Z 64
_cell_length_a 12.061684
_cell_length_b 31.646093
_cell_length_c 7.704397
_cell_angle_alpha 90.000000
_cell_angle_beta 90.000000
_cell_angle_gamma 90.000000
_cell_volume 2940.808194
_symmetry_space_group_name_H-M "P N N M"
_symmetry_group_IT_number 58
_symmetry_cell_setting 'orthorhombic'
loop_
_space_group_symop_operation_xyz
x,y,z
-x,-y,z
1/2+x,1/2-y,1/2-z
1/2-x,1/2+y,1/2-z
-x,-y,-z
x,y,-z
1/2-x,1/2+y,1/2+z
1/2+x,1/2-y,1/2+z
loop_
_atom_site_type_symbol
_atom_site_label
_atom_site_fract_x
_atom_site_fract_y
_atom_site_fract_z
Si Si1 0.249618 0.193091 0.297916
Si Si2 0.272231 0.459128 0.787454
Si Si3 0.076181 0.625919 0.305838
Si Si4 0.712009 0.711123 0.210819
Si Si5 0.667014 0.127612 0.697847
Si Si6 0.008799 0.166610 0.711093
Si Si7 0.993583 0.929483 0.289087
Si Si8 0.743038 0.948816 0.710240
O O1 0.253479 0.180610 0.500000
O O2 0.350809 0.168121 0.213199
O O3 0.256995 0.243243 0.281362
O O4 0.131126 0.178082 0.226012
O O5 0.213640 0.416175 0.725873
O O6 0.401944 0.457676 0.735444
O O7 0.217423 0.503246 0.733691
O O8 0.269343 0.459296 0.000000
O O9 0.033288 0.622594 0.500000
O O10 0.157764 0.586764 0.269643
O O11 0.965427 0.626544 0.193853
O O12 0.788904 0.672041 0.271153
O O13 0.587355 0.698476 0.263745
O O14 0.717558 0.714209 0.000000
O O15 0.711186 0.127849 0.500000
O O16 0.011731 0.167702 0.500000
O O17 0.979771 0.118792 0.759984
O O18 0.990346 0.931921 0.500000
O O19 0.869178 0.939472 0.230653
O O20 0.742871 0.947152 0.500000
#
# Coordination Sequence:
#
# PCOD9442330 Si02
#       8
#     8   8   8   8   8   8   8   8
#     4  11  23  40  62  89 118 152 194 238 289 348
#     4   9  17  31  58  93 120 148 189 237 287 347
#     4  12  26  42  58  79 114 158 203 247 295 342
#     4  10  21  38  61  90 122 154 187 233 291 349
#     4  10  21  39  61  85 118 155 196 241 287 343
#     4   9  17  33  59  87 118 150 181 229 289 343
#     4   9  14  28  56  91 121 144 179 232 288 341
#     4  10  19  34  60  91 119 149 191 239 290 348
#
# _framework density 21.762725
#
# number of rings (size 3 to 8) (size 9 to 14) (size 15 to 20)
#    0.000    2.000    2.500    1.875    1.750    2.500 
#    0.000    3.750    0.000    2.250    0.000    0.000 
#    0.000    0.000    0.000    0.000    0.000    0.000 
#
# Total GULP energy -357456.304241 kJ/mol
# GULP energy per Si atom -5585.254754 kJ/mol
# Density = 2.171319 g / cm^3
# Si number density = 21.762725 Si / 1000 Ang^3
#
#
#
# Elastic Constant Matrix: (Units=GPa)
#
#
# Indices 1 2 3 4 5 6 
#
# 1 89.7120 25.6938 -8.6139 0.0000 0.0000 0.0000
# 2 25.6938 115.1667 -6.3472 0.0000 0.0000 0.0000
# 3 -8.6139 -6.3472 40.8046 0.0000 0.0000 0.0000
# 4 0.0000 0.0000 0.0000 15.3486 0.0000 0.0000
# 5 0.0000 0.0000 0.0000 0.0000 -11.3459 0.0000
# 6 0.0000 0.0000 0.0000 0.0000 0.0000 21.0556
#
#
#
# Elastic Compliance Matrix: (Units=1/GPa)
#
#
# Indices 1 2 3 4 5 6 
#
# 1 0.012092 -0.002579 0.002151 0.000000 0.000000 0.000000
# 2 -0.002579 0.009308 0.000903 0.000000 0.000000 0.000000
# 3 0.002151 0.000903 0.025102 0.000000 0.000000 0.000000
# 4 0.000000 0.000000 0.000000 0.065152 0.000000 0.000000
# 5 0.000000 0.000000 0.000000 0.000000 -0.088137 0.000000
# 6 0.000000 0.000000 0.000000 0.000000 0.000000 0.047493
#
#
# Mechanical properties :
#
#
# Convention : Reuss Voigt Hill
#
# Bulk Modulus (GPa) = 21.07325 29.68319 25.37822
# Shear Modulus (GPa) = 58.22300 20.67503 39.44901
#
# Velocity S-wave (km/s) = 5.17799 3.08558 4.26219
# Velocity P-wave (km/s) = 6.74189 5.13454 5.99235
#
# Compressibility (1/GPa) = 0.04745352
#
# Stress axis : x y z
#
# Youngs Moduli (GPa) = 82.69900 107.43127 39.83784
#
# Poissons Ratio (x) = 0.27708 -0.08571
# Poissons Ratio (y) = 0.21330 -0.03599
# Poissons Ratio (z) = -0.17792 -0.09706
#
# Static dielectric constant tensor:
#      x y z
#    x 1.755630 0.000000 0.000000 
#    y 0.000000 1.778090 0.000000 
#    z 0.000000 0.000000 1.837010 
# 
# From -- ./inp_files/4668.got.cif
#   From: 2010.05.17/outbox.cif.g08.bks.cpg/sg58_3_cif.got.tgz:4668.got - 2010.06.03 14:20:14.
