data_PCOD9442466
_publ_section_title
;
Structure prediction by ZEFSAII (Michael W. Deem and Ramdas Pophale) SiO2 
 PCOD9442466
Probable space group: P N N M
;
_chemical_formula_sum "Si O2"
_cell_formula_units_Z 56
_cell_length_a 19.247399
_cell_length_b 17.880919
_cell_length_c 7.485852
_cell_angle_alpha 90.000000
_cell_angle_beta 90.000000
_cell_angle_gamma 90.000000
_cell_volume 2576.339676
_symmetry_space_group_name_H-M "P N N M"
_symmetry_group_IT_number 58
_symmetry_cell_setting 'orthorhombic'
loop_
_space_group_symop_operation_xyz
x,y,z
-x,-y,z
1/2+x,1/2-y,1/2-z
1/2-x,1/2+y,1/2-z
-x,-y,-z
x,y,-z
1/2-x,1/2+y,1/2+z
1/2+x,1/2-y,1/2+z
loop_
_atom_site_type_symbol
_atom_site_label
_atom_site_fract_x
_atom_site_fract_y
_atom_site_fract_z
Si Si1 0.711033 0.674596 0.280745
Si Si2 0.973592 0.734317 0.292565
Si Si3 0.054109 0.104001 0.215207
Si Si4 0.399783 0.448150 0.282629
Si Si5 0.860806 0.618868 0.716021
Si Si6 0.878729 0.308852 0.203883
Si Si7 0.572675 0.967404 0.709856
O O1 0.709518 0.676027 0.500000
O O2 0.660488 0.607086 0.223285
O O3 0.788966 0.655825 0.224879
O O4 0.678761 0.753248 0.217739
O O5 0.987769 0.720051 0.500000
O O6 0.932902 0.812288 0.277825
O O7 0.926312 0.667553 0.219893
O O8 0.048577 0.736763 0.201477
O O9 0.975364 0.083015 0.270959
O O10 0.102291 0.035022 0.274060
O O11 0.055199 0.105389 0.000000
O O12 0.399016 0.448080 0.500000
O O13 0.861535 0.621175 0.500000
O O14 0.871865 0.533596 0.771691
O O15 0.898915 0.389165 0.285733
O O16 0.856572 0.323789 0.000000
O O17 0.559163 0.952772 0.500000
O O18 0.500000 0.000000 0.786120
#
# Coordination Sequence:
#
# PCOD9442466 Si02
#       7
#     8   8   8   8   8   8   8
#     4   9  17  34  57  77 101 141 185 217 260 324
#     4  11  21  32  49  78 111 140 173 216 266 320
#     4   9  16  29  52  79  99 127 174 222 260 301
#     4   8  14  27  53  79  96 125 176 222 253 302
#     4  10  22  37  54  76 108 146 178 215 268 331
#     4  10  19  35  61  82 101 139 186 227 263 313
#     4  10  20  35  58  86 107 131 179 232 274 315
#
# _framework density 21.736265
#
# number of rings (size 3 to 8) (size 9 to 14) (size 15 to 20)
#    0.000    2.429    2.857    1.286    0.000    1.429 
#    2.571    2.143    0.000    0.000    0.000    0.000 
#    0.000    0.000    0.000    0.000    0.000    0.000 
#
# Total GULP energy -312565.923012 kJ/mol
# GULP energy per Si atom -5581.534339 kJ/mol
# Density = 2.168679 g / cm^3
# Si number density = 21.736265 Si / 1000 Ang^3
#
#
#
# Elastic Constant Matrix: (Units=GPa)
#
#
# Indices 1 2 3 4 5 6 
#
# 1 79.4789 36.3684 1.5007 0.0000 0.0000 0.0000
# 2 36.3684 161.3114 -1.5868 0.0000 0.0000 0.0000
# 3 1.5007 -1.5868 62.3892 0.0000 0.0000 0.0000
# 4 0.0000 0.0000 0.0000 -26.2300 0.0000 0.0000
# 5 0.0000 0.0000 0.0000 0.0000 4.0828 0.0000
# 6 0.0000 0.0000 0.0000 0.0000 0.0000 33.7972
#
#
#
# Elastic Compliance Matrix: (Units=1/GPa)
#
#
# Indices 1 2 3 4 5 6 
#
# 1 0.014040 -0.003170 -0.000418 0.000000 0.000000 0.000000
# 2 -0.003170 0.006916 0.000252 0.000000 0.000000 0.000000
# 3 -0.000418 0.000252 0.016045 0.000000 0.000000 0.000000
# 4 0.000000 0.000000 0.000000 -0.038124 0.000000 0.000000
# 5 0.000000 0.000000 0.000000 0.000000 0.244927 0.000000
# 6 0.000000 0.000000 0.000000 0.000000 0.000000 0.029588
#
#
# Mechanical properties :
#
#
# Convention : Reuss Voigt Hill
#
# Bulk Modulus (GPa) = 32.97081 41.74937 37.36009
# Shear Modulus (GPa) = 17.23103 20.12315 18.67709
#
# Velocity S-wave (km/s) = 2.81860 3.04598 2.93449
# Velocity P-wave (km/s) = 5.07880 5.62313 5.35788
#
# Compressibility (1/GPa) = 0.03032986
#
# Stress axis : x y z
#
# Youngs Moduli (GPa) = 71.22408 144.58681 62.32516
#
# Poissons Ratio (x) = 0.45827 0.02607
# Poissons Ratio (y) = 0.22575 -0.01571
# Poissons Ratio (z) = 0.02980 -0.03646
#
# Static dielectric constant tensor:
#      x y z
#    x 1.750710 0.000000 0.000000 
#    y 0.000000 1.815010 0.000000 
#    z 0.000000 0.000000 1.818950 
# 
# From -- ./inp_files/9185.got.cif
#   From: 2010.05.17/outbox.cif.g08.bks.cpg/sg58_5_cif.got.tgz:9185.got - 2010.06.03 14:20:14.
