data_PCOD9442746
_publ_section_title
;
Structure prediction by ZEFSAII (Michael W. Deem and Ramdas Pophale) SiO2 
 PCOD9442746
Probable space group: P N N M
;
_chemical_formula_sum "Si O2"
_cell_formula_units_Z 56
_cell_length_a 14.001894
_cell_length_b 24.913448
_cell_length_c 7.304059
_cell_angle_alpha 90.000000
_cell_angle_beta 90.000000
_cell_angle_gamma 90.000000
_cell_volume 2547.914767
_symmetry_space_group_name_H-M "P N N M"
_symmetry_group_IT_number 58
_symmetry_cell_setting 'orthorhombic'
loop_
_space_group_symop_operation_xyz
x,y,z
-x,-y,z
1/2+x,1/2-y,1/2-z
1/2-x,1/2+y,1/2-z
-x,-y,-z
x,y,-z
1/2-x,1/2+y,1/2+z
1/2+x,1/2-y,1/2+z
loop_
_atom_site_type_symbol
_atom_site_label
_atom_site_fract_x
_atom_site_fract_y
_atom_site_fract_z
Si Si1 0.270231 0.268882 0.279989
Si Si2 0.126439 0.660604 0.285318
Si Si3 0.448022 0.555223 0.276977
Si Si4 0.772382 0.446124 0.724134
Si Si5 0.584924 0.168811 0.776879
Si Si6 0.802632 0.564704 0.278105
Si Si7 0.885731 0.129274 0.222313
O O1 0.269262 0.271712 0.500000
O O2 0.299621 0.209189 0.230654
O O3 0.166724 0.289622 0.216087
O O4 0.349690 0.312307 0.216898
O O5 0.111155 0.650624 0.500000
O O6 0.168746 0.605251 0.211161
O O7 0.022667 0.677622 0.212371
O O8 0.500000 0.500000 0.221476
O O9 0.447470 0.554919 0.500000
O O10 0.338386 0.557390 0.219210
O O11 0.513462 0.605277 0.217686
O O12 0.772390 0.445750 0.500000
O O13 0.813855 0.503681 0.782123
O O14 0.620707 0.109325 0.722532
O O15 0.586577 0.170990 0.000000
O O16 0.803953 0.564230 0.500000
O O17 0.698601 0.587817 0.226138
O O18 0.887669 0.130330 0.000000
#
# Coordination Sequence:
#
# PCOD9442746 Si02
#       7
#     8   8   8   8   8   8   8
#     4   9  18  33  50  65  86 125 169 191 212 272
#     4  10  20  32  45  69 100 121 146 195 244 270
#     4   9  13  19  34  60  95 121 135 174 241 285
#     4   9  16  23  36  62  94 120 144 182 233 279
#     4   8  16  30  47  64  89 124 155 186 229 279
#     4   8  12  22  39  60  85 115 149 179 217 275
#     4   8  13  22  39  61  84 115 152 185 218 266
#
# _framework density 21.978756000000001
#
# number of rings (size 3 to 8) (size 9 to 14) (size 15 to 20)
#    0.000    3.286    1.429    1.714    0.000    1.714 
#    0.000    5.000    0.000    0.000    0.000    6.000 
#    0.000    1.143    0.000    0.000    0.000    0.000 
#
# Total GULP energy -312531.956884 kJ/mol
# GULP energy per Si atom -5580.927801 kJ/mol
# Density = 2.192873 g / cm^3
# Si number density = 21.978756 Si / 1000 Ang^3
#
#
#
# Elastic Constant Matrix: (Units=GPa)
#
#
# Indices 1 2 3 4 5 6 
#
# 1 114.2303 49.3920 0.5239 0.0000 0.0000 0.0000
# 2 49.3920 127.0938 -9.1528 0.0000 0.0000 0.0000
# 3 0.5239 -9.1528 86.6587 0.0000 0.0000 0.0000
# 4 0.0000 0.0000 0.0000 -0.6865 0.0000 0.0000
# 5 0.0000 0.0000 0.0000 0.0000 -11.3615 0.0000
# 6 0.0000 0.0000 0.0000 0.0000 0.0000 21.5391
#
#
#
# Elastic Compliance Matrix: (Units=1/GPa)
#
#
# Indices 1 2 3 4 5 6 
#
# 1 0.010544 -0.004134 -0.000500 0.000000 0.000000 0.000000
# 2 -0.004134 0.009549 0.001034 0.000000 0.000000 0.000000
# 3 -0.000500 0.001034 0.011652 0.000000 0.000000 0.000000
# 4 0.000000 0.000000 0.000000 -1.456730 0.000000 0.000000
# 5 0.000000 0.000000 0.000000 0.000000 -0.088016 0.000000
# 6 0.000000 0.000000 0.000000 0.000000 0.000000 0.046427
#
#
# Mechanical properties :
#
#
# Convention : Reuss Voigt Hill
#
# Bulk Modulus (GPa) = 40.74349 45.50099 43.12224
# Shear Modulus (GPa) = -3.44544 21.04620 8.80038
#
# Velocity S-wave (km/s) = -1.25341 3.09782 2.00318
# Velocity P-wave (km/s) = 4.05995 5.79159 5.00129
#
# Compressibility (1/GPa) = 0.02454380
#
# Stress axis : x y z
#
# Youngs Moduli (GPa) = 94.84161 104.72201 85.82434
#
# Poissons Ratio (x) = 0.43289 0.04294
# Poissons Ratio (y) = 0.39204 -0.08870
# Poissons Ratio (z) = 0.04745 -0.10824
#
# Static dielectric constant tensor:
#      x y z
#    x 1.773860 0.000000 0.000000 
#    y 0.000000 1.771050 0.000000 
#    z 0.000000 0.000000 1.902540 
# 
# From -- ./inp_files/14766.got.cif
#   From: 2010.05.17/outbox.cif.g08.bks.cpg/sg58_8_cif.got.tgz:14766.got - 2010.06.03 14:20:14.
