data_PCOD9442702
_publ_section_title
;
Structure prediction by ZEFSAII (Michael W. Deem and Ramdas Pophale) SiO2 
 PCOD9442702
Probable space group: P N N M
;
_chemical_formula_sum "Si O2"
_cell_formula_units_Z 58
_cell_length_a 16.477072
_cell_length_b 11.696024
_cell_length_c 15.758797
_cell_angle_alpha 90.000000
_cell_angle_beta 90.000000
_cell_angle_gamma 90.000000
_cell_volume 3036.975940
_symmetry_space_group_name_H-M "P N N M"
_symmetry_group_IT_number 58
_symmetry_cell_setting 'orthorhombic'
loop_
_space_group_symop_operation_xyz
x,y,z
-x,-y,z
1/2+x,1/2-y,1/2-z
1/2-x,1/2+y,1/2-z
-x,-y,-z
x,y,-z
1/2-x,1/2+y,1/2+z
1/2+x,1/2-y,1/2+z
loop_
_atom_site_type_symbol
_atom_site_label
_atom_site_fract_x
_atom_site_fract_y
_atom_site_fract_z
Si Si1 0.705255 0.402367 0.354664
Si Si2 0.466471 0.376687 0.826214
Si Si3 0.284588 0.184412 0.399344
Si Si4 0.626977 0.248339 0.213946
Si Si5 0.801286 0.187358 0.593439
Si Si6 0.404349 0.393599 0.366906
Si Si7 0.000000 0.000000 0.000000
Si Si8 0.306685 0.968469 0.713289
O O1 0.647031 0.326986 0.295145
O O2 0.762326 0.313663 0.403609
O O3 0.649507 0.497321 0.398256
O O4 0.762792 0.473657 0.292410
O O5 0.500000 0.500000 0.856263
O O6 0.541821 0.290760 0.821502
O O7 0.395382 0.323812 0.883151
O O8 0.428922 0.397841 0.731819
O O9 0.271288 0.167974 0.500000
O O10 0.201189 0.223891 0.351486
O O11 0.349826 0.283723 0.383849
O O12 0.320125 0.071182 0.353074
O O13 0.627328 0.117875 0.247404
O O14 0.787037 0.138524 0.500000
O O15 0.755250 0.115084 0.664740
O O16 0.482067 0.403536 0.425654
#
# Coordination Sequence:
#
# PCOD9442702 Si02
#       8
#     8   8   8   8   8   8   2   8
#     4  10  19  40  62  86 120 166 215 256 303 388
#     4  12  21  39  64  92 131 162 210 274 328 390
#     4  11  22  37  63  91 127 166 209 260 318 391
#     4  10  20  36  64  91 120 165 212 249 316 385
#     4  11  24  38  61  97 128 164 217 270 321 381
#     4  12  21  41  63  95 125 161 214 266 329 374
#     4  12  24  32  64 104 120 150 212 288 326 356
#     4  10  19  39  62  88 118 169 218 248 313 394
#
# _framework density 19.097944999999999
#
# number of rings (size 3 to 8) (size 9 to 14) (size 15 to 20)
#    0.000    1.103    5.517    2.897    0.966    0.828 
#    0.000    2.759    1.517    1.655    0.000    0.000 
#    0.000    0.000    0.000    0.000    0.000    0.000 
#
# Total GULP energy -323036.958900 kJ/mol
# GULP energy per Si atom -5569.602740 kJ/mol
# Density = 1.905448 g / cm^3
# Si number density = 19.097945 Si / 1000 Ang^3
#
#
#
# Elastic Constant Matrix: (Units=GPa)
#
#
# Indices 1 2 3 4 5 6 
#
# 1 76.0787 45.1581 3.0067 0.0000 0.0000 0.0000
# 2 45.1581 122.3727 14.3162 0.0000 0.0000 0.0000
# 3 3.0067 14.3162 59.2277 0.0000 0.0000 0.0000
# 4 0.0000 0.0000 0.0000 12.8584 0.0000 0.0000
# 5 0.0000 0.0000 0.0000 0.0000 29.9226 0.0000
# 6 0.0000 0.0000 0.0000 0.0000 0.0000 33.8155
#
#
#
# Elastic Compliance Matrix: (Units=1/GPa)
#
#
# Indices 1 2 3 4 5 6 
#
# 1 0.016856 -0.006298 0.000667 0.000000 0.000000 0.000000
# 2 -0.006298 0.010763 -0.002282 0.000000 0.000000 0.000000
# 3 0.000667 -0.002282 0.017402 0.000000 0.000000 0.000000
# 4 0.000000 0.000000 0.000000 0.077770 0.000000 0.000000
# 5 0.000000 0.000000 0.000000 0.000000 0.033420 0.000000
# 6 0.000000 0.000000 0.000000 0.000000 0.000000 0.029572
#
#
# Mechanical properties :
#
#
# Convention : Reuss Voigt Hill
#
# Bulk Modulus (GPa) = 34.25353 42.51569 38.38461
# Shear Modulus (GPa) = 23.65842 28.33252 25.99547
#
# Velocity S-wave (km/s) = 3.52347 3.85585 3.69340
# Velocity P-wave (km/s) = 5.87603 6.49105 6.19118
#
# Compressibility (1/GPa) = 0.02919407
#
# Stress axis : x y z
#
# Youngs Moduli (GPa) = 59.32441 92.91140 57.46569
#
# Poissons Ratio (x) = 0.58519 -0.03831
# Poissons Ratio (y) = 0.37365 0.13113
# Poissons Ratio (z) = -0.03955 0.21201
#
# Static dielectric constant tensor:
#      x y z
#    x 1.719870 0.000000 0.000000 
#    y 0.000000 1.690310 0.000000 
#    z 0.000000 0.000000 1.638200 
# 
# From -- ./inp_files/26975.got.cif
#   From: 2010.05.17/outbox.cif.g08.bks.cpg/sg58_14_cif.got.tgz:26975.got - 2010.06.03 14:20:14.
