data_PCOD9442412
_publ_section_title
;
Structure prediction by ZEFSAII (Michael W. Deem and Ramdas Pophale) SiO2 
 PCOD9442412
Probable space group: P N N M
;
_chemical_formula_sum "Si O2"
_cell_formula_units_Z 64
_cell_length_a 25.340687
_cell_length_b 14.411823
_cell_length_c 9.104562
_cell_angle_alpha 90.000000
_cell_angle_beta 90.000000
_cell_angle_gamma 90.000000
_cell_volume 3325.036079
_symmetry_space_group_name_H-M "P N N M"
_symmetry_group_IT_number 58
_symmetry_cell_setting 'orthorhombic'
loop_
_space_group_symop_operation_xyz
x,y,z
-x,-y,z
1/2+x,1/2-y,1/2-z
1/2-x,1/2+y,1/2-z
-x,-y,-z
x,y,-z
1/2-x,1/2+y,1/2+z
1/2+x,1/2-y,1/2+z
loop_
_atom_site_type_symbol
_atom_site_label
_atom_site_fract_x
_atom_site_fract_y
_atom_site_fract_z
Si Si1 0.900223 0.032268 0.675933
Si Si2 0.447983 0.289044 0.325118
Si Si3 0.935174 0.852102 0.824766
Si Si4 0.172636 0.463711 0.329045
Si Si5 0.226536 0.729620 0.671289
Si Si6 0.780083 0.046201 0.330093
Si Si7 0.164533 0.241972 0.672946
Si Si8 0.371314 0.128403 0.325336
O O1 0.905423 0.029066 0.500000
O O2 0.916811 0.132361 0.736036
O O3 0.838538 0.013594 0.712220
O O4 0.935088 0.954095 0.753528
O O5 0.440304 0.306107 0.500000
O O6 0.509765 0.300661 0.293588
O O7 0.423253 0.188790 0.292060
O O8 0.886041 0.799558 0.752843
O O9 0.928832 0.859083 0.000000
O O10 0.169451 0.486526 0.500000
O O11 0.231355 0.485325 0.268602
O O12 0.164012 0.353816 0.311533
O O13 0.131415 0.525557 0.239719
O O14 0.228792 0.703342 0.500000
O O15 0.219012 0.841334 0.677353
O O16 0.281301 0.708078 0.752877
O O17 0.177603 0.682300 0.751581
O O18 0.770064 0.020146 0.500000
O O19 0.164052 0.218743 0.500000
O O20 0.364345 0.125600 0.500000
#
# Coordination Sequence:
#
# PCOD9442412 Si02
#       8
#     8   8   8   8   8   8   8   8
#     4  11  22  37  59  89 121 156 197 243 295 352
#     4  10  23  42  61  85 119 158 202 246 295 350
#     4  11  24  41  61  85 116 158 203 247 294 354
#     4  10  22  38  59  86 119 155 195 243 297 354
#     4  10  19  35  58  85 117 153 190 235 291 348
#     4   9  19  35  55  83 119 154 189 232 286 349
#     4  10  22  41  61  86 118 153 196 246 297 349
#     4  11  22  37  60  87 118 156 197 244 294 348
#
# _framework density 19.247910000000001
#
# number of rings (size 3 to 8) (size 9 to 14) (size 15 to 20)
#    0.000    1.750    1.250    2.625    1.750    6.000 
#    0.000    0.625    0.000    3.750    0.000    0.000 
#    0.000    0.000    0.000    0.000    0.000    0.000 
#
# Total GULP energy -357794.368443 kJ/mol
# GULP energy per Si atom -5590.537007 kJ/mol
# Density = 1.920410 g / cm^3
# Si number density = 19.247910 Si / 1000 Ang^3
#
#
#
# Elastic Constant Matrix: (Units=GPa)
#
#
# Indices 1 2 3 4 5 6 
#
# 1 71.7807 6.3728 29.0795 0.0000 0.0000 0.0000
# 2 6.3728 30.9410 15.4843 0.0000 0.0000 0.0000
# 3 29.0795 15.4843 65.4737 0.0000 0.0000 0.0000
# 4 0.0000 0.0000 0.0000 25.4523 0.0000 0.0000
# 5 0.0000 0.0000 0.0000 0.0000 21.1476 0.0000
# 6 0.0000 0.0000 0.0000 0.0000 0.0000 29.8631
#
#
#
# Elastic Compliance Matrix: (Units=1/GPa)
#
#
# Indices 1 2 3 4 5 6 
#
# 1 0.016991 0.000314 -0.007620 0.000000 0.000000 0.000000
# 2 0.000314 0.036664 -0.008810 0.000000 0.000000 0.000000
# 3 -0.007620 -0.008810 0.020741 0.000000 0.000000 0.000000
# 4 0.000000 0.000000 0.000000 0.039289 0.000000 0.000000
# 5 0.000000 0.000000 0.000000 0.000000 0.047287 0.000000
# 6 0.000000 0.000000 0.000000 0.000000 0.000000 0.033486
#
#
# Mechanical properties :
#
#
# Convention : Reuss Voigt Hill
#
# Bulk Modulus (GPa) = 23.71771 30.00760 26.86266
# Shear Modulus (GPa) = 20.76880 23.10987 21.93934
#
# Velocity S-wave (km/s) = 3.28840 3.46879 3.37980
# Velocity P-wave (km/s) = 5.17369 5.62736 5.40529
#
# Compressibility (1/GPa) = 0.04216259
#
# Stress axis : x y z
#
# Youngs Moduli (GPa) = 58.85607 27.27474 48.21253
#
# Poissons Ratio (x) = -0.00857 0.36740
# Poissons Ratio (y) = -0.01849 0.42477
# Poissons Ratio (z) = 0.44851 0.24030
#
# Static dielectric constant tensor:
#      x y z
#    x 1.644630 0.000000 0.000000 
#    y 0.000000 1.705130 0.000000 
#    z 0.000000 0.000000 1.636820 
# 
# From -- ./inp_files/6894.got.cif
#   From: 2010.05.17/outbox.cif.g08.bks.cpg/sg58_4_cif.got.tgz:6894.got - 2010.06.03 14:20:14.
