data_PCOD9442912
_publ_section_title
;
Structure prediction by ZEFSAII (Michael W. Deem and Ramdas Pophale) SiO2 
 PCOD9442912
Probable space group: P N N M
;
_chemical_formula_sum "Si O2"
_cell_formula_units_Z 32
_cell_length_a 4.990042
_cell_length_b 16.132528
_cell_length_c 16.364309
_cell_angle_alpha 90.000000
_cell_angle_beta 90.000000
_cell_angle_gamma 90.000000
_cell_volume 1317.359477
_symmetry_space_group_name_H-M "P N N M"
_symmetry_group_IT_number 58
_symmetry_cell_setting 'orthorhombic'
loop_
_space_group_symop_operation_xyz
x,y,z
-x,-y,z
1/2+x,1/2-y,1/2-z
1/2-x,1/2+y,1/2-z
-x,-y,-z
x,y,-z
1/2-x,1/2+y,1/2+z
1/2+x,1/2-y,1/2+z
loop_
_atom_site_type_symbol
_atom_site_label
_atom_site_fract_x
_atom_site_fract_y
_atom_site_fract_z
Si Si1 0.427089 0.679446 0.000000
Si Si2 0.692493 0.573234 0.593220
Si Si3 0.581891 0.659739 0.177818
Si Si4 0.426612 0.711491 0.500000
Si Si5 0.082530 0.644584 0.280055
O O1 0.500998 0.637548 0.085737
O O2 0.620525 0.761440 0.000000
O O3 0.120503 0.709193 0.000000
O O4 0.500000 0.500000 0.620660
O O5 0.775462 0.554096 0.500000
O O6 0.513214 0.656462 0.578027
O O7 0.944160 0.591681 0.649253
O O8 0.372650 0.625080 0.244085
O O9 0.565481 0.759749 0.189827
O O10 0.879724 0.636212 0.203310
#
# Coordination Sequence:
#
# PCOD9442912 Si02
#       5
#     4   8   8   4   8
#     4  12  20  36  57  82 109 152 184 233 288 339
#     4   9  19  37  56  83 119 160 193 222 275 346
#     4  10  21  33  54  76 108 142 186 233 284 330
#     4  10  21  32  56  80 114 148 187 221 268 335
#     4  10  20  34  51  79 109 145 185 229 276 331
#
# _framework density 24.291015999999999
#
# number of rings (size 3 to 8) (size 9 to 14) (size 15 to 20)
#    0.750    1.250    2.500    1.500    7.000    0.000 
#    0.000    6.250    0.000    0.000    0.000    5.250 
#    0.000    0.000    0.000    0.000    0.000    0.000 
#
# Total GULP energy -179165.251655 kJ/mol
# GULP energy per Si atom -5598.914114 kJ/mol
# Density = 2.423573 g / cm^3
# Si number density = 24.291016 Si / 1000 Ang^3
#
#
#
# Elastic Constant Matrix: (Units=GPa)
#
#
# Indices 1 2 3 4 5 6 
#
# 1 64.2784 10.8942 3.9403 0.0000 0.0000 0.0000
# 2 10.8942 23.6004 11.4035 0.0000 0.0000 0.0000
# 3 3.9403 11.4035 145.6963 0.0000 0.0000 0.0000
# 4 0.0000 0.0000 0.0000 15.4378 0.0000 0.0000
# 5 0.0000 0.0000 0.0000 0.0000 9.4909 0.0000
# 6 0.0000 0.0000 0.0000 0.0000 0.0000 28.5320
#
#
#
# Elastic Compliance Matrix: (Units=1/GPa)
#
#
# Indices 1 2 3 4 5 6 
#
# 1 0.016881 -0.007870 0.000159 0.000000 0.000000 0.000000
# 2 -0.007870 0.047706 -0.003521 0.000000 0.000000 0.000000
# 3 0.000159 -0.003521 0.007135 0.000000 0.000000 0.000000
# 4 0.000000 0.000000 0.000000 0.064776 0.000000 0.000000
# 5 0.000000 0.000000 0.000000 0.000000 0.105365 0.000000
# 6 0.000000 0.000000 0.000000 0.000000 0.000000 0.035048
#
#
# Mechanical properties :
#
#
# Convention : Reuss Voigt Hill
#
# Bulk Modulus (GPa) = 20.30051 31.78344 26.04198
# Shear Modulus (GPa) = 15.83310 24.51460 20.17385
#
# Velocity S-wave (km/s) = 2.55582 3.18024 2.88498
# Velocity P-wave (km/s) = 4.13340 5.15734 4.67350
#
# Compressibility (1/GPa) = 0.04925985
#
# Stress axis : x y z
#
# Youngs Moduli (GPa) = 59.23702 20.96159 140.15665
#
# Poissons Ratio (x) = 0.16496 -0.02234
# Poissons Ratio (y) = 0.46617 0.49350
# Poissons Ratio (z) = -0.00944 0.07381
#
# Static dielectric constant tensor:
#      x y z
#    x 1.913140 0.000000 0.000000 
#    y 0.000000 1.945430 0.000000 
#    z 0.000000 0.000000 1.978950 
# 
# From -- ./inp_files/24146.got.cif
#   From: 2010.05.17/outbox.cif.g08.bks.cpg/sg58_13_cif.got.tgz:24146.got - 2010.06.03 14:20:14.
