data_PCOD9442796
_publ_section_title
;
Structure prediction by ZEFSAII (Michael W. Deem and Ramdas Pophale) SiO2 
 PCOD9442796
Probable space group: P N N M
;
_chemical_formula_sum "Si O2"
_cell_formula_units_Z 48
_cell_length_a 16.908881
_cell_length_b 18.664317
_cell_length_c 9.214300
_cell_angle_alpha 90.000000
_cell_angle_beta 90.000000
_cell_angle_gamma 90.000000
_cell_volume 2907.965955
_symmetry_space_group_name_H-M "P N N M"
_symmetry_group_IT_number 58
_symmetry_cell_setting 'orthorhombic'
loop_
_space_group_symop_operation_xyz
x,y,z
-x,-y,z
1/2+x,1/2-y,1/2-z
1/2-x,1/2+y,1/2-z
-x,-y,-z
x,y,-z
1/2-x,1/2+y,1/2+z
1/2+x,1/2-y,1/2+z
loop_
_atom_site_type_symbol
_atom_site_label
_atom_site_fract_x
_atom_site_fract_y
_atom_site_fract_z
Si Si1 0.660943 0.342544 0.325211
Si Si2 0.579839 0.201367 0.334746
Si Si3 0.993758 0.418343 0.674107
Si Si4 0.838693 0.328033 0.326118
Si Si5 0.486417 0.584180 0.172521
Si Si6 0.419478 0.297290 0.333161
O O1 0.648066 0.348647 0.500000
O O2 0.644819 0.259033 0.286539
O O3 0.752042 0.358327 0.291935
O O4 0.596271 0.390099 0.243315
O O5 0.596204 0.179442 0.500000
O O6 0.561340 0.132824 0.238453
O O7 0.499540 0.249019 0.334234
O O8 0.999683 0.417706 0.500000
O O9 0.909167 0.382858 0.712623
O O10 0.000000 0.500000 0.725048
O O11 0.842141 0.316125 0.500000
O O12 0.856224 0.253182 0.246108
O O13 0.500000 0.500000 0.196488
O O14 0.555086 0.631754 0.246891
O O15 0.485164 0.598224 0.000000
O O16 0.398519 0.312617 0.500000
#
# Coordination Sequence:
#
# PCOD9442796 Si02
#       6
#     8   8   8   8   8   8
#     4   9  18  32  50  71  95 125 161 201 245 292
#     4   8  15  28  45  65  87 114 151 189 226 273
#     4   9  17  29  46  68  93 122 155 188 226 278
#     4   9  17  31  50  70  96 128 159 198 246 288
#     4  10  20  33  50  72  98 129 164 202 246 296
#     4   9  17  30  49  71  93 120 158 198 235 285
#
# _framework density 16.506383
#
# number of rings (size 3 to 8) (size 9 to 14) (size 15 to 20)
#    0.000    3.000    0.000    2.000    0.000    6.333 
#    0.000    1.667    0.000    4.000    0.000    0.000 
#    0.000    0.000    0.000    0.000    0.000    0.000 
#
# Total GULP energy -267273.250240 kJ/mol
# GULP energy per Si atom -5568.192713 kJ/mol
# Density = 1.646881 g / cm^3
# Si number density = 16.506383 Si / 1000 Ang^3
#
#
#
# Elastic Constant Matrix: (Units=GPa)
#
#
# Indices 1 2 3 4 5 6 
#
# 1 71.5748 38.6935 36.6726 0.0000 0.0000 0.0000
# 2 38.6935 119.5590 60.8330 0.0000 0.0000 0.0000
# 3 36.6726 60.8330 58.6893 0.0000 0.0000 0.0000
# 4 0.0000 0.0000 0.0000 24.9664 0.0000 0.0000
# 5 0.0000 0.0000 0.0000 0.0000 17.5324 0.0000
# 6 0.0000 0.0000 0.0000 0.0000 0.0000 15.3978
#
#
#
# Elastic Compliance Matrix: (Units=1/GPa)
#
#
# Indices 1 2 3 4 5 6 
#
# 1 0.020554 -0.000248 -0.012587 0.000000 0.000000 0.000000
# 2 -0.000248 0.017701 -0.018193 0.000000 0.000000 0.000000
# 3 -0.012587 -0.018193 0.043761 0.000000 0.000000 0.000000
# 4 0.000000 0.000000 0.000000 0.040054 0.000000 0.000000
# 5 0.000000 0.000000 0.000000 0.000000 0.057037 0.000000
# 6 0.000000 0.000000 0.000000 0.000000 0.000000 0.064944
#
#
# Mechanical properties :
#
#
# Convention : Reuss Voigt Hill
#
# Bulk Modulus (GPa) = 50.09538 58.02459 54.05998
# Shear Modulus (GPa) = 15.98668 19.15425 17.57047
#
# Velocity S-wave (km/s) = 3.11547 3.41018 3.26615
# Velocity P-wave (km/s) = 6.58457 7.12284 6.85899
#
# Compressibility (1/GPa) = 0.01996192
#
# Stress axis : x y z
#
# Youngs Moduli (GPa) = 48.65127 56.49434 22.85138
#
# Poissons Ratio (x) = 0.01400 0.28763
# Poissons Ratio (y) = 0.01206 0.41573
# Poissons Ratio (z) = 0.61236 1.02778
#
# Static dielectric constant tensor:
#      x y z
#    x 1.564770 0.000000 0.000000 
#    y 0.000000 1.545050 0.000000 
#    z 0.000000 0.000000 1.559430 
# 
# From -- ./inp_files/7843.got.cif
#   From: 2010.05.17/outbox.cif.g08.bks.cpg/sg58_4_cif.got.tgz:7843.got - 2010.06.03 14:20:14.
