data_PCOD9442900
_publ_section_title
;
Structure prediction by ZEFSAII (Michael W. Deem and Ramdas Pophale) SiO2 
 PCOD9442900
Probable space group: P N N M
;
_chemical_formula_sum "Si O2"
_cell_formula_units_Z 64
_cell_length_a 9.987245
_cell_length_b 17.520305
_cell_length_c 20.533484
_cell_angle_alpha 90.000000
_cell_angle_beta 90.000000
_cell_angle_gamma 90.000000
_cell_volume 3592.940376
_symmetry_space_group_name_H-M "P N N M"
_symmetry_group_IT_number 58
_symmetry_cell_setting 'orthorhombic'
loop_
_space_group_symop_operation_xyz
x,y,z
-x,-y,z
1/2+x,1/2-y,1/2-z
1/2-x,1/2+y,1/2-z
-x,-y,-z
x,y,-z
1/2-x,1/2+y,1/2+z
1/2+x,1/2-y,1/2+z
loop_
_atom_site_type_symbol
_atom_site_label
_atom_site_fract_x
_atom_site_fract_y
_atom_site_fract_z
Si Si1 0.771598 0.802658 0.239676
Si Si2 0.891649 0.565567 0.268114
Si Si3 0.421868 0.324671 0.075407
Si Si4 0.958763 0.416518 0.073129
Si Si5 0.844240 0.950546 0.425821
Si Si6 0.646390 0.180694 0.647816
Si Si7 0.520899 0.207947 0.179045
Si Si8 0.850313 0.975946 0.724769
O O1 0.835910 0.766586 0.173686
O O2 0.611596 0.790508 0.227372
O O3 0.809922 0.888830 0.258277
O O4 0.848835 0.752508 0.293718
O O5 0.876748 0.625456 0.209205
O O6 0.749050 0.526005 0.268040
O O7 0.000000 0.500000 0.256100
O O8 0.939624 0.619431 0.326722
O O9 0.530601 0.392950 0.079298
O O10 0.281334 0.342846 0.110160
O O11 0.478329 0.252264 0.114548
O O12 0.398920 0.308354 0.000000
O O13 0.799855 0.410631 0.072847
O O14 0.000000 0.500000 0.102493
O O15 0.021329 0.342147 0.104667
O O16 0.013058 0.420000 0.000000
O O17 0.851645 0.987523 0.500000
O O18 0.837722 0.989462 0.353966
O O19 0.000000 0.000000 0.740997
#
# Coordination Sequence:
#
# PCOD9442900 Si02
#       8
#     8   8   8   8   8   8   8   8
#     4  10  22  35  55  79 108 145 180 235 272 339
#     4  11  21  35  56  79 110 149 179 233 277 331
#     4  10  20  36  57  80 110 144 182 229 272 327
#     4  10  20  34  51  74 107 146 186 219 254 318
#     4  10  21  35  51  75 109 149 182 216 261 321
#     4  10  20  34  55  80 106 141 187 218 279 321
#     4  10  21  38  56  82 109 144 192 225 284 326
#     4  12  23  36  53  80 114 142 187 226 282 330
#
# _framework density 17.812709999999999
#
# number of rings (size 3 to 8) (size 9 to 14) (size 15 to 20)
#    0.000    1.625    2.500    3.000    5.250    0.250 
#    0.000    3.125    0.000    0.375    0.000    0.000 
#    0.000   13.000    0.000    0.000    0.000    0.000 
#
# Total GULP energy -356407.108284 kJ/mol
# GULP energy per Si atom -5568.861067 kJ/mol
# Density = 1.777217 g / cm^3
# Si number density = 17.812710 Si / 1000 Ang^3
#
#
#
# Elastic Constant Matrix: (Units=GPa)
#
#
# Indices 1 2 3 4 5 6 
#
# 1 94.1999 20.9351 14.0504 0.0000 0.0000 0.0000
# 2 20.9351 72.7268 24.2334 0.0000 0.0000 0.0000
# 3 14.0504 24.2334 50.5939 0.0000 0.0000 0.0000
# 4 0.0000 0.0000 0.0000 433.8609 0.0000 0.0000
# 5 0.0000 0.0000 0.0000 0.0000 27.0146 0.0000
# 6 0.0000 0.0000 0.0000 0.0000 0.0000 33.9888
#
#
#
# Elastic Compliance Matrix: (Units=1/GPa)
#
#
# Indices 1 2 3 4 5 6 
#
# 1 0.011495 -0.002672 -0.001913 0.000000 0.000000 0.000000
# 2 -0.002672 0.016982 -0.007392 0.000000 0.000000 0.000000
# 3 -0.001913 -0.007392 0.023837 0.000000 0.000000 0.000000
# 4 0.000000 0.000000 0.000000 0.002305 0.000000 0.000000
# 5 0.000000 0.000000 0.000000 0.000000 0.037017 0.000000
# 6 0.000000 0.000000 0.000000 0.000000 0.000000 0.029421
#
#
# Mechanical properties :
#
#
# Convention : Reuss Voigt Hill
#
# Bulk Modulus (GPa) = 35.25924 37.32871 36.29398
# Shear Modulus (GPa) = 32.37000 109.52631 70.94815
#
# Velocity S-wave (km/s) = 4.26754 7.84992 6.31795
# Velocity P-wave (km/s) = 6.64228 10.15694 8.58147
#
# Compressibility (1/GPa) = 0.02836136
#
# Stress axis : x y z
#
# Youngs Moduli (GPa) = 86.99643 58.88482 41.95148
#
# Poissons Ratio (x) = 0.15732 0.08024
# Poissons Ratio (y) = 0.23242 0.31011
# Poissons Ratio (z) = 0.16639 0.43529
#
# Static dielectric constant tensor:
#      x y z
#    x 1.634490 0.000000 0.000000 
#    y 0.000000 1.774420 0.000000 
#    z 0.000000 0.000000 1.651910 
# 
# From -- ./inp_files/29121.got.cif
#   From: 2010.05.17/outbox.cif.g08.bks.cpg/sg58_15_cif.got.tgz:29121.got - 2010.06.03 14:20:14.
