data_PCOD9442991
_publ_section_title
;
Structure prediction by ZEFSAII (Michael W. Deem and Ramdas Pophale) SiO2 
 PCOD9442991
Probable space group: P N N M
;
_chemical_formula_sum "Si O2"
_cell_formula_units_Z 48
_cell_length_a 15.280967
_cell_length_b 20.298793
_cell_length_c 8.684244
_cell_angle_alpha 90.000000
_cell_angle_beta 90.000000
_cell_angle_gamma 90.000000
_cell_volume 2693.723840
_symmetry_space_group_name_H-M "P N N M"
_symmetry_group_IT_number 58
_symmetry_cell_setting 'orthorhombic'
loop_
_space_group_symop_operation_xyz
x,y,z
-x,-y,z
1/2+x,1/2-y,1/2-z
1/2-x,1/2+y,1/2-z
-x,-y,-z
x,y,-z
1/2-x,1/2+y,1/2+z
1/2+x,1/2-y,1/2+z
loop_
_atom_site_type_symbol
_atom_site_label
_atom_site_fract_x
_atom_site_fract_y
_atom_site_fract_z
Si Si1 0.917826 0.955208 0.314256
Si Si2 0.114814 0.188222 0.816510
Si Si3 0.510782 0.800530 0.814660
Si Si4 0.304199 0.167306 0.684990
Si Si5 0.723082 0.984979 0.684215
Si Si6 0.935478 0.558026 0.685171
O O1 0.918422 0.945273 0.500000
O O2 0.917414 0.884067 0.235762
O O3 0.825380 0.989546 0.275382
O O4 0.000000 0.000000 0.272098
O O5 0.213040 0.195330 0.749296
O O6 0.049669 0.242568 0.748925
O O7 0.117710 0.192405 0.000000
O O8 0.609606 0.798688 0.751608
O O9 0.469472 0.870760 0.764397
O O10 0.512495 0.798332 0.000000
O O11 0.303195 0.170870 0.500000
O O12 0.305939 0.089404 0.729359
O O13 0.714911 0.989798 0.500000
O O14 0.660762 0.038409 0.760066
O O15 0.937415 0.557425 0.500000
O O16 0.000000 0.500000 0.741694
#
# Coordination Sequence:
#
# PCOD9442991 Si02
#       6
#     8   8   8   8   8   8
#     4   9  19  39  63  85 113 150 191 237 290 344
#     4  11  23  39  59  85 116 153 195 238 286 349
#     4  11  22  38  59  83 116 155 192 240 291 341
#     4  10  20  37  60  84 111 148 191 235 287 347
#     4   9  18  32  55  84 111 144 184 231 281 338
#     4  10  20  34  54  83 115 148 186 229 282 337
#
# _framework density 17.819199999999999
#
# number of rings (size 3 to 8) (size 9 to 14) (size 15 to 20)
#    0.000    2.000    1.667    3.500    0.000    4.667 
#    3.000    0.000    0.000    0.000    0.000    0.000 
#    0.000    0.000    0.000    0.000    0.000    0.000 
#
# Total GULP energy -267991.720011 kJ/mol
# GULP energy per Si atom -5583.160834 kJ/mol
# Density = 1.777864 g / cm^3
# Si number density = 17.819200 Si / 1000 Ang^3
#
#
#
# Elastic Constant Matrix: (Units=GPa)
#
#
# Indices 1 2 3 4 5 6 
#
# 1 175.5633 92.9691 54.9882 0.0000 0.0000 0.0000
# 2 92.9691 90.7960 42.4624 0.0000 0.0000 0.0000
# 3 54.9882 42.4624 57.9539 0.0000 0.0000 0.0000
# 4 0.0000 0.0000 0.0000 18.4389 0.0000 0.0000
# 5 0.0000 0.0000 0.0000 0.0000 32.9942 0.0000
# 6 0.0000 0.0000 0.0000 0.0000 0.0000 36.8758
#
#
#
# Elastic Compliance Matrix: (Units=1/GPa)
#
#
# Indices 1 2 3 4 5 6 
#
# 1 0.013005 -0.011479 -0.003929 0.000000 0.000000 0.000000
# 2 -0.011479 0.026887 -0.008808 0.000000 0.000000 0.000000
# 3 -0.003929 -0.008808 0.027437 0.000000 0.000000 0.000000
# 4 0.000000 0.000000 0.000000 0.054233 0.000000 0.000000
# 5 0.000000 0.000000 0.000000 0.000000 0.030308 0.000000
# 6 0.000000 0.000000 0.000000 0.000000 0.000000 0.027118
#
#
# Mechanical properties :
#
#
# Convention : Reuss Voigt Hill
#
# Bulk Modulus (GPa) = 52.92059 78.35028 65.63543
# Shear Modulus (GPa) = 21.39316 26.58803 23.99060
#
# Velocity S-wave (km/s) = 3.46868 3.86696 3.67322
# Velocity P-wave (km/s) = 6.76797 8.00018 7.40973
#
# Compressibility (1/GPa) = 0.01889624
#
# Stress axis : x y z
#
# Youngs Moduli (GPa) = 76.89191 37.19316 36.44737
#
# Poissons Ratio (x) = 0.42694 0.14321
# Poissons Ratio (y) = 0.88264 0.32103
# Poissons Ratio (z) = 0.30212 0.32760
#
# Static dielectric constant tensor:
#      x y z
#    x 1.601010 0.000000 0.000000 
#    y 0.000000 1.585460 0.000000 
#    z 0.000000 0.000000 1.600040 
# 
# From -- ./inp_files/5831.got.cif
#   From: 2010.05.17/outbox.cif.g08.bks.cpg/sg58_3_cif.got.tgz:5831.got - 2010.06.03 14:20:14.
