data_PCOD9442888
_publ_section_title
;
Structure prediction by ZEFSAII (Michael W. Deem and Ramdas Pophale) SiO2 
 PCOD9442888
Probable space group: P N N M
;
_chemical_formula_sum "Si O2"
_cell_formula_units_Z 64
_cell_length_a 13.106949
_cell_length_b 29.306610
_cell_length_c 7.257879
_cell_angle_alpha 90.000000
_cell_angle_beta 90.000000
_cell_angle_gamma 90.000000
_cell_volume 2787.898242
_symmetry_space_group_name_H-M "P N N M"
_symmetry_group_IT_number 58
_symmetry_cell_setting 'orthorhombic'
loop_
_space_group_symop_operation_xyz
x,y,z
-x,-y,z
1/2+x,1/2-y,1/2-z
1/2-x,1/2+y,1/2-z
-x,-y,-z
x,y,-z
1/2-x,1/2+y,1/2+z
1/2+x,1/2-y,1/2+z
loop_
_atom_site_type_symbol
_atom_site_label
_atom_site_fract_x
_atom_site_fract_y
_atom_site_fract_z
Si Si1 0.498342 0.299920 0.277719
Si Si2 0.981692 0.448611 0.723891
Si Si3 0.287081 0.666192 0.724604
Si Si4 0.248570 0.565599 0.723744
Si Si5 0.844755 0.121386 0.224784
Si Si6 0.933299 0.301675 0.286809
Si Si7 0.888308 0.017685 0.775515
Si Si8 0.883912 0.635572 0.275748
O O1 0.498724 0.300442 0.500000
O O2 0.615133 0.305130 0.214959
O O3 0.431285 0.343073 0.217115
O O4 0.449315 0.252189 0.221833
O O5 0.982448 0.448893 0.500000
O O6 0.869253 0.433047 0.780895
O O7 0.000000 0.500000 0.785173
O O8 0.068029 0.413030 0.778787
O O9 0.286523 0.667879 0.500000
O O10 0.300186 0.613179 0.777142
O O11 0.176779 0.683771 0.789429
O O12 0.249261 0.564487 0.500000
O O13 0.305764 0.519944 0.784270
O O14 0.865194 0.069305 0.283364
O O15 0.732919 0.138431 0.284078
O O16 0.845674 0.120776 0.000000
O O17 0.929196 0.316534 0.500000
O O18 0.034232 0.326778 0.211851
O O19 0.886413 0.018241 0.000000
O O20 0.000000 0.000000 0.721176
O O21 0.880496 0.637284 0.500000
#
# Coordination Sequence:
#
# PCOD9442888 Si02
#       8
#     8   8   8   8   8   8   8   8
#     4  10  21  34  50  70  95 126 161 200 242 285
#     4   9  14  20  33  56  85 119 152 181 222 278
#     4   9  17  31  47  66  93 125 160 196 237 286
#     4   9  14  22  37  57  85 121 155 185 224 280
#     4   9  17  28  41  63  94 125 155 191 236 283
#     4  10  20  34  51  69  92 126 163 200 242 284
#     4   9  15  22  35  57  87 124 157 182 222 284
#     4   9  16  27  41  60  88 120 153 190 233 279
#
# _framework density 22.956364000000001
#
# number of rings (size 3 to 8) (size 9 to 14) (size 15 to 20)
#    0.000    2.750    1.250    1.500    1.750    6.000 
#    0.000    0.000    0.000    0.000    0.000    0.000 
#    0.000    6.000    0.000    0.500    0.000    0.000 
#
# Total GULP energy -357689.486657 kJ/mol
# GULP energy per Si atom -5588.898229 kJ/mol
# Density = 2.290411 g / cm^3
# Si number density = 22.956364 Si / 1000 Ang^3
#
#
#
# Elastic Constant Matrix: (Units=GPa)
#
#
# Indices 1 2 3 4 5 6 
#
# 1 162.3364 63.5105 3.8313 0.0000 0.0000 0.0000
# 2 63.5105 136.5571 -8.0453 0.0000 0.0000 0.0000
# 3 3.8313 -8.0453 101.6708 0.0000 0.0000 0.0000
# 4 0.0000 0.0000 0.0000 -8.4432 0.0000 0.0000
# 5 0.0000 0.0000 0.0000 0.0000 -20.7425 0.0000
# 6 0.0000 0.0000 0.0000 0.0000 0.0000 43.1833
#
#
#
# Elastic Compliance Matrix: (Units=1/GPa)
#
#
# Indices 1 2 3 4 5 6 
#
# 1 0.007562 -0.003551 -0.000566 0.000000 0.000000 0.000000
# 2 -0.003551 0.009024 0.000848 0.000000 0.000000 0.000000
# 3 -0.000566 0.000848 0.009924 0.000000 0.000000 0.000000
# 4 0.000000 0.000000 0.000000 -0.118438 0.000000 0.000000
# 5 0.000000 0.000000 0.000000 0.000000 -0.048210 0.000000
# 6 0.000000 0.000000 0.000000 0.000000 0.000000 0.023157
#
#
# Mechanical properties :
#
#
# Convention : Reuss Voigt Hill
#
# Bulk Modulus (GPa) = 50.06609 57.68415 53.87512
# Shear Modulus (GPa) = -48.17639 25.55070 -11.31284
#
# Velocity S-wave (km/s) = -4.58603 3.33980 -2.22231
# Velocity P-wave (km/s) = 2.48708 6.32888 4.11516
#
# Compressibility (1/GPa) = 0.01997360
#
# Stress axis : x y z
#
# Youngs Moduli (GPa) = 132.23190 110.81322 100.76497
#
# Poissons Ratio (x) = 0.39345 0.05703
# Poissons Ratio (y) = 0.46949 -0.08544
# Poissons Ratio (z) = 0.07484 -0.09396
#
# Static dielectric constant tensor:
#      x y z
#    x 1.817420 0.000000 0.000000 
#    y 0.000000 1.789130 0.000000 
#    z 0.000000 0.000000 1.974020 
# 
# From -- ./inp_files/14905.got.cif
#   From: 2010.05.17/outbox.cif.g08.bks.cpg/sg58_8_cif.got.tgz:14905.got - 2010.06.03 14:20:14.
