data_PCOD9442630
_publ_section_title
;
Structure prediction by ZEFSAII (Michael W. Deem and Ramdas Pophale) SiO2 
 PCOD9442630
Probable space group: P N N M
;
_chemical_formula_sum "Si O2"
_cell_formula_units_Z 52
_cell_length_a 14.629493
_cell_length_b 21.804544
_cell_length_c 7.503009
_cell_angle_alpha 90.000000
_cell_angle_beta 90.000000
_cell_angle_gamma 90.000000
_cell_volume 2393.380518
_symmetry_space_group_name_H-M "P N N M"
_symmetry_group_IT_number 58
_symmetry_cell_setting 'orthorhombic'
loop_
_space_group_symop_operation_xyz
x,y,z
-x,-y,z
1/2+x,1/2-y,1/2-z
1/2-x,1/2+y,1/2-z
-x,-y,-z
x,y,-z
1/2-x,1/2+y,1/2+z
1/2+x,1/2-y,1/2+z
loop_
_atom_site_type_symbol
_atom_site_label
_atom_site_fract_x
_atom_site_fract_y
_atom_site_fract_z
Si Si1 0.531477 0.347747 0.786830
Si Si2 0.353086 0.898580 0.785179
Si Si3 0.508094 0.207882 0.784532
Si Si4 0.882758 0.463033 0.701039
Si Si5 0.323144 0.555221 0.794450
Si Si6 0.850909 0.078369 0.789504
Si Si7 0.080502 0.637345 0.000000
O O1 0.539574 0.276645 0.740106
O O2 0.610637 0.392883 0.718435
O O3 0.432805 0.374926 0.739743
O O4 0.538329 0.351200 0.000000
O O5 0.415045 0.841984 0.725357
O O6 0.247908 0.898375 0.721760
O O7 0.393311 0.965808 0.743792
O O8 0.351015 0.894773 0.000000
O O9 0.423676 0.190024 0.659823
O O10 0.493293 0.203655 0.000000
O O11 0.918597 0.453244 0.500000
O O12 0.772996 0.452815 0.697717
O O13 0.918201 0.415842 0.844158
O O14 0.370555 0.488602 0.791052
O O15 0.299612 0.570776 0.000000
O O16 0.841476 0.068196 0.000000
#
# Coordination Sequence:
#
# PCOD9442630 Si02
#       7
#     8   8   8   8   8   8   4
#     4  10  22  39  59  87 124 165 209 259 307 366
#     4   8  18  39  62  87 123 163 201 251 315 365
#     4  10  23  44  60  84 128 167 205 254 306 373
#     4  10  21  39  63  96 126 157 205 263 313 368
#     4  10  19  37  61  93 126 159 207 260 318 367
#     4  10  20  35  61  93 122 161 206 261 312 373
#     4  12  24  41  64  94 120 164 209 260 303 372
#
# _framework density 21.726590000000002
#
# number of rings (size 3 to 8) (size 9 to 14) (size 15 to 20)
#    0.000    2.154    0.769    2.769    1.077    4.923 
#    5.538    2.308    0.000    0.000    0.000    0.000 
#    0.000    0.000    0.000    0.000    0.000    0.000 
#
# Total GULP energy -289478.339950 kJ/mol
# GULP energy per Si atom -5566.891153 kJ/mol
# Density = 2.167714 g / cm^3
# Si number density = 21.726590 Si / 1000 Ang^3
#
#
#
# Elastic Constant Matrix: (Units=GPa)
#
#
# Indices 1 2 3 4 5 6 
#
# 1 47.9080 50.1202 6.9978 0.0000 0.0000 0.0000
# 2 50.1202 137.4379 39.9896 0.0000 0.0000 0.0000
# 3 6.9978 39.9896 95.7563 0.0000 0.0000 0.0000
# 4 0.0000 0.0000 0.0000 38.6420 0.0000 0.0000
# 5 0.0000 0.0000 0.0000 0.0000 34.0982 0.0000
# 6 0.0000 0.0000 0.0000 0.0000 0.0000 11.8619
#
#
#
# Elastic Compliance Matrix: (Units=1/GPa)
#
#
# Indices 1 2 3 4 5 6 
#
# 1 0.034547 -0.013505 0.003115 0.000000 0.000000 0.000000
# 2 -0.013505 0.013562 -0.004677 0.000000 0.000000 0.000000
# 3 0.003115 -0.004677 0.012169 0.000000 0.000000 0.000000
# 4 0.000000 0.000000 0.000000 0.025879 0.000000 0.000000
# 5 0.000000 0.000000 0.000000 0.000000 0.029327 0.000000
# 6 0.000000 0.000000 0.000000 0.000000 0.000000 0.084303
#
#
# Mechanical properties :
#
#
# Convention : Reuss Voigt Hill
#
# Bulk Modulus (GPa) = 33.17364 52.81305 42.99335
# Shear Modulus (GPa) = 20.83626 29.18673 25.01150
#
# Velocity S-wave (km/s) = 3.10017 3.66917 3.39660
# Velocity P-wave (km/s) = 5.30250 6.50471 5.93413
#
# Compressibility (1/GPa) = 0.03014441
#
# Stress axis : x y z
#
# Youngs Moduli (GPa) = 28.94639 73.73764 82.17879
#
# Poissons Ratio (x) = 0.99581 -0.25600
# Poissons Ratio (y) = 0.39091 0.38432
# Poissons Ratio (z) = -0.09017 0.34485
#
# Static dielectric constant tensor:
#      x y z
#    x 1.873070 0.000000 0.000000 
#    y 0.000000 1.771700 0.000000 
#    z 0.000000 0.000000 1.884510 
# 
# From -- ./inp_files/6152.got.cif
#   From: 2010.05.17/outbox.cif.g08.bks.cpg/sg58_4_cif.got.tgz:6152.got - 2010.06.03 14:20:14.
