data_PCOD9442806
_publ_section_title
;
Structure prediction by ZEFSAII (Michael W. Deem and Ramdas Pophale) SiO2 
 PCOD9442806
Probable space group: P N N M
;
_chemical_formula_sum "Si O2"
_cell_formula_units_Z 58
_cell_length_a 16.582588
_cell_length_b 9.416694
_cell_length_c 18.580407
_cell_angle_alpha 90.000000
_cell_angle_beta 90.000000
_cell_angle_gamma 90.000000
_cell_volume 2901.389210
_symmetry_space_group_name_H-M "P N N M"
_symmetry_group_IT_number 58
_symmetry_cell_setting 'orthorhombic'
loop_
_space_group_symop_operation_xyz
x,y,z
-x,-y,z
1/2+x,1/2-y,1/2-z
1/2-x,1/2+y,1/2-z
-x,-y,-z
x,y,-z
1/2-x,1/2+y,1/2+z
1/2+x,1/2-y,1/2+z
loop_
_atom_site_type_symbol
_atom_site_label
_atom_site_fract_x
_atom_site_fract_y
_atom_site_fract_z
Si Si1 0.904435 0.978223 0.578402
Si Si2 0.322984 0.211754 0.704338
Si Si3 0.818667 0.834210 0.813551
Si Si4 0.263964 0.428812 0.417078
Si Si5 0.411443 0.432316 0.777731
Si Si6 0.911079 0.654735 0.619557
Si Si7 0.000000 0.500000 0.500000
Si Si8 0.584614 0.069528 0.712310
O O1 0.866131 0.990848 0.500000
O O2 0.892700 0.821533 0.611173
O O3 0.880327 0.085677 0.640917
O O4 0.000000 0.000000 0.570386
O O5 0.254283 0.228252 0.765443
O O6 0.295506 0.299498 0.633910
O O7 0.403505 0.286786 0.735308
O O8 0.345880 0.047737 0.698152
O O9 0.885059 0.713124 0.825389
O O10 0.791997 0.921655 0.883500
O O11 0.856032 0.956198 0.763132
O O12 0.287820 0.410890 0.500000
O O13 0.167074 0.425836 0.411122
O O14 0.500000 0.500000 0.778701
O O15 0.982217 0.617836 0.564438
O O16 0.921710 0.609093 0.702237
O O17 0.500000 0.000000 0.689529
#
# Coordination Sequence:
#
# PCOD9442806 Si02
#       8
#     8   8   8   8   8   8   2   8
#     4  10  20  33  50  79 125 173 208 248 304 377
#     4  11  22  38  64  92 123 166 217 269 319 388
#     4  11  21  40  61  93 126 162 224 266 311 395
#     4  11  23  43  67  90 127 175 221 264 329 386
#     4  10  20  35  58  81 116 162 214 263 311 374
#     4  12  21  36  59  90 130 178 210 252 315 406
#     4  12  24  32  58  96 148 164 204 250 324 422
#     4  12  23  37  65  97 128 167 215 278 339 379
#
# _framework density 19.990423
#
# number of rings (size 3 to 8) (size 9 to 14) (size 15 to 20)
#    0.000    0.966    6.207    1.655    1.931    0.000 
#    0.000    1.379    0.000   15.724    0.000    0.000 
#    0.000    0.000    0.000    0.000    0.000    0.000 
#
# Total GULP energy -323203.615389 kJ/mol
# GULP energy per Si atom -5572.476127 kJ/mol
# Density = 1.994492 g / cm^3
# Si number density = 19.990423 Si / 1000 Ang^3
#
#
#
# Elastic Constant Matrix: (Units=GPa)
#
#
# Indices 1 2 3 4 5 6 
#
# 1 49.1699 14.8186 13.5489 0.0000 0.0000 0.0000
# 2 14.8186 79.6795 38.1983 0.0000 0.0000 0.0000
# 3 13.5489 38.1983 104.0333 0.0000 0.0000 0.0000
# 4 0.0000 0.0000 0.0000 13.5032 0.0000 0.0000
# 5 0.0000 0.0000 0.0000 0.0000 8.5208 0.0000
# 6 0.0000 0.0000 0.0000 0.0000 0.0000 38.5691
#
#
#
# Elastic Compliance Matrix: (Units=1/GPa)
#
#
# Indices 1 2 3 4 5 6 
#
# 1 0.021773 -0.003264 -0.001637 0.000000 0.000000 0.000000
# 2 -0.003264 0.015721 -0.005347 0.000000 0.000000 0.000000
# 3 -0.001637 -0.005347 0.011789 0.000000 0.000000 0.000000
# 4 0.000000 0.000000 0.000000 0.074057 0.000000 0.000000
# 5 0.000000 0.000000 0.000000 0.000000 0.117360 0.000000
# 6 0.000000 0.000000 0.000000 0.000000 0.000000 0.025927
#
#
# Mechanical properties :
#
#
# Convention : Reuss Voigt Hill
#
# Bulk Modulus (GPa) = 34.74015 40.66825 37.70420
# Shear Modulus (GPa) = 16.85102 23.20642 20.02872
#
# Velocity S-wave (km/s) = 2.90652 3.41086 3.16874
# Velocity P-wave (km/s) = 5.35536 5.99166 5.68243
#
# Compressibility (1/GPa) = 0.02878514
#
# Stress axis : x y z
#
# Youngs Moduli (GPa) = 45.92940 63.61003 84.82608
#
# Poissons Ratio (x) = 0.20765 0.13886
# Poissons Ratio (y) = 0.14993 0.45358
# Poissons Ratio (z) = 0.07518 0.34013
#
# Static dielectric constant tensor:
#      x y z
#    x 1.774770 0.000000 0.000000 
#    y 0.000000 1.750320 0.000000 
#    z 0.000000 0.000000 1.718190 
# 
# From -- ./inp_files/27300.got.cif
#   From: 2010.05.17/outbox.cif.g08.bks.cpg/sg58_14_cif.got.tgz:27300.got - 2010.06.03 14:20:14.
