data_PCOD9442016
_publ_section_title
;
Structure prediction by ZEFSAII (Michael W. Deem and Ramdas Pophale) SiO2 
 PCOD9442016
Probable space group: P N N M
;
_chemical_formula_sum "Si O2"
_cell_formula_units_Z 40
_cell_length_a 14.178974
_cell_length_b 11.686142
_cell_length_c 10.684543
_cell_angle_alpha 90.000000
_cell_angle_beta 90.000000
_cell_angle_gamma 90.000000
_cell_volume 1770.402102
_symmetry_space_group_name_H-M "P N N M"
_symmetry_group_IT_number 58
_symmetry_cell_setting 'orthorhombic'
loop_
_space_group_symop_operation_xyz
x,y,z
-x,-y,z
1/2+x,1/2-y,1/2-z
1/2-x,1/2+y,1/2-z
-x,-y,-z
x,y,-z
1/2-x,1/2+y,1/2+z
1/2+x,1/2-y,1/2+z
loop_
_atom_site_type_symbol
_atom_site_label
_atom_site_fract_x
_atom_site_fract_y
_atom_site_fract_z
Si Si1 0.120671 0.233734 0.000000
Si Si2 0.350068 0.239854 0.000000
Si Si3 0.120750 0.315229 0.727521
Si Si4 0.365721 0.976931 0.000000
Si Si5 0.905877 0.934496 0.644773
Si Si6 0.634969 0.539897 0.500000
Si Si7 0.835411 0.133211 0.750421
O O1 0.090843 0.302060 0.126428
O O2 0.100324 0.094001 0.000000
O O3 0.235571 0.237814 0.000000
O O4 0.377470 0.305138 0.871946
O O5 0.386751 0.111130 0.000000
O O6 0.098933 0.415755 0.628137
O O7 0.088004 0.197201 0.668769
O O8 0.234802 0.310782 0.727508
O O9 0.250321 0.966729 0.000000
O O10 0.892865 0.955320 0.500000
O O11 0.821081 0.999131 0.713976
O O12 0.000000 0.000000 0.686079
O O13 0.609462 0.616937 0.620430
#
# Coordination Sequence:
#
# PCOD9442016 Si02
#       7
#     4   4   8   4   8   4   8
#     4   9  16  28  48  78 111 135 190 246 299 338
#     4   9  18  31  49  76 111 149 196 253 282 341
#     4  10  19  33  54  81 115 155 200 244 295 357
#     4   9  18  31  49  76 111 149 196 253 282 341
#     4  11  22  37  59  91 126 157 200 256 309 357
#     4   9  16  28  48  78 111 135 190 246 299 338
#     4  10  19  33  54  81 115 155 200 244 295 357
#
# _framework density 22.593738999999999
#
# number of rings (size 3 to 8) (size 9 to 14) (size 15 to 20)
#    0.000    2.200    4.000    0.000    2.800    0.000 
#    0.000    3.000    0.000    2.400    0.000    0.000 
#    0.000    4.800    0.000    0.000    0.000    0.000 
#
# Total GULP energy -223009.044578 kJ/mol
# GULP energy per Si atom -5575.226114 kJ/mol
# Density = 2.254231 g / cm^3
# Si number density = 22.593739 Si / 1000 Ang^3
#
#
#
# Elastic Constant Matrix: (Units=GPa)
#
#
# Indices 1 2 3 4 5 6 
#
# 1 55.7056 7.2881 6.8398 0.0000 0.0000 0.0000
# 2 7.2881 113.7613 79.6858 0.0000 0.0000 0.0000
# 3 6.8398 79.6858 212.2248 0.0000 0.0000 0.0000
# 4 0.0000 0.0000 0.0000 29.0327 0.0000 0.0000
# 5 0.0000 0.0000 0.0000 0.0000 11.8422 0.0000
# 6 0.0000 0.0000 0.0000 0.0000 0.0000 5.1854
#
#
#
# Elastic Compliance Matrix: (Units=1/GPa)
#
#
# Indices 1 2 3 4 5 6 
#
# 1 0.018110 -0.001019 -0.000201 0.000000 0.000000 0.000000
# 2 -0.001019 0.011985 -0.004467 0.000000 0.000000 0.000000
# 3 -0.000201 -0.004467 0.006396 0.000000 0.000000 0.000000
# 4 0.000000 0.000000 0.000000 0.034444 0.000000 0.000000
# 5 0.000000 0.000000 0.000000 0.000000 0.084444 0.000000
# 6 0.000000 0.000000 0.000000 0.000000 0.000000 0.192850
#
#
# Mechanical properties :
#
#
# Convention : Reuss Voigt Hill
#
# Bulk Modulus (GPa) = 39.81674 63.25768 51.53721
# Shear Modulus (GPa) = 13.58789 28.40392 20.99591
#
# Velocity S-wave (km/s) = 2.45501 3.54949 3.05172
# Velocity P-wave (km/s) = 5.06925 6.69755 5.93946
#
# Compressibility (1/GPa) = 0.02511506
#
# Stress axis : x y z
#
# Youngs Moduli (GPa) = 55.21950 83.43958 156.35325
#
# Poissons Ratio (x) = 0.08506 0.03141
# Poissons Ratio (y) = 0.05630 0.69845
# Poissons Ratio (z) = 0.01109 0.37274
#
# Static dielectric constant tensor:
#      x y z
#    x 1.886910 0.000000 0.000000 
#    y 0.000000 1.822500 0.000000 
#    z 0.000000 0.000000 1.946210 
# 
# From -- ./inp_files/16930.got.cif
#   From: 2010.05.17/outbox.cif.g08.bks.cpg/sg58_9_cif.got.tgz:16930.got - 2010.06.03 14:20:14.
