data_PCOD9442947
_publ_section_title
;
Structure prediction by ZEFSAII (Michael W. Deem and Ramdas Pophale) SiO2 
 PCOD9442947
Probable space group: P N N M
;
_chemical_formula_sum "Si O2"
_cell_formula_units_Z 64
_cell_length_a 22.137812
_cell_length_b 15.544579
_cell_length_c 9.520756
_cell_angle_alpha 90.000000
_cell_angle_beta 90.000000
_cell_angle_gamma 90.000000
_cell_volume 3276.310808
_symmetry_space_group_name_H-M "P N N M"
_symmetry_group_IT_number 58
_symmetry_cell_setting 'orthorhombic'
loop_
_space_group_symop_operation_xyz
x,y,z
-x,-y,z
1/2+x,1/2-y,1/2-z
1/2-x,1/2+y,1/2-z
-x,-y,-z
x,y,-z
1/2-x,1/2+y,1/2+z
1/2+x,1/2-y,1/2+z
loop_
_atom_site_type_symbol
_atom_site_label
_atom_site_fract_x
_atom_site_fract_y
_atom_site_fract_z
Si Si1 0.685206 0.088066 0.164589
Si Si2 0.280408 0.710220 0.161240
Si Si3 0.997357 0.903317 0.839885
Si Si4 0.454233 0.924118 0.829082
Si Si5 0.696061 0.561804 0.837310
Si Si6 0.969216 0.259853 0.334748
Si Si7 0.642007 0.419071 0.658974
Si Si8 0.831146 0.265213 0.341411
O O1 0.696439 0.191251 0.169954
O O2 0.616396 0.067761 0.211037
O O3 0.738745 0.051288 0.261574
O O4 0.692117 0.062173 0.000000
O O5 0.319711 0.651822 0.261691
O O6 0.212867 0.702731 0.220786
O O7 0.284710 0.683440 0.000000
O O8 0.926151 0.886348 0.846145
O O9 0.026175 0.828221 0.750230
O O10 0.022220 0.905698 0.000000
O O11 0.000000 0.000000 0.781202
O O12 0.483607 0.832701 0.786624
O O13 0.500000 0.000000 0.783695
O O14 0.454276 0.924620 0.000000
O O15 0.649294 0.505673 0.748538
O O16 0.675766 0.661420 0.835365
O O17 0.698971 0.535330 0.000000
O O18 0.980279 0.242846 0.500000
O O19 0.900331 0.292203 0.322746
O O20 0.662777 0.434493 0.500000
O O21 0.811850 0.291184 0.500000
#
# Coordination Sequence:
#
# PCOD9442947 Si02
#       8
#     8   8   8   8   8   8   8   8
#     4   9  18  34  55  77 102 137 178 218 268 323
#     4  10  20  34  54  79 107 139 178 225 272 325
#     4  10  22  38  56  81 113 148 185 227 279 339
#     4   9  18  33  54  80 108 140 182 228 270 318
#     4  10  20  34  53  77 106 138 174 221 272 323
#     4  10  20  35  57  83 112 149 190 230 272 323
#     4  11  22  35  53  78 108 141 179 222 273 332
#     4   9  19  35  54  79 109 141 180 224 273 327
#
# _framework density 19.534165000000002
#
# number of rings (size 3 to 8) (size 9 to 14) (size 15 to 20)
#    0.000    2.250    0.000    2.625    0.000    4.750 
#    0.000    3.125    0.000    1.500    0.000    0.000 
#    0.000    0.000    0.000    0.000    0.000    0.000 
#
# Total GULP energy -357139.598736 kJ/mol
# GULP energy per Si atom -5580.306230 kJ/mol
# Density = 1.948970 g / cm^3
# Si number density = 19.534165 Si / 1000 Ang^3
#
#
#
# Elastic Constant Matrix: (Units=GPa)
#
#
# Indices 1 2 3 4 5 6 
#
# 1 68.6509 -11.4426 18.9299 0.0000 0.0000 0.0000
# 2 -11.4426 23.8424 9.5475 0.0000 0.0000 0.0000
# 3 18.9299 9.5475 82.3062 0.0000 0.0000 0.0000
# 4 0.0000 0.0000 0.0000 -14.9097 0.0000 0.0000
# 5 0.0000 0.0000 0.0000 0.0000 22.1368 0.0000
# 6 0.0000 0.0000 0.0000 0.0000 0.0000 25.1192
#
#
#
# Elastic Compliance Matrix: (Units=1/GPa)
#
#
# Indices 1 2 3 4 5 6 
#
# 1 0.017820 0.010690 -0.005339 0.000000 0.000000 0.000000
# 2 0.010690 0.050398 -0.008305 0.000000 0.000000 0.000000
# 3 -0.005339 -0.008305 0.014341 0.000000 0.000000 0.000000
# 4 0.000000 0.000000 0.000000 -0.067070 0.000000 0.000000
# 5 0.000000 0.000000 0.000000 0.000000 0.045174 0.000000
# 6 0.000000 0.000000 0.000000 0.000000 0.000000 0.039810
#
#
# Mechanical properties :
#
#
# Convention : Reuss Voigt Hill
#
# Bulk Modulus (GPa) = 13.04575 23.20765 18.12670
# Shear Modulus (GPa) = 37.89875 16.98692 27.44283
#
# Velocity S-wave (km/s) = 4.40947 2.95210 3.75222
# Velocity P-wave (km/s) = 5.71117 4.85038 5.29828
#
# Compressibility (1/GPa) = 0.07665329
#
# Stress axis : x y z
#
# Youngs Moduli (GPa) = 56.11555 19.84192 69.73035
#
# Poissons Ratio (x) = -0.21212 0.37226
# Poissons Ratio (y) = -0.59989 0.57910
# Poissons Ratio (z) = 0.29958 0.16478
#
# Static dielectric constant tensor:
#      x y z
#    x 1.688420 0.000000 0.000000 
#    y 0.000000 1.703630 0.000000 
#    z 0.000000 0.000000 1.663240 
# 
# From -- ./inp_files/10097.got.cif
#   From: 2010.05.17/outbox.cif.g08.bks.cpg/sg58_6_cif.got.tgz:10097.got - 2010.06.03 14:20:14.
