data_PCOD9442565
_publ_section_title
;
Structure prediction by ZEFSAII (Michael W. Deem and Ramdas Pophale) SiO2 
 PCOD9442565
Probable space group: P N N M
;
_chemical_formula_sum "Si O2"
_cell_formula_units_Z 24
_cell_length_a 14.314372
_cell_length_b 12.468356
_cell_length_c 5.497467
_cell_angle_alpha 90.000000
_cell_angle_beta 90.000000
_cell_angle_gamma 90.000000
_cell_volume 981.169692
_symmetry_space_group_name_H-M "P N N M"
_symmetry_group_IT_number 58
_symmetry_cell_setting 'orthorhombic'
loop_
_space_group_symop_operation_xyz
x,y,z
-x,-y,z
1/2+x,1/2-y,1/2-z
1/2-x,1/2+y,1/2-z
-x,-y,-z
x,y,-z
1/2-x,1/2+y,1/2+z
1/2+x,1/2-y,1/2+z
loop_
_atom_site_type_symbol
_atom_site_label
_atom_site_fract_x
_atom_site_fract_y
_atom_site_fract_z
Si Si1 0.321344 0.995362 0.500000
Si Si2 0.565663 0.332185 0.000000
Si Si3 0.051546 0.115213 0.000000
Si Si4 0.586630 0.080320 0.000000
Si Si5 0.652601 0.642601 0.000000
Si Si6 0.865831 0.254392 0.000000
O O1 0.360439 0.943811 0.251406
O O2 0.213228 0.963552 0.500000
O O3 0.351806 0.119092 0.500000
O O4 0.608404 0.368590 0.254265
O O5 0.557764 0.204174 0.000000
O O6 0.458934 0.377658 0.000000
O O7 0.972581 0.209353 0.000000
O O8 0.000000 0.000000 0.000000
O O9 0.500000 0.000000 0.000000
O O10 0.674157 0.706966 0.248228
#
# Coordination Sequence:
#
# PCOD9442565 Si02
#       6
#     4   4   4   4   4   4
#     4  12  24  42  68  97 127 171 224 266 323 398
#     4  10  21  39  60  89 129 166 206 263 323 379
#     4  10  19  36  61  86 120 164 206 250 317 386
#     4  12  23  40  67  99 130 167 214 274 332 388
#     4  10  22  42  63  90 125 168 212 257 318 380
#     4  10  21  41  64  91 127 166 208 266 318 375
#
# _framework density 24.460599999999999
#
# number of rings (size 3 to 8) (size 9 to 14) (size 15 to 20)
#    0.000    1.333    0.000    8.000    0.000    0.000 
#    0.000   20.000    0.000    0.000    0.000    0.000 
#    0.000    0.000    0.000    0.000    0.000    0.000 
#
# Total GULP energy -134402.841723 kJ/mol
# GULP energy per Si atom -5600.118405 kJ/mol
# Density = 2.440493 g / cm^3
# Si number density = 24.460600 Si / 1000 Ang^3
#
#
#
# Elastic Constant Matrix: (Units=GPa)
#
#
# Indices 1 2 3 4 5 6 
#
# 1 70.0160 45.9367 36.6694 0.0000 0.0000 0.0000
# 2 45.9367 138.1883 75.9672 0.0000 0.0000 0.0000
# 3 36.6694 75.9672 286.8319 0.0000 0.0000 0.0000
# 4 0.0000 0.0000 0.0000 62.6889 0.0000 0.0000
# 5 0.0000 0.0000 0.0000 0.0000 42.2833 0.0000
# 6 0.0000 0.0000 0.0000 0.0000 0.0000 33.9628
#
#
#
# Elastic Compliance Matrix: (Units=1/GPa)
#
#
# Indices 1 2 3 4 5 6 
#
# 1 0.018445 -0.005659 -0.000859 0.000000 0.000000 0.000000
# 2 -0.005659 0.010206 -0.001980 0.000000 0.000000 0.000000
# 3 -0.000859 -0.001980 0.004120 0.000000 0.000000 0.000000
# 4 0.000000 0.000000 0.000000 0.015952 0.000000 0.000000
# 5 0.000000 0.000000 0.000000 0.000000 0.023650 0.000000
# 6 0.000000 0.000000 0.000000 0.000000 0.000000 0.029444
#
#
# Mechanical properties :
#
#
# Convention : Reuss Voigt Hill
#
# Bulk Modulus (GPa) = 63.38843 90.24252 76.81547
# Shear Modulus (GPa) = 40.29903 50.21787 45.25845
#
# Velocity S-wave (km/s) = 4.06335 4.53593 4.30613
# Velocity P-wave (km/s) = 6.92714 8.02534 7.49637
#
# Compressibility (1/GPa) = 0.01577575
#
# Stress axis : x y z
#
# Youngs Moduli (GPa) = 54.21393 97.98164 242.68930
#
# Poissons Ratio (x) = 0.55451 0.20853
# Poissons Ratio (y) = 0.30681 0.48042
# Poissons Ratio (z) = 0.04658 0.19396
#
# Static dielectric constant tensor:
#      x y z
#    x 1.922830 0.000000 0.000000 
#    y 0.000000 1.885690 0.000000 
#    z 0.000000 0.000000 1.977870 
# 
# From -- ./inp_files/739.got.cif
#   From: 2010.05.17/outbox.cif.g08.bks.cpg/sg58_1_cif.got.tgz:739.got - 2010.06.03 14:20:14.
