data_PCOD9442357
_publ_section_title
;
Structure prediction by ZEFSAII (Michael W. Deem and Ramdas Pophale) SiO2 
 PCOD9442357
Probable space group: P N N M
;
_chemical_formula_sum "Si O2"
_cell_formula_units_Z 56
_cell_length_a 13.126484
_cell_length_b 16.193570
_cell_length_c 14.663836
_cell_angle_alpha 90.000000
_cell_angle_beta 90.000000
_cell_angle_gamma 90.000000
_cell_volume 3117.012984
_symmetry_space_group_name_H-M "P N N M"
_symmetry_group_IT_number 58
_symmetry_cell_setting 'orthorhombic'
loop_
_space_group_symop_operation_xyz
x,y,z
-x,-y,z
1/2+x,1/2-y,1/2-z
1/2-x,1/2+y,1/2-z
-x,-y,-z
x,y,-z
1/2-x,1/2+y,1/2+z
1/2+x,1/2-y,1/2+z
loop_
_atom_site_type_symbol
_atom_site_label
_atom_site_fract_x
_atom_site_fract_y
_atom_site_fract_z
Si Si1 0.194061 0.811863 0.396131
Si Si2 0.481540 0.370422 0.607455
Si Si3 0.096266 0.949956 0.284944
Si Si4 0.101879 0.685557 0.104347
Si Si5 0.397093 0.921476 0.602354
Si Si6 0.725906 0.371375 0.393066
Si Si7 0.202097 0.552753 0.780151
O O1 0.156006 0.816225 0.500000
O O2 0.118131 0.861747 0.331368
O O3 0.301433 0.860133 0.392405
O O4 0.222785 0.717789 0.375963
O O5 0.469989 0.392186 0.500000
O O6 0.425464 0.430820 0.678189
O O7 0.431390 0.279910 0.621213
O O8 0.603763 0.367834 0.627401
O O9 0.192002 0.008473 0.304620
O O10 0.000000 0.000000 0.321135
O O11 0.180648 0.640438 0.171399
O O12 0.997865 0.632642 0.110331
O O13 0.139371 0.680474 0.000000
O O14 0.394392 0.959774 0.500000
O O15 0.381150 0.989798 0.679608
O O16 0.734911 0.390563 0.500000
O O17 0.785944 0.433220 0.327301
#
# Coordination Sequence:
#
# PCOD9442357 Si02
#       7
#     8   8   8   8   8   8   8
#     4   9  18  34  55  76 103 142 181 215 257 312
#     4  10  20  36  58  79 104 138 178 227 267 303
#     4  11  22  35  50  80 117 143 173 208 263 326
#     4  10  19  35  60  85 105 132 176 227 275 313
#     4   9  17  32  55  83 109 130 167 224 278 314
#     4  10  19  35  56  76 102 144 188 220 257 308
#     4  11  21  31  51  82 111 140 170 217 270 320
#
# _framework density 17.965917999999999
#
# number of rings (size 3 to 8) (size 9 to 14) (size 15 to 20)
#    0.000    2.000    2.857    1.714    0.000    2.857 
#    0.000    0.000    0.000    1.714    0.000    0.000 
#    0.000    0.000    0.000    0.000    0.000    0.000 
#
# Total GULP energy -312133.098727 kJ/mol
# GULP energy per Si atom -5573.805334 kJ/mol
# Density = 1.792503 g / cm^3
# Si number density = 17.965918 Si / 1000 Ang^3
#
#
#
# Elastic Constant Matrix: (Units=GPa)
#
#
# Indices 1 2 3 4 5 6 
#
# 1 65.1738 21.4755 32.6076 0.0000 0.0000 0.0000
# 2 21.4755 50.5261 27.8646 0.0000 0.0000 0.0000
# 3 32.6076 27.8646 72.9918 0.0000 0.0000 0.0000
# 4 0.0000 0.0000 0.0000 36.3097 0.0000 0.0000
# 5 0.0000 0.0000 0.0000 0.0000 20.5785 0.0000
# 6 0.0000 0.0000 0.0000 0.0000 0.0000 24.0217
#
#
#
# Elastic Compliance Matrix: (Units=1/GPa)
#
#
# Indices 1 2 3 4 5 6 
#
# 1 0.020591 -0.004660 -0.007420 0.000000 0.000000 0.000000
# 2 -0.004660 0.026124 -0.007891 0.000000 0.000000 0.000000
# 3 -0.007420 -0.007891 0.020027 0.000000 0.000000 0.000000
# 4 0.000000 0.000000 0.000000 0.027541 0.000000 0.000000
# 5 0.000000 0.000000 0.000000 0.000000 0.048594 0.000000
# 6 0.000000 0.000000 0.000000 0.000000 0.000000 0.041629
#
#
# Mechanical properties :
#
#
# Convention : Reuss Voigt Hill
#
# Bulk Modulus (GPa) = 37.31225 39.17634 38.24429
# Shear Modulus (GPa) = 21.42400 23.29825 22.36113
#
# Velocity S-wave (km/s) = 3.45698 3.60502 3.53178
# Velocity P-wave (km/s) = 6.06199 6.25951 6.16154
#
# Compressibility (1/GPa) = 0.02680085
#
# Stress axis : x y z
#
# Youngs Moduli (GPa) = 48.56391 38.27841 49.93203
#
# Poissons Ratio (x) = 0.17839 0.37048
# Poissons Ratio (y) = 0.22632 0.39402
# Poissons Ratio (z) = 0.36033 0.30206
#
# Static dielectric constant tensor:
#      x y z
#    x 1.597850 0.000000 0.000000 
#    y 0.000000 1.652260 0.000000 
#    z 0.000000 0.000000 1.630620 
# 
# From -- ./inp_files/21263.got.cif
#   From: 2010.05.17/outbox.cif.g08.bks.cpg/sg58_11_cif.got.tgz:21263.got - 2010.06.03 14:20:14.
