data_PCOD9442272
_publ_section_title
;
Structure prediction by ZEFSAII (Michael W. Deem and Ramdas Pophale) SiO2 
 PCOD9442272
Probable space group: P N N M
;
_chemical_formula_sum "Si O2"
_cell_formula_units_Z 40
_cell_length_a 17.458914
_cell_length_b 12.634279
_cell_length_c 7.750139
_cell_angle_alpha 90.000000
_cell_angle_beta 90.000000
_cell_angle_gamma 90.000000
_cell_volume 1709.531787
_symmetry_space_group_name_H-M "P N N M"
_symmetry_group_IT_number 58
_symmetry_cell_setting 'orthorhombic'
loop_
_space_group_symop_operation_xyz
x,y,z
-x,-y,z
1/2+x,1/2-y,1/2-z
1/2-x,1/2+y,1/2-z
-x,-y,-z
x,y,-z
1/2-x,1/2+y,1/2+z
1/2+x,1/2-y,1/2+z
loop_
_atom_site_type_symbol
_atom_site_label
_atom_site_fract_x
_atom_site_fract_y
_atom_site_fract_z
Si Si1 0.087564 0.025483 0.792985
Si Si2 0.960733 0.354368 0.802885
Si Si3 0.614401 0.054080 0.806533
Si Si4 0.314061 0.732477 0.208652
Si Si5 0.655437 0.689317 0.710502
O O1 0.145636 0.931965 0.732709
O O2 0.128045 0.138632 0.758183
O O3 0.082874 0.017748 0.000000
O O4 0.000000 0.000000 0.730347
O O5 0.896977 0.446622 0.796598
O O6 0.923326 0.246939 0.742373
O O7 0.030041 0.393853 0.689166
O O8 0.987850 0.344063 0.000000
O O9 0.661826 0.150163 0.730087
O O10 0.641475 0.029604 0.000000
O O11 0.225541 0.735720 0.266948
O O12 0.316312 0.734426 0.000000
O O13 0.659041 0.689026 0.500000
#
# Coordination Sequence:
#
# PCOD9442272 Si02
#       5
#     8   8   8   8   8
#     4  10  21  39  63  87 113 151 197 239 284 341
#     4  10  19  34  58  81 107 143 186 230 272 329
#     4  10  20  34  54  80 113 146 179 224 280 335
#     4  10  22  38  56  81 116 152 185 231 287 338
#     4   9  20  37  56  81 115 148 183 235 288 331
#
# _framework density 23.398219000000001
#
# number of rings (size 3 to 8) (size 9 to 14) (size 15 to 20)
#    0.000    2.200    0.000    3.600    2.800    3.600 
#    0.000    4.000    0.000    0.000    0.000    0.000 
#    0.000    0.000    0.000    0.000    0.000    0.000 
#
# Total GULP energy -222980.187365 kJ/mol
# GULP energy per Si atom -5574.504684 kJ/mol
# Density = 2.334496 g / cm^3
# Si number density = 23.398219 Si / 1000 Ang^3
#
#
#
# Elastic Constant Matrix: (Units=GPa)
#
#
# Indices 1 2 3 4 5 6 
#
# 1 75.1605 7.7739 -0.0294 0.0000 0.0000 0.0000
# 2 7.7739 40.7769 -6.9253 0.0000 0.0000 0.0000
# 3 -0.0294 -6.9253 39.2050 0.0000 0.0000 0.0000
# 4 0.0000 0.0000 0.0000 20.8770 0.0000 0.0000
# 5 0.0000 0.0000 0.0000 0.0000 7.4074 0.0000
# 6 0.0000 0.0000 0.0000 0.0000 0.0000 40.7031
#
#
#
# Elastic Compliance Matrix: (Units=1/GPa)
#
#
# Indices 1 2 3 4 5 6 
#
# 1 0.013581 -0.002667 -0.000461 0.000000 0.000000 0.000000
# 2 -0.002667 0.025806 0.004556 0.000000 0.000000 0.000000
# 3 -0.000461 0.004556 0.026311 0.000000 0.000000 0.000000
# 4 0.000000 0.000000 0.000000 0.047899 0.000000 0.000000
# 5 0.000000 0.000000 0.000000 0.000000 0.135001 0.000000
# 6 0.000000 0.000000 0.000000 0.000000 0.000000 0.024568
#
#
# Mechanical properties :
#
#
# Convention : Reuss Voigt Hill
#
# Bulk Modulus (GPa) = 14.58697 17.42010 16.00353
# Shear Modulus (GPa) = 17.05544 24.08570 20.57057
#
# Velocity S-wave (km/s) = 2.70278 3.21188 2.96826
# Velocity P-wave (km/s) = 3.99847 4.60609 4.31300
#
# Compressibility (1/GPa) = 0.06855434
#
# Stress axis : x y z
#
# Youngs Moduli (GPa) = 73.63456 38.75055 38.00623
#
# Poissons Ratio (x) = 0.10336 0.01752
# Poissons Ratio (y) = 0.19641 -0.17317
# Poissons Ratio (z) = 0.03395 -0.17657
#
# Static dielectric constant tensor:
#      x y z
#    x 1.999480 0.000000 0.000000 
#    y 0.000000 1.896060 0.000000 
#    z 0.000000 0.000000 1.848200 
# 
# From -- ./inp_files/7443.got.cif
#   From: 2010.05.17/outbox.cif.g08.bks.cpg/sg58_4_cif.got.tgz:7443.got - 2010.06.03 14:20:14.
