data_PCOD9442550
_publ_section_title
;
Structure prediction by ZEFSAII (Michael W. Deem and Ramdas Pophale) SiO2 
 PCOD9442550
Probable space group: P N N M
;
_chemical_formula_sum "Si O2"
_cell_formula_units_Z 48
_cell_length_a 29.795879
_cell_length_b 10.137530
_cell_length_c 9.120198
_cell_angle_alpha 90.000000
_cell_angle_beta 90.000000
_cell_angle_gamma 90.000000
_cell_volume 2754.816156
_symmetry_space_group_name_H-M "P N N M"
_symmetry_group_IT_number 58
_symmetry_cell_setting 'orthorhombic'
loop_
_space_group_symop_operation_xyz
x,y,z
-x,-y,z
1/2+x,1/2-y,1/2-z
1/2-x,1/2+y,1/2-z
-x,-y,-z
x,y,-z
1/2-x,1/2+y,1/2+z
1/2+x,1/2-y,1/2+z
loop_
_atom_site_type_symbol
_atom_site_label
_atom_site_fract_x
_atom_site_fract_y
_atom_site_fract_z
Si Si1 0.288529 0.699826 0.324553
Si Si2 0.026728 0.135442 0.827870
Si Si3 0.783525 0.490077 0.174793
Si Si4 0.472484 0.135442 0.826787
Si Si5 0.616649 0.292282 0.172623
Si Si6 0.622729 0.979160 0.172665
O O1 0.289868 0.685352 0.500000
O O2 0.252628 0.601282 0.254562
O O3 0.277143 0.853774 0.291666
O O4 0.337445 0.673615 0.255686
O O5 0.073458 0.138328 0.740875
O O6 0.995707 0.252339 0.767138
O O7 0.035886 0.154576 0.000000
O O8 0.000000 0.000000 0.807649
O O9 0.833186 0.454026 0.232424
O O10 0.780653 0.473434 0.000000
O O11 0.420754 0.106509 0.788394
O O12 0.500000 0.000000 0.808152
O O13 0.474846 0.169488 0.000000
O O14 0.610213 0.133855 0.189151
O O15 0.620812 0.320368 0.000000
O O16 0.632902 0.958611 0.000000
#
# Coordination Sequence:
#
# PCOD9442550 Si02
#       6
#     8   8   8   8   8   8
#     4  10  21  38  60  86 115 146 185 232 280 332
#     4  11  24  39  54  80 118 154 189 230 278 332
#     4  10  21  37  58  85 114 147 188 228 277 337
#     4  10  19  36  60  86 111 142 187 233 277 330
#     4  10  19  36  61  84 110 148 189 228 279 337
#     4   9  18  34  58  85 112 142 182 234 283 329
#
# _framework density 17.424030999999999
#
# number of rings (size 3 to 8) (size 9 to 14) (size 15 to 20)
#    0.000    2.000    1.667    2.000    0.000    5.000 
#    3.000    0.000    0.000    0.000    0.000    0.000 
#    0.000    0.000    0.000    0.000    0.000    0.000 
#
# Total GULP energy -268015.013211 kJ/mol
# GULP energy per Si atom -5583.646109 kJ/mol
# Density = 1.738437 g / cm^3
# Si number density = 17.424031 Si / 1000 Ang^3
#
#
#
# Elastic Constant Matrix: (Units=GPa)
#
#
# Indices 1 2 3 4 5 6 
#
# 1 145.4523 63.1863 86.2762 0.0000 0.0000 0.0000
# 2 63.1863 53.9776 59.8323 0.0000 0.0000 0.0000
# 3 86.2762 59.8323 94.0324 0.0000 0.0000 0.0000
# 4 0.0000 0.0000 0.0000 31.9213 0.0000 0.0000
# 5 0.0000 0.0000 0.0000 0.0000 37.0585 0.0000
# 6 0.0000 0.0000 0.0000 0.0000 0.0000 27.3855
#
#
#
# Elastic Compliance Matrix: (Units=1/GPa)
#
#
# Indices 1 2 3 4 5 6 
#
# 1 0.016136 -0.008409 -0.009455 0.000000 0.000000 0.000000
# 2 -0.008409 0.067248 -0.035075 0.000000 0.000000 0.000000
# 3 -0.009455 -0.035075 0.041627 0.000000 0.000000 0.000000
# 4 0.000000 0.000000 0.000000 0.031327 0.000000 0.000000
# 5 0.000000 0.000000 0.000000 0.000000 0.026984 0.000000
# 6 0.000000 0.000000 0.000000 0.000000 0.000000 0.036516
#
#
# Mechanical properties :
#
#
# Convention : Reuss Voigt Hill
#
# Bulk Modulus (GPa) = 52.25847 79.11689 65.68768
# Shear Modulus (GPa) = 15.05601 24.88424 19.97012
#
# Velocity S-wave (km/s) = 2.94274 3.78320 3.38912
# Velocity P-wave (km/s) = 6.45008 8.03671 7.28671
#
# Compressibility (1/GPa) = 0.01913566
#
# Stress axis : x y z
#
# Youngs Moduli (GPa) = 61.97280 14.87023 24.02280
#
# Poissons Ratio (x) = 0.12504 0.22713
# Poissons Ratio (y) = 0.52112 0.84259
# Poissons Ratio (z) = 0.58593 0.52157
#
# Static dielectric constant tensor:
#      x y z
#    x 1.569840 0.000000 0.000000 
#    y 0.000000 1.572420 0.000000 
#    z 0.000000 0.000000 1.580240 
# 
# From -- ./inp_files/2891.got.cif
#   From: 2010.05.17/outbox.cif.g08.bks.cpg/sg58_2_cif.got.tgz:2891.got - 2010.06.03 14:20:14.
