data_PCOD9442928
_publ_section_title
;
Structure prediction by ZEFSAII (Michael W. Deem and Ramdas Pophale) SiO2 
 PCOD9442928
Probable space group: P N N M
;
_chemical_formula_sum "Si O2"
_cell_formula_units_Z 64
_cell_length_a 28.907839
_cell_length_b 13.171909
_cell_length_c 7.771020
_cell_angle_alpha 90.000000
_cell_angle_beta 90.000000
_cell_angle_gamma 90.000000
_cell_volume 2958.982357
_symmetry_space_group_name_H-M "P N N M"
_symmetry_group_IT_number 58
_symmetry_cell_setting 'orthorhombic'
loop_
_space_group_symop_operation_xyz
x,y,z
-x,-y,z
1/2+x,1/2-y,1/2-z
1/2-x,1/2+y,1/2-z
-x,-y,-z
x,y,-z
1/2-x,1/2+y,1/2+z
1/2+x,1/2-y,1/2+z
loop_
_atom_site_type_symbol
_atom_site_label
_atom_site_fract_x
_atom_site_fract_y
_atom_site_fract_z
Si Si1 0.128870 0.604855 0.695631
Si Si2 0.209714 0.735565 0.701424
Si Si3 0.482969 0.609088 0.292945
Si Si4 0.310489 0.667670 0.798625
Si Si5 0.079532 0.806251 0.791331
Si Si6 0.950212 0.544137 0.711552
Si Si7 0.405595 0.750353 0.799037
Si Si8 0.162368 0.943323 0.799202
O O1 0.138709 0.570655 0.500000
O O2 0.177048 0.644806 0.774947
O O3 0.099316 0.707963 0.700381
O O4 0.093831 0.522619 0.771362
O O5 0.197819 0.744128 0.500000
O O6 0.262573 0.703791 0.718382
O O7 0.195776 0.844895 0.778530
O O8 0.500000 0.500000 0.233648
O O9 0.477653 0.605218 0.500000
O O10 0.526060 0.681019 0.250456
O O11 0.435781 0.649278 0.217449
O O12 0.355066 0.727419 0.724687
O O13 0.319750 0.546886 0.783736
O O14 0.306794 0.691695 0.000000
O O15 0.112117 0.901317 0.740884
O O16 0.084209 0.795938 0.000000
O O17 0.951606 0.540355 0.500000
O O18 0.937115 0.657774 0.769628
O O19 0.000000 0.500000 0.768793
O O20 0.398719 0.773443 0.000000
O O21 0.158257 0.967201 0.000000
#
# Coordination Sequence:
#
# PCOD9442928 Si02
#       8
#     8   8   8   8   8   8   8   8
#     4   9  18  33  55  80 105 138 181 226 270 325
#     4  10  21  37  58  85 113 145 191 240 289 346
#     4  10  20  34  52  75 105 140 177 218 269 331
#     4  11  23  38  56  81 114 148 187 236 288 344
#     4   9  18  32  52  78 106 137 175 221 272 325
#     4   9  17  32  55  81 110 144 180 220 273 335
#     4  10  22  37  54  80 111 144 185 232 279 332
#     4  10  20  37  60  82 109 146 185 230 285 338
#
# _framework density 21.629057
#
# number of rings (size 3 to 8) (size 9 to 14) (size 15 to 20)
#    0.000    2.250    0.000    2.625    0.000    5.750 
#    0.000    3.125    0.000    2.250    0.000    0.000 
#    0.000    0.000    0.000    0.000    0.000    0.000 
#
# Total GULP energy -357091.381713 kJ/mol
# GULP energy per Si atom -5579.552839 kJ/mol
# Density = 2.157983 g / cm^3
# Si number density = 21.629057 Si / 1000 Ang^3
#
#
#
# Elastic Constant Matrix: (Units=GPa)
#
#
# Indices 1 2 3 4 5 6 
#
# 1 144.4264 46.0239 -4.3153 0.0000 0.0000 0.0000
# 2 46.0239 81.9963 -8.0153 0.0000 0.0000 0.0000
# 3 -4.3153 -8.0153 26.8021 0.0000 0.0000 0.0000
# 4 0.0000 0.0000 0.0000 -6.4493 0.0000 0.0000
# 5 0.0000 0.0000 0.0000 0.0000 15.5564 0.0000
# 6 0.0000 0.0000 0.0000 0.0000 0.0000 29.2540
#
#
#
# Elastic Compliance Matrix: (Units=1/GPa)
#
#
# Indices 1 2 3 4 5 6 
#
# 1 0.008432 -0.004739 -0.000060 0.000000 0.000000 0.000000
# 2 -0.004739 0.015226 0.003790 0.000000 0.000000 0.000000
# 3 -0.000060 0.003790 0.038434 0.000000 0.000000 0.000000
# 4 0.000000 0.000000 0.000000 -0.155056 0.000000 0.000000
# 5 0.000000 0.000000 0.000000 0.000000 0.064282 0.000000
# 6 0.000000 0.000000 0.000000 0.000000 0.000000 0.034183
#
#
# Mechanical properties :
#
#
# Convention : Reuss Voigt Hill
#
# Bulk Modulus (GPa) = 16.64529 35.62349 26.13439
# Shear Modulus (GPa) = 181.52662 22.30766 101.91714
#
# Velocity S-wave (km/s) = 9.17112 3.21499 6.87188
# Velocity P-wave (km/s) = 10.94798 5.50341 8.66446
#
# Compressibility (1/GPa) = 0.06007706
#
# Stress axis : x y z
#
# Youngs Moduli (GPa) = 118.59233 65.67702 26.01832
#
# Poissons Ratio (x) = 0.31123 0.00155
# Poissons Ratio (y) = 0.56198 -0.09862
# Poissons Ratio (z) = 0.00706 -0.24895
#
# Static dielectric constant tensor:
#      x y z
#    x 1.794170 0.000000 0.000000 
#    y 0.000000 1.801400 0.000000 
#    z 0.000000 0.000000 1.807810 
# 
# From -- ./inp_files/11005.got.cif
#   From: 2010.05.17/outbox.cif.g08.bks.cpg/sg58_6_cif.got.tgz:11005.got - 2010.06.03 14:20:14.
