data_PCOD9442219
_publ_section_title
;
Structure prediction by ZEFSAII (Michael W. Deem and Ramdas Pophale) SiO2 
 PCOD9442219
Probable space group: P N N M
;
_chemical_formula_sum "Si O2"
_cell_formula_units_Z 40
_cell_length_a 27.305298
_cell_length_b 8.160384
_cell_length_c 7.555523
_cell_angle_alpha 90.000000
_cell_angle_beta 90.000000
_cell_angle_gamma 90.000000
_cell_volume 1683.534607
_symmetry_space_group_name_H-M "P N N M"
_symmetry_group_IT_number 58
_symmetry_cell_setting 'orthorhombic'
loop_
_space_group_symop_operation_xyz
x,y,z
-x,-y,z
1/2+x,1/2-y,1/2-z
1/2-x,1/2+y,1/2-z
-x,-y,-z
x,y,-z
1/2-x,1/2+y,1/2+z
1/2+x,1/2-y,1/2+z
loop_
_atom_site_type_symbol
_atom_site_label
_atom_site_fract_x
_atom_site_fract_y
_atom_site_fract_z
Si Si1 0.080426 0.925831 0.000000
Si Si2 0.917999 0.594668 0.289263
Si Si3 0.636245 0.747478 0.205218
Si Si4 0.676734 0.278160 0.797645
Si Si5 0.018917 0.261397 0.000000
Si Si6 0.730496 0.947422 0.286793
O O1 0.114416 0.891666 0.169695
O O2 0.037345 0.789301 0.000000
O O3 0.050620 0.093679 0.000000
O O4 0.926016 0.615133 0.500000
O O5 0.895738 0.413457 0.263129
O O6 0.875108 0.719627 0.225186
O O7 0.964400 0.638749 0.172522
O O8 0.691756 0.803006 0.244916
O O9 0.632021 0.704218 0.000000
O O10 0.715247 0.405562 0.719071
O O11 0.707998 0.109645 0.796364
O O12 0.667780 0.327774 0.000000
O O13 0.731918 0.966985 0.500000
#
# Coordination Sequence:
#
# PCOD9442219 Si02
#       6
#     4   8   8   8   4   8
#     4  11  25  43  59  91 121 153 203 245 314 367
#     4   9  20  40  62  87 118 156 200 247 300 352
#     4  10  21  40  64  87 120 157 198 253 298 353
#     4   9  20  35  52  83 120 153 196 240 285 346
#     4  11  25  41  63  87 121 157 195 257 302 365
#     4  10  19  34  56  84 119 156 197 240 286 346
#
# _framework density 23.759536000000001
#
# number of rings (size 3 to 8) (size 9 to 14) (size 15 to 20)
#    0.000    2.200    1.000    2.400    4.200    6.400 
#    0.000    6.000    0.000    0.000    0.000    0.000 
#    0.000    0.000    0.000    0.000    0.000    0.000 
#
# Total GULP energy -223821.560433 kJ/mol
# GULP energy per Si atom -5595.539011 kJ/mol
# Density = 2.370546 g / cm^3
# Si number density = 23.759536 Si / 1000 Ang^3
#
#
#
# Elastic Constant Matrix: (Units=GPa)
#
#
# Indices 1 2 3 4 5 6 
#
# 1 108.2936 30.5364 27.8862 0.0000 0.0000 0.0000
# 2 30.5364 80.2129 14.2768 0.0000 0.0000 0.0000
# 3 27.8862 14.2768 103.5962 0.0000 0.0000 0.0000
# 4 0.0000 0.0000 0.0000 17.4152 0.0000 0.0000
# 5 0.0000 0.0000 0.0000 0.0000 18.9613 0.0000
# 6 0.0000 0.0000 0.0000 0.0000 0.0000 56.1728
#
#
#
# Elastic Compliance Matrix: (Units=1/GPa)
#
#
# Indices 1 2 3 4 5 6 
#
# 1 0.010907 -0.003721 -0.002423 0.000000 0.000000 0.000000
# 2 -0.003721 0.014050 -0.000935 0.000000 0.000000 0.000000
# 3 -0.002423 -0.000935 0.010434 0.000000 0.000000 0.000000
# 4 0.000000 0.000000 0.000000 0.057421 0.000000 0.000000
# 5 0.000000 0.000000 0.000000 0.000000 0.052739 0.000000
# 6 0.000000 0.000000 0.000000 0.000000 0.000000 0.017802
#
#
# Mechanical properties :
#
#
# Convention : Reuss Voigt Hill
#
# Bulk Modulus (GPa) = 47.09582 48.61127 47.85354
# Shear Modulus (GPa) = 27.08723 33.13676 30.11200
#
# Velocity S-wave (km/s) = 3.38014 3.73858 3.56387
# Velocity P-wave (km/s) = 5.92441 6.25620 6.09257
#
# Compressibility (1/GPa) = 0.02123331
#
# Stress axis : x y z
#
# Youngs Moduli (GPa) = 91.68078 71.17573 95.84093
#
# Poissons Ratio (x) = 0.26485 0.23225
# Poissons Ratio (y) = 0.34115 0.08957
# Poissons Ratio (z) = 0.22217 0.06652
#
# Static dielectric constant tensor:
#      x y z
#    x 1.860120 0.000000 0.000000 
#    y 0.000000 1.939860 0.000000 
#    z 0.000000 0.000000 1.836130 
# 
# From -- ./inp_files/10291.got.cif
#   From: 2010.05.17/outbox.cif.g08.bks.cpg/sg58_6_cif.got.tgz:10291.got - 2010.06.03 14:20:14.
