data_PCOD9442098
_publ_section_title
;
Structure prediction by ZEFSAII (Michael W. Deem and Ramdas Pophale) SiO2 
 PCOD9442098
Probable space group: P N N M
;
_chemical_formula_sum "Si O2"
_cell_formula_units_Z 40
_cell_length_a 9.952406
_cell_length_b 10.621554
_cell_length_c 20.454659
_cell_angle_alpha 90.000000
_cell_angle_beta 90.000000
_cell_angle_gamma 90.000000
_cell_volume 2162.262366
_symmetry_space_group_name_H-M "P N N M"
_symmetry_group_IT_number 58
_symmetry_cell_setting 'orthorhombic'
loop_
_space_group_symop_operation_xyz
x,y,z
-x,-y,z
1/2+x,1/2-y,1/2-z
1/2-x,1/2+y,1/2-z
-x,-y,-z
x,y,-z
1/2-x,1/2+y,1/2+z
1/2+x,1/2-y,1/2+z
loop_
_atom_site_type_symbol
_atom_site_label
_atom_site_fract_x
_atom_site_fract_y
_atom_site_fract_z
Si Si1 0.913040 0.872353 0.124974
Si Si2 0.483322 0.678841 0.773783
Si Si3 0.120734 0.572372 0.326958
Si Si4 0.730506 0.498401 0.197864
Si Si5 0.119938 0.398273 0.071661
O O1 0.755439 0.908561 0.131346
O O2 0.926964 0.747036 0.080976
O O3 0.950525 0.820413 0.197157
O O4 0.000000 0.000000 0.111082
O O5 0.549068 0.801060 0.803811
O O6 0.343623 0.637253 0.808656
O O7 0.604745 0.581068 0.780455
O O8 0.167122 0.506737 0.258541
O O9 0.000000 0.500000 0.361748
O O10 0.789837 0.558328 0.132716
O O11 0.000000 0.500000 0.072447
O O12 0.186297 0.407360 0.000000
#
# Coordination Sequence:
#
# PCOD9442098 Si02
#       5
#     8   8   8   8   8
#     4  11  21  38  60  88 121 156 201 248 310 361
#     4  10  19  33  56  88 118 149 192 246 314 358
#     4  11  21  31  58  91 124 151 189 255 314 362
#     4  10  19  35  55  84 116 155 189 243 299 359
#     4  11  24  41  61  85 119 167 209 242 287 363
#
# _framework density 18.499141999999999
#
# number of rings (size 3 to 8) (size 9 to 14) (size 15 to 20)
#    0.000    1.400    6.000    3.000    2.800    2.000 
#    0.000    2.000    0.000    0.600    0.000    0.000 
#    0.000    0.000    0.000    0.000    0.000    0.000 
#
# Total GULP energy -222774.758202 kJ/mol
# GULP energy per Si atom -5569.368955 kJ/mol
# Density = 1.845704 g / cm^3
# Si number density = 18.499142 Si / 1000 Ang^3
#
#
#
# Elastic Constant Matrix: (Units=GPa)
#
#
# Indices 1 2 3 4 5 6 
#
# 1 100.6605 40.9020 9.8901 0.0000 0.0000 0.0000
# 2 40.9020 89.7489 18.7787 0.0000 0.0000 0.0000
# 3 9.8901 18.7787 53.2781 0.0000 0.0000 0.0000
# 4 0.0000 0.0000 0.0000 24.6783 0.0000 0.0000
# 5 0.0000 0.0000 0.0000 0.0000 182.0917 0.0000
# 6 0.0000 0.0000 0.0000 0.0000 0.0000 36.8972
#
#
#
# Elastic Compliance Matrix: (Units=1/GPa)
#
#
# Indices 1 2 3 4 5 6 
#
# 1 0.012198 -0.005490 -0.000329 0.000000 0.000000 0.000000
# 2 -0.005490 0.014500 -0.004092 0.000000 0.000000 0.000000
# 3 -0.000329 -0.004092 0.020273 0.000000 0.000000 0.000000
# 4 0.000000 0.000000 0.000000 0.040521 0.000000 0.000000
# 5 0.000000 0.000000 0.000000 0.000000 0.005492 0.000000
# 6 0.000000 0.000000 0.000000 0.000000 0.000000 0.027102
#
#
# Mechanical properties :
#
#
# Convention : Reuss Voigt Hill
#
# Bulk Modulus (GPa) = 36.83419 42.53656 39.68537
# Shear Modulus (GPa) = 33.56662 60.34122 46.95392
#
# Velocity S-wave (km/s) = 4.26431 5.71745 5.04349
# Velocity P-wave (km/s) = 6.64833 8.16268 7.44411
#
# Compressibility (1/GPa) = 0.02714869
#
# Stress axis : x y z
#
# Youngs Moduli (GPa) = 81.98394 68.96393 49.32733
#
# Poissons Ratio (x) = 0.37861 0.01624
# Poissons Ratio (y) = 0.45009 0.20183
# Poissons Ratio (z) = 0.02699 0.28218
#
# Static dielectric constant tensor:
#      x y z
#    x 1.845760 0.000000 0.000000 
#    y 0.000000 0.994280 0.000000 
#    z 0.000000 0.000000 1.615630 
# 
# From -- ./inp_files/24949.got.cif
#   From: 2010.05.17/outbox.cif.g08.bks.cpg/sg58_13_cif.got.tgz:24949.got - 2010.06.03 14:20:14.
