data_PCOD9442635
_publ_section_title
;
Structure prediction by ZEFSAII (Michael W. Deem and Ramdas Pophale) SiO2 
 PCOD9442635
Probable space group: P N N M
;
_chemical_formula_sum "Si O2"
_cell_formula_units_Z 58
_cell_length_a 16.802247
_cell_length_b 18.863340
_cell_length_c 9.307455
_cell_angle_alpha 90.000000
_cell_angle_beta 90.000000
_cell_angle_gamma 90.000000
_cell_volume 2949.965267
_symmetry_space_group_name_H-M "P N N M"
_symmetry_group_IT_number 58
_symmetry_cell_setting 'orthorhombic'
loop_
_space_group_symop_operation_xyz
x,y,z
-x,-y,z
1/2+x,1/2-y,1/2-z
1/2-x,1/2+y,1/2-z
-x,-y,-z
x,y,-z
1/2-x,1/2+y,1/2+z
1/2+x,1/2-y,1/2+z
loop_
_atom_site_type_symbol
_atom_site_label
_atom_site_fract_x
_atom_site_fract_y
_atom_site_fract_z
Si Si1 0.703799 0.928615 0.830491
Si Si2 0.490473 0.421475 0.705826
Si Si3 0.072136 0.302608 0.828121
Si Si4 0.306470 0.924046 0.670536
Si Si5 0.095292 0.707169 0.668497
Si Si6 0.500000 0.500000 0.000000
Si Si7 0.828859 0.164141 0.165387
Si Si8 0.651445 0.335838 0.664688
O O1 0.634454 0.870479 0.821126
O O2 0.782764 0.888307 0.772343
O O3 0.687977 0.998792 0.740493
O O4 0.715360 0.947390 0.000000
O O5 0.500000 0.500000 0.642672
O O6 0.490066 0.439258 0.874416
O O7 0.410190 0.381812 0.664638
O O8 0.566725 0.374703 0.667867
O O9 0.113125 0.378543 0.809877
O O10 0.134553 0.242284 0.776270
O O11 0.990457 0.293615 0.743742
O O12 0.058823 0.291078 0.000000
O O13 0.289973 0.928293 0.500000
O O14 0.236703 0.881109 0.750187
O O15 0.089467 0.725831 0.500000
O O16 0.150583 0.763799 0.750236
O O17 0.805521 0.177472 0.000000
O O18 0.678860 0.325030 0.500000
#
# Coordination Sequence:
#
# PCOD9442635 Si02
#       8
#     8   8   8   8   8   2   8   8
#     4  10  23  43  64  91 126 166 213 265 321 382
#     4  10  21  34  57  87 123 167 203 248 307 371
#     4  10  22  43  66  92 124 163 214 265 322 384
#     4  11  25  42  66  93 126 170 214 267 322 379
#     4  11  24  41  67  95 126 168 214 266 321 378
#     4   8  24  36  50  88 136 164 194 264 304 364
#     4  12  24  39  63  94 131 170 210 260 316 385
#     4  10  19  37  62  85 115 159 205 253 305 370
#
# _framework density 19.661249000000002
#
# number of rings (size 3 to 8) (size 9 to 14) (size 15 to 20)
#    0.414    1.103    1.379    3.310    1.931    7.172 
#    0.000    2.759    0.000    0.000    0.000    0.000 
#    0.000    0.000    0.000    0.000    0.000    0.000 
#
# Total GULP energy -323339.668535 kJ/mol
# GULP energy per Si atom -5574.821871 kJ/mol
# Density = 1.961650 g / cm^3
# Si number density = 19.661249 Si / 1000 Ang^3
#
#
#
# Elastic Constant Matrix: (Units=GPa)
#
#
# Indices 1 2 3 4 5 6 
#
# 1 24.9642 23.0281 16.8879 0.0000 0.0000 0.0000
# 2 23.0281 130.2660 56.7683 0.0000 0.0000 0.0000
# 3 16.8879 56.7683 135.6220 0.0000 0.0000 0.0000
# 4 0.0000 0.0000 0.0000 36.4864 0.0000 0.0000
# 5 0.0000 0.0000 0.0000 0.0000 26.9123 0.0000
# 6 0.0000 0.0000 0.0000 0.0000 0.0000 13.9115
#
#
#
# Elastic Compliance Matrix: (Units=1/GPa)
#
#
# Indices 1 2 3 4 5 6 
#
# 1 0.048852 -0.007320 -0.003019 0.000000 0.000000 0.000000
# 2 -0.007320 0.010486 -0.003478 0.000000 0.000000 0.000000
# 3 -0.003019 -0.003478 0.009205 0.000000 0.000000 0.000000
# 4 0.000000 0.000000 0.000000 0.027408 0.000000 0.000000
# 5 0.000000 0.000000 0.000000 0.000000 0.037158 0.000000
# 6 0.000000 0.000000 0.000000 0.000000 0.000000 0.071883
#
#
# Mechanical properties :
#
#
# Convention : Reuss Voigt Hill
#
# Bulk Modulus (GPa) = 24.44433 53.80235 39.12334
# Shear Modulus (GPa) = 20.30353 28.40654 24.35504
#
# Velocity S-wave (km/s) = 3.21700 3.80517 3.52338
# Velocity P-wave (km/s) = 5.12431 6.83593 6.04104
#
# Compressibility (1/GPa) = 0.04090928
#
# Stress axis : x y z
#
# Youngs Moduli (GPa) = 20.46989 95.36308 108.63559
#
# Poissons Ratio (x) = 0.69809 0.32798
# Poissons Ratio (y) = 0.14985 0.37781
# Poissons Ratio (z) = 0.06180 0.33165
#
# Static dielectric constant tensor:
#      x y z
#    x 1.680880 0.000000 0.000000 
#    y 0.000000 1.695310 0.000000 
#    z 0.000000 0.000000 1.682050 
# 
# From -- ./inp_files/7987.got.cif
#   From: 2010.05.17/outbox.cif.g08.bks.cpg/sg58_4_cif.got.tgz:7987.got - 2010.06.03 14:20:14.
