data_PCOD9442384
_publ_section_title
;
Structure prediction by ZEFSAII (Michael W. Deem and Ramdas Pophale) SiO2 
 PCOD9442384
Probable space group: P N N M
;
_chemical_formula_sum "Si O2"
_cell_formula_units_Z 56
_cell_length_a 15.030192
_cell_length_b 21.906481
_cell_length_c 8.209795
_cell_angle_alpha 90.000000
_cell_angle_beta 90.000000
_cell_angle_gamma 90.000000
_cell_volume 2703.145735
_symmetry_space_group_name_H-M "P N N M"
_symmetry_group_IT_number 58
_symmetry_cell_setting 'orthorhombic'
loop_
_space_group_symop_operation_xyz
x,y,z
-x,-y,z
1/2+x,1/2-y,1/2-z
1/2-x,1/2+y,1/2-z
-x,-y,-z
x,y,-z
1/2-x,1/2+y,1/2+z
1/2+x,1/2-y,1/2+z
loop_
_atom_site_type_symbol
_atom_site_label
_atom_site_fract_x
_atom_site_fract_y
_atom_site_fract_z
Si Si1 0.548670 0.869402 0.808964
Si Si2 0.242796 0.601068 0.300196
Si Si3 0.917773 0.543658 0.188798
Si Si4 0.225487 0.970712 0.188270
Si Si5 0.682989 0.267472 0.694593
Si Si6 0.980829 0.230227 0.311513
Si Si7 0.682921 0.661246 0.690571
O O1 0.639389 0.900345 0.748642
O O2 0.462197 0.890246 0.711822
O O3 0.561875 0.797339 0.797764
O O4 0.534915 0.884438 0.000000
O O5 0.242406 0.600566 0.500000
O O6 0.291279 0.538988 0.243817
O O7 0.281425 0.666140 0.247570
O O8 0.832261 0.535964 0.299383
O O9 0.000000 0.500000 0.235117
O O10 0.894334 0.533178 0.000000
O O11 0.191142 0.907207 0.263156
O O12 0.196056 0.972427 0.000000
O O13 0.680984 0.269292 0.500000
O O14 0.582539 0.262660 0.758275
O O15 0.747824 0.211480 0.741470
O O16 0.977728 0.211771 0.500000
O O17 0.917198 0.185249 0.213334
O O18 0.704486 0.656398 0.500000
#
# Coordination Sequence:
#
# PCOD9442384 Si02
#       7
#     8   8   8   8   8   8   8
#     4  10  19  35  58  79 106 150 197 234 278 343
#     4   9  18  36  60  83 108 148 198 239 280 337
#     4  11  22  32  47  81 120 149 181 229 292 352
#     4  10  21  38  59  81 111 154 199 240 284 346
#     4  11  22  40  64  90 119 156 199 248 298 349
#     4  11  23  40  61  88 118 154 199 247 296 352
#     4  11  23  39  61  91 121 154 196 245 300 355
#
# _framework density 20.716605000000001
#
# number of rings (size 3 to 8) (size 9 to 14) (size 15 to 20)
#    0.000    1.571    2.857    2.571    0.000    6.286 
#    0.000    2.143    0.000    4.286    0.000    0.000 
#    0.000    0.000    0.000    0.000    0.000    0.000 
#
# Total GULP energy -312519.797915 kJ/mol
# GULP energy per Si atom -5580.710677 kJ/mol
# Density = 2.066945 g / cm^3
# Si number density = 20.716605 Si / 1000 Ang^3
#
#
#
# Elastic Constant Matrix: (Units=GPa)
#
#
# Indices 1 2 3 4 5 6 
#
# 1 49.0088 16.3802 -7.0589 0.0000 0.0000 0.0000
# 2 16.3802 116.8774 14.3361 0.0000 0.0000 0.0000
# 3 -7.0589 14.3361 14.7722 0.0000 0.0000 0.0000
# 4 0.0000 0.0000 0.0000 20.8852 0.0000 0.0000
# 5 0.0000 0.0000 0.0000 0.0000 26.3725 0.0000
# 6 0.0000 0.0000 0.0000 0.0000 0.0000 34.3652
#
#
#
# Elastic Compliance Matrix: (Units=1/GPa)
#
#
# Indices 1 2 3 4 5 6 
#
# 1 0.024756 -0.005585 0.017250 0.000000 0.000000 0.000000
# 2 -0.005585 0.010972 -0.013317 0.000000 0.000000 0.000000
# 3 0.017250 -0.013317 0.088862 0.000000 0.000000 0.000000
# 4 0.000000 0.000000 0.000000 0.047881 0.000000 0.000000
# 5 0.000000 0.000000 0.000000 0.000000 0.037918 0.000000
# 6 0.000000 0.000000 0.000000 0.000000 0.000000 0.029099
#
#
# Mechanical properties :
#
#
# Convention : Reuss Voigt Hill
#
# Bulk Modulus (GPa) = 8.24503 25.33034 16.78769
# Shear Modulus (GPa) = 17.65399 26.79131 22.22265
#
# Velocity S-wave (km/s) = 2.92236 3.60005 3.27876
# Velocity P-wave (km/s) = 3.92115 5.43453 4.73865
#
# Compressibility (1/GPa) = 0.12128516
#
# Stress axis : x y z
#
# Youngs Moduli (GPa) = 40.39437 91.13891 11.25339
#
# Poissons Ratio (x) = 0.50905 -0.19412
# Poissons Ratio (y) = 0.22562 0.14987
# Poissons Ratio (z) = -0.69681 1.21373
#
# Static dielectric constant tensor:
#      x y z
#    x 1.710390 0.000000 0.000000 
#    y 0.000000 1.840660 0.000000 
#    z 0.000000 0.000000 1.742550 
# 
# From -- ./inp_files/6331.got.cif
#   From: 2010.05.17/outbox.cif.g08.bks.cpg/sg58_4_cif.got.tgz:6331.got - 2010.06.03 14:20:14.
