data_PCOD9442710
_publ_section_title
;
Structure prediction by ZEFSAII (Michael W. Deem and Ramdas Pophale) SiO2 
 PCOD9442710
Probable space group: P N N M
;
_chemical_formula_sum "Si O2"
_cell_formula_units_Z 44
_cell_length_a 5.064637
_cell_length_b 13.316237
_cell_length_c 25.156821
_cell_angle_alpha 90.000000
_cell_angle_beta 90.000000
_cell_angle_gamma 90.000000
_cell_volume 1696.623973
_symmetry_space_group_name_H-M "P N N M"
_symmetry_group_IT_number 58
_symmetry_cell_setting 'orthorhombic'
loop_
_space_group_symop_operation_xyz
x,y,z
-x,-y,z
1/2+x,1/2-y,1/2-z
1/2-x,1/2+y,1/2-z
-x,-y,-z
x,y,-z
1/2-x,1/2+y,1/2+z
1/2+x,1/2-y,1/2+z
loop_
_atom_site_type_symbol
_atom_site_label
_atom_site_fract_x
_atom_site_fract_y
_atom_site_fract_z
Si Si1 0.859307 0.394595 0.942078
Si Si2 0.824887 0.587179 0.561017
Si Si3 0.665035 0.611674 0.753768
Si Si4 0.684955 0.298607 0.411075
Si Si5 0.000000 0.500000 0.156842
Si Si6 0.338134 0.162984 0.207438
O O1 0.000000 0.500000 0.951034
O O2 0.057059 0.301754 0.934700
O O3 0.805170 0.425274 0.879028
O O4 0.711710 0.378632 0.000000
O O5 0.786696 0.558356 0.500000
O O6 0.536929 0.617000 0.579580
O O7 0.000000 0.500000 0.587767
O O8 0.027576 0.680652 0.564356
O O9 0.809387 0.566917 0.805790
O O10 0.623757 0.731599 0.762950
O O11 0.877623 0.610279 0.706231
O O12 0.365704 0.587569 0.736597
O O13 0.730846 0.302701 0.348824
#
# Coordination Sequence:
#
# PCOD9442710 Si02
#       6
#     8   8   8   8   4   8
#     4   9  19  38  68 104 139 176 227 268 327 414
#     4  11  25  44  67  94 128 171 223 275 340 405
#     4  10  21  39  63  85 126 165 218 259 324 380
#     4  12  22  44  71  97 135 175 214 281 344 383
#     4  10  19  40  60  96 132 184 207 278 320 396
#     4  10  21  40  60  92 119 166 215 270 313 393
#
# _framework density 25.933855999999999
#
# number of rings (size 3 to 8) (size 9 to 14) (size 15 to 20)
#    0.545    1.091    1.818    3.273    0.000    2.182 
#    9.818    2.727    0.000    3.273    0.000    0.000 
#    0.000    0.000    0.000    0.000    0.000    0.000 
#
# Total GULP energy -245074.145728 kJ/mol
# GULP energy per Si atom -5569.866948 kJ/mol
# Density = 2.587483 g / cm^3
# Si number density = 25.933856 Si / 1000 Ang^3
#
#
#
# Elastic Constant Matrix: (Units=GPa)
#
#
# Indices 1 2 3 4 5 6 
#
# 1 128.1360 -1.0578 20.0716 0.0000 0.0000 0.0000
# 2 -1.0578 61.4632 -2.0683 0.0000 0.0000 0.0000
# 3 20.0716 -2.0683 72.3857 0.0000 0.0000 0.0000
# 4 0.0000 0.0000 0.0000 61.3444 0.0000 0.0000
# 5 0.0000 0.0000 0.0000 0.0000 23.9611 0.0000
# 6 0.0000 0.0000 0.0000 0.0000 0.0000 25.9873
#
#
#
# Elastic Compliance Matrix: (Units=1/GPa)
#
#
# Indices 1 2 3 4 5 6 
#
# 1 0.008159 0.000064 -0.002260 0.000000 0.000000 0.000000
# 2 0.000064 0.016286 0.000448 0.000000 0.000000 0.000000
# 3 -0.002260 0.000448 0.014454 0.000000 0.000000 0.000000
# 4 0.000000 0.000000 0.000000 0.016301 0.000000 0.000000
# 5 0.000000 0.000000 0.000000 0.000000 0.041734 0.000000
# 6 0.000000 0.000000 0.000000 0.000000 0.000000 0.038480
#
#
# Mechanical properties :
#
#
# Convention : Reuss Voigt Hill
#
# Bulk Modulus (GPa) = 28.24691 32.87509 30.56100
# Shear Modulus (GPa) = 33.17555 38.59452 35.88503
#
# Velocity S-wave (km/s) = 3.58052 3.86189 3.72387
# Velocity P-wave (km/s) = 5.29236 5.70873 5.50449
#
# Compressibility (1/GPa) = 0.03540210
#
# Stress axis : x y z
#
# Youngs Moduli (GPa) = 122.56664 61.40218 69.18269
#
# Poissons Ratio (x) = -0.00395 0.15639
# Poissons Ratio (y) = -0.00789 -0.03096
# Poissons Ratio (z) = 0.27706 -0.02748
#
# Static dielectric constant tensor:
#      x y z
#    x 2.075410 0.000000 0.000000 
#    y 0.000000 2.164800 0.000000 
#    z 0.000000 0.000000 2.163360 
# 
# From -- ./inp_files/32769.got.cif
#   From: 2010.05.17/outbox.cif.g08.bks.cpg/sg58_17_cif.got.tgz:32769.got - 2010.06.03 14:20:14.
