data_PCOD9442246
_publ_section_title
;
Structure prediction by ZEFSAII (Michael W. Deem and Ramdas Pophale) SiO2 
 PCOD9442246
Probable space group: P N N M
;
_chemical_formula_sum "Si O2"
_cell_formula_units_Z 48
_cell_length_a 14.456726
_cell_length_b 20.723882
_cell_length_c 7.601962
_cell_angle_alpha 90.000000
_cell_angle_beta 90.000000
_cell_angle_gamma 90.000000
_cell_volume 2277.543891
_symmetry_space_group_name_H-M "P N N M"
_symmetry_group_IT_number 58
_symmetry_cell_setting 'orthorhombic'
loop_
_space_group_symop_operation_xyz
x,y,z
-x,-y,z
1/2+x,1/2-y,1/2-z
1/2-x,1/2+y,1/2-z
-x,-y,-z
x,y,-z
1/2-x,1/2+y,1/2+z
1/2+x,1/2-y,1/2+z
loop_
_atom_site_type_symbol
_atom_site_label
_atom_site_fract_x
_atom_site_fract_y
_atom_site_fract_z
Si Si1 0.561180 0.942850 0.201729
Si Si2 0.920129 0.187297 0.215206
Si Si3 0.455011 0.567296 0.715053
Si Si4 0.473929 0.813277 0.701951
Si Si5 0.274407 0.766784 0.208090
Si Si6 0.246186 0.114931 0.787022
O O1 0.498312 0.878959 0.202120
O O2 0.660795 0.920912 0.277125
O O3 0.500000 0.000000 0.284335
O O4 0.580864 0.963002 0.000000
O O5 0.813999 0.192373 0.269582
O O6 0.979156 0.126027 0.272078
O O7 0.968763 0.253012 0.275043
O O8 0.922328 0.187443 0.000000
O O9 0.500000 0.500000 0.771711
O O10 0.453847 0.567171 0.500000
O O11 0.349618 0.581422 0.770916
O O12 0.502726 0.823385 0.500000
O O13 0.368194 0.791302 0.706534
O O14 0.256612 0.690608 0.237717
O O15 0.284731 0.776374 0.000000
O O16 0.248126 0.113649 0.000000
#
# Coordination Sequence:
#
# PCOD9442246 Si02
#       6
#     8   8   8   8   8   8
#     4  10  22  38  57  86 121 153 191 243 296 347
#     4   9  18  32  52  80 110 140 184 234 278 331
#     4   9  17  31  54  82 109 142 183 230 281 336
#     4  11  21  37  58  83 114 149 193 239 284 344
#     4  11  21  34  56  85 114 149 189 238 289 338
#     4  10  19  34  57  83 112 149 191 236 287 345
#
# _framework density 21.075334999999999
#
# number of rings (size 3 to 8) (size 9 to 14) (size 15 to 20)
#    0.000    2.000    3.333    1.000    0.000    1.667 
#    0.000    5.000    0.000    0.500    0.000    0.000 
#    0.000    0.000    0.000    0.000    0.000    0.000 
#
# Total GULP energy -268057.500815 kJ/mol
# GULP energy per Si atom -5584.531267 kJ/mol
# Density = 2.102737 g / cm^3
# Si number density = 21.075335 Si / 1000 Ang^3
#
#
#
# Elastic Constant Matrix: (Units=GPa)
#
#
# Indices 1 2 3 4 5 6 
#
# 1 134.7032 41.4461 -4.0177 0.0000 0.0000 0.0000
# 2 41.4461 114.6792 -3.8069 0.0000 0.0000 0.0000
# 3 -4.0177 -3.8069 51.3315 0.0000 0.0000 0.0000
# 4 0.0000 0.0000 0.0000 7.7091 0.0000 0.0000
# 5 0.0000 0.0000 0.0000 0.0000 5.6513 0.0000
# 6 0.0000 0.0000 0.0000 0.0000 0.0000 34.4391
#
#
#
# Elastic Compliance Matrix: (Units=1/GPa)
#
#
# Indices 1 2 3 4 5 6 
#
# 1 0.008362 -0.003008 0.000431 0.000000 0.000000 0.000000
# 2 -0.003008 0.009823 0.000493 0.000000 0.000000 0.000000
# 3 0.000431 0.000493 0.019552 0.000000 0.000000 0.000000
# 4 0.000000 0.000000 0.000000 0.129716 0.000000 0.000000
# 5 0.000000 0.000000 0.000000 0.000000 0.176949 0.000000
# 6 0.000000 0.000000 0.000000 0.000000 0.000000 0.029037
#
#
# Mechanical properties :
#
#
# Convention : Reuss Voigt Hill
#
# Bulk Modulus (GPa) = 29.78808 40.88411 35.33610
# Shear Modulus (GPa) = 12.86022 27.36608 20.11315
#
# Velocity S-wave (km/s) = 2.47291 3.60736 3.09260
# Velocity P-wave (km/s) = 4.72424 6.06563 5.43647
#
# Compressibility (1/GPa) = 0.03357047
#
# Stress axis : x y z
#
# Youngs Moduli (GPa) = 119.58789 101.79775 51.14684
#
# Poissons Ratio (x) = 0.30619 -0.02207
# Poissons Ratio (y) = 0.35970 -0.02522
# Poissons Ratio (z) = -0.05159 -0.05020
#
# Static dielectric constant tensor:
#      x y z
#    x 1.758220 0.000000 0.000000 
#    y 0.000000 1.710010 0.000000 
#    z 0.000000 0.000000 1.796850 
# 
# From -- ./inp_files/5850.got.cif
#   From: 2010.05.17/outbox.cif.g08.bks.cpg/sg58_3_cif.got.tgz:5850.got - 2010.06.03 14:20:14.
