data_PCOD9442546
_publ_section_title
;
Structure prediction by ZEFSAII (Michael W. Deem and Ramdas Pophale) SiO2 
 PCOD9442546
Probable space group: P N N M
;
_chemical_formula_sum "Si O2"
_cell_formula_units_Z 48
_cell_length_a 17.217357
_cell_length_b 9.592531
_cell_length_c 13.873570
_cell_angle_alpha 90.000000
_cell_angle_beta 90.000000
_cell_angle_gamma 90.000000
_cell_volume 2291.331501
_symmetry_space_group_name_H-M "P N N M"
_symmetry_group_IT_number 58
_symmetry_cell_setting 'orthorhombic'
loop_
_space_group_symop_operation_xyz
x,y,z
-x,-y,z
1/2+x,1/2-y,1/2-z
1/2-x,1/2+y,1/2-z
-x,-y,-z
x,y,-z
1/2-x,1/2+y,1/2+z
1/2+x,1/2-y,1/2+z
loop_
_atom_site_type_symbol
_atom_site_label
_atom_site_fract_x
_atom_site_fract_y
_atom_site_fract_z
Si Si1 0.265746 0.500972 0.608132
Si Si2 0.548716 0.855570 0.607591
Si Si3 0.775832 0.665659 0.106062
Si Si4 0.026256 0.212508 0.262635
Si Si5 0.129068 0.948509 0.712678
Si Si6 0.618840 0.031050 0.764827
O O1 0.275218 0.446119 0.500000
O O2 0.274070 0.667941 0.606149
O O3 0.327021 0.435925 0.683775
O O4 0.178798 0.483948 0.648881
O O5 0.579165 0.827059 0.500000
O O6 0.493260 0.733300 0.648287
O O7 0.500000 0.000000 0.601082
O O8 0.603241 0.892915 0.699895
O O9 0.694288 0.595208 0.136015
O O10 0.836880 0.622725 0.185461
O O11 0.799480 0.616244 0.000000
O O12 0.047918 0.368814 0.295714
O O13 0.947186 0.145381 0.302164
O O14 0.095323 0.106023 0.287556
#
# Coordination Sequence:
#
# PCOD9442546 Si02
#       6
#     8   8   8   8   8   8
#     4  10  21  37  58  85 115 152 197 241 288 344
#     4   9  18  31  53  84 112 144 185 228 279 336
#     4  10  20  37  60  83 114 154 196 237 284 345
#     4  10  20  36  57  82 118 153 186 234 296 341
#     4  10  21  37  57  83 116 153 189 236 293 348
#     4  10  19  36  60  83 117 155 191 240 288 344
#
# _framework density 20.948518
#
# number of rings (size 3 to 8) (size 9 to 14) (size 15 to 20)
#    0.000    2.167    1.667    1.500    0.000    2.000 
#    0.000    5.000    0.000    7.500    0.000    0.000 
#    0.000    0.000    0.000    0.000    0.000    0.000 
#
# Total GULP energy -267364.793844 kJ/mol
# GULP energy per Si atom -5570.099872 kJ/mol
# Density = 2.090084 g / cm^3
# Si number density = 20.948518 Si / 1000 Ang^3
#
#
#
# Elastic Constant Matrix: (Units=GPa)
#
#
# Indices 1 2 3 4 5 6 
#
# 1 54.2674 6.6396 -14.5425 0.0000 0.0000 0.0000
# 2 6.6396 55.5139 -8.2257 0.0000 0.0000 0.0000
# 3 -14.5425 -8.2257 29.8825 0.0000 0.0000 0.0000
# 4 0.0000 0.0000 0.0000 18.1423 0.0000 0.0000
# 5 0.0000 0.0000 0.0000 0.0000 12.7252 0.0000
# 6 0.0000 0.0000 0.0000 0.0000 0.0000 43.0307
#
#
#
# Elastic Compliance Matrix: (Units=1/GPa)
#
#
# Indices 1 2 3 4 5 6 
#
# 1 0.021250 -0.001052 0.010052 0.000000 0.000000 0.000000
# 2 -0.001052 0.018832 0.004672 0.000000 0.000000 0.000000
# 3 0.010052 0.004672 0.039642 0.000000 0.000000 0.000000
# 4 0.000000 0.000000 0.000000 0.055120 0.000000 0.000000
# 5 0.000000 0.000000 0.000000 0.000000 0.078584 0.000000
# 6 0.000000 0.000000 0.000000 0.000000 0.000000 0.023239
#
#
# Mechanical properties :
#
#
# Convention : Reuss Voigt Hill
#
# Bulk Modulus (GPa) = 9.34005 11.93406 10.63706
# Shear Modulus (GPa) = 20.40710 25.16580 22.78645
#
# Velocity S-wave (km/s) = 3.12453 3.46976 3.30166
# Velocity P-wave (km/s) = 4.18153 4.66493 4.42983
#
# Compressibility (1/GPa) = 0.10706579
#
# Stress axis : x y z
#
# Youngs Moduli (GPa) = 47.05960 53.10229 25.22572
#
# Poissons Ratio (x) = 0.05587 -0.25356
# Poissons Ratio (y) = 0.04951 -0.11785
# Poissons Ratio (z) = -0.47303 -0.24808
#
# Static dielectric constant tensor:
#      x y z
#    x 1.841430 0.000000 0.000000 
#    y 0.000000 1.809530 0.000000 
#    z 0.000000 0.000000 1.736810 
# 
# From -- ./inp_files/22759.got.cif
#   From: 2010.05.17/outbox.cif.g08.bks.cpg/sg58_12_cif.got.tgz:22759.got - 2010.06.03 14:20:14.
