data_PCOD9442262
_publ_section_title
;
Structure prediction by ZEFSAII (Michael W. Deem and Ramdas Pophale) SiO2 
 PCOD9442262
Probable space group: P N N M
;
_chemical_formula_sum "Si O2"
_cell_formula_units_Z 64
_cell_length_a 14.435540
_cell_length_b 25.272992
_cell_length_c 8.346724
_cell_angle_alpha 90.000000
_cell_angle_beta 90.000000
_cell_angle_gamma 90.000000
_cell_volume 3045.129365
_symmetry_space_group_name_H-M "P N N M"
_symmetry_group_IT_number 58
_symmetry_cell_setting 'orthorhombic'
loop_
_space_group_symop_operation_xyz
x,y,z
-x,-y,z
1/2+x,1/2-y,1/2-z
1/2-x,1/2+y,1/2-z
-x,-y,-z
x,y,-z
1/2-x,1/2+y,1/2+z
1/2+x,1/2-y,1/2+z
loop_
_atom_site_type_symbol
_atom_site_label
_atom_site_fract_x
_atom_site_fract_y
_atom_site_fract_z
Si Si1 0.230034 0.661952 0.689019
Si Si2 0.054135 0.277435 0.810967
Si Si3 0.220080 0.452841 0.308428
Si Si4 0.564152 0.333869 0.811269
Si Si5 0.121551 0.882465 0.693638
Si Si6 0.131274 0.559309 0.185859
Si Si7 0.542751 0.110529 0.811920
Si Si8 0.272232 0.278369 0.806111
O O1 0.208015 0.656618 0.500000
O O2 0.341183 0.662030 0.713011
O O3 0.187798 0.612982 0.782159
O O4 0.197168 0.719926 0.748061
O O5 0.022863 0.225177 0.717069
O O6 0.013064 0.334371 0.768421
O O7 0.163436 0.283467 0.768213
O O8 0.045914 0.267365 0.000000
O O9 0.215463 0.454182 0.500000
O O10 0.319830 0.431760 0.255243
O O11 0.191142 0.509725 0.242985
O O12 0.140842 0.411577 0.249702
O O13 0.485820 0.375828 0.762295
O O14 0.584570 0.339744 0.000000
O O15 0.125536 0.882443 0.500000
O O16 0.173099 0.829188 0.754012
O O17 0.035392 0.566798 0.280534
O O18 0.109029 0.553493 0.000000
O O19 0.551086 0.120726 0.000000
O O20 0.279277 0.277869 0.000000
#
# Coordination Sequence:
#
# PCOD9442262 Si02
#       8
#     8   8   8   8   8   8   8   8
#     4  10  21  40  63  87 122 162 202 255 307 359
#     4  10  19  34  57  86 122 162 204 246 297 359
#     4  11  24  42  63  90 122 158 202 253 302 358
#     4  10  21  36  59  90 126 164 204 250 306 365
#     4  10  20  37  61  89 122 162 202 246 301 360
#     4  12  26  42  63  89 118 159 206 253 303 367
#     4  11  23  39  60  89 124 160 200 248 304 364
#     4   8  16  32  56  84 117 157 194 236 296 354
#
# _framework density 21.017168000000002
#
# number of rings (size 3 to 8) (size 9 to 14) (size 15 to 20)
#    0.000    1.750    1.250    4.125    1.750    4.000 
#    0.000    1.250    0.000    3.750    0.000    0.000 
#    0.000    0.000    0.000    0.000    0.000    0.000 
#
# Total GULP energy -357711.244367 kJ/mol
# GULP energy per Si atom -5589.238193 kJ/mol
# Density = 2.096933 g / cm^3
# Si number density = 21.017168 Si / 1000 Ang^3
#
#
#
# Elastic Constant Matrix: (Units=GPa)
#
#
# Indices 1 2 3 4 5 6 
#
# 1 27.7802 0.5688 -6.1947 0.0000 0.0000 0.0000
# 2 0.5688 59.2303 -5.2790 0.0000 0.0000 0.0000
# 3 -6.1947 -5.2790 23.9969 0.0000 0.0000 0.0000
# 4 0.0000 0.0000 0.0000 24.0321 0.0000 0.0000
# 5 0.0000 0.0000 0.0000 0.0000 23.8296 0.0000
# 6 0.0000 0.0000 0.0000 0.0000 0.0000 27.2797
#
#
#
# Elastic Compliance Matrix: (Units=1/GPa)
#
#
# Indices 1 2 3 4 5 6 
#
# 1 0.038211 0.000522 0.009979 0.000000 0.000000 0.000000
# 2 0.000522 0.017228 0.003925 0.000000 0.000000 0.000000
# 3 0.009979 0.003925 0.045112 0.000000 0.000000 0.000000
# 4 0.000000 0.000000 0.000000 0.041611 0.000000 0.000000
# 5 0.000000 0.000000 0.000000 0.000000 0.041965 0.000000
# 6 0.000000 0.000000 0.000000 0.000000 0.000000 0.036657
#
#
# Mechanical properties :
#
#
# Convention : Reuss Voigt Hill
#
# Bulk Modulus (GPa) = 7.72776 9.91085 8.81931
# Shear Modulus (GPa) = 21.27063 23.15575 22.21319
#
# Velocity S-wave (km/s) = 3.18474 3.32287 3.25454
# Velocity P-wave (km/s) = 4.14829 4.40996 4.28113
#
# Compressibility (1/GPa) = 0.12940360
#
# Stress axis : x y z
#
# Youngs Moduli (GPa) = 26.17019 58.04496 22.16729
#
# Poissons Ratio (x) = -0.03032 -0.22121
# Poissons Ratio (y) = -0.01367 -0.08700
# Poissons Ratio (z) = -0.26116 -0.22781
#
# Static dielectric constant tensor:
#      x y z
#    x 1.786010 0.000000 0.000000 
#    y 0.000000 1.759160 0.000000 
#    z 0.000000 0.000000 1.709090 
# 
# From -- ./inp_files/6779.got.cif
#   From: 2010.05.17/outbox.cif.g08.bks.cpg/sg58_4_cif.got.tgz:6779.got - 2010.06.03 14:20:14.
