data_PCOD9442276
_publ_section_title
;
Structure prediction by ZEFSAII (Michael W. Deem and Ramdas Pophale) SiO2 
 PCOD9442276
Probable space group: P N N M
;
_chemical_formula_sum "Si O2"
_cell_formula_units_Z 64
_cell_length_a 32.099839
_cell_length_b 12.074771
_cell_length_c 7.398159
_cell_angle_alpha 90.000000
_cell_angle_beta 90.000000
_cell_angle_gamma 90.000000
_cell_volume 2867.513149
_symmetry_space_group_name_H-M "P N N M"
_symmetry_group_IT_number 58
_symmetry_cell_setting 'orthorhombic'
loop_
_space_group_symop_operation_xyz
x,y,z
-x,-y,z
1/2+x,1/2-y,1/2-z
1/2-x,1/2+y,1/2-z
-x,-y,-z
x,y,-z
1/2-x,1/2+y,1/2+z
1/2+x,1/2-y,1/2+z
loop_
_atom_site_type_symbol
_atom_site_label
_atom_site_fract_x
_atom_site_fract_y
_atom_site_fract_z
Si Si1 0.921874 0.738266 0.218194
Si Si2 0.456108 0.535053 0.790994
Si Si3 0.712689 0.466963 0.206785
Si Si4 0.671311 0.244426 0.281641
Si Si5 0.379900 0.167050 0.281290
Si Si6 0.805887 0.495611 0.779126
Si Si7 0.951959 0.497067 0.779512
Si Si8 0.871810 0.073451 0.288177
O O1 0.952620 0.832680 0.284040
O O2 0.875586 0.771454 0.276082
O O3 0.931803 0.613854 0.275447
O O4 0.922986 0.738612 0.000000
O O5 0.500000 0.500000 0.708069
O O6 0.413632 0.483491 0.710990
O O7 0.456785 0.497182 0.000000
O O8 0.701747 0.337401 0.208986
O O9 0.758683 0.479632 0.286059
O O10 0.672361 0.529463 0.288287
O O11 0.716261 0.507821 0.000000
O O12 0.673193 0.249204 0.500000
O O13 0.680583 0.119130 0.228154
O O14 0.380152 0.165628 0.500000
O O15 0.376165 0.294468 0.225766
O O16 0.339953 0.094754 0.220641
O O17 0.422213 0.104009 0.221687
O O18 0.806086 0.490168 0.000000
O O19 0.000000 0.500000 0.720958
O O20 0.952230 0.494015 0.000000
O O21 0.870467 0.041948 0.500000
#
# Coordination Sequence:
#
# PCOD9442276 Si02
#       8
#     8   8   8   8   8   8   8   8
#     4  10  19  34  58  83 106 134 176 226 265 307
#     4  10  22  39  56  75 107 148 180 214 266 318
#     4  10  21  37  56  77 106 144 179 216 265 316
#     4  10  19  35  58  80 105 137 177 222 265 311
#     4  10  20  36  57  79 107 141 176 216 264 319
#     4   9  19  36  56  79 108 141 174 216 272 319
#     4   9  18  33  54  81 109 137 170 214 268 316
#     4  10  22  38  53  75 109 143 176 216 263 314
#
# _framework density 22.318991
#
# number of rings (size 3 to 8) (size 9 to 14) (size 15 to 20)
#    0.000    2.250    2.500    0.000    3.500    1.250 
#    0.000    1.875    0.000    0.750    0.000    0.000 
#    0.000    0.000    0.000    0.000    0.000    0.000 
#
# Total GULP energy -357479.401799 kJ/mol
# GULP energy per Si atom -5585.615653 kJ/mol
# Density = 2.226819 g / cm^3
# Si number density = 22.318991 Si / 1000 Ang^3
#
#
#
# Elastic Constant Matrix: (Units=GPa)
#
#
# Indices 1 2 3 4 5 6 
#
# 1 129.9576 26.7269 10.5729 0.0000 0.0000 0.0000
# 2 26.7269 104.9069 -9.7504 0.0000 0.0000 0.0000
# 3 10.5729 -9.7504 75.4623 0.0000 0.0000 0.0000
# 4 0.0000 0.0000 0.0000 17.6272 0.0000 0.0000
# 5 0.0000 0.0000 0.0000 0.0000 -10.9911 0.0000
# 6 0.0000 0.0000 0.0000 0.0000 0.0000 38.6246
#
#
#
# Elastic Compliance Matrix: (Units=1/GPa)
#
#
# Indices 1 2 3 4 5 6 
#
# 1 0.008274 -0.002243 -0.001449 0.000000 0.000000 0.000000
# 2 -0.002243 0.010256 0.001639 0.000000 0.000000 0.000000
# 3 -0.001449 0.001639 0.013666 0.000000 0.000000 0.000000
# 4 0.000000 0.000000 0.000000 0.056731 0.000000 0.000000
# 5 0.000000 0.000000 0.000000 0.000000 -0.090983 0.000000
# 6 0.000000 0.000000 0.000000 0.000000 0.000000 0.025890
#
#
# Mechanical properties :
#
#
# Convention : Reuss Voigt Hill
#
# Bulk Modulus (GPa) = 35.59747 40.60285 38.10016
# Shear Modulus (GPa) = 134.03786 27.90396 80.97091
#
# Velocity S-wave (km/s) = 7.75796 3.53970 6.02973
# Velocity P-wave (km/s) = 9.80979 5.91080 8.09844
#
# Compressibility (1/GPa) = 0.02809188
#
# Stress axis : x y z
#
# Youngs Moduli (GPa) = 120.86176 97.50415 73.17170
#
# Poissons Ratio (x) = 0.21866 0.10603
# Poissons Ratio (y) = 0.27104 -0.11996
# Poissons Ratio (z) = 0.17513 -0.15984
#
# Static dielectric constant tensor:
#      x y z
#    x 1.834600 0.000000 0.000000 
#    y 0.000000 1.750880 0.000000 
#    z 0.000000 0.000000 1.771790 
# 
# From -- ./inp_files/10978.got.cif
#   From: 2010.05.17/outbox.cif.g08.bks.cpg/sg58_6_cif.got.tgz:10978.got - 2010.06.03 14:20:14.
