data_PCOD9442109
_publ_section_title
;
Structure prediction by ZEFSAII (Michael W. Deem and Ramdas Pophale) SiO2 
 PCOD9442109
Probable space group: P N N M
;
_chemical_formula_sum "Si O2"
_cell_formula_units_Z 56
_cell_length_a 15.185216
_cell_length_b 21.442917
_cell_length_c 8.767617
_cell_angle_alpha 90.000000
_cell_angle_beta 90.000000
_cell_angle_gamma 90.000000
_cell_volume 2854.870470
_symmetry_space_group_name_H-M "P N N M"
_symmetry_group_IT_number 58
_symmetry_cell_setting 'orthorhombic'
loop_
_space_group_symop_operation_xyz
x,y,z
-x,-y,z
1/2+x,1/2-y,1/2-z
1/2-x,1/2+y,1/2-z
-x,-y,-z
x,y,-z
1/2-x,1/2+y,1/2+z
1/2+x,1/2-y,1/2+z
loop_
_atom_site_type_symbol
_atom_site_label
_atom_site_fract_x
_atom_site_fract_y
_atom_site_fract_z
Si Si1 0.581521 0.546302 0.675316
Si Si2 0.443079 0.648638 0.325036
Si Si3 0.255455 0.600900 0.320378
Si Si4 0.824888 0.656533 0.316641
Si Si5 0.490379 0.770020 0.178980
Si Si6 0.264528 0.971719 0.322819
Si Si7 0.690923 0.760059 0.814720
O O1 0.500000 0.500000 0.697852
O O2 0.613864 0.537861 0.500000
O O3 0.535429 0.613355 0.687752
O O4 0.660501 0.537426 0.790073
O O5 0.433231 0.671711 0.500000
O O6 0.361374 0.602339 0.300207
O O7 0.441094 0.705144 0.209507
O O8 0.236791 0.593863 0.500000
O O9 0.215213 0.541595 0.235470
O O10 0.226193 0.670594 0.275775
O O11 0.821611 0.660736 0.500000
O O12 0.921909 0.678624 0.261574
O O13 0.807890 0.585863 0.265941
O O14 0.751212 0.704667 0.252051
O O15 0.589238 0.761048 0.240287
O O16 0.501404 0.782064 0.000000
O O17 0.284268 0.966291 0.500000
O O18 0.693468 0.753698 0.000000
#
# Coordination Sequence:
#
# PCOD9442109 Si02
#       7
#     8   8   8   8   8   8   8
#     4  10  19  34  54  80 115 151 189 230 288 359
#     4  10  19  33  57  84 112 152 191 232 289 354
#     4  10  20  38  61  84 115 155 196 238 294 355
#     4  11  23  40  61  87 122 160 197 241 299 358
#     4  10  22  38  59  88 118 149 194 248 294 345
#     4  12  25  38  56  84 119 157 201 248 297 348
#     4  10  21  40  65  91 119 154 199 248 297 350
#
# _framework density 19.615600000000001
#
# number of rings (size 3 to 8) (size 9 to 14) (size 15 to 20)
#    0.000    1.571    2.857    2.571    0.000    5.429 
#    0.000    0.714    0.000    4.286    0.000    0.000 
#    0.000    0.000    0.000    0.000    0.000    0.000 
#
# Total GULP energy -312468.218150 kJ/mol
# GULP energy per Si atom -5579.789610 kJ/mol
# Density = 1.957095 g / cm^3
# Si number density = 19.615600 Si / 1000 Ang^3
#
#
#
# Elastic Constant Matrix: (Units=GPa)
#
#
# Indices 1 2 3 4 5 6 
#
# 1 52.1992 9.2533 12.7771 0.0000 0.0000 0.0000
# 2 9.2533 83.7841 16.1153 0.0000 0.0000 0.0000
# 3 12.7771 16.1153 28.1841 0.0000 0.0000 0.0000
# 4 0.0000 0.0000 0.0000 28.0858 0.0000 0.0000
# 5 0.0000 0.0000 0.0000 0.0000 15.6229 0.0000
# 6 0.0000 0.0000 0.0000 0.0000 0.0000 23.8092
#
#
#
# Elastic Compliance Matrix: (Units=1/GPa)
#
#
# Indices 1 2 3 4 5 6 
#
# 1 0.021572 -0.000563 -0.009458 0.000000 0.000000 0.000000
# 2 -0.000563 0.013425 -0.007421 0.000000 0.000000 0.000000
# 3 -0.009458 -0.007421 0.044012 0.000000 0.000000 0.000000
# 4 0.000000 0.000000 0.000000 0.035605 0.000000 0.000000
# 5 0.000000 0.000000 0.000000 0.000000 0.064009 0.000000
# 6 0.000000 0.000000 0.000000 0.000000 0.000000 0.042001
#
#
# Mechanical properties :
#
#
# Convention : Reuss Voigt Hill
#
# Bulk Modulus (GPa) = 22.66268 26.71764 24.69016
# Shear Modulus (GPa) = 18.50375 21.90500 20.20438
#
# Velocity S-wave (km/s) = 3.07468 3.34535 3.21287
# Velocity P-wave (km/s) = 4.91766 5.34528 5.13592
#
# Compressibility (1/GPa) = 0.04412541
#
# Stress axis : x y z
#
# Youngs Moduli (GPa) = 46.35590 74.48782 22.72125
#
# Poissons Ratio (x) = 0.04197 0.21489
# Poissons Ratio (y) = 0.02612 0.16861
# Poissons Ratio (z) = 0.43841 0.55276
#
# Static dielectric constant tensor:
#      x y z
#    x 1.718080 0.000000 0.000000 
#    y 0.000000 1.716580 0.000000 
#    z 0.000000 0.000000 1.679840 
# 
# From -- ./inp_files/6258.got.cif
#   From: 2010.05.17/outbox.cif.g08.bks.cpg/sg58_4_cif.got.tgz:6258.got - 2010.06.03 14:20:14.
