data_PCOD9442553
_publ_section_title
;
Structure prediction by ZEFSAII (Michael W. Deem and Ramdas Pophale) SiO2 
 PCOD9442553
Probable space group: P N N M
;
_chemical_formula_sum "Si O2"
_cell_formula_units_Z 48
_cell_length_a 18.579676
_cell_length_b 14.830361
_cell_length_c 7.455725
_cell_angle_alpha 90.000000
_cell_angle_beta 90.000000
_cell_angle_gamma 90.000000
_cell_volume 2054.375088
_symmetry_space_group_name_H-M "P N N M"
_symmetry_group_IT_number 58
_symmetry_cell_setting 'orthorhombic'
loop_
_space_group_symop_operation_xyz
x,y,z
-x,-y,z
1/2+x,1/2-y,1/2-z
1/2-x,1/2+y,1/2-z
-x,-y,-z
x,y,-z
1/2-x,1/2+y,1/2+z
1/2+x,1/2-y,1/2+z
loop_
_atom_site_type_symbol
_atom_site_label
_atom_site_fract_x
_atom_site_fract_y
_atom_site_fract_z
Si Si1 0.983569 0.676507 0.781205
Si Si2 0.391409 0.445840 0.283199
Si Si3 0.734051 0.690353 0.202225
Si Si4 0.354487 0.939559 0.719347
Si Si5 0.448991 0.628587 0.283039
Si Si6 0.356527 0.138774 0.710447
O O1 0.935102 0.590884 0.734399
O O2 0.945076 0.768880 0.720714
O O3 0.065733 0.670620 0.717028
O O4 0.985150 0.681186 0.000000
O O5 0.383732 0.442643 0.500000
O O6 0.330032 0.383158 0.204883
O O7 0.394678 0.550165 0.222459
O O8 0.469923 0.404703 0.241605
O O9 0.800338 0.637108 0.287397
O O10 0.701962 0.782920 0.275150
O O11 0.755514 0.712915 0.000000
O O12 0.348589 0.938438 0.500000
O O13 0.336597 0.040179 0.782619
O O14 0.443365 0.628637 0.500000
O O15 0.369009 0.124919 0.500000
#
# Coordination Sequence:
#
# PCOD9442553 Si02
#       6
#     8   8   8   8   8   8
#     4   9  15  29  56  84 103 128 177 234 268 292
#     4   9  16  30  51  77 105 137 179 219 253 301
#     4  11  22  35  51  78 116 146 169 209 272 335
#     4   9  20  34  51  80 110 135 173 224 270 312
#     4   8  14  25  49  82 104 123 170 230 262 286
#     4  10  19  36  61  80  98 135 184 226 261 308
#
# _framework density 23.364768999999999
#
# number of rings (size 3 to 8) (size 9 to 14) (size 15 to 20)
#    0.000    2.667    1.667    2.000    0.000    3.333 
#    0.000    5.000    0.000    4.000    0.000    0.000 
#    0.000    0.000    0.000    0.000    0.000    0.000 
#
# Total GULP energy -267949.784584 kJ/mol
# GULP energy per Si atom -5582.287179 kJ/mol
# Density = 2.331159 g / cm^3
# Si number density = 23.364769 Si / 1000 Ang^3
#
#
#
# Elastic Constant Matrix: (Units=GPa)
#
#
# Indices 1 2 3 4 5 6 
#
# 1 45.8007 59.1752 -0.8369 0.0000 0.0000 0.0000
# 2 59.1752 180.5673 3.4361 0.0000 0.0000 0.0000
# 3 -0.8369 3.4361 61.3019 0.0000 0.0000 0.0000
# 4 0.0000 0.0000 0.0000 6.4567 0.0000 0.0000
# 5 0.0000 0.0000 0.0000 0.0000 -15.4329 0.0000
# 6 0.0000 0.0000 0.0000 0.0000 0.0000 17.8293
#
#
#
# Elastic Compliance Matrix: (Units=1/GPa)
#
#
# Indices 1 2 3 4 5 6 
#
# 1 0.037958 -0.012463 0.001217 0.000000 0.000000 0.000000
# 2 -0.012463 0.009636 -0.000710 0.000000 0.000000 0.000000
# 3 0.001217 -0.000710 0.016369 0.000000 0.000000 0.000000
# 4 0.000000 0.000000 0.000000 0.154878 0.000000 0.000000
# 5 0.000000 0.000000 0.000000 0.000000 -0.064797 0.000000
# 6 0.000000 0.000000 0.000000 0.000000 0.000000 0.056087
#
#
# Mechanical properties :
#
#
# Convention : Reuss Voigt Hill
#
# Bulk Modulus (GPa) = 24.96842 45.69096 35.32969
# Shear Modulus (GPa) = 20.21067 16.83033 18.52050
#
# Velocity S-wave (km/s) = 2.94429 2.68681 2.81849
# Velocity P-wave (km/s) = 4.71890 5.40585 5.07401
#
# Compressibility (1/GPa) = 0.04005059
#
# Stress axis : x y z
#
# Youngs Moduli (GPa) = 26.34496 103.77906 61.09065
#
# Poissons Ratio (x) = 1.29336 -0.07433
# Poissons Ratio (y) = 0.32833 0.04339
# Poissons Ratio (z) = -0.03206 0.07371
#
# Static dielectric constant tensor:
#      x y z
#    x 1.851240 0.000000 0.000000 
#    y 0.000000 1.886090 0.000000 
#    z 0.000000 0.000000 1.902590 
# 
# From -- ./inp_files/7722.got.cif
#   From: 2010.05.17/outbox.cif.g08.bks.cpg/sg58_4_cif.got.tgz:7722.got - 2010.06.03 14:20:14.
