data_PCOD9442106
_publ_section_title
;
Structure prediction by ZEFSAII (Michael W. Deem and Ramdas Pophale) SiO2 
 PCOD9442106
Probable space group: P N N M
;
_chemical_formula_sum "Si O2"
_cell_formula_units_Z 48
_cell_length_a 29.813178
_cell_length_b 10.438056
_cell_length_c 8.834498
_cell_angle_alpha 90.000000
_cell_angle_beta 90.000000
_cell_angle_gamma 90.000000
_cell_volume 2749.221758
_symmetry_space_group_name_H-M "P N N M"
_symmetry_group_IT_number 58
_symmetry_cell_setting 'orthorhombic'
loop_
_space_group_symop_operation_xyz
x,y,z
-x,-y,z
1/2+x,1/2-y,1/2-z
1/2-x,1/2+y,1/2-z
-x,-y,-z
x,y,-z
1/2-x,1/2+y,1/2+z
1/2+x,1/2-y,1/2+z
loop_
_atom_site_type_symbol
_atom_site_label
_atom_site_fract_x
_atom_site_fract_y
_atom_site_fract_z
Si Si1 0.783531 0.509198 0.182112
Si Si2 0.387730 0.267436 0.818753
Si Si3 0.525553 0.631022 0.319065
Si Si4 0.027525 0.369910 0.319124
Si Si5 0.112944 0.485727 0.818678
Si Si6 0.715564 0.729914 0.817851
O O1 0.835184 0.543934 0.218910
O O2 0.749283 0.618908 0.233868
O O3 0.774020 0.369412 0.250298
O O4 0.780491 0.499568 0.000000
O O5 0.424953 0.361197 0.752015
O O6 0.336312 0.301699 0.780554
O O7 0.396217 0.126891 0.748690
O O8 0.392165 0.259747 0.000000
O O9 0.500000 0.500000 0.281512
O O10 0.528835 0.642128 0.500000
O O11 0.497647 0.750298 0.253932
O O12 0.028861 0.355673 0.500000
O O13 0.077135 0.389893 0.252945
O O14 0.000000 0.500000 0.284147
O O15 0.108034 0.488720 0.000000
O O16 0.718578 0.738892 0.000000
#
# Coordination Sequence:
#
# PCOD9442106 Si02
#       6
#     8   8   8   8   8   8
#     4   9  19  36  56  81 112 143 181 224 270 323
#     4  10  19  34  57  81 109 145 184 223 270 325
#     4  11  24  40  57  80 111 146 183 225 273 328
#     4  11  22  36  58  85 110 141 182 226 269 323
#     4  10  19  33  57  83 110 143 182 229 272 317
#     4   9  19  36  57  81 111 143 179 224 270 321
#
# _framework density 17.459485999999998
#
# number of rings (size 3 to 8) (size 9 to 14) (size 15 to 20)
#    0.000    2.000    1.667    2.000    0.000    4.000 
#    3.000    0.000    0.000    0.000    0.000    0.000 
#    0.000    0.000    0.000    0.000    0.000    0.000 
#
# Total GULP energy -267961.223669 kJ/mol
# GULP energy per Si atom -5582.525493 kJ/mol
# Density = 1.741975 g / cm^3
# Si number density = 17.459486 Si / 1000 Ang^3
#
#
#
# Elastic Constant Matrix: (Units=GPa)
#
#
# Indices 1 2 3 4 5 6 
#
# 1 136.9794 87.4919 43.5528 0.0000 0.0000 0.0000
# 2 87.4919 111.4917 45.3811 0.0000 0.0000 0.0000
# 3 43.5528 45.3811 37.2039 0.0000 0.0000 0.0000
# 4 0.0000 0.0000 0.0000 22.4402 0.0000 0.0000
# 5 0.0000 0.0000 0.0000 0.0000 31.2676 0.0000
# 6 0.0000 0.0000 0.0000 0.0000 0.0000 35.6258
#
#
#
# Elastic Compliance Matrix: (Units=1/GPa)
#
#
# Indices 1 2 3 4 5 6 
#
# 1 0.015395 -0.009425 -0.006526 0.000000 0.000000 0.000000
# 2 -0.009425 0.023584 -0.017734 0.000000 0.000000 0.000000
# 3 -0.006526 -0.017734 0.056150 0.000000 0.000000 0.000000
# 4 0.000000 0.000000 0.000000 0.044563 0.000000 0.000000
# 5 0.000000 0.000000 0.000000 0.000000 0.031982 0.000000
# 6 0.000000 0.000000 0.000000 0.000000 0.000000 0.028070
#
#
# Mechanical properties :
#
#
# Convention : Reuss Voigt Hill
#
# Bulk Modulus (GPa) = 36.02372 70.94740 53.48556
# Shear Modulus (GPa) = 18.09191 25.15001 21.62096
#
# Velocity S-wave (km/s) = 3.22253 3.79948 3.52284
# Velocity P-wave (km/s) = 5.87570 7.74414 6.87370
#
# Compressibility (1/GPa) = 0.02775949
#
# Stress axis : x y z
#
# Youngs Moduli (GPa) = 64.95518 42.40205 17.80935
#
# Poissons Ratio (x) = 0.39964 0.11622
# Poissons Ratio (y) = 0.61220 0.31583
# Poissons Ratio (z) = 0.42390 0.75196
#
# Static dielectric constant tensor:
#      x y z
#    x 1.610400 0.000000 0.000000 
#    y 0.000000 1.558140 0.000000 
#    z 0.000000 0.000000 1.583500 
# 
# From -- ./inp_files/2924.got.cif
#   From: 2010.05.17/outbox.cif.g08.bks.cpg/sg58_2_cif.got.tgz:2924.got - 2010.06.03 14:20:14.
