data_PCOD9442682
_publ_section_title
;
Structure prediction by ZEFSAII (Michael W. Deem and Ramdas Pophale) SiO2 
 PCOD9442682
Probable space group: P N N M
;
_chemical_formula_sum "Si O2"
_cell_formula_units_Z 64
_cell_length_a 12.186106
_cell_length_b 31.481470
_cell_length_c 8.589093
_cell_angle_alpha 90.000000
_cell_angle_beta 90.000000
_cell_angle_gamma 90.000000
_cell_volume 3295.089838
_symmetry_space_group_name_H-M "P N N M"
_symmetry_group_IT_number 58
_symmetry_cell_setting 'orthorhombic'
loop_
_space_group_symop_operation_xyz
x,y,z
-x,-y,z
1/2+x,1/2-y,1/2-z
1/2-x,1/2+y,1/2-z
-x,-y,-z
x,y,-z
1/2-x,1/2+y,1/2+z
1/2+x,1/2-y,1/2+z
loop_
_atom_site_type_symbol
_atom_site_label
_atom_site_fract_x
_atom_site_fract_y
_atom_site_fract_z
Si Si1 0.777322 0.041825 0.185982
Si Si2 0.995090 0.932238 0.311994
Si Si3 0.898352 0.375617 0.686499
Si Si4 0.754771 0.453228 0.186403
Si Si5 0.509446 0.334731 0.811018
Si Si6 0.753423 0.801823 0.312995
Si Si7 0.213452 0.791817 0.687065
Si Si8 0.846561 0.628104 0.688352
O O1 0.903666 0.042220 0.241598
O O2 0.720501 0.085957 0.237029
O O3 0.718589 0.000409 0.255122
O O4 0.773112 0.039845 0.000000
O O5 0.001442 0.935875 0.500000
O O6 0.011098 0.883192 0.264472
O O7 0.871782 0.944421 0.265143
O O8 0.893549 0.375718 0.500000
O O9 0.832747 0.416541 0.748359
O O10 0.839148 0.333256 0.748205
O O11 0.026025 0.376301 0.733212
O O12 0.758350 0.451519 0.000000
O O13 0.628185 0.319214 0.758515
O O14 0.408969 0.305459 0.761405
O O15 0.511204 0.334523 0.000000
O O16 0.750517 0.803569 0.500000
O O17 0.741064 0.753713 0.257493
O O18 0.215787 0.789233 0.500000
O O19 0.293527 0.829498 0.741469
O O20 0.840501 0.630950 0.500000
#
# Coordination Sequence:
#
# PCOD9442682 Si02
#       8
#     8   8   8   8   8   8   8   8
#     4  11  23  39  61  91 123 157 202 250 302 362
#     4  10  19  38  62  88 122 160 197 242 303 363
#     4  11  24  43  64  87 120 161 206 254 303 357
#     4  11  23  40  63  90 122 160 201 247 307 366
#     4   9  19  38  63  87 121 161 195 242 303 358
#     4  11  23  42  64  91 126 163 200 246 307 364
#     4  11  23  40  64  94 122 158 206 250 296 359
#     4  10  24  44  62  85 122 165 201 249 311 360
#
# _framework density 19.422837999999999
#
# number of rings (size 3 to 8) (size 9 to 14) (size 15 to 20)
#    0.000    1.500    2.500    2.250    1.750    4.500 
#    0.000    4.375    0.000    0.000    0.000    0.000 
#    0.000    0.000    0.000    0.000    0.000    0.000 
#
# Total GULP energy -357716.342321 kJ/mol
# GULP energy per Si atom -5589.317849 kJ/mol
# Density = 1.937863 g / cm^3
# Si number density = 19.422838 Si / 1000 Ang^3
#
#
#
# Elastic Constant Matrix: (Units=GPa)
#
#
# Indices 1 2 3 4 5 6 
#
# 1 121.3157 39.9715 30.1916 0.0000 0.0000 0.0000
# 2 39.9715 115.8577 23.3174 0.0000 0.0000 0.0000
# 3 30.1916 23.3174 36.8614 0.0000 0.0000 0.0000
# 4 0.0000 0.0000 0.0000 41.1100 0.0000 0.0000
# 5 0.0000 0.0000 0.0000 0.0000 23.0429 0.0000
# 6 0.0000 0.0000 0.0000 0.0000 0.0000 14.5007
#
#
#
# Elastic Compliance Matrix: (Units=1/GPa)
#
#
# Indices 1 2 3 4 5 6 
#
# 1 0.010837 -0.002237 -0.007461 0.000000 0.000000 0.000000
# 2 -0.002237 0.010352 -0.004716 0.000000 0.000000 0.000000
# 3 -0.007461 -0.004716 0.036223 0.000000 0.000000 0.000000
# 4 0.000000 0.000000 0.000000 0.024325 0.000000 0.000000
# 5 0.000000 0.000000 0.000000 0.000000 0.043397 0.000000
# 6 0.000000 0.000000 0.000000 0.000000 0.000000 0.068962
#
#
# Mechanical properties :
#
#
# Convention : Reuss Voigt Hill
#
# Bulk Modulus (GPa) = 34.98508 51.22173 43.10341
# Shear Modulus (GPa) = 21.50977 27.76768 24.63873
#
# Velocity S-wave (km/s) = 3.33144 3.78516 3.56553
# Velocity P-wave (km/s) = 5.73145 6.74777 6.26027
#
# Compressibility (1/GPa) = 0.02858361
#
# Stress axis : x y z
#
# Youngs Moduli (GPa) = 92.27792 96.59701 27.60693
#
# Poissons Ratio (x) = 0.21611 0.20597
# Poissons Ratio (y) = 0.20644 0.13020
# Poissons Ratio (z) = 0.68847 0.45557
#
# Static dielectric constant tensor:
#      x y z
#    x 1.664820 0.000000 0.000000 
#    y 0.000000 1.661130 0.000000 
#    z 0.000000 0.000000 1.661110 
# 
# From -- ./inp_files/4764.got.cif
#   From: 2010.05.17/outbox.cif.g08.bks.cpg/sg58_3_cif.got.tgz:4764.got - 2010.06.03 14:20:14.
