data_PCOD9442626
_publ_section_title
;
Structure prediction by ZEFSAII (Michael W. Deem and Ramdas Pophale) SiO2 
 PCOD9442626
Probable space group: P N N M
;
_chemical_formula_sum "Si O2"
_cell_formula_units_Z 64
_cell_length_a 9.810113
_cell_length_b 24.570017
_cell_length_c 14.152448
_cell_angle_alpha 90.000000
_cell_angle_beta 90.000000
_cell_angle_gamma 90.000000
_cell_volume 3411.230254
_symmetry_space_group_name_H-M "P N N M"
_symmetry_group_IT_number 58
_symmetry_cell_setting 'orthorhombic'
loop_
_space_group_symop_operation_xyz
x,y,z
-x,-y,z
1/2+x,1/2-y,1/2-z
1/2-x,1/2+y,1/2-z
-x,-y,-z
x,y,-z
1/2-x,1/2+y,1/2+z
1/2+x,1/2-y,1/2+z
loop_
_atom_site_type_symbol
_atom_site_label
_atom_site_fract_x
_atom_site_fract_y
_atom_site_fract_z
Si Si1 0.107107 0.823360 0.609598
Si Si2 0.240250 0.080279 0.888296
Si Si3 0.407853 0.833936 0.695984
Si Si4 0.910283 0.722144 0.394180
Si Si5 0.478623 0.938617 0.217417
Si Si6 0.006269 0.866855 0.208101
Si Si7 0.101986 0.755641 0.890697
Si Si8 0.300647 0.453600 0.610080
O O1 0.107515 0.839781 0.500000
O O2 0.260390 0.822915 0.650541
O O3 0.034437 0.764347 0.614509
O O4 0.020376 0.861638 0.679477
O O5 0.387563 0.079220 0.840034
O O6 0.142354 0.121368 0.833139
O O7 0.180379 0.018642 0.879782
O O8 0.247566 0.092809 0.000000
O O9 0.409811 0.818636 0.807153
O O10 0.445170 0.897211 0.698453
O O11 0.517997 0.795417 0.646946
O O12 0.913631 0.697606 0.500000
O O13 0.764688 0.752681 0.385134
O O14 0.351746 0.941581 0.145438
O O15 0.500000 0.000000 0.252494
O O16 0.061623 0.809649 0.167069
O O17 0.100566 0.915615 0.170285
O O18 0.067448 0.765567 0.000000
O O19 0.318388 0.439837 0.500000
#
# Coordination Sequence:
#
# PCOD9442626 Si02
#       8
#     8   8   8   8   8   8   8   8
#     4  11  24  41  61  85 119 160 205 251 298 355
#     4  10  22  36  58  94 130 161 198 244 301 371
#     4  12  21  40  61  88 119 160 201 248 302 359
#     4  10  21  38  59  88 123 160 198 239 297 366
#     4  10  22  38  59  88 122 164 202 250 304 367
#     4  12  21  37  61  90 125 163 201 248 298 363
#     4  11  23  37  59  89 122 155 196 246 302 358
#     4  10  19  37  61  89 125 164 200 243 306 370
#
# _framework density 18.761558999999998
#
# number of rings (size 3 to 8) (size 9 to 14) (size 15 to 20)
#    0.000    1.250    3.750    2.250    1.750    5.500 
#    0.000    1.250    0.000    3.000    0.000    0.000 
#    0.000    0.000    0.000    0.000    0.000    0.000 
#
# Total GULP energy -357546.270427 kJ/mol
# GULP energy per Si atom -5586.660475 kJ/mol
# Density = 1.871886 g / cm^3
# Si number density = 18.761559 Si / 1000 Ang^3
#
#
#
# Elastic Constant Matrix: (Units=GPa)
#
#
# Indices 1 2 3 4 5 6 
#
# 1 88.2795 37.2420 36.3862 0.0000 0.0000 0.0000
# 2 37.2420 56.8020 46.8904 0.0000 0.0000 0.0000
# 3 36.3862 46.8904 102.9803 0.0000 0.0000 0.0000
# 4 0.0000 0.0000 0.0000 28.9577 0.0000 0.0000
# 5 0.0000 0.0000 0.0000 0.0000 23.0192 0.0000
# 6 0.0000 0.0000 0.0000 0.0000 0.0000 21.5150
#
#
#
# Elastic Compliance Matrix: (Units=1/GPa)
#
#
# Indices 1 2 3 4 5 6 
#
# 1 0.015781 -0.009203 -0.001385 0.000000 0.000000 0.000000
# 2 -0.009203 0.033575 -0.012036 0.000000 0.000000 0.000000
# 3 -0.001385 -0.012036 0.015681 0.000000 0.000000 0.000000
# 4 0.000000 0.000000 0.000000 0.034533 0.000000 0.000000
# 5 0.000000 0.000000 0.000000 0.000000 0.043442 0.000000
# 6 0.000000 0.000000 0.000000 0.000000 0.000000 0.046479
#
#
# Mechanical properties :
#
#
# Convention : Reuss Voigt Hill
#
# Bulk Modulus (GPa) = 50.53750 54.34435 52.44093
# Shear Modulus (GPa) = 20.71802 23.20126 21.95964
#
# Velocity S-wave (km/s) = 3.32668 3.52040 3.42491
# Velocity P-wave (km/s) = 6.46149 6.74929 6.60696
#
# Compressibility (1/GPa) = 0.01978729
#
# Stress axis : x y z
#
# Youngs Moduli (GPa) = 63.36653 29.78420 63.77337
#
# Poissons Ratio (x) = 0.27411 0.08836
# Poissons Ratio (y) = 0.58317 0.76758
# Poissons Ratio (z) = 0.08779 0.35848
#
# Static dielectric constant tensor:
#      x y z
#    x 1.663480 0.000000 0.000000 
#    y 0.000000 1.666490 0.000000 
#    z 0.000000 0.000000 1.638060 
# 
# From -- ./inp_files/20302.got.cif
#   From: 2010.05.17/outbox.cif.g08.bks.cpg/sg58_11_cif.got.tgz:20302.got - 2010.06.03 14:20:14.
