data_PCOD9442459
_publ_section_title
;
Structure prediction by ZEFSAII (Michael W. Deem and Ramdas Pophale) SiO2 
 PCOD9442459
Probable space group: P N N M
;
_chemical_formula_sum "Si O2"
_cell_formula_units_Z 64
_cell_length_a 16.925866
_cell_length_b 21.058834
_cell_length_c 9.374250
_cell_angle_alpha 90.000000
_cell_angle_beta 90.000000
_cell_angle_gamma 90.000000
_cell_volume 3341.348318
_symmetry_space_group_name_H-M "P N N M"
_symmetry_group_IT_number 58
_symmetry_cell_setting 'orthorhombic'
loop_
_space_group_symop_operation_xyz
x,y,z
-x,-y,z
1/2+x,1/2-y,1/2-z
1/2-x,1/2+y,1/2-z
-x,-y,-z
x,y,-z
1/2-x,1/2+y,1/2+z
1/2+x,1/2-y,1/2+z
loop_
_atom_site_type_symbol
_atom_site_label
_atom_site_fract_x
_atom_site_fract_y
_atom_site_fract_z
Si Si1 0.151158 0.104669 0.669658
Si Si2 0.595914 0.943549 0.837857
Si Si3 0.217971 0.673546 0.665482
Si Si4 0.319593 0.459351 0.831705
Si Si5 0.532634 0.627129 0.832753
Si Si6 0.670422 0.083171 0.167760
Si Si7 0.028490 0.367342 0.167647
Si Si8 0.589828 0.749815 0.331590
O O1 0.164871 0.113458 0.500000
O O2 0.200657 0.155665 0.758137
O O3 0.057830 0.109354 0.695908
O O4 0.179638 0.033595 0.707232
O O5 0.664274 0.890445 0.828301
O O6 0.528274 0.922676 0.729059
O O7 0.632563 0.012587 0.814442
O O8 0.563524 0.940709 0.000000
O O9 0.228529 0.690616 0.500000
O O10 0.167464 0.725724 0.749594
O O11 0.406864 0.430836 0.812489
O O12 0.255672 0.420983 0.740908
O O13 0.299745 0.454532 0.000000
O O14 0.560373 0.684533 0.734650
O O15 0.538034 0.646015 0.000000
O O16 0.610026 0.130063 0.246388
O O17 0.676080 0.096628 0.000000
O O18 0.978547 0.302953 0.189710
O O19 0.042505 0.376045 0.000000
O O20 0.605048 0.745229 0.500000
#
# Coordination Sequence:
#
# PCOD9442459 Si02
#       8
#     8   8   8   8   8   8   8   8
#     4  10  20  37  63  92 120 151 194 242 292 351
#     4   9  18  32  51  79 116 151 187 233 287 345
#     4  10  19  35  60  88 119 156 195 239 290 346
#     4  10  21  38  61  88 120 154 191 241 296 350
#     4  10  22  41  63  88 117 154 196 242 297 350
#     4  11  21  34  53  82 119 153 190 237 289 348
#     4  10  21  35  54  81 111 150 196 239 286 345
#     4  10  22  41  61  84 116 154 199 245 291 345
#
# _framework density 19.153943000000002
#
# number of rings (size 3 to 8) (size 9 to 14) (size 15 to 20)
#    0.000    2.000    1.250    2.250    0.000    7.000 
#    2.250    0.000    0.000    2.250    0.000    0.000 
#    0.000    0.000    0.000    0.000    0.000    0.000 
#
# Total GULP energy -357548.727503 kJ/mol
# GULP energy per Si atom -5586.698867 kJ/mol
# Density = 1.911035 g / cm^3
# Si number density = 19.153943 Si / 1000 Ang^3
#
#
#
# Elastic Constant Matrix: (Units=GPa)
#
#
# Indices 1 2 3 4 5 6 
#
# 1 110.9308 8.6595 66.3086 0.0000 0.0000 0.0000
# 2 8.6595 28.1270 30.6034 0.0000 0.0000 0.0000
# 3 66.3086 30.6034 84.1980 0.0000 0.0000 0.0000
# 4 0.0000 0.0000 0.0000 18.5186 0.0000 0.0000
# 5 0.0000 0.0000 0.0000 0.0000 22.7899 0.0000
# 6 0.0000 0.0000 0.0000 0.0000 0.0000 7.6375
#
#
#
# Elastic Compliance Matrix: (Units=1/GPa)
#
#
# Indices 1 2 3 4 5 6 
#
# 1 0.022378 0.020322 -0.025009 0.000000 0.000000 0.000000
# 2 0.020322 0.077266 -0.044088 0.000000 0.000000 0.000000
# 3 -0.025009 -0.044088 0.047597 0.000000 0.000000 0.000000
# 4 0.000000 0.000000 0.000000 0.054000 0.000000 0.000000
# 5 0.000000 0.000000 0.000000 0.000000 0.043879 0.000000
# 6 0.000000 0.000000 0.000000 0.000000 0.000000 0.130933
#
#
# Mechanical properties :
#
#
# Convention : Reuss Voigt Hill
#
# Bulk Modulus (GPa) = 20.12492 48.26653 34.19572
# Shear Modulus (GPa) = 10.20062 17.63482 13.91772
#
# Velocity S-wave (km/s) = 2.31023 3.03758 2.69852
# Velocity P-wave (km/s) = 4.20071 6.12833 5.25369
#
# Compressibility (1/GPa) = 0.04968965
#
# Stress axis : x y z
#
# Youngs Moduli (GPa) = 44.68770 12.94234 21.00976
#
# Poissons Ratio (x) = -0.26301 0.52544
# Poissons Ratio (y) = -0.90813 0.92627
# Poissons Ratio (z) = 1.11761 0.57060
#
# Static dielectric constant tensor:
#      x y z
#    x 1.659540 0.000000 0.000000 
#    y 0.000000 1.650670 0.000000 
#    z 0.000000 0.000000 1.642930 
# 
# From -- ./inp_files/6974.got.cif
#   From: 2010.05.17/outbox.cif.g08.bks.cpg/sg58_4_cif.got.tgz:6974.got - 2010.06.03 14:20:14.
