data_PCOD9442342
_publ_section_title
;
Structure prediction by ZEFSAII (Michael W. Deem and Ramdas Pophale) SiO2 
 PCOD9442342
Probable space group: P N N M
;
_chemical_formula_sum "Si O2"
_cell_formula_units_Z 32
_cell_length_a 26.633530
_cell_length_b 5.231011
_cell_length_c 14.001247
_cell_angle_alpha 90.000000
_cell_angle_beta 90.000000
_cell_angle_gamma 90.000000
_cell_volume 1950.657770
_symmetry_space_group_name_H-M "P N N M"
_symmetry_group_IT_number 58
_symmetry_cell_setting 'orthorhombic'
loop_
_space_group_symop_operation_xyz
x,y,z
-x,-y,z
1/2+x,1/2-y,1/2-z
1/2-x,1/2+y,1/2-z
-x,-y,-z
x,y,-z
1/2-x,1/2+y,1/2+z
1/2+x,1/2-y,1/2+z
loop_
_atom_site_type_symbol
_atom_site_label
_atom_site_fract_x
_atom_site_fract_y
_atom_site_fract_z
Si Si1 0.860719 0.208571 0.785550
Si Si2 0.466514 0.247970 0.612795
Si Si3 0.186230 0.303499 0.282415
Si Si4 0.228196 0.565938 0.107329
O O1 0.916339 0.240602 0.825022
O O2 0.844799 0.433995 0.712179
O O3 0.820938 0.261434 0.871446
O O4 0.849700 0.931875 0.742834
O O5 0.500000 0.500000 0.627066
O O6 0.452911 0.235689 0.500000
O O7 0.500000 0.000000 0.634609
O O8 0.222744 0.350829 0.189920
O O9 0.222221 0.226906 0.368537
O O10 0.228007 0.468367 0.000000
#
# Coordination Sequence:
#
# PCOD9442342 Si02
#       4
#     8   8   8   8
#     4  10  19  35  49  69 105 135 169 203 249 293
#     4  10  20  32  47  71  98 129 173 209 242 302
#     4  10  20  35  47  77 102 132 177 208 232 317
#     4  10  20  34  53  72 106 142 166 207 255 294
#
# _framework density 16.404723000000001
#
# number of rings (size 3 to 8) (size 9 to 14) (size 15 to 20)
#    1.500    0.500    2.500    2.250    0.000    2.000 
#    0.000    0.000    0.000    0.000    0.000    0.000 
#    0.000   20.000    0.000    0.000    0.000    0.000 
#
# Total GULP energy -178156.081629 kJ/mol
# GULP energy per Si atom -5567.377551 kJ/mol
# Density = 1.636739 g / cm^3
# Si number density = 16.404723 Si / 1000 Ang^3
#
#
#
# Elastic Constant Matrix: (Units=GPa)
#
#
# Indices 1 2 3 4 5 6 
#
# 1 89.8402 17.6824 0.4963 0.0000 0.0000 0.0000
# 2 17.6824 91.8436 -6.1482 0.0000 0.0000 0.0000
# 3 0.4963 -6.1482 22.3783 0.0000 0.0000 0.0000
# 4 0.0000 0.0000 0.0000 4.9372 0.0000 0.0000
# 5 0.0000 0.0000 0.0000 0.0000 17.7882 0.0000
# 6 0.0000 0.0000 0.0000 0.0000 0.0000 17.7869
#
#
#
# Elastic Compliance Matrix: (Units=1/GPa)
#
#
# Indices 1 2 3 4 5 6 
#
# 1 0.011586 -0.002290 -0.000886 0.000000 0.000000 0.000000
# 2 -0.002290 0.011545 0.003223 0.000000 0.000000 0.000000
# 3 -0.000886 0.003223 0.045591 0.000000 0.000000 0.000000
# 4 0.000000 0.000000 0.000000 0.202543 0.000000 0.000000
# 5 0.000000 0.000000 0.000000 0.000000 0.056217 0.000000
# 6 0.000000 0.000000 0.000000 0.000000 0.000000 0.056221
#
#
# Mechanical properties :
#
#
# Convention : Reuss Voigt Hill
#
# Bulk Modulus (GPa) = 14.53167 25.34700 19.93933
# Shear Modulus (GPa) = 12.29864 20.90457 16.60160
#
# Velocity S-wave (km/s) = 2.74104 3.57361 3.18465
# Velocity P-wave (km/s) = 4.34686 5.70194 5.06988
#
# Compressibility (1/GPa) = 0.06881521
#
# Stress axis : x y z
#
# Youngs Moduli (GPa) = 86.30740 86.61985 21.93407
#
# Poissons Ratio (x) = 0.19836 0.01944
# Poissons Ratio (y) = 0.19765 -0.07068
# Poissons Ratio (z) = 0.07648 -0.27914
#
# Static dielectric constant tensor:
#      x y z
#    x 1.537380 0.000000 0.000000 
#    y 0.000000 1.579760 0.000000 
#    z 0.000000 0.000000 1.527890 
# 
# From -- ./inp_files/17623.got.cif
#   From: 2010.05.17/outbox.cif.g08.bks.cpg/sg58_9_cif.got.tgz:17623.got - 2010.06.03 14:20:14.
