data_PCOD9442245
_publ_section_title
;
Structure prediction by ZEFSAII (Michael W. Deem and Ramdas Pophale) SiO2 
 PCOD9442245
Probable space group: P N N M
;
_chemical_formula_sum "Si O2"
_cell_formula_units_Z 56
_cell_length_a 14.079893
_cell_length_b 18.536154
_cell_length_c 9.661396
_cell_angle_alpha 90.000000
_cell_angle_beta 90.000000
_cell_angle_gamma 90.000000
_cell_volume 2521.499385
_symmetry_space_group_name_H-M "P N N M"
_symmetry_group_IT_number 58
_symmetry_cell_setting 'orthorhombic'
loop_
_space_group_symop_operation_xyz
x,y,z
-x,-y,z
1/2+x,1/2-y,1/2-z
1/2-x,1/2+y,1/2-z
-x,-y,-z
x,y,-z
1/2-x,1/2+y,1/2+z
1/2+x,1/2-y,1/2+z
loop_
_atom_site_type_symbol
_atom_site_label
_atom_site_fract_x
_atom_site_fract_y
_atom_site_fract_z
Si Si1 0.787120 0.143889 0.659936
Si Si2 0.289942 0.221613 0.655547
Si Si3 0.939504 0.788752 0.659034
Si Si4 0.952028 0.923616 0.841475
Si Si5 0.941423 0.653125 0.842245
Si Si6 0.612872 0.935817 0.340560
Si Si7 0.733701 0.509381 0.659829
O O1 0.816573 0.137186 0.500000
O O2 0.817138 0.218902 0.730750
O O3 0.671433 0.143823 0.663132
O O4 0.811205 0.075509 0.754737
O O5 0.309719 0.249819 0.500000
O O6 0.176044 0.210218 0.664450
O O7 0.339784 0.144280 0.668562
O O8 0.968524 0.788007 0.500000
O O9 0.974388 0.859566 0.738060
O O10 0.968383 0.716423 0.738111
O O11 0.840049 0.942928 0.836766
O O12 0.977035 0.904204 0.000000
O O13 0.000000 0.000000 0.809469
O O14 0.002498 0.581614 0.814074
O O15 0.965315 0.674698 0.000000
O O16 0.625355 0.961568 0.500000
O O17 0.670387 0.984428 0.234428
O O18 0.748277 0.530172 0.500000
#
# Coordination Sequence:
#
# PCOD9442245 Si02
#       7
#     8   8   8   8   8   8   8
#     4  10  21  37  57  81 114 152 191 232 277 337
#     4   9  18  34  57  81 107 143 184 232 285 333
#     4  10  19  34  57  83 111 141 179 233 287 329
#     4  10  22  39  58  80 110 150 191 230 281 347
#     4   9  20  37  58  83 111 151 192 229 275 335
#     4  10  20  37  60  84 113 149 192 234 281 341
#     4  11  23  38  58  83 113 150 190 236 288 340
#
# _framework density 22.209007
#
# number of rings (size 3 to 8) (size 9 to 14) (size 15 to 20)
#    0.000    2.143    1.429    1.286    0.000    4.857 
#    0.000    8.571    0.000    0.000    0.000    0.000 
#    0.000    0.000    0.000    0.000    0.000    0.000 
#
# Total GULP energy -313258.394688 kJ/mol
# GULP energy per Si atom -5593.899905 kJ/mol
# Density = 2.215846 g / cm^3
# Si number density = 22.209007 Si / 1000 Ang^3
#
#
#
# Elastic Constant Matrix: (Units=GPa)
#
#
# Indices 1 2 3 4 5 6 
#
# 1 70.6739 -2.6832 11.4186 0.0000 0.0000 0.0000
# 2 -2.6832 89.3911 91.9193 0.0000 0.0000 0.0000
# 3 11.4186 91.9193 158.6699 0.0000 0.0000 0.0000
# 4 0.0000 0.0000 0.0000 44.8503 0.0000 0.0000
# 5 0.0000 0.0000 0.0000 0.0000 17.9513 0.0000
# 6 0.0000 0.0000 0.0000 0.0000 0.0000 34.2156
#
#
#
# Elastic Compliance Matrix: (Units=1/GPa)
#
#
# Indices 1 2 3 4 5 6 
#
# 1 0.014824 0.003814 -0.003276 0.000000 0.000000 0.000000
# 2 0.003814 0.028650 -0.016872 0.000000 0.000000 0.000000
# 3 -0.003276 -0.016872 0.016312 0.000000 0.000000 0.000000
# 4 0.000000 0.000000 0.000000 0.022296 0.000000 0.000000
# 5 0.000000 0.000000 0.000000 0.000000 0.055706 0.000000
# 6 0.000000 0.000000 0.000000 0.000000 0.000000 0.029226
#
#
# Mechanical properties :
#
#
# Convention : Reuss Voigt Hill
#
# Bulk Modulus (GPa) = 36.87642 57.78271 47.32957
# Shear Modulus (GPa) = 23.95515 33.94212 28.94864
#
# Velocity S-wave (km/s) = 3.28780 3.91359 3.61427
# Velocity P-wave (km/s) = 5.57254 6.81878 6.22692
#
# Compressibility (1/GPa) = 0.02711760
#
# Stress axis : x y z
#
# Youngs Moduli (GPa) = 67.45998 34.90344 61.30339
#
# Poissons Ratio (x) = -0.13311 0.20084
# Poissons Ratio (y) = -0.25727 1.03431
# Poissons Ratio (z) = 0.22101 0.58889
#
# Static dielectric constant tensor:
#      x y z
#    x 1.894290 0.000000 0.000000 
#    y 0.000000 1.786270 0.000000 
#    z 0.000000 0.000000 1.758890 
# 
# From -- ./inp_files/8185.got.cif
#   From: 2010.05.17/outbox.cif.g08.bks.cpg/sg58_5_cif.got.tgz:8185.got - 2010.06.03 14:20:14.
