data_PCOD9442750
_publ_section_title
;
Structure prediction by ZEFSAII (Michael W. Deem and Ramdas Pophale) SiO2 
 PCOD9442750
Probable space group: P N N M
;
_chemical_formula_sum "Si O2"
_cell_formula_units_Z 40
_cell_length_a 27.159018
_cell_length_b 9.469162
_cell_length_c 7.393424
_cell_angle_alpha 90.000000
_cell_angle_beta 90.000000
_cell_angle_gamma 90.000000
_cell_volume 1901.390074
_symmetry_space_group_name_H-M "P N N M"
_symmetry_group_IT_number 58
_symmetry_cell_setting 'orthorhombic'
loop_
_space_group_symop_operation_xyz
x,y,z
-x,-y,z
1/2+x,1/2-y,1/2-z
1/2-x,1/2+y,1/2-z
-x,-y,-z
x,y,-z
1/2-x,1/2+y,1/2+z
1/2+x,1/2-y,1/2+z
loop_
_atom_site_type_symbol
_atom_site_label
_atom_site_fract_x
_atom_site_fract_y
_atom_site_fract_z
Si Si1 0.701224 0.340416 0.716293
Si Si2 0.107546 0.336157 0.221586
Si Si3 0.500001 0.171749 0.710358
Si Si4 0.201221 0.840430 0.783709
Si Si5 0.892456 0.336146 0.221587
O O1 0.695821 0.348945 0.500000
O O2 0.652690 0.259418 0.783209
O O3 0.750002 0.249995 0.750008
O O4 0.705770 0.499994 0.786139
O O5 0.114873 0.500006 0.273791
O O6 0.053356 0.286612 0.284682
O O7 0.106440 0.335061 0.000000
O O8 0.500001 0.215081 0.500000
O O9 0.446647 0.213394 0.784681
O O10 0.500000 0.000000 0.714824
O O11 0.152687 0.759432 0.716788
O O12 0.195814 0.848966 0.000000
O O13 0.893562 0.335051 0.000000
#
# Coordination Sequence:
#
# PCOD9442750 Si02
#       5
#     8   8   8   8   8
#     4  10  20  32  46  66  91 119 152 187 223 265
#     4   8  13  23  40  61  86 115 145 178 216 258
#     4   7  10  18  35  59  84 111 142 173 210 258
#     4  10  20  32  46  66  91 119 152 187 223 265
#     4   8  13  23  40  61  86 115 145 178 216 258
#
# _framework density 21.037240000000001
#
# number of rings (size 3 to 8) (size 9 to 14) (size 15 to 20)
#    0.000    3.400    0.000    3.600    0.000    2.400 
#    0.000    1.000    0.000    6.000    0.000    1.400 
#    0.000   11.200    0.000    0.000    0.000    0.000 
#
# Total GULP energy -223036.231994 kJ/mol
# GULP energy per Si atom -5575.905800 kJ/mol
# Density = 2.098936 g / cm^3
# Si number density = 21.037240 Si / 1000 Ang^3
#
#
#
# Elastic Constant Matrix: (Units=GPa)
#
#
# Indices 1 2 3 4 5 6 
#
# 1 268.2290 130.5809 6.7343 0.0000 0.0000 0.0000
# 2 130.5809 140.4612 5.6615 0.0000 0.0000 0.0000
# 3 6.7343 5.6615 71.6894 0.0000 0.0000 0.0000
# 4 0.0000 0.0000 0.0000 2.5416 0.0000 0.0000
# 5 0.0000 0.0000 0.0000 0.0000 10.6588 0.0000
# 6 0.0000 0.0000 0.0000 0.0000 0.0000 38.5740
#
#
#
# Elastic Compliance Matrix: (Units=1/GPa)
#
#
# Indices 1 2 3 4 5 6 
#
# 1 0.006812 -0.006327 -0.000140 0.000000 0.000000 0.000000
# 2 -0.006327 0.013019 -0.000434 0.000000 0.000000 0.000000
# 3 -0.000140 -0.000434 0.013996 0.000000 0.000000 0.000000
# 4 0.000000 0.000000 0.000000 0.393447 0.000000 0.000000
# 5 0.000000 0.000000 0.000000 0.000000 0.093820 0.000000
# 6 0.000000 0.000000 0.000000 0.000000 0.000000 0.025924
#
#
# Mechanical properties :
#
#
# Convention : Reuss Voigt Hill
#
# Bulk Modulus (GPa) = 49.93730 85.14812 67.54271
# Shear Modulus (GPa) = 8.81065 32.84841 20.82953
#
# Velocity S-wave (km/s) = 2.04871 3.95579 3.15004
# Velocity P-wave (km/s) = 5.42083 7.83755 6.73842
#
# Compressibility (1/GPa) = 0.02002511
#
# Stress axis : x y z
#
# Youngs Moduli (GPa) = 146.80310 76.81158 71.44649
#
# Poissons Ratio (x) = 0.48599 0.01002
# Poissons Ratio (y) = 0.92883 0.03099
# Poissons Ratio (z) = 0.02059 0.03332
#
# Static dielectric constant tensor:
#      x y z
#    x 1.762130 0.000000 0.000000 
#    y 0.000000 1.741470 0.000000 
#    z 0.000000 0.000000 1.886260 
# 
# From -- ./inp_files/2625.got.cif
#   From: 2010.05.17/outbox.cif.g08.bks.cpg/sg58_2_cif.got.tgz:2625.got - 2010.06.03 14:20:14.
