data_PCOD9442111
_publ_section_title
;
Structure prediction by ZEFSAII (Michael W. Deem and Ramdas Pophale) SiO2 
 PCOD9442111
Probable space group: P N N M
;
_chemical_formula_sum "Si O2"
_cell_formula_units_Z 48
_cell_length_a 10.069681
_cell_length_b 12.590311
_cell_length_c 16.190802
_cell_angle_alpha 90.000000
_cell_angle_beta 90.000000
_cell_angle_gamma 90.000000
_cell_volume 2052.676604
_symmetry_space_group_name_H-M "P N N M"
_symmetry_group_IT_number 58
_symmetry_cell_setting 'orthorhombic'
loop_
_space_group_symop_operation_xyz
x,y,z
-x,-y,z
1/2+x,1/2-y,1/2-z
1/2-x,1/2+y,1/2-z
-x,-y,-z
x,y,-z
1/2-x,1/2+y,1/2+z
1/2+x,1/2-y,1/2+z
loop_
_atom_site_type_symbol
_atom_site_label
_atom_site_fract_x
_atom_site_fract_y
_atom_site_fract_z
Si Si1 0.924989 0.796871 0.736638
Si Si2 0.848741 0.954743 0.595239
Si Si3 0.616952 0.866167 0.096143
Si Si4 0.776124 0.168778 0.327495
Si Si5 0.979521 0.125177 0.092263
Si Si6 0.321357 0.900080 0.899725
O O1 0.840262 0.692355 0.762715
O O2 0.847771 0.863869 0.665561
O O3 0.079821 0.812903 0.714180
O O4 0.932466 0.847086 0.829017
O O5 0.816155 0.922744 0.500000
O O6 0.765826 0.055236 0.628809
O O7 0.000000 0.000000 0.592766
O O8 0.707060 0.763797 0.107066
O O9 0.463003 0.845294 0.121688
O O10 0.665909 0.978220 0.133257
O O11 0.610624 0.887487 0.000000
O O12 0.824917 0.145168 0.115135
O O13 0.006697 0.171791 0.000000
O O14 0.000000 0.000000 0.083001
O O15 0.322252 0.902304 0.000000
#
# Coordination Sequence:
#
# PCOD9442111 Si02
#       6
#     8   8   8   8   8   8
#     4  11  25  42  62  97 131 163 222 281 333 400
#     4   9  20  43  71  94 127 181 233 277 329 400
#     4   9  17  31  54  86 119 157 214 269 322 390
#     4  11  23  39  62  94 124 170 222 282 329 395
#     4  10  19  33  57  84 122 167 200 249 327 397
#     4   8  16  30  50  84 123 160 199 258 334 396
#
# _framework density 23.384101999999999
#
# number of rings (size 3 to 8) (size 9 to 14) (size 15 to 20)
#    0.000    2.333    0.000    4.000    2.333    3.333 
#    3.000    0.833    0.000    2.000    0.000    0.000 
#    0.000    0.000    0.000    0.000    0.000    0.000 
#
# Total GULP energy -267287.984726 kJ/mol
# GULP energy per Si atom -5568.499682 kJ/mol
# Density = 2.333088 g / cm^3
# Si number density = 23.384102 Si / 1000 Ang^3
#
#
#
# Elastic Constant Matrix: (Units=GPa)
#
#
# Indices 1 2 3 4 5 6 
#
# 1 61.7104 10.6260 47.1043 0.0000 0.0000 0.0000
# 2 10.6260 33.8519 19.7315 0.0000 0.0000 0.0000
# 3 47.1043 19.7315 137.4735 0.0000 0.0000 0.0000
# 4 0.0000 0.0000 0.0000 19.2357 0.0000 0.0000
# 5 0.0000 0.0000 0.0000 0.0000 108.0760 0.0000
# 6 0.0000 0.0000 0.0000 0.0000 0.0000 29.8686
#
#
#
# Elastic Compliance Matrix: (Units=1/GPa)
#
#
# Indices 1 2 3 4 5 6 
#
# 1 0.022178 -0.002763 -0.007203 0.000000 0.000000 0.000000
# 2 -0.002763 0.032582 -0.003730 0.000000 0.000000 0.000000
# 3 -0.007203 -0.003730 0.010277 0.000000 0.000000 0.000000
# 4 0.000000 0.000000 0.000000 0.051987 0.000000 0.000000
# 5 0.000000 0.000000 0.000000 0.000000 0.009253 0.000000
# 6 0.000000 0.000000 0.000000 0.000000 0.000000 0.033480
#
#
# Mechanical properties :
#
#
# Convention : Reuss Voigt Hill
#
# Bulk Modulus (GPa) = 26.56311 43.10658 34.83485
# Shear Modulus (GPa) = 25.03795 41.80766 33.42280
#
# Velocity S-wave (km/s) = 3.27574 4.23290 3.78470
# Velocity P-wave (km/s) = 5.06867 6.50877 5.83334
#
# Compressibility (1/GPa) = 0.03764620
#
# Stress axis : x y z
#
# Youngs Moduli (GPa) = 45.08889 30.69204 97.30126
#
# Poissons Ratio (x) = 0.08482 0.70083
# Poissons Ratio (y) = 0.12460 0.36289
# Poissons Ratio (z) = 0.32476 0.11447
#
# Static dielectric constant tensor:
#      x y z
#    x 1.949080 0.000000 0.000000 
#    y 0.000000 2.010810 0.000000 
#    z 0.000000 0.000000 2.018340 
# 
# From -- ./inp_files/26210.got.cif
#   From: 2010.05.17/outbox.cif.g08.bks.cpg/sg58_14_cif.got.tgz:26210.got - 2010.06.03 14:20:14.
