data_PCOD9442152
_publ_section_title
;
Structure prediction by ZEFSAII (Michael W. Deem and Ramdas Pophale) SiO2 
 PCOD9442152
Probable space group: P N N M
;
_chemical_formula_sum "Si O2"
_cell_formula_units_Z 64
_cell_length_a 25.377944
_cell_length_b 15.151559
_cell_length_c 7.627065
_cell_angle_alpha 90.000000
_cell_angle_beta 90.000000
_cell_angle_gamma 90.000000
_cell_volume 2932.724070
_symmetry_space_group_name_H-M "P N N M"
_symmetry_group_IT_number 58
_symmetry_cell_setting 'orthorhombic'
loop_
_space_group_symop_operation_xyz
x,y,z
-x,-y,z
1/2+x,1/2-y,1/2-z
1/2-x,1/2+y,1/2-z
-x,-y,-z
x,y,-z
1/2-x,1/2+y,1/2+z
1/2+x,1/2-y,1/2+z
loop_
_atom_site_type_symbol
_atom_site_label
_atom_site_fract_x
_atom_site_fract_y
_atom_site_fract_z
Si Si1 0.231269 0.173280 0.697745
Si Si2 0.129770 0.447892 0.209916
Si Si3 0.938439 0.251921 0.285134
Si Si4 0.052133 0.948858 0.285612
Si Si5 0.831872 0.992855 0.284439
Si Si6 0.656724 0.862981 0.202668
Si Si7 0.983473 0.596324 0.709045
Si Si8 0.240955 0.375168 0.206221
O O1 0.213566 0.189869 0.500000
O O2 0.191241 0.101599 0.776023
O O3 0.288455 0.127008 0.699044
O O4 0.241187 0.269647 0.776308
O O5 0.124314 0.546570 0.283989
O O6 0.078517 0.392313 0.258770
O O7 0.185135 0.409915 0.278045
O O8 0.131611 0.453754 0.000000
O O9 0.937939 0.253141 0.500000
O O10 0.949836 0.152986 0.230111
O O11 0.880623 0.285262 0.230674
O O12 0.981126 0.323421 0.223882
O O13 0.052149 0.950185 0.500000
O O14 0.108220 0.989392 0.230250
O O15 0.000000 0.000000 0.227315
O O16 0.831385 0.992105 0.500000
O O17 0.791586 0.070652 0.225997
O O18 0.669830 0.846154 0.000000
O O19 0.991924 0.593634 0.500000
O O20 0.000000 0.500000 0.780767
O O21 0.240221 0.394636 0.000000
#
# Coordination Sequence:
#
# PCOD9442152 Si02
#       8
#     8   8   8   8   8   8   8   8
#     4  11  22  36  56  86 116 148 191 240 289 344
#     4  11  22  36  55  81 114 151 191 237 289 345
#     4   9  18  32  53  78 107 146 191 230 275 344
#     4   9  17  30  51  78 104 138 185 230 275 330
#     4   9  18  35  55  77 113 149 181 232 291 337
#     4  11  20  35  58  81 110 152 193 232 287 346
#     4  10  19  34  53  79 114 149 186 233 287 345
#     4  10  21  39  57  78 114 156 189 229 289 354
#
# _framework density 21.822713
#
# number of rings (size 3 to 8) (size 9 to 14) (size 15 to 20)
#    0.000    2.000    2.500    1.875    0.000    4.250 
#    0.000    2.500    0.000    0.000    0.000    0.000 
#    0.000   10.000    0.000    0.000    0.000    0.000 
#
# Total GULP energy -357457.280916 kJ/mol
# GULP energy per Si atom -5585.270014 kJ/mol
# Density = 2.177304 g / cm^3
# Si number density = 21.822713 Si / 1000 Ang^3
#
#
#
# Elastic Constant Matrix: (Units=GPa)
#
#
# Indices 1 2 3 4 5 6 
#
# 1 160.7103 67.9536 0.1990 0.0000 0.0000 0.0000
# 2 67.9536 111.7916 1.4980 0.0000 0.0000 0.0000
# 3 0.1990 1.4980 40.9719 0.0000 0.0000 0.0000
# 4 0.0000 0.0000 0.0000 11.6741 0.0000 0.0000
# 5 0.0000 0.0000 0.0000 0.0000 16.5680 0.0000
# 6 0.0000 0.0000 0.0000 0.0000 0.0000 38.8888
#
#
#
# Elastic Compliance Matrix: (Units=1/GPa)
#
#
# Indices 1 2 3 4 5 6 
#
# 1 0.008376 -0.005093 0.000146 0.000000 0.000000 0.000000
# 2 -0.005093 0.012047 -0.000416 0.000000 0.000000 0.000000
# 3 0.000146 -0.000416 0.024421 0.000000 0.000000 0.000000
# 4 0.000000 0.000000 0.000000 0.085660 0.000000 0.000000
# 5 0.000000 0.000000 0.000000 0.000000 0.060357 0.000000
# 6 0.000000 0.000000 0.000000 0.000000 0.000000 0.025714
#
#
# Mechanical properties :
#
#
# Convention : Reuss Voigt Hill
#
# Bulk Modulus (GPa) = 29.31076 50.30833 39.80954
# Shear Modulus (GPa) = 20.94902 29.68106 25.31504
#
# Velocity S-wave (km/s) = 3.10169 3.69195 3.40962
# Velocity P-wave (km/s) = 5.12716 6.42474 5.81227
#
# Compressibility (1/GPa) = 0.03411717
#
# Stress axis : x y z
#
# Youngs Moduli (GPa) = 119.39173 83.00979 40.94757
#
# Poissons Ratio (x) = 0.42279 -0.00596
# Poissons Ratio (y) = 0.60809 0.01702
# Poissons Ratio (z) = -0.01738 0.03451
#
# Static dielectric constant tensor:
#      x y z
#    x 1.790560 0.000000 0.000000 
#    y 0.000000 1.801910 0.000000 
#    z 0.000000 0.000000 1.835410 
# 
# From -- ./inp_files/9978.got.cif
#   From: 2010.05.17/outbox.cif.g08.bks.cpg/sg58_5_cif.got.tgz:9978.got - 2010.06.03 14:20:14.
