data_PCOD9442673
_publ_section_title
;
Structure prediction by ZEFSAII (Michael W. Deem and Ramdas Pophale) SiO2 
 PCOD9442673
Probable space group: P N N M
;
_chemical_formula_sum "Si O2"
_cell_formula_units_Z 64
_cell_length_a 6.269802
_cell_length_b 18.025996
_cell_length_c 30.086555
_cell_angle_alpha 90.000000
_cell_angle_beta 90.000000
_cell_angle_gamma 90.000000
_cell_volume 3400.365170
_symmetry_space_group_name_H-M "P N N M"
_symmetry_group_IT_number 58
_symmetry_cell_setting 'orthorhombic'
loop_
_space_group_symop_operation_xyz
x,y,z
-x,-y,z
1/2+x,1/2-y,1/2-z
1/2-x,1/2+y,1/2-z
-x,-y,-z
x,y,-z
1/2-x,1/2+y,1/2+z
1/2+x,1/2-y,1/2+z
loop_
_atom_site_type_symbol
_atom_site_label
_atom_site_fract_x
_atom_site_fract_y
_atom_site_fract_z
Si Si1 0.886115 0.811459 0.393179
Si Si2 0.895390 0.925178 0.265152
Si Si3 0.287067 0.327253 0.185079
Si Si4 0.038322 0.412812 0.601990
Si Si5 0.223655 0.652227 0.316049
Si Si6 0.894325 0.422315 0.149244
Si Si7 0.423760 0.321759 0.615817
Si Si8 0.308859 0.213074 0.051546
O O1 0.723720 0.880540 0.391514
O O2 0.744233 0.743461 0.374266
O O3 0.068822 0.833757 0.358864
O O4 0.016501 0.775486 0.434091
O O5 0.734465 0.892347 0.229284
O O6 0.774133 0.939926 0.311487
O O7 0.087191 0.868702 0.275948
O O8 0.000000 0.000000 0.247928
O O9 0.288903 0.239641 0.194103
O O10 0.065449 0.366298 0.172042
O O11 0.283922 0.388951 0.596892
O O12 0.000000 0.500000 0.600157
O O13 0.948758 0.379749 0.649029
O O14 0.913275 0.365954 0.564627
O O15 0.447622 0.647759 0.342340
O O16 0.000000 0.500000 0.136127
O O17 0.597757 0.286154 0.582329
O O18 0.258056 0.218945 0.000000
#
# Coordination Sequence:
#
# PCOD9442673 Si02
#       8
#     8   8   8   8   8   8   8   8
#     4  10  19  38  63  87 118 152 204 247 299 366
#     4  11  26  37  53  87 125 161 206 259 308 355
#     4  11  21  40  56  84 118 157 211 253 301 363
#     4  10  23  40  58  87 123 162 205 247 296 357
#     4  11  23  37  57  83 116 165 209 251 299 351
#     4  11  22  39  60  84 124 162 199 257 309 366
#     4  10  19  38  59  84 115 159 202 246 299 361
#     4  10  21  38  62  93 122 153 201 252 305 371
#
# _framework density 18.821508000000001
#
# number of rings (size 3 to 8) (size 9 to 14) (size 15 to 20)
#    0.000    1.500    6.250    0.000    3.500    5.250 
#    0.000    0.625    0.000    0.375    0.000    3.500 
#    0.000    0.000    0.000    0.000    0.000    0.000 
#
# Total GULP energy -356750.978715 kJ/mol
# GULP energy per Si atom -5574.234042 kJ/mol
# Density = 1.877867 g / cm^3
# Si number density = 18.821508 Si / 1000 Ang^3
#
#
#
# Elastic Constant Matrix: (Units=GPa)
#
#
# Indices 1 2 3 4 5 6 
#
# 1 68.5067 18.7317 2.2972 0.0000 0.0000 0.0000
# 2 18.7317 105.1480 10.6101 0.0000 0.0000 0.0000
# 3 2.2972 10.6101 38.3078 0.0000 0.0000 0.0000
# 4 0.0000 0.0000 0.0000 12.1997 0.0000 0.0000
# 5 0.0000 0.0000 0.0000 0.0000 -1.0387 0.0000
# 6 0.0000 0.0000 0.0000 0.0000 0.0000 29.3941
#
#
#
# Elastic Compliance Matrix: (Units=1/GPa)
#
#
# Indices 1 2 3 4 5 6 
#
# 1 0.015346 -0.002717 -0.000168 0.000000 0.000000 0.000000
# 2 -0.002717 0.010265 -0.002680 0.000000 0.000000 0.000000
# 3 -0.000168 -0.002680 0.026857 0.000000 0.000000 0.000000
# 4 0.000000 0.000000 0.000000 0.081969 0.000000 0.000000
# 5 0.000000 0.000000 0.000000 0.000000 -0.962747 0.000000
# 6 0.000000 0.000000 0.000000 0.000000 0.000000 0.034020
#
#
# Mechanical properties :
#
#
# Convention : Reuss Voigt Hill
#
# Bulk Modulus (GPa) = 24.19100 30.58230 27.38665
# Shear Modulus (GPa) = -6.49873 20.13259 6.81693
#
# Velocity S-wave (km/s) = -1.86019 3.27411 1.90519
# Velocity P-wave (km/s) = 2.87524 5.52964 4.40704
#
# Compressibility (1/GPa) = 0.04133769
#
# Stress axis : x y z
#
# Youngs Moduli (GPa) = 65.16531 97.41991 37.23463
#
# Poissons Ratio (x) = 0.26467 0.00625
# Poissons Ratio (y) = 0.17704 0.09979
# Poissons Ratio (z) = 0.01093 0.26110
#
# Static dielectric constant tensor:
#      x y z
#    x 1.696010 0.000000 0.000000 
#    y 0.000000 1.670660 0.000000 
#    z 0.000000 0.000000 1.618250 
# 
# From -- ./inp_files/34267.got.cif
#   From: 2010.05.17/outbox.cif.g08.bks.cpg/sg58_18_cif.got.tgz:34267.got - 2010.06.03 14:20:14.
