data_PCOD9442434
_publ_section_title
;
Structure prediction by ZEFSAII (Michael W. Deem and Ramdas Pophale) SiO2 
 PCOD9442434
Probable space group: P N N M
;
_chemical_formula_sum "Si O2"
_cell_formula_units_Z 64
_cell_length_a 23.281487
_cell_length_b 16.012417
_cell_length_c 8.253016
_cell_angle_alpha 90.000000
_cell_angle_beta 90.000000
_cell_angle_gamma 90.000000
_cell_volume 3076.665589
_symmetry_space_group_name_H-M "P N N M"
_symmetry_group_IT_number 58
_symmetry_cell_setting 'orthorhombic'
loop_
_space_group_symop_operation_xyz
x,y,z
-x,-y,z
1/2+x,1/2-y,1/2-z
1/2-x,1/2+y,1/2-z
-x,-y,-z
x,y,-z
1/2-x,1/2+y,1/2+z
1/2+x,1/2-y,1/2+z
loop_
_atom_site_type_symbol
_atom_site_label
_atom_site_fract_x
_atom_site_fract_y
_atom_site_fract_z
Si Si1 0.539458 0.574533 0.687144
Si Si2 0.319616 0.677287 0.687493
Si Si3 0.863528 0.647719 0.694805
Si Si4 0.750622 0.069555 0.812674
Si Si5 0.425966 0.244206 0.693639
Si Si6 0.143679 0.013933 0.320255
Si Si7 0.796467 0.244731 0.307114
Si Si8 0.007360 0.404466 0.304620
O O1 0.500000 0.500000 0.760535
O O2 0.520693 0.583308 0.500000
O O3 0.543936 0.668992 0.754400
O O4 0.603552 0.537186 0.699167
O O5 0.323387 0.652176 0.500000
O O6 0.345389 0.768751 0.713728
O O7 0.356460 0.612036 0.789120
O O8 0.252043 0.685934 0.731681
O O9 0.858621 0.662082 0.500000
O O10 0.815852 0.577839 0.734231
O O11 0.927747 0.622332 0.733316
O O12 0.777262 0.162050 0.788971
O O13 0.790560 0.011325 0.706771
O O14 0.754675 0.044208 0.000000
O O15 0.419774 0.252890 0.500000
O O16 0.362169 0.235764 0.767080
O O17 0.463776 0.163444 0.733683
O O18 0.124547 0.991633 0.500000
O O19 0.791098 0.227788 0.500000
O O20 0.000243 0.403278 0.500000
O O21 0.000000 0.500000 0.249528
#
# Coordination Sequence:
#
# PCOD9442434 Si02
#       8
#     8   8   8   8   8   8   8   8
#     4  10  23  42  62  88 125 167 209 252 309 374
#     4  10  22  38  59  87 121 159 197 242 305 369
#     4   9  20  39  62  87 117 155 202 251 304 359
#     4  10  19  35  59  85 119 158 196 246 303 359
#     4  11  23  39  64  93 125 166 206 259 313 362
#     4  12  24  37  58  91 127 159 202 249 298 360
#     4  10  20  37  60  87 116 154 201 247 299 364
#     4  10  23  43  64  88 121 162 209 259 308 365
#
# _framework density 20.801741
#
# number of rings (size 3 to 8) (size 9 to 14) (size 15 to 20)
#    0.000    1.750    1.250    2.625    1.750    4.500 
#    0.000    2.500    0.000    0.000    0.000    0.000 
#    0.000    0.000    0.000    0.000    0.000    0.000 
#
# Total GULP energy -357333.425715 kJ/mol
# GULP energy per Si atom -5583.334777 kJ/mol
# Density = 2.075439 g / cm^3
# Si number density = 20.801741 Si / 1000 Ang^3
#
#
#
# Elastic Constant Matrix: (Units=GPa)
#
#
# Indices 1 2 3 4 5 6 
#
# 1 88.7371 29.1053 6.8707 0.0000 0.0000 0.0000
# 2 29.1053 94.3664 4.7160 0.0000 0.0000 0.0000
# 3 6.8707 4.7160 20.5569 0.0000 0.0000 0.0000
# 4 0.0000 0.0000 0.0000 16.4855 0.0000 0.0000
# 5 0.0000 0.0000 0.0000 0.0000 16.5561 0.0000
# 6 0.0000 0.0000 0.0000 0.0000 0.0000 22.6373
#
#
#
# Elastic Compliance Matrix: (Units=1/GPa)
#
#
# Indices 1 2 3 4 5 6 
#
# 1 0.012769 -0.003768 -0.003403 0.000000 0.000000 0.000000
# 2 -0.003768 0.011832 -0.001455 0.000000 0.000000 0.000000
# 3 -0.003403 -0.001455 0.050117 0.000000 0.000000 0.000000
# 4 0.000000 0.000000 0.000000 0.060659 0.000000 0.000000
# 5 0.000000 0.000000 0.000000 0.000000 0.060401 0.000000
# 6 0.000000 0.000000 0.000000 0.000000 0.000000 0.044175
#
#
# Mechanical properties :
#
#
# Convention : Reuss Voigt Hill
#
# Bulk Modulus (GPa) = 17.40198 31.67161 24.53680
# Shear Modulus (GPa) = 18.09235 22.00033 20.04634
#
# Velocity S-wave (km/s) = 2.95235 3.25563 3.10770
# Velocity P-wave (km/s) = 4.47277 5.42132 4.96973
#
# Compressibility (1/GPa) = 0.05746471
#
# Stress axis : x y z
#
# Youngs Moduli (GPa) = 78.31659 84.51724 19.95339
#
# Poissons Ratio (x) = 0.31847 0.06791
# Poissons Ratio (y) = 0.29511 0.02903
# Poissons Ratio (z) = 0.26653 0.12297
#
# Static dielectric constant tensor:
#      x y z
#    x 1.737850 0.000000 0.000000 
#    y 0.000000 1.748720 0.000000 
#    z 0.000000 0.000000 1.745580 
# 
# From -- ./inp_files/9934.got.cif
#   From: 2010.05.17/outbox.cif.g08.bks.cpg/sg58_5_cif.got.tgz:9934.got - 2010.06.03 14:20:14.
