data_PCOD9442181
_publ_section_title
;
Structure prediction by ZEFSAII (Michael W. Deem and Ramdas Pophale) SiO2 
 PCOD9442181
Probable space group: P N N M
;
_chemical_formula_sum "Si O2"
_cell_formula_units_Z 64
_cell_length_a 18.256509
_cell_length_b 8.873499
_cell_length_c 21.556022
_cell_angle_alpha 90.000000
_cell_angle_beta 90.000000
_cell_angle_gamma 90.000000
_cell_volume 3492.056473
_symmetry_space_group_name_H-M "P N N M"
_symmetry_group_IT_number 58
_symmetry_cell_setting 'orthorhombic'
loop_
_space_group_symop_operation_xyz
x,y,z
-x,-y,z
1/2+x,1/2-y,1/2-z
1/2-x,1/2+y,1/2-z
-x,-y,-z
x,y,-z
1/2-x,1/2+y,1/2+z
1/2+x,1/2-y,1/2+z
loop_
_atom_site_type_symbol
_atom_site_label
_atom_site_fract_x
_atom_site_fract_y
_atom_site_fract_z
Si Si1 0.128171 0.331218 0.311483
Si Si2 0.140943 0.800888 0.428778
Si Si3 0.312165 0.274600 0.426998
Si Si4 0.244535 0.562540 0.364836
Si Si5 0.839604 0.661297 0.819480
Si Si6 0.978414 0.674773 0.430372
Si Si7 0.913334 0.488024 0.928914
Si Si8 0.286089 0.554431 0.850088
O O1 0.183243 0.468336 0.327159
O O2 0.106238 0.349573 0.239494
O O3 0.073013 0.312263 0.369746
O O4 0.172315 0.175255 0.309568
O O5 0.153524 0.844725 0.500000
O O6 0.194904 0.661467 0.412342
O O7 0.055521 0.759825 0.421923
O O8 0.161956 0.933742 0.382443
O O9 0.307786 0.297932 0.500000
O O10 0.295346 0.432991 0.394751
O O11 0.251644 0.155400 0.403472
O O12 0.386140 0.181256 0.412198
O O13 0.296835 0.681672 0.330080
O O14 0.878851 0.608874 0.882497
O O15 0.775222 0.536831 0.812759
O O16 0.947864 0.715228 0.500000
O O17 0.000000 0.500000 0.433502
O O18 0.000000 0.500000 0.926779
O O19 0.888365 0.514830 0.000000
#
# Coordination Sequence:
#
# PCOD9442181 Si02
#       8
#     8   8   8   8   8   8   8   8
#     4  11  21  36  57  77 112 150 189 227 276 325
#     4  10  19  34  55  81 116 151 185 229 280 329
#     4   9  17  31  55  86 112 139 181 225 277 336
#     4  10  20  33  55  83 111 143 183 231 279 321
#     4  10  21  37  58  82 110 143 186 229 279 334
#     4  10  21  36  54  82 116 152 193 232 271 330
#     4   9  19  38  60  82 110 141 177 227 280 335
#     4   9  20  34  53  82 111 144 187 231 276 324
#
# _framework density 18.327310000000001
#
# number of rings (size 3 to 8) (size 9 to 14) (size 15 to 20)
#    0.000    2.250    1.250    1.500    0.000    7.000 
#    0.000    1.875    2.750    2.250    0.000    0.000 
#    0.000    0.000    0.000    0.000    0.000    0.000 
#
# Total GULP energy -356398.976898 kJ/mol
# GULP energy per Si atom -5568.734014 kJ/mol
# Density = 1.828560 g / cm^3
# Si number density = 18.327310 Si / 1000 Ang^3
#
#
#
# Elastic Constant Matrix: (Units=GPa)
#
#
# Indices 1 2 3 4 5 6 
#
# 1 52.8531 15.0868 41.7803 0.0000 0.0000 0.0000
# 2 15.0868 77.5562 14.4092 0.0000 0.0000 0.0000
# 3 41.7803 14.4092 96.0392 0.0000 0.0000 0.0000
# 4 0.0000 0.0000 0.0000 -5.1099 0.0000 0.0000
# 5 0.0000 0.0000 0.0000 0.0000 15.7120 0.0000
# 6 0.0000 0.0000 0.0000 0.0000 0.0000 11.4349
#
#
#
# Elastic Compliance Matrix: (Units=1/GPa)
#
#
# Indices 1 2 3 4 5 6 
#
# 1 0.029721 -0.003476 -0.012408 0.000000 0.000000 0.000000
# 2 -0.003476 0.013670 -0.000539 0.000000 0.000000 0.000000
# 3 -0.012408 -0.000539 0.015891 0.000000 0.000000 0.000000
# 4 0.000000 0.000000 0.000000 -0.195698 0.000000 0.000000
# 5 0.000000 0.000000 0.000000 0.000000 0.063645 0.000000
# 6 0.000000 0.000000 0.000000 0.000000 0.000000 0.087451
#
#
# Mechanical properties :
#
#
# Convention : Reuss Voigt Hill
#
# Bulk Modulus (GPa) = 37.82670 41.00012 39.41341
# Shear Modulus (GPa) = 88.74740 14.75223 51.74982
#
# Velocity S-wave (km/s) = 6.96625 2.84021 5.31956
# Velocity P-wave (km/s) = 9.24063 5.75980 7.69950
#
# Compressibility (1/GPa) = 0.02643635
#
# Stress axis : x y z
#
# Youngs Moduli (GPa) = 33.64591 73.15189 62.92782
#
# Poissons Ratio (x) = 0.25430 0.78082
# Poissons Ratio (y) = 0.11696 0.03390
# Poissons Ratio (z) = 0.41749 0.03941
#
# Static dielectric constant tensor:
#      x y z
#    x 1.633860 0.000000 0.000000 
#    y 0.000000 1.623500 0.000000 
#    z 0.000000 0.000000 1.673170 
# 
# From -- ./inp_files/30288.got.cif
#   From: 2010.05.17/outbox.cif.g08.bks.cpg/sg58_16_cif.got.tgz:30288.got - 2010.06.03 14:20:14.
