data_PCOD9442714
_publ_section_title
;
Structure prediction by ZEFSAII (Michael W. Deem and Ramdas Pophale) SiO2 
 PCOD9442714
Probable space group: P N N M
;
_chemical_formula_sum "Si O2"
_cell_formula_units_Z 56
_cell_length_a 13.596338
_cell_length_b 9.277499
_cell_length_c 17.723785
_cell_angle_alpha 90.000000
_cell_angle_beta 90.000000
_cell_angle_gamma 90.000000
_cell_volume 2235.678456
_symmetry_space_group_name_H-M "P N N M"
_symmetry_group_IT_number 58
_symmetry_cell_setting 'orthorhombic'
loop_
_space_group_symop_operation_xyz
x,y,z
-x,-y,z
1/2+x,1/2-y,1/2-z
1/2-x,1/2+y,1/2-z
-x,-y,-z
x,y,-z
1/2-x,1/2+y,1/2+z
1/2+x,1/2-y,1/2+z
loop_
_atom_site_type_symbol
_atom_site_label
_atom_site_fract_x
_atom_site_fract_y
_atom_site_fract_z
Si Si1 0.000000 0.000000 0.704808
Si Si2 0.631394 0.550603 0.653231
Si Si3 0.514240 0.794116 0.584105
Si Si4 0.494105 0.231933 0.087958
Si Si5 0.812292 0.337940 0.770521
Si Si6 0.500000 0.000000 0.198035
Si Si7 0.232316 0.684503 0.602555
Si Si8 0.836778 0.546954 0.882648
O O1 0.087294 0.011343 0.767853
O O2 0.009041 0.867510 0.645705
O O3 0.547099 0.637495 0.608050
O O4 0.690635 0.691625 0.682433
O O5 0.693217 0.449830 0.596120
O O6 0.472836 0.796113 0.500000
O O7 0.429187 0.851534 0.638774
O O8 0.604084 0.909291 0.583712
O O9 0.550242 0.113154 0.139353
O O10 0.381518 0.172728 0.081642
O O11 0.527342 0.255410 0.000000
O O12 0.920416 0.405724 0.745706
O O13 0.763144 0.305153 0.692765
O O14 0.772813 0.469129 0.819586
O O15 0.269173 0.839590 0.575588
#
# Coordination Sequence:
#
# PCOD9442714 Si02
#       8
#     4   8   8   8   8   4   8   8
#     4  12  23  46  69  98 132 172 240 288 333 408
#     4  11  22  39  65 100 129 170 220 280 341 391
#     4  10  22  41  63  93 132 178 220 262 326 410
#     4  11  26  45  67  95 135 185 227 282 347 407
#     4  10  20  37  61  97 126 164 212 283 329 385
#     4  10  19  40  66  92 125 170 226 276 323 402
#     4  11  23  39  62  97 134 163 217 278 340 397
#     4  10  20  36  65  92 128 171 221 263 327 396
#
# _framework density 25.048324999999998
#
# number of rings (size 3 to 8) (size 9 to 14) (size 15 to 20)
#    0.000    1.429    2.857    4.714    2.000    1.714 
#    0.000    2.500    0.000    3.429    0.000    0.000 
#    0.000    0.000    0.000    0.000    0.000    0.000 
#
# Total GULP energy -311802.609818 kJ/mol
# GULP energy per Si atom -5567.903747 kJ/mol
# Density = 2.499131 g / cm^3
# Si number density = 25.048325 Si / 1000 Ang^3
#
#
#
# Elastic Constant Matrix: (Units=GPa)
#
#
# Indices 1 2 3 4 5 6 
#
# 1 50.5010 25.8308 7.4321 0.0000 0.0000 0.0000
# 2 25.8308 141.6442 50.2618 0.0000 0.0000 0.0000
# 3 7.4321 50.2618 116.1685 0.0000 0.0000 0.0000
# 4 0.0000 0.0000 0.0000 126.4986 0.0000 0.0000
# 5 0.0000 0.0000 0.0000 0.0000 7.5712 0.0000
# 6 0.0000 0.0000 0.0000 0.0000 0.0000 31.8290
#
#
#
# Elastic Compliance Matrix: (Units=1/GPa)
#
#
# Indices 1 2 3 4 5 6 
#
# 1 0.021853 -0.004122 0.000385 0.000000 0.000000 0.000000
# 2 -0.004122 0.009118 -0.003681 0.000000 0.000000 0.000000
# 3 0.000385 -0.003681 0.010176 0.000000 0.000000 0.000000
# 4 0.000000 0.000000 0.000000 0.007905 0.000000 0.000000
# 5 0.000000 0.000000 0.000000 0.000000 0.132080 0.000000
# 6 0.000000 0.000000 0.000000 0.000000 0.000000 0.031418
#
#
# Mechanical properties :
#
#
# Convention : Reuss Voigt Hill
#
# Bulk Modulus (GPa) = 38.00604 52.81812 45.41208
# Shear Modulus (GPa) = 21.17235 48.16568 34.66901
#
# Velocity S-wave (km/s) = 2.91049 4.38986 3.72437
# Velocity P-wave (km/s) = 5.14788 6.84301 6.05505
#
# Compressibility (1/GPa) = 0.02631161
#
# Stress axis : x y z
#
# Youngs Moduli (GPa) = 45.75978 109.67397 98.26768
#
# Poissons Ratio (x) = 0.45207 -0.03787
# Poissons Ratio (y) = 0.18862 0.36175
# Poissons Ratio (z) = -0.01763 0.40374
#
# Static dielectric constant tensor:
#      x y z
#    x 2.072760 0.000000 0.000000 
#    y 0.000000 1.993650 0.000000 
#    z 0.000000 0.000000 2.105810 
# 
# From -- ./inp_files/30078.got.cif
#   From: 2010.05.17/outbox.cif.g08.bks.cpg/sg58_16_cif.got.tgz:30078.got - 2010.06.03 14:20:14.
