data_PCOD9442189
_publ_section_title
;
Structure prediction by ZEFSAII (Michael W. Deem and Ramdas Pophale) SiO2 
 PCOD9442189
Probable space group: P N N M
;
_chemical_formula_sum "Si O2"
_cell_formula_units_Z 64
_cell_length_a 18.930073
_cell_length_b 20.611062
_cell_length_c 7.358845
_cell_angle_alpha 90.000000
_cell_angle_beta 90.000000
_cell_angle_gamma 90.000000
_cell_volume 2871.192520
_symmetry_space_group_name_H-M "P N N M"
_symmetry_group_IT_number 58
_symmetry_cell_setting 'orthorhombic'
loop_
_space_group_symop_operation_xyz
x,y,z
-x,-y,z
1/2+x,1/2-y,1/2-z
1/2-x,1/2+y,1/2-z
-x,-y,-z
x,y,-z
1/2-x,1/2+y,1/2+z
1/2+x,1/2-y,1/2+z
loop_
_atom_site_type_symbol
_atom_site_label
_atom_site_fract_x
_atom_site_fract_y
_atom_site_fract_z
Si Si1 0.358726 0.268272 0.781718
Si Si2 0.452678 0.557826 0.212400
Si Si3 0.017974 0.202093 0.722260
Si Si4 0.480005 0.072248 0.778674
Si Si5 0.327117 0.125288 0.221690
Si Si6 0.899455 0.673990 0.278169
Si Si7 0.248847 0.381516 0.714234
Si Si8 0.708771 0.475896 0.720035
O O1 0.439663 0.275797 0.720762
O O2 0.325496 0.200198 0.718428
O O3 0.312203 0.330573 0.734657
O O4 0.361149 0.265027 0.000000
O O5 0.500000 0.500000 0.291685
O O6 0.466656 0.629512 0.286951
O O7 0.370880 0.539733 0.225703
O O8 0.472482 0.562530 0.000000
O O9 0.018580 0.202375 0.500000
O O10 0.076031 0.254651 0.779912
O O11 0.402194 0.094726 0.722468
O O12 0.539715 0.123392 0.723869
O O13 0.500000 0.000000 0.719501
O O14 0.479491 0.071988 0.000000
O O15 0.262972 0.079784 0.281309
O O16 0.326175 0.125235 0.000000
O O17 0.898078 0.674628 0.500000
O O18 0.823307 0.649942 0.213254
O O19 0.236693 0.390979 0.500000
O O20 0.267942 0.452759 0.785908
O O21 0.710288 0.476599 0.500000
#
# Coordination Sequence:
#
# PCOD9442189 Si02
#       8
#     8   8   8   8   8   8   8   8
#     4  10  19  34  56  77 102 137 174 213 259 309
#     4  10  21  36  55  78 102 134 180 225 260 299
#     4   9  17  31  51  74 100 130 169 216 256 297
#     4   9  14  23  44  72 101 131 163 200 246 298
#     4   9  17  30  48  75 107 135 165 208 258 307
#     4   9  16  28  46  73 102 131 166 206 253 301
#     4  10  21  34  51  76 107 138 169 212 263 313
#     4  10  21  36  52  77 111 140 170 211 265 322
#
# _framework density 22.290391
#
# number of rings (size 3 to 8) (size 9 to 14) (size 15 to 20)
#    0.000    2.500    1.250    1.500    1.750    4.750 
#    0.000    0.625    0.000    0.750    0.000    0.000 
#    0.000    3.500    0.000    0.000    0.000    0.000 
#
# Total GULP energy -357734.218639 kJ/mol
# GULP energy per Si atom -5589.597166 kJ/mol
# Density = 2.223966 g / cm^3
# Si number density = 22.290391 Si / 1000 Ang^3
#
#
#
# Elastic Constant Matrix: (Units=GPa)
#
#
# Indices 1 2 3 4 5 6 
#
# 1 100.5343 67.4707 -16.8617 0.0000 0.0000 0.0000
# 2 67.4707 216.2038 -0.7862 0.0000 0.0000 0.0000
# 3 -16.8617 -0.7862 77.6735 0.0000 0.0000 0.0000
# 4 0.0000 0.0000 0.0000 -3.9583 0.0000 0.0000
# 5 0.0000 0.0000 0.0000 0.0000 2.3086 0.0000
# 6 0.0000 0.0000 0.0000 0.0000 0.0000 44.1711
#
#
#
# Elastic Compliance Matrix: (Units=1/GPa)
#
#
# Indices 1 2 3 4 5 6 
#
# 1 0.013171 -0.004100 0.002818 0.000000 0.000000 0.000000
# 2 -0.004100 0.005902 -0.000830 0.000000 0.000000 0.000000
# 3 0.002818 -0.000830 0.013478 0.000000 0.000000 0.000000
# 4 0.000000 0.000000 0.000000 -0.252633 0.000000 0.000000
# 5 0.000000 0.000000 0.000000 0.000000 0.433158 0.000000
# 6 0.000000 0.000000 0.000000 0.000000 0.000000 0.022639
#
#
# Mechanical properties :
#
#
# Convention : Reuss Voigt Hill
#
# Bulk Modulus (GPa) = 35.30421 54.89525 45.09973
# Shear Modulus (GPa) = 20.04958 31.47686 25.76322
#
# Velocity S-wave (km/s) = 3.00237 3.76190 3.40339
# Velocity P-wave (km/s) = 5.28126 6.59924 5.97669
#
# Compressibility (1/GPa) = 0.02832523
#
# Stress axis : x y z
#
# Youngs Moduli (GPa) = 75.92395 169.44129 74.19668
#
# Poissons Ratio (x) = 0.69472 -0.20907
# Poissons Ratio (y) = 0.31129 0.06161
# Poissons Ratio (z) = -0.21393 0.14069
#
# Static dielectric constant tensor:
#      x y z
#    x 1.746820 0.000000 0.000000 
#    y 0.000000 1.772840 0.000000 
#    z 0.000000 0.000000 1.880360 
# 
# From -- ./inp_files/15926.got.cif
#   From: 2010.05.17/outbox.cif.g08.bks.cpg/sg58_8_cif.got.tgz:15926.got - 2010.06.03 14:20:14.
