data_PCOD9442566
_publ_section_title
;
Structure prediction by ZEFSAII (Michael W. Deem and Ramdas Pophale) SiO2 
 PCOD9442566
Probable space group: P N N M
;
_chemical_formula_sum "Si O2"
_cell_formula_units_Z 40
_cell_length_a 11.518326
_cell_length_b 14.406155
_cell_length_c 11.868535
_cell_angle_alpha 90.000000
_cell_angle_beta 90.000000
_cell_angle_gamma 90.000000
_cell_volume 1969.402859
_symmetry_space_group_name_H-M "P N N M"
_symmetry_group_IT_number 58
_symmetry_cell_setting 'orthorhombic'
loop_
_space_group_symop_operation_xyz
x,y,z
-x,-y,z
1/2+x,1/2-y,1/2-z
1/2-x,1/2+y,1/2-z
-x,-y,-z
x,y,-z
1/2-x,1/2+y,1/2+z
1/2+x,1/2-y,1/2+z
loop_
_atom_site_type_symbol
_atom_site_label
_atom_site_fract_x
_atom_site_fract_y
_atom_site_fract_z
Si Si1 0.389543 0.070992 0.373962
Si Si2 0.528036 0.607525 0.866438
Si Si3 0.947769 0.364387 0.500000
Si Si4 0.260586 0.917636 0.244457
Si Si5 0.984037 0.714152 0.265555
Si Si6 0.795573 0.538394 0.500000
O O1 0.341259 0.077083 0.500000
O O2 0.433198 0.170643 0.330236
O O3 0.500000 0.000000 0.376596
O O4 0.303896 0.017276 0.290824
O O5 0.500000 0.500000 0.847251
O O6 0.660631 0.617953 0.825889
O O7 0.459798 0.677499 0.783719
O O8 0.510029 0.625587 0.000000
O O9 0.837404 0.431982 0.500000
O O10 0.952188 0.310204 0.383317
O O11 0.074897 0.414817 0.500000
O O12 0.366891 0.845181 0.245438
O O13 0.230753 0.932145 0.113404
#
# Coordination Sequence:
#
# PCOD9442566 Si02
#       6
#     8   8   4   8   8   4
#     4   9  17  31  57  90 119 146 188 248 303 351
#     4  11  25  43  60  83 122 165 204 245 296 361
#     4   9  14  30  59  90 112 141 200 258 290 339
#     4  10  20  36  61  89 119 156 198 248 303 358
#     4  10  19  36  61  87 115 153 206 251 292 353
#     4   9  16  30  59  90 116 147 189 251 308 346
#
# _framework density 20.310725999999999
#
# number of rings (size 3 to 8) (size 9 to 14) (size 15 to 20)
#    0.000    2.200    3.000    0.600    0.000    2.400 
#    1.800    0.500    0.000    0.000    0.000    0.000 
#    0.000    0.000    0.000    0.000    0.000    0.000 
#
# Total GULP energy -222889.027037 kJ/mol
# GULP energy per Si atom -5572.225676 kJ/mol
# Density = 2.026450 g / cm^3
# Si number density = 20.310726 Si / 1000 Ang^3
#
#
#
# Elastic Constant Matrix: (Units=GPa)
#
#
# Indices 1 2 3 4 5 6 
#
# 1 26.9118 12.2594 8.5508 0.0000 0.0000 0.0000
# 2 12.2594 116.2188 38.3685 0.0000 0.0000 0.0000
# 3 8.5508 38.3685 100.2759 0.0000 0.0000 0.0000
# 4 0.0000 0.0000 0.0000 27.5118 0.0000 0.0000
# 5 0.0000 0.0000 0.0000 0.0000 19.4614 0.0000
# 6 0.0000 0.0000 0.0000 0.0000 0.0000 13.8966
#
#
#
# Elastic Compliance Matrix: (Units=1/GPa)
#
#
# Indices 1 2 3 4 5 6 
#
# 1 0.039390 -0.003487 -0.002025 0.000000 0.000000 0.000000
# 2 -0.003487 0.010157 -0.003589 0.000000 0.000000 0.000000
# 3 -0.002025 -0.003589 0.011518 0.000000 0.000000 0.000000
# 4 0.000000 0.000000 0.000000 0.036348 0.000000 0.000000
# 5 0.000000 0.000000 0.000000 0.000000 0.051384 0.000000
# 6 0.000000 0.000000 0.000000 0.000000 0.000000 0.071960
#
#
# Mechanical properties :
#
#
# Convention : Reuss Voigt Hill
#
# Bulk Modulus (GPa) = 23.32928 40.19600 31.76264
# Shear Modulus (GPa) = 19.74358 24.45581 22.09970
#
# Velocity S-wave (km/s) = 3.12120 3.47375 3.30218
# Velocity P-wave (km/s) = 4.94978 5.99356 5.49650
#
# Compressibility (1/GPa) = 0.04286458
#
# Stress axis : x y z
#
# Youngs Moduli (GPa) = 25.38712 98.45274 86.81724
#
# Poissons Ratio (x) = 0.34326 0.17579
# Poissons Ratio (y) = 0.08851 0.31160
# Poissons Ratio (z) = 0.05140 0.35336
#
# Static dielectric constant tensor:
#      x y z
#    x 1.737190 0.000000 0.000000 
#    y 0.000000 1.815200 0.000000 
#    z 0.000000 0.000000 1.691220 
# 
# From -- ./inp_files/14146.got.cif
#   From: 2010.05.17/outbox.cif.g08.bks.cpg/sg58_8_cif.got.tgz:14146.got - 2010.06.03 14:20:14.
