data_PCOD9442953
_publ_section_title
;
Structure prediction by ZEFSAII (Michael W. Deem and Ramdas Pophale) SiO2 
 PCOD9442953
Probable space group: P N N M
;
_chemical_formula_sum "Si O2"
_cell_formula_units_Z 56
_cell_length_a 15.053902
_cell_length_b 22.188866
_cell_length_c 7.772698
_cell_angle_alpha 90.000000
_cell_angle_beta 90.000000
_cell_angle_gamma 90.000000
_cell_volume 2596.306651
_symmetry_space_group_name_H-M "P N N M"
_symmetry_group_IT_number 58
_symmetry_cell_setting 'orthorhombic'
loop_
_space_group_symop_operation_xyz
x,y,z
-x,-y,z
1/2+x,1/2-y,1/2-z
1/2-x,1/2+y,1/2-z
-x,-y,-z
x,y,-z
1/2-x,1/2+y,1/2+z
1/2+x,1/2-y,1/2+z
loop_
_atom_site_type_symbol
_atom_site_label
_atom_site_fract_x
_atom_site_fract_y
_atom_site_fract_z
Si Si1 0.151028 0.541504 0.705305
Si Si2 0.526980 0.844602 0.796397
Si Si3 0.676744 0.631103 0.197735
Si Si4 0.505496 0.429852 0.789250
Si Si5 0.311894 0.233710 0.301036
Si Si6 0.189838 0.124938 0.702426
Si Si7 0.635055 0.090176 0.801037
O O1 0.165335 0.535529 0.500000
O O2 0.074500 0.590703 0.728403
O O3 0.240859 0.569967 0.779296
O O4 0.125707 0.476301 0.776651
O O5 0.591500 0.797485 0.706752
O O6 0.427404 0.856505 0.730899
O O7 0.528183 0.828595 0.000000
O O8 0.583302 0.605476 0.263683
O O9 0.682062 0.703074 0.206933
O O10 0.762152 0.606042 0.294078
O O11 0.685082 0.611126 0.000000
O O12 0.500000 0.500000 0.736921
O O13 0.594833 0.396177 0.727296
O O14 0.508795 0.429472 0.000000
O O15 0.288995 0.246005 0.500000
O O16 0.241377 0.184352 0.228836
O O17 0.177569 0.136835 0.500000
O O18 0.605561 0.085393 0.000000
#
# Coordination Sequence:
#
# PCOD9442953 Si02
#       7
#     8   8   8   8   8   8   8
#     4   9  17  31  53  82 111 137 170 213 261 316
#     4   9  18  34  56  79 106 142 179 213 257 319
#     4  11  23  37  55  78 105 140 183 228 270 320
#     4   9  18  34  56  80 104 134 176 223 270 321
#     4  10  21  37  55  78 108 139 176 223 273 323
#     4   9  18  34  56  78 103 139 177 215 266 324
#     4  10  20  34  53  78 109 142 173 212 265 317
#
# _framework density 21.569101
#
# number of rings (size 3 to 8) (size 9 to 14) (size 15 to 20)
#    0.000    2.429    0.000    2.143    0.000    5.714 
#    0.000    4.286    0.000    8.143    0.000    0.000 
#    0.000    0.000    0.000    0.000    0.000    0.000 
#
# Total GULP energy -312504.748135 kJ/mol
# GULP energy per Si atom -5580.441931 kJ/mol
# Density = 2.152001 g / cm^3
# Si number density = 21.569101 Si / 1000 Ang^3
#
#
#
# Elastic Constant Matrix: (Units=GPa)
#
#
# Indices 1 2 3 4 5 6 
#
# 1 102.6671 -2.2969 1.3727 0.0000 0.0000 0.0000
# 2 -2.2969 59.3061 -2.8771 0.0000 0.0000 0.0000
# 3 1.3727 -2.8771 30.0306 0.0000 0.0000 0.0000
# 4 0.0000 0.0000 0.0000 15.1727 0.0000 0.0000
# 5 0.0000 0.0000 0.0000 0.0000 26.2838 0.0000
# 6 0.0000 0.0000 0.0000 0.0000 0.0000 7.3517
#
#
#
# Elastic Compliance Matrix: (Units=1/GPa)
#
#
# Indices 1 2 3 4 5 6 
#
# 1 0.009754 0.000358 -0.000412 0.000000 0.000000 0.000000
# 2 0.000358 0.016954 0.001608 0.000000 0.000000 0.000000
# 3 -0.000412 0.001608 0.033472 0.000000 0.000000 0.000000
# 4 0.000000 0.000000 0.000000 0.065908 0.000000 0.000000
# 5 0.000000 0.000000 0.000000 0.000000 0.038046 0.000000
# 6 0.000000 0.000000 0.000000 0.000000 0.000000 0.136024
#
#
# Mechanical properties :
#
#
# Convention : Reuss Voigt Hill
#
# Bulk Modulus (GPa) = 15.80087 20.48905 18.14496
# Shear Modulus (GPa) = 15.71611 22.81531 19.26571
#
# Velocity S-wave (km/s) = 2.70226 3.25588 2.99190
# Velocity P-wave (km/s) = 4.13254 4.86356 4.51288
#
# Compressibility (1/GPa) = 0.06328767
#
# Stress axis : x y z
#
# Youngs Moduli (GPa) = 102.52496 58.98479 29.87551
#
# Poissons Ratio (x) = -0.02110 0.01230
# Poissons Ratio (y) = -0.03668 -0.04804
# Poissons Ratio (z) = 0.04220 -0.09484
#
# Static dielectric constant tensor:
#      x y z
#    x 1.789560 0.000000 0.000000 
#    y 0.000000 1.772360 0.000000 
#    z 0.000000 0.000000 1.803220 
# 
# From -- ./inp_files/6398.got.cif
#   From: 2010.05.17/outbox.cif.g08.bks.cpg/sg58_4_cif.got.tgz:6398.got - 2010.06.03 14:20:14.
