data_PCOD9442069
_publ_section_title
;
Structure prediction by ZEFSAII (Michael W. Deem and Ramdas Pophale) SiO2 
 PCOD9442069
Probable space group: P N N M
;
_chemical_formula_sum "Si O2"
_cell_formula_units_Z 64
_cell_length_a 10.528726
_cell_length_b 33.511442
_cell_length_c 8.908017
_cell_angle_alpha 90.000000
_cell_angle_beta 90.000000
_cell_angle_gamma 90.000000
_cell_volume 3143.040498
_symmetry_space_group_name_H-M "P N N M"
_symmetry_group_IT_number 58
_symmetry_cell_setting 'orthorhombic'
loop_
_space_group_symop_operation_xyz
x,y,z
-x,-y,z
1/2+x,1/2-y,1/2-z
1/2-x,1/2+y,1/2-z
-x,-y,-z
x,y,-z
1/2-x,1/2+y,1/2+z
1/2+x,1/2-y,1/2+z
loop_
_atom_site_type_symbol
_atom_site_label
_atom_site_fract_x
_atom_site_fract_y
_atom_site_fract_z
Si Si1 0.250423 0.545588 0.820295
Si Si2 0.513178 0.729405 0.321567
Si Si3 0.199939 0.465403 0.323069
Si Si4 0.115633 0.385257 0.819610
Si Si5 0.112664 0.850446 0.676754
Si Si6 0.836373 0.367116 0.182249
Si Si7 0.460083 0.439984 0.824449
Si Si8 0.252864 0.717561 0.818890
O O1 0.177624 0.509203 0.743919
O O2 0.209726 0.589487 0.766768
O O3 0.401958 0.542349 0.792973
O O4 0.231487 0.543512 0.000000
O O5 0.500723 0.731647 0.500000
O O6 0.556262 0.685398 0.270795
O O7 0.377617 0.737608 0.247687
O O8 0.624807 0.759508 0.275150
O O9 0.183071 0.465382 0.500000
O O10 0.120861 0.429464 0.249414
O O11 0.345824 0.454945 0.277960
O O12 0.243193 0.361578 0.776910
O O13 0.985156 0.363601 0.779291
O O14 0.120304 0.389654 0.000000
O O15 0.112103 0.839455 0.500000
O O16 0.035536 0.891891 0.689828
O O17 0.759040 0.328480 0.232846
O O18 0.827151 0.367484 0.000000
O O19 0.427181 0.448417 0.000000
O O20 0.261571 0.717873 0.000000
#
# Coordination Sequence:
#
# PCOD9442069 Si02
#       8
#     8   8   8   8   8   8   8   8
#     4  10  19  33  56  80 105 141 191 245 288 339
#     4  11  24  39  62  95 127 160 197 244 301 361
#     4  11  22  34  50  78 116 151 184 234 296 354
#     4   9  19  37  61  84 107 149 202 246 284 337
#     4   9  18  34  60  86 115 152 193 241 295 349
#     4   9  19  38  63  84 105 145 200 248 287 337
#     4   9  18  34  56  81 107 146 194 239 285 340
#     4  10  23  43  65  91 124 159 201 248 297 357
#
# _framework density 20.362449000000002
#
# number of rings (size 3 to 8) (size 9 to 14) (size 15 to 20)
#    0.000    2.250    0.000    3.375    1.750    7.500 
#    0.000    5.625    0.000    0.000    0.000    0.000 
#    0.000    0.000    0.000    0.000    0.000    0.000 
#
# Total GULP energy -357559.664884 kJ/mol
# GULP energy per Si atom -5586.869764 kJ/mol
# Density = 2.031610 g / cm^3
# Si number density = 20.362449 Si / 1000 Ang^3
#
#
#
# Elastic Constant Matrix: (Units=GPa)
#
#
# Indices 1 2 3 4 5 6 
#
# 1 82.8646 31.4750 23.2952 0.0000 0.0000 0.0000
# 2 31.4750 72.0157 18.8500 0.0000 0.0000 0.0000
# 3 23.2952 18.8500 19.2029 0.0000 0.0000 0.0000
# 4 0.0000 0.0000 0.0000 13.7877 0.0000 0.0000
# 5 0.0000 0.0000 0.0000 0.0000 -2.1805 0.0000
# 6 0.0000 0.0000 0.0000 0.0000 0.0000 26.4099
#
#
#
# Elastic Compliance Matrix: (Units=1/GPa)
#
#
# Indices 1 2 3 4 5 6 
#
# 1 0.018790 -0.003023 -0.019827 0.000000 0.000000 0.000000
# 2 -0.003023 0.019174 -0.015155 0.000000 0.000000 0.000000
# 3 -0.019827 -0.015155 0.091004 0.000000 0.000000 0.000000
# 4 0.000000 0.000000 0.000000 0.072529 0.000000 0.000000
# 5 0.000000 0.000000 0.000000 0.000000 -0.458614 0.000000
# 6 0.000000 0.000000 0.000000 0.000000 0.000000 0.037865
#
#
# Mechanical properties :
#
#
# Convention : Reuss Voigt Hill
#
# Bulk Modulus (GPa) = 18.88251 35.70259 27.29255
# Shear Modulus (GPa) = -39.81159 14.30095 -12.75532
#
# Velocity S-wave (km/s) = -4.42650 2.65301 -2.50554
# Velocity P-wave (km/s) = 4.10267 5.19194 2.24992
#
# Compressibility (1/GPa) = 0.05295906
#
# Stress axis : x y z
#
# Youngs Moduli (GPa) = 53.22030 52.15519 10.98852
#
# Poissons Ratio (x) = 0.15764 0.21787
# Poissons Ratio (y) = 0.16086 0.16653
# Poissons Ratio (z) = 1.05521 0.79039
#
# Static dielectric constant tensor:
#      x y z
#    x 1.737440 0.000000 0.000000 
#    y 0.000000 1.731890 0.000000 
#    z 0.000000 0.000000 1.681100 
# 
# From -- ./inp_files/4644.got.cif
#   From: 2010.05.17/outbox.cif.g08.bks.cpg/sg58_3_cif.got.tgz:4644.got - 2010.06.03 14:20:14.
