data_PCOD9442515
_publ_section_title
;
Structure prediction by ZEFSAII (Michael W. Deem and Ramdas Pophale) SiO2 
 PCOD9442515
Probable space group: P N N M
;
_chemical_formula_sum "Si O2"
_cell_formula_units_Z 58
_cell_length_a 12.633479
_cell_length_b 23.093527
_cell_length_c 7.377512
_cell_angle_alpha 90.000000
_cell_angle_beta 90.000000
_cell_angle_gamma 90.000000
_cell_volume 2152.400844
_symmetry_space_group_name_H-M "P N N M"
_symmetry_group_IT_number 58
_symmetry_cell_setting 'orthorhombic'
loop_
_space_group_symop_operation_xyz
x,y,z
-x,-y,z
1/2+x,1/2-y,1/2-z
1/2-x,1/2+y,1/2-z
-x,-y,-z
x,y,-z
1/2-x,1/2+y,1/2+z
1/2+x,1/2-y,1/2+z
loop_
_atom_site_type_symbol
_atom_site_label
_atom_site_fract_x
_atom_site_fract_y
_atom_site_fract_z
Si Si1 0.905960 0.738761 0.778297
Si Si2 0.725116 0.507981 0.221245
Si Si3 0.805219 0.628937 0.796222
Si Si4 0.057861 0.075125 0.294150
Si Si5 0.500000 0.000000 0.000000
Si Si6 0.909153 0.177893 0.793951
Si Si7 0.252494 0.661590 0.717735
Si Si8 0.415687 0.076668 0.710276
O O1 0.890337 0.673087 0.715837
O O2 0.009708 0.774097 0.719457
O O3 0.803380 0.777461 0.727026
O O4 0.909074 0.737854 0.000000
O O5 0.760998 0.570313 0.288205
O O6 0.610846 0.483775 0.280383
O O7 0.817754 0.464195 0.276868
O O8 0.720637 0.508221 0.000000
O O9 0.698737 0.667414 0.808853
O O10 0.841937 0.614080 0.000000
O O11 0.020734 0.066063 0.500000
O O12 0.972660 0.116719 0.204205
O O13 0.162719 0.115962 0.296526
O O14 0.495675 0.948452 0.159346
O O15 0.883402 0.193239 0.000000
O O16 0.257583 0.658120 0.500000
O O17 0.135801 0.640599 0.773797
O O18 0.436570 0.065357 0.500000
#
# Coordination Sequence:
#
# PCOD9442515 Si02
#       8
#     8   8   8   8   2   8   8   8
#     4   8  17  33  57  77 107 148 190 234 292 350
#     4   8  17  33  55  80 112 146 192 232 285 362
#     4  10  19  36  58  80 109 156 191 235 300 359
#     4   9  16  29  51  79 105 142 182 231 275 341
#     4  12  22  36  56  86 116 158 190 252 308 348
#     4  10  20  35  51  80 112 142 187 244 289 352
#     4   9  15  30  53  80 106 141 188 236 284 335
#     4  10  20  36  56  84 115 154 198 243 299 367
#
# _framework density 26.946650999999999
#
# number of rings (size 3 to 8) (size 9 to 14) (size 15 to 20)
#    0.000    2.759    0.690    3.103    0.000    0.552 
#    1.241    8.276    0.000    1.655    0.000    0.000 
#    0.000    0.000    0.000    0.000    0.000    0.000 
#
# Total GULP energy -323802.436855 kJ/mol
# GULP energy per Si atom -5582.800635 kJ/mol
# Density = 2.688532 g / cm^3
# Si number density = 26.946651 Si / 1000 Ang^3
#
#
#
# Elastic Constant Matrix: (Units=GPa)
#
#
# Indices 1 2 3 4 5 6 
#
# 1 118.9824 26.1921 -13.9798 0.0000 0.0000 0.0000
# 2 26.1921 124.7256 -13.2178 0.0000 0.0000 0.0000
# 3 -13.9798 -13.2178 137.0291 0.0000 0.0000 0.0000
# 4 0.0000 0.0000 0.0000 12.0295 0.0000 0.0000
# 5 0.0000 0.0000 0.0000 0.0000 -5.9252 0.0000
# 6 0.0000 0.0000 0.0000 0.0000 0.0000 34.3829
#
#
#
# Elastic Compliance Matrix: (Units=1/GPa)
#
#
# Indices 1 2 3 4 5 6 
#
# 1 0.008884 -0.001788 0.000734 0.000000 0.000000 0.000000
# 2 -0.001788 0.008460 0.000634 0.000000 0.000000 0.000000
# 3 0.000734 0.000634 0.007434 0.000000 0.000000 0.000000
# 4 0.000000 0.000000 0.000000 0.083129 0.000000 0.000000
# 5 0.000000 0.000000 0.000000 0.000000 -0.168772 0.000000
# 6 0.000000 0.000000 0.000000 0.000000 0.000000 0.029084
#
#
# Mechanical properties :
#
#
# Convention : Reuss Voigt Hill
#
# Bulk Modulus (GPa) = 41.77512 42.08067 41.92789
# Shear Modulus (GPa) = -217.76971 33.54694 -92.11138
#
# Velocity S-wave (km/s) = -8.99948 3.53220 -5.85295
# Velocity P-wave (km/s) = 9.61514 5.68203 5.48477
#
# Compressibility (1/GPa) = 0.02393769
#
# Stress axis : x y z
#
# Youngs Moduli (GPa) = 112.55655 118.20028 134.52215
#
# Poissons Ratio (x) = 0.21133 -0.09873
# Poissons Ratio (y) = 0.20124 -0.08524
# Poissons Ratio (z) = -0.08261 -0.07490
#
# Static dielectric constant tensor:
#      x y z
#    x 2.181290 0.000000 0.000000 
#    y 0.000000 2.169630 0.000000 
#    z 0.000000 0.000000 2.003800 
# 
# From -- ./inp_files/6677.got.cif
#   From: 2010.05.17/outbox.cif.g08.bks.cpg/sg58_4_cif.got.tgz:6677.got - 2010.06.03 14:20:14.
