data_PCOD9442935
_publ_section_title
;
Structure prediction by ZEFSAII (Michael W. Deem and Ramdas Pophale) SiO2 
 PCOD9442935
Probable space group: P N N M
;
_chemical_formula_sum "Si O2"
_cell_formula_units_Z 56
_cell_length_a 11.085300
_cell_length_b 12.293412
_cell_length_c 21.864816
_cell_angle_alpha 90.000000
_cell_angle_beta 90.000000
_cell_angle_gamma 90.000000
_cell_volume 2979.653165
_symmetry_space_group_name_H-M "P N N M"
_symmetry_group_IT_number 58
_symmetry_cell_setting 'orthorhombic'
loop_
_space_group_symop_operation_xyz
x,y,z
-x,-y,z
1/2+x,1/2-y,1/2-z
1/2-x,1/2+y,1/2-z
-x,-y,-z
x,y,-z
1/2-x,1/2+y,1/2+z
1/2+x,1/2-y,1/2+z
loop_
_atom_site_type_symbol
_atom_site_label
_atom_site_fract_x
_atom_site_fract_y
_atom_site_fract_z
Si Si1 0.691759 0.471707 0.243529
Si Si2 0.346263 0.354419 0.347881
Si Si3 0.890252 0.352453 0.670921
Si Si4 0.872338 0.745513 0.719024
Si Si5 0.278663 0.848828 0.657564
Si Si6 0.230427 0.530937 0.569826
Si Si7 0.430586 0.723648 0.428459
O O1 0.637574 0.556950 0.292925
O O2 0.805146 0.413491 0.278924
O O3 0.604310 0.373510 0.224900
O O4 0.736438 0.535618 0.183424
O O5 0.252733 0.270258 0.317634
O O6 0.279769 0.421289 0.400984
O O7 0.462083 0.303086 0.380836
O O8 0.833154 0.234456 0.656573
O O9 0.876816 0.423653 0.610715
O O10 0.024793 0.328521 0.690458
O O11 0.857232 0.699676 0.786928
O O12 0.356109 0.828092 0.596630
O O13 0.198409 0.518583 0.500000
O O14 0.338203 0.621002 0.575190
O O15 0.466925 0.733974 0.500000
#
# Coordination Sequence:
#
# PCOD9442935 Si02
#       7
#     8   8   8   8   8   8   8
#     4   9  20  36  52  83 109 150 184 226 284 342
#     4  10  20  34  52  83 112 140 184 228 278 339
#     4   9  19  36  51  82 109 138 187 225 280 332
#     4  10  21  35  52  78 114 145 177 232 277 330
#     4   9  20  34  55  80 107 146 185 225 277 333
#     4   9  18  34  56  79 108 144 183 227 280 339
#     4  10  20  36  58  84 113 144 187 240 281 331
#
# _framework density 18.794132000000001
#
# number of rings (size 3 to 8) (size 9 to 14) (size 15 to 20)
#    0.000    2.571    0.000    1.714    6.000    6.857 
#    5.143    2.143    0.000    3.429    0.000    4.000 
#    0.000    0.000    0.000    0.000    0.000    0.000 
#
# Total GULP energy -312273.088315 kJ/mol
# GULP energy per Si atom -5576.305148 kJ/mol
# Density = 1.875136 g / cm^3
# Si number density = 18.794132 Si / 1000 Ang^3
#
#
#
# Elastic Constant Matrix: (Units=GPa)
#
#
# Indices 1 2 3 4 5 6 
#
# 1 51.2775 17.6522 33.3771 0.0000 0.0000 0.0000
# 2 17.6522 24.9813 7.8351 0.0000 0.0000 0.0000
# 3 33.3771 7.8351 89.4794 0.0000 0.0000 0.0000
# 4 0.0000 0.0000 0.0000 22.1303 0.0000 0.0000
# 5 0.0000 0.0000 0.0000 0.0000 18.5805 0.0000
# 6 0.0000 0.0000 0.0000 0.0000 0.0000 18.5727
#
#
#
# Elastic Compliance Matrix: (Units=1/GPa)
#
#
# Indices 1 2 3 4 5 6 
#
# 1 0.033448 -0.020279 -0.010701 0.000000 0.000000 0.000000
# 2 -0.020279 0.053455 0.002884 0.000000 0.000000 0.000000
# 3 -0.010701 0.002884 0.014915 0.000000 0.000000 0.000000
# 4 0.000000 0.000000 0.000000 0.045187 0.000000 0.000000
# 5 0.000000 0.000000 0.000000 0.000000 0.053820 0.000000
# 6 0.000000 0.000000 0.000000 0.000000 0.000000 0.053842
#
#
# Mechanical properties :
#
#
# Convention : Reuss Voigt Hill
#
# Bulk Modulus (GPa) = 21.91752 31.49633 26.70693
# Shear Modulus (GPa) = 15.33426 18.98162 17.15794
#
# Velocity S-wave (km/s) = 2.85951 3.18146 3.02477
# Velocity P-wave (km/s) = 4.75285 5.50369 5.14199
#
# Compressibility (1/GPa) = 0.04562560
#
# Stress axis : x y z
#
# Youngs Moduli (GPa) = 29.89720 18.70742 67.04715
#
# Poissons Ratio (x) = 0.37936 0.71747
# Poissons Ratio (y) = 0.60627 -0.19334
# Poissons Ratio (z) = 0.31993 -0.05394
#
# Static dielectric constant tensor:
#      x y z
#    x 1.707690 0.000000 0.000000 
#    y 0.000000 1.671180 0.000000 
#    z 0.000000 0.000000 1.639430 
# 
# From -- ./inp_files/29590.got.cif
#   From: 2010.05.17/outbox.cif.g08.bks.cpg/sg58_15_cif.got.tgz:29590.got - 2010.06.03 14:20:14.
