data_PCOD9442395
_publ_section_title
;
Structure prediction by ZEFSAII (Michael W. Deem and Ramdas Pophale) SiO2 
 PCOD9442395
Probable space group: P N N M
;
_chemical_formula_sum "Si O2"
_cell_formula_units_Z 64
_cell_length_a 16.149810
_cell_length_b 23.409521
_cell_length_c 7.908579
_cell_angle_alpha 90.000000
_cell_angle_beta 90.000000
_cell_angle_gamma 90.000000
_cell_volume 2989.911970
_symmetry_space_group_name_H-M "P N N M"
_symmetry_group_IT_number 58
_symmetry_cell_setting 'orthorhombic'
loop_
_space_group_symop_operation_xyz
x,y,z
-x,-y,z
1/2+x,1/2-y,1/2-z
1/2-x,1/2+y,1/2-z
-x,-y,-z
x,y,-z
1/2-x,1/2+y,1/2+z
1/2+x,1/2-y,1/2+z
loop_
_atom_site_type_symbol
_atom_site_label
_atom_site_fract_x
_atom_site_fract_y
_atom_site_fract_z
Si Si1 0.241920 0.298048 0.195608
Si Si2 0.184249 0.686404 0.795095
Si Si3 0.484082 0.141598 0.693067
Si Si4 0.422742 0.963798 0.194277
Si Si5 0.745337 0.571090 0.701440
Si Si6 0.905747 0.989803 0.295101
Si Si7 0.569796 0.249223 0.806428
Si Si8 0.640091 0.363620 0.793570
O O1 0.313787 0.251835 0.232446
O O2 0.260500 0.364033 0.231977
O O3 0.163326 0.275945 0.302150
O O4 0.218043 0.293079 0.000000
O O5 0.108377 0.647174 0.738151
O O6 0.269545 0.657300 0.739544
O O7 0.180984 0.687773 0.000000
O O8 0.484357 0.120635 0.500000
O O9 0.543876 0.100994 0.797718
O O10 0.516727 0.206022 0.698356
O O11 0.329666 0.960282 0.268488
O O12 0.500000 0.000000 0.270113
O O13 0.414553 0.983724 0.000000
O O14 0.755746 0.575168 0.500000
O O15 0.662910 0.535546 0.740625
O O16 0.906011 0.990082 0.500000
O O17 0.879599 0.926808 0.236105
O O18 0.000000 0.000000 0.238644
O O19 0.576262 0.314001 0.743018
O O20 0.540058 0.248480 0.000000
O O21 0.639871 0.363185 0.000000
#
# Coordination Sequence:
#
# PCOD9442395 Si02
#       8
#     8   8   8   8   8   8   8   8
#     4  11  21  36  59  87 114 149 200 249 296 357
#     4   9  20  37  56  83 119 157 191 236 300 367
#     4  11  22  35  57  91 123 154 199 245 293 359
#     4  10  23  41  60  85 122 166 208 250 304 369
#     4  11  23  40  63  88 122 166 202 249 310 365
#     4  10  22  40  62  89 118 153 205 261 303 355
#     4  10  19  35  58  81 115 159 193 239 302 358
#     4   8  17  36  59  79 110 154 195 237 297 354
#
# _framework density 21.405313
#
# number of rings (size 3 to 8) (size 9 to 14) (size 15 to 20)
#    0.000    2.000    1.250    3.000    1.750    3.000 
#    0.000    4.375    0.000    0.000    0.000    0.000 
#    0.000    0.000    0.000    0.000    0.000    0.000 
#
# Total GULP energy -357210.640560 kJ/mol
# GULP energy per Si atom -5581.416259 kJ/mol
# Density = 2.135659 g / cm^3
# Si number density = 21.405313 Si / 1000 Ang^3
#
#
#
# Elastic Constant Matrix: (Units=GPa)
#
#
# Indices 1 2 3 4 5 6 
#
# 1 107.2922 40.1237 2.3966 0.0000 0.0000 0.0000
# 2 40.1237 108.9815 0.0121 0.0000 0.0000 0.0000
# 3 2.3966 0.0121 42.7110 0.0000 0.0000 0.0000
# 4 0.0000 0.0000 0.0000 10.3003 0.0000 0.0000
# 5 0.0000 0.0000 0.0000 0.0000 3.8908 0.0000
# 6 0.0000 0.0000 0.0000 0.0000 0.0000 26.7579
#
#
#
# Elastic Compliance Matrix: (Units=1/GPa)
#
#
# Indices 1 2 3 4 5 6 
#
# 1 0.010824 -0.003985 -0.000606 0.000000 0.000000 0.000000
# 2 -0.003985 0.010643 0.000221 0.000000 0.000000 0.000000
# 3 -0.000606 0.000221 0.023447 0.000000 0.000000 0.000000
# 4 0.000000 0.000000 0.000000 0.097085 0.000000 0.000000
# 5 0.000000 0.000000 0.000000 0.000000 0.257014 0.000000
# 6 0.000000 0.000000 0.000000 0.000000 0.000000 0.037372
#
#
# Mechanical properties :
#
#
# Convention : Reuss Voigt Hill
#
# Bulk Modulus (GPa) = 27.64500 38.22773 32.93636
# Shear Modulus (GPa) = 10.93652 22.61996 16.77824
#
# Velocity S-wave (km/s) = 2.26282 3.25429 2.80274
# Velocity P-wave (km/s) = 4.44637 5.65847 5.08864
#
# Compressibility (1/GPa) = 0.03617291
#
# Stress axis : x y z
#
# Youngs Moduli (GPa) = 92.38587 93.95828 42.64915
#
# Poissons Ratio (x) = 0.37443 0.02586
# Poissons Ratio (y) = 0.36816 -0.00941
# Poissons Ratio (z) = 0.05601 -0.02073
#
# Static dielectric constant tensor:
#      x y z
#    x 1.801380 0.000000 0.000000 
#    y 0.000000 1.768200 0.000000 
#    z 0.000000 0.000000 1.761350 
# 
# From -- ./inp_files/6759.got.cif
#   From: 2010.05.17/outbox.cif.g08.bks.cpg/sg58_4_cif.got.tgz:6759.got - 2010.06.03 14:20:14.
