data_PCOD9442699
_publ_section_title
;
Structure prediction by ZEFSAII (Michael W. Deem and Ramdas Pophale) SiO2 
 PCOD9442699
Probable space group: P N N M
;
_chemical_formula_sum "Si O2"
_cell_formula_units_Z 48
_cell_length_a 17.520857
_cell_length_b 5.035164
_cell_length_c 27.847283
_cell_angle_alpha 90.000000
_cell_angle_beta 90.000000
_cell_angle_gamma 90.000000
_cell_volume 2456.698123
_symmetry_space_group_name_H-M "P N N M"
_symmetry_group_IT_number 58
_symmetry_cell_setting 'orthorhombic'
loop_
_space_group_symop_operation_xyz
x,y,z
-x,-y,z
1/2+x,1/2-y,1/2-z
1/2-x,1/2+y,1/2-z
-x,-y,-z
x,y,-z
1/2-x,1/2+y,1/2+z
1/2+x,1/2-y,1/2+z
loop_
_atom_site_type_symbol
_atom_site_label
_atom_site_fract_x
_atom_site_fract_y
_atom_site_fract_z
Si Si1 0.790004 0.661392 0.692899
Si Si2 0.814660 0.662258 0.199748
Si Si3 0.832371 0.468060 0.592551
Si Si4 0.160388 0.924393 0.942435
Si Si5 0.087947 0.418154 0.892861
Si Si6 0.587839 0.467818 0.055821
O O1 0.832502 0.629723 0.743827
O O2 0.718593 0.457564 0.693947
O O3 0.837146 0.572871 0.646918
O O4 0.753944 0.954198 0.689033
O O5 0.880330 0.612097 0.161272
O O6 0.745471 0.499454 0.574761
O O7 0.859771 0.168386 0.585836
O O8 0.884670 0.667317 0.562123
O O9 0.137098 0.643725 0.919722
O O10 0.103756 0.145280 0.920946
O O11 0.157403 0.915858 0.000000
O O12 0.000000 0.500000 0.893450
O O13 0.500000 0.500000 0.070111
O O14 0.595224 0.544066 0.000000
#
# Coordination Sequence:
#
# PCOD9442699 Si02
#       6
#     8   8   8   8   8   8
#     4  10  20  35  66  87 116 145 198 249 297 351
#     4  10  19  39  59  90 113 153 197 242 297 367
#     4  12  21  40  64  92 119 154 201 262 292 353
#     4  12  25  40  61  91 120 160 218 255 293 353
#     4  12  24  41  61  86 128 166 201 255 310 355
#     4  11  24  40  59  86 124 165 196 234 305 372
#
# _framework density 19.538421
#
# number of rings (size 3 to 8) (size 9 to 14) (size 15 to 20)
#    0.000    0.833    3.333    5.000    0.000    3.333 
#    0.000    1.667    0.000    0.000    0.000    0.000 
#    0.000    0.000    0.000    0.000    0.000    0.000 
#
# Total GULP energy -268410.570335 kJ/mol
# GULP energy per Si atom -5591.886882 kJ/mol
# Density = 1.949395 g / cm^3
# Si number density = 19.538421 Si / 1000 Ang^3
#
#
#
# Elastic Constant Matrix: (Units=GPa)
#
#
# Indices 1 2 3 4 5 6 
#
# 1 50.6854 -10.9702 36.8551 0.0000 0.0000 0.0000
# 2 -10.9702 52.4093 -13.1667 0.0000 0.0000 0.0000
# 3 36.8551 -13.1667 94.4890 0.0000 0.0000 0.0000
# 4 0.0000 0.0000 0.0000 35.3784 0.0000 0.0000
# 5 0.0000 0.0000 0.0000 0.0000 9.0468 0.0000
# 6 0.0000 0.0000 0.0000 0.0000 0.0000 22.1784
#
#
#
# Elastic Compliance Matrix: (Units=1/GPa)
#
#
# Indices 1 2 3 4 5 6 
#
# 1 0.028061 0.003237 -0.010494 0.000000 0.000000 0.000000
# 2 0.003237 0.020146 0.001545 0.000000 0.000000 0.000000
# 3 -0.010494 0.001545 0.014892 0.000000 0.000000 0.000000
# 4 0.000000 0.000000 0.000000 0.028266 0.000000 0.000000
# 5 0.000000 0.000000 0.000000 0.000000 0.110536 0.000000
# 6 0.000000 0.000000 0.000000 0.000000 0.000000 0.045089
#
#
# Mechanical properties :
#
#
# Convention : Reuss Voigt Hill
#
# Bulk Modulus (GPa) = 19.35192 24.78001 22.06597
# Shear Modulus (GPa) = 18.13972 25.64509 21.89240
#
# Velocity S-wave (km/s) = 3.05029 3.62684 3.35099
# Velocity P-wave (km/s) = 4.72565 5.49990 5.12741
#
# Compressibility (1/GPa) = 0.05167447
#
# Stress axis : x y z
#
# Youngs Moduli (GPa) = 35.63706 49.63707 67.15206
#
# Poissons Ratio (x) = -0.16069 0.70468
# Poissons Ratio (y) = -0.11536 -0.10373
# Poissons Ratio (z) = 0.37397 -0.07667
#
# Static dielectric constant tensor:
#      x y z
#    x 1.645360 0.000000 0.000000 
#    y 0.000000 1.667150 0.000000 
#    z 0.000000 0.000000 1.701880 
# 
# From -- ./inp_files/32812.got.cif
#   From: 2010.05.17/outbox.cif.g08.bks.cpg/sg58_17_cif.got.tgz:32812.got - 2010.06.03 14:20:14.
