data_PCOD9442499
_publ_section_title
;
Structure prediction by ZEFSAII (Michael W. Deem and Ramdas Pophale) SiO2 
 PCOD9442499
Probable space group: P N N M
;
_chemical_formula_sum "Si O2"
_cell_formula_units_Z 44
_cell_length_a 10.727932
_cell_length_b 9.497318
_cell_length_c 21.784702
_cell_angle_alpha 90.000000
_cell_angle_beta 90.000000
_cell_angle_gamma 90.000000
_cell_volume 2219.568820
_symmetry_space_group_name_H-M "P N N M"
_symmetry_group_IT_number 58
_symmetry_cell_setting 'orthorhombic'
loop_
_space_group_symop_operation_xyz
x,y,z
-x,-y,z
1/2+x,1/2-y,1/2-z
1/2-x,1/2+y,1/2-z
-x,-y,-z
x,y,-z
1/2-x,1/2+y,1/2+z
1/2+x,1/2-y,1/2+z
loop_
_atom_site_type_symbol
_atom_site_label
_atom_site_fract_x
_atom_site_fract_y
_atom_site_fract_z
Si Si1 0.667158 0.718934 0.686236
Si Si2 0.721226 0.967300 0.243527
Si Si3 0.574945 0.131453 0.652512
Si Si4 0.000000 0.500000 0.351776
Si Si5 0.306107 0.859645 0.929651
Si Si6 0.388066 0.604865 0.429712
O O1 0.754106 0.816091 0.729367
O O2 0.675623 0.560041 0.709750
O O3 0.531713 0.785571 0.690184
O O4 0.719327 0.728236 0.616910
O O5 0.829267 0.557579 0.198598
O O6 0.610860 0.952607 0.193467
O O7 0.625757 0.252058 0.608102
O O8 0.500000 0.000000 0.621848
O O9 0.062205 0.383419 0.395979
O O10 0.236596 0.011492 0.930462
O O11 0.313801 0.810491 0.000000
O O12 0.500000 0.500000 0.407918
O O13 0.421607 0.640892 0.500000
#
# Coordination Sequence:
#
# PCOD9442499 Si02
#       6
#     8   8   8   4   8   8
#     4  10  20  35  53  80 111 148 177 237 276 339
#     4  10  21  35  54  82 114 140 188 227 291 342
#     4  10  20  34  51  78 116 142 179 230 285 345
#     4  10  19  36  56  82 109 144 188 238 274 326
#     4  10  21  36  59  82 110 150 196 235 275 332
#     4  10  20  33  52  80 108 143 190 227 271 335
#
# _framework density 19.823671000000001
#
# number of rings (size 3 to 8) (size 9 to 14) (size 15 to 20)
#    0.000    2.000    4.545    0.273    5.091    0.364 
#    0.000    2.727    0.000    0.000    0.000    1.273 
#    0.000    0.000    0.000    0.000    0.000    0.000 
#
# Total GULP energy -245263.952342 kJ/mol
# GULP energy per Si atom -5574.180735 kJ/mol
# Density = 1.977855 g / cm^3
# Si number density = 19.823671 Si / 1000 Ang^3
#
#
#
# Elastic Constant Matrix: (Units=GPa)
#
#
# Indices 1 2 3 4 5 6 
#
# 1 19.5381 4.3855 -6.7763 0.0000 0.0000 0.0000
# 2 4.3855 61.2924 27.6344 0.0000 0.0000 0.0000
# 3 -6.7763 27.6344 109.3547 0.0000 0.0000 0.0000
# 4 0.0000 0.0000 0.0000 32.2311 0.0000 0.0000
# 5 0.0000 0.0000 0.0000 0.0000 17.2550 0.0000
# 6 0.0000 0.0000 0.0000 0.0000 0.0000 26.0215
#
#
#
# Elastic Compliance Matrix: (Units=1/GPa)
#
#
# Indices 1 2 3 4 5 6 
#
# 1 0.054249 -0.006091 0.004901 0.000000 0.000000 0.000000
# 2 -0.006091 0.019097 -0.005203 0.000000 0.000000 0.000000
# 3 0.004901 -0.005203 0.010763 0.000000 0.000000 0.000000
# 4 0.000000 0.000000 0.000000 0.031026 0.000000 0.000000
# 5 0.000000 0.000000 0.000000 0.000000 0.057954 0.000000
# 6 0.000000 0.000000 0.000000 0.000000 0.000000 0.038430
#
#
# Mechanical properties :
#
#
# Convention : Reuss Voigt Hill
#
# Bulk Modulus (GPa) = 14.02094 26.74137 20.38116
# Shear Modulus (GPa) = 20.15478 26.09764 23.12621
#
# Velocity S-wave (km/s) = 3.19204 3.63228 3.41925
# Velocity P-wave (km/s) = 4.54683 5.57765 5.08841
#
# Compressibility (1/GPa) = 0.07132191
#
# Stress axis : x y z
#
# Youngs Moduli (GPa) = 18.43355 52.36410 92.90955
#
# Poissons Ratio (x) = 0.31896 -0.45534
# Poissons Ratio (y) = 0.11228 0.48344
# Poissons Ratio (z) = -0.09034 0.27247
#
# Static dielectric constant tensor:
#      x y z
#    x 1.754180 0.000000 0.000000 
#    y 0.000000 1.712060 0.000000 
#    z 0.000000 0.000000 1.751090 
# 
# From -- ./inp_files/31860.got.cif
#   From: 2010.05.17/outbox.cif.g08.bks.cpg/sg58_16_cif.got.tgz:31860.got - 2010.06.03 14:20:14.
