data_PCOD9442734
_publ_section_title
;
Structure prediction by ZEFSAII (Michael W. Deem and Ramdas Pophale) SiO2 
 PCOD9442734
Probable space group: P N N M
;
_chemical_formula_sum "Si O2"
_cell_formula_units_Z 40
_cell_length_a 7.064713
_cell_length_b 12.876020
_cell_length_c 22.336466
_cell_angle_alpha 90.000000
_cell_angle_beta 90.000000
_cell_angle_gamma 90.000000
_cell_volume 2031.845249
_symmetry_space_group_name_H-M "P N N M"
_symmetry_group_IT_number 58
_symmetry_cell_setting 'orthorhombic'
loop_
_space_group_symop_operation_xyz
x,y,z
-x,-y,z
1/2+x,1/2-y,1/2-z
1/2-x,1/2+y,1/2-z
-x,-y,-z
x,y,-z
1/2-x,1/2+y,1/2+z
1/2+x,1/2-y,1/2+z
loop_
_atom_site_type_symbol
_atom_site_label
_atom_site_fract_x
_atom_site_fract_y
_atom_site_fract_z
Si Si1 0.951246 0.120826 0.932552
Si Si2 0.617870 0.246648 0.666087
Si Si3 0.189327 0.187918 0.703547
Si Si4 0.638242 0.097960 0.164665
Si Si5 0.776766 0.533899 0.206292
O O1 0.759104 0.117837 0.894375
O O2 0.104527 0.184890 0.893470
O O3 0.933119 0.162151 0.000000
O O4 0.000000 0.000000 0.935746
O O5 0.399315 0.215677 0.680525
O O6 0.679472 0.309874 0.724655
O O7 0.729534 0.137491 0.666490
O O8 0.064644 0.285861 0.681259
O O9 0.162047 0.067904 0.686991
O O10 0.759453 0.067953 0.224568
O O11 0.500000 0.000000 0.156197
O O12 0.000000 0.500000 0.207367
#
# Coordination Sequence:
#
# PCOD9442734 Si02
#       5
#     8   8   8   8   8
#     4  10  20  31  44  64  92 127 163 197 235 285
#     4   9  17  29  46  69  96 122 155 199 243 291
#     4   9  16  27  47  71  95 122 151 193 250 298
#     4   9  17  29  46  68  93 122 159 200 240 283
#     4   8  14  26  45  68  92 117 145 189 248 293
#
# _framework density 19.686540000000001
#
# number of rings (size 3 to 8) (size 9 to 14) (size 15 to 20)
#    0.000    3.000    0.000    2.400    0.000    0.400 
#    0.000    0.000    0.000   15.000    0.000    0.000 
#    0.000    4.800    0.000    0.000    0.000  127.400 
#
# Total GULP energy -222803.078089 kJ/mol
# GULP energy per Si atom -5570.076952 kJ/mol
# Density = 1.964173 g / cm^3
# Si number density = 19.686540 Si / 1000 Ang^3
#
#
#
# Elastic Constant Matrix: (Units=GPa)
#
#
# Indices 1 2 3 4 5 6 
#
# 1 39.3806 39.2219 16.3546 0.0000 0.0000 0.0000
# 2 39.2219 188.6732 54.5877 0.0000 0.0000 0.0000
# 3 16.3546 54.5877 125.6924 0.0000 0.0000 0.0000
# 4 0.0000 0.0000 0.0000 22.8946 0.0000 0.0000
# 5 0.0000 0.0000 0.0000 0.0000 106.7825 0.0000
# 6 0.0000 0.0000 0.0000 0.0000 0.0000 44.0436
#
#
#
# Elastic Compliance Matrix: (Units=1/GPa)
#
#
# Indices 1 2 3 4 5 6 
#
# 1 0.032259 -0.006281 -0.001470 0.000000 0.000000 0.000000
# 2 -0.006281 0.007285 -0.002346 0.000000 0.000000 0.000000
# 3 -0.001470 -0.002346 0.009166 0.000000 0.000000 0.000000
# 4 0.000000 0.000000 0.000000 0.043678 0.000000 0.000000
# 5 0.000000 0.000000 0.000000 0.000000 0.009365 0.000000
# 6 0.000000 0.000000 0.000000 0.000000 0.000000 0.022705
#
#
# Mechanical properties :
#
#
# Convention : Reuss Voigt Hill
#
# Bulk Modulus (GPa) = 35.06802 63.78609 49.42706
# Shear Modulus (GPa) = 32.43434 50.98294 41.70864
#
# Velocity S-wave (km/s) = 4.06339 5.09447 4.60786
# Velocity P-wave (km/s) = 6.31401 8.18999 7.31241
#
# Compressibility (1/GPa) = 0.02851601
#
# Stress axis : x y z
#
# Youngs Moduli (GPa) = 30.99894 137.27282 109.09607
#
# Poissons Ratio (x) = 0.86220 0.16033
# Poissons Ratio (y) = 0.19470 0.25599
# Poissons Ratio (z) = 0.04556 0.32211
#
# Static dielectric constant tensor:
#      x y z
#    x 1.840000 0.000000 0.000000 
#    y 0.000000 1.785430 0.000000 
#    z 0.000000 0.000000 1.648650 
# 
# From -- ./inp_files/28733.got.cif
#   From: 2010.05.17/outbox.cif.g08.bks.cpg/sg58_15_cif.got.tgz:28733.got - 2010.06.03 14:20:14.
