data_PCOD9442654
_publ_section_title
;
Structure prediction by ZEFSAII (Michael W. Deem and Ramdas Pophale) SiO2 
 PCOD9442654
Probable space group: P N N M
;
_chemical_formula_sum "Si O2"
_cell_formula_units_Z 58
_cell_length_a 14.137934
_cell_length_b 22.556583
_cell_length_c 7.695822
_cell_angle_alpha 90.000000
_cell_angle_beta 90.000000
_cell_angle_gamma 90.000000
_cell_volume 2454.224430
_symmetry_space_group_name_H-M "P N N M"
_symmetry_group_IT_number 58
_symmetry_cell_setting 'orthorhombic'
loop_
_space_group_symop_operation_xyz
x,y,z
-x,-y,z
1/2+x,1/2-y,1/2-z
1/2-x,1/2+y,1/2-z
-x,-y,-z
x,y,-z
1/2-x,1/2+y,1/2+z
1/2+x,1/2-y,1/2+z
loop_
_atom_site_type_symbol
_atom_site_label
_atom_site_fract_x
_atom_site_fract_y
_atom_site_fract_z
Si Si1 0.944012 0.293099 0.303352
Si Si2 0.955946 0.419754 0.190997
Si Si3 0.532773 0.408582 0.711814
Si Si4 0.282086 0.287700 0.305937
Si Si5 0.000000 0.500000 0.500000
Si Si6 0.888220 0.784216 0.199235
Si Si7 0.849081 0.021597 0.211733
Si Si8 0.327459 0.908227 0.211958
O O1 0.974247 0.306131 0.500000
O O2 0.865987 0.241718 0.300028
O O3 0.910445 0.355190 0.223643
O O4 0.033396 0.266918 0.204004
O O5 0.939709 0.464966 0.346915
O O6 0.069692 0.408340 0.204894
O O7 0.931546 0.441904 0.000000
O O8 0.530458 0.408109 0.500000
O O9 0.563950 0.343885 0.768518
O O10 0.609148 0.458235 0.764578
O O11 0.428979 0.430592 0.766862
O O12 0.319777 0.299101 0.500000
O O13 0.200321 0.238603 0.305433
O O14 0.230359 0.347919 0.250241
O O15 0.857403 0.794036 0.000000
O O16 0.744966 0.040449 0.267363
O O17 0.847561 0.022664 0.000000
O O18 0.344875 0.912321 0.000000
#
# Coordination Sequence:
#
# PCOD9442654 Si02
#       8
#     8   8   8   8   2   8   8   8
#     4  12  24  43  66  94 131 176 222 286 348 413
#     4  12  25  46  73  98 135 176 227 287 346 407
#     4   8  15  29  50  85 123 162 207 260 322 395
#     4  11  23  38  61  94 129 170 221 274 342 413
#     4  12  26  52  72 102 128 182 230 278 336 410
#     4  11  21  36  59  92 128 165 210 268 339 409
#     4   8  14  28  54  83 120 163 212 262 318 388
#     4  10  19  37  63  95 130 173 224 282 333 404
#
# _framework density 23.632721
#
# number of rings (size 3 to 8) (size 9 to 14) (size 15 to 20)
#    0.000    1.655    2.759    3.931    0.000    2.759 
#    2.483    0.000    0.000    0.828    0.000    5.793 
#    0.000    0.000    0.000    0.000    0.000    0.000 
#
# Total GULP energy -323896.023814 kJ/mol
# GULP energy per Si atom -5584.414204 kJ/mol
# Density = 2.357893 g / cm^3
# Si number density = 23.632721 Si / 1000 Ang^3
#
#
#
# Elastic Constant Matrix: (Units=GPa)
#
#
# Indices 1 2 3 4 5 6 
#
# 1 55.8967 3.1179 5.7793 0.0000 0.0000 0.0000
# 2 3.1179 78.3768 14.0116 0.0000 0.0000 0.0000
# 3 5.7793 14.0116 100.1318 0.0000 0.0000 0.0000
# 4 0.0000 0.0000 0.0000 20.9886 0.0000 0.0000
# 5 0.0000 0.0000 0.0000 0.0000 35.7893 0.0000
# 6 0.0000 0.0000 0.0000 0.0000 0.0000 31.3383
#
#
#
# Elastic Compliance Matrix: (Units=1/GPa)
#
#
# Indices 1 2 3 4 5 6 
#
# 1 0.018020 -0.000545 -0.000964 0.000000 0.000000 0.000000
# 2 -0.000545 0.013103 -0.001802 0.000000 0.000000 0.000000
# 3 -0.000964 -0.001802 0.010295 0.000000 0.000000 0.000000
# 4 0.000000 0.000000 0.000000 0.047645 0.000000 0.000000
# 5 0.000000 0.000000 0.000000 0.000000 0.027941 0.000000
# 6 0.000000 0.000000 0.000000 0.000000 0.000000 0.031910
#
#
# Mechanical properties :
#
#
# Convention : Reuss Voigt Hill
#
# Bulk Modulus (GPa) = 28.73846 31.13588 29.93717
# Shear Modulus (GPa) = 29.91623 31.72301 30.81962
#
# Velocity S-wave (km/s) = 3.56178 3.66776 3.61516
# Velocity P-wave (km/s) = 5.39462 5.58034 5.48826
#
# Compressibility (1/GPa) = 0.03479658
#
# Stress axis : x y z
#
# Youngs Moduli (GPa) = 55.49334 76.32022 97.13805
#
# Poissons Ratio (x) = 0.04156 0.09363
# Poissons Ratio (y) = 0.03022 0.17505
# Poissons Ratio (z) = 0.05349 0.13753
#
# Static dielectric constant tensor:
#      x y z
#    x 1.883450 0.000000 0.000000 
#    y 0.000000 1.941180 0.000000 
#    z 0.000000 0.000000 1.830330 
# 
# From -- ./inp_files/6641.got.cif
#   From: 2010.05.17/outbox.cif.g08.bks.cpg/sg58_4_cif.got.tgz:6641.got - 2010.06.03 14:20:14.
