data_PCOD9442954
_publ_section_title
;
Structure prediction by ZEFSAII (Michael W. Deem and Ramdas Pophale) SiO2 
 PCOD9442954
Probable space group: P N N M
;
_chemical_formula_sum "Si O2"
_cell_formula_units_Z 64
_cell_length_a 8.780253
_cell_length_b 24.623646
_cell_length_c 14.528276
_cell_angle_alpha 90.000000
_cell_angle_beta 90.000000
_cell_angle_gamma 90.000000
_cell_volume 3141.040027
_symmetry_space_group_name_H-M "P N N M"
_symmetry_group_IT_number 58
_symmetry_cell_setting 'orthorhombic'
loop_
_space_group_symop_operation_xyz
x,y,z
-x,-y,z
1/2+x,1/2-y,1/2-z
1/2-x,1/2+y,1/2-z
-x,-y,-z
x,y,-z
1/2-x,1/2+y,1/2+z
1/2+x,1/2-y,1/2+z
loop_
_atom_site_type_symbol
_atom_site_label
_atom_site_fract_x
_atom_site_fract_y
_atom_site_fract_z
Si Si1 0.909611 0.839312 0.733418
Si Si2 0.901865 0.737183 0.603540
Si Si3 0.309146 0.157588 0.897665
Si Si4 0.195227 0.587572 0.107440
Si Si5 0.349877 0.870926 0.606398
Si Si6 0.035352 0.437463 0.389647
Si Si7 0.255667 0.352566 0.708581
Si Si8 0.663322 0.520921 0.889729
O O1 0.933228 0.786694 0.670764
O O2 0.807899 0.825688 0.820991
O O3 0.812535 0.880174 0.670391
O O4 0.068071 0.862173 0.771084
O O5 0.870601 0.756710 0.500000
O O6 0.768731 0.697561 0.639124
O O7 0.049365 0.698669 0.602195
O O8 0.383704 0.098865 0.876543
O O9 0.242335 0.156219 0.000000
O O10 0.211626 0.524511 0.133017
O O11 0.022794 0.608105 0.113966
O O12 0.240882 0.593286 0.000000
O O13 0.325234 0.852630 0.500000
O O14 0.320413 0.833376 0.694278
O O15 0.232585 0.920146 0.628134
O O16 0.071625 0.435368 0.500000
O O17 0.165369 0.404888 0.332755
O O18 0.000000 0.500000 0.364953
O O19 0.500000 0.500000 0.852163
O O20 0.646832 0.521253 0.000000
#
# Coordination Sequence:
#
# PCOD9442954 Si02
#       8
#     8   8   8   8   8   8   8   8
#     4  12  23  37  59  89 122 154 193 247 311 366
#     4  10  22  43  65  84 113 156 203 249 303 365
#     4   9  20  39  61  86 118 154 195 246 301 359
#     4  10  20  34  53  78 112 156 202 243 286 347
#     4  10  21  36  54  79 116 160 201 241 290 357
#     4   9  19  40  67  89 116 162 212 252 295 351
#     4  11  23  37  60  90 120 153 199 254 305 358
#     4   9  17  31  51  76 109 148 191 241 294 341
#
# _framework density 20.375418
#
# number of rings (size 3 to 8) (size 9 to 14) (size 15 to 20)
#    0.000    2.000    0.000    4.875    0.000    6.500 
#    0.000    2.500    0.000    2.250    0.000    0.000 
#    0.000    0.000    0.000    0.000    0.000    0.000 
#
# Total GULP energy -357179.223200 kJ/mol
# GULP energy per Si atom -5580.925362 kJ/mol
# Density = 2.032904 g / cm^3
# Si number density = 20.375418 Si / 1000 Ang^3
#
#
#
# Elastic Constant Matrix: (Units=GPa)
#
#
# Indices 1 2 3 4 5 6 
#
# 1 76.2763 -2.8952 45.3706 0.0000 0.0000 0.0000
# 2 -2.8952 63.8299 26.8874 0.0000 0.0000 0.0000
# 3 45.3706 26.8874 104.4401 0.0000 0.0000 0.0000
# 4 0.0000 0.0000 0.0000 27.5678 0.0000 0.0000
# 5 0.0000 0.0000 0.0000 0.0000 5.1947 0.0000
# 6 0.0000 0.0000 0.0000 0.0000 0.0000 8.1009
#
#
#
# Elastic Compliance Matrix: (Units=1/GPa)
#
#
# Indices 1 2 3 4 5 6 
#
# 1 0.018927 0.004848 -0.009470 0.000000 0.000000 0.000000
# 2 0.004848 0.018814 -0.006949 0.000000 0.000000 0.000000
# 3 -0.009470 -0.006949 0.015478 0.000000 0.000000 0.000000
# 4 0.000000 0.000000 0.000000 0.036274 0.000000 0.000000
# 5 0.000000 0.000000 0.000000 0.000000 0.192505 0.000000
# 6 0.000000 0.000000 0.000000 0.000000 0.000000 0.123444
#
#
# Mechanical properties :
#
#
# Convention : Reuss Voigt Hill
#
# Bulk Modulus (GPa) = 33.25006 42.58578 37.91792
# Shear Modulus (GPa) = 11.39961 19.85157 15.62559
#
# Velocity S-wave (km/s) = 2.36790 3.12475 2.77227
# Velocity P-wave (km/s) = 4.88160 5.82792 5.37563
#
# Compressibility (1/GPa) = 0.03007514
#
# Stress axis : x y z
#
# Youngs Moduli (GPa) = 52.83344 53.15231 64.60759
#
# Poissons Ratio (x) = -0.25767 0.61186
# Poissons Ratio (y) = -0.25612 0.44899
# Poissons Ratio (z) = 0.50035 0.36938
#
# Static dielectric constant tensor:
#      x y z
#    x 1.707800 0.000000 0.000000 
#    y 0.000000 1.760230 0.000000 
#    z 0.000000 0.000000 1.765610 
# 
# From -- ./inp_files/20269.got.cif
#   From: 2010.05.17/outbox.cif.g08.bks.cpg/sg58_11_cif.got.tgz:20269.got - 2010.06.03 14:20:14.
