data_PCOD9442590
_publ_section_title
;
Structure prediction by ZEFSAII (Michael W. Deem and Ramdas Pophale) SiO2 
 PCOD9442590
Probable space group: P N N M
;
_chemical_formula_sum "Si O2"
_cell_formula_units_Z 48
_cell_length_a 9.279914
_cell_length_b 21.115906
_cell_length_c 12.320279
_cell_angle_alpha 90.000000
_cell_angle_beta 90.000000
_cell_angle_gamma 90.000000
_cell_volume 2414.205385
_symmetry_space_group_name_H-M "P N N M"
_symmetry_group_IT_number 58
_symmetry_cell_setting 'orthorhombic'
loop_
_space_group_symop_operation_xyz
x,y,z
-x,-y,z
1/2+x,1/2-y,1/2-z
1/2-x,1/2+y,1/2-z
-x,-y,-z
x,y,-z
1/2-x,1/2+y,1/2+z
1/2+x,1/2-y,1/2+z
loop_
_atom_site_type_symbol
_atom_site_label
_atom_site_fract_x
_atom_site_fract_y
_atom_site_fract_z
Si Si1 0.068305 0.564627 0.622819
Si Si2 0.911120 0.877382 0.619767
Si Si3 0.728917 0.595372 0.877188
Si Si4 0.947899 0.678067 0.763747
Si Si5 0.345174 0.515080 0.291927
Si Si6 0.288322 0.246040 0.372497
O O1 0.014917 0.573647 0.500000
O O2 0.234287 0.545052 0.625102
O O3 0.000000 0.500000 0.669721
O O4 0.034014 0.626444 0.692182
O O5 0.890612 0.905019 0.500000
O O6 0.873330 0.930209 0.705042
O O7 0.807518 0.817883 0.629514
O O8 0.081536 0.863379 0.629606
O O9 0.867834 0.638543 0.857734
O O10 0.713635 0.543965 0.780290
O O11 0.732728 0.568107 0.000000
O O12 0.816321 0.705624 0.691237
O O13 0.060628 0.729099 0.812669
O O14 0.500000 0.500000 0.341721
O O15 0.310575 0.263386 0.500000
#
# Coordination Sequence:
#
# PCOD9442590 Si02
#       6
#     8   8   8   8   8   8
#     4  11  23  41  62  89 123 166 208 252 316 379
#     4   9  18  35  59  89 125 157 191 241 302 364
#     4  10  20  35  60  93 125 160 197 244 307 369
#     4  12  23  42  64  87 127 164 210 264 313 370
#     4  10  19  36  62  92 123 153 194 248 303 368
#     4  11  24  41  64  90 120 164 214 260 310 372
#
# _framework density 19.882318000000001
#
# number of rings (size 3 to 8) (size 9 to 14) (size 15 to 20)
#    0.000    1.500    3.333    2.500    0.000    2.333 
#    0.000    3.333    0.000    0.000    0.000    0.000 
#    0.000    0.000    0.000    0.000    0.000    0.000 
#
# Total GULP energy -267566.437965 kJ/mol
# GULP energy per Si atom -5574.300791 kJ/mol
# Density = 1.983707 g / cm^3
# Si number density = 19.882318 Si / 1000 Ang^3
#
#
#
# Elastic Constant Matrix: (Units=GPa)
#
#
# Indices 1 2 3 4 5 6 
#
# 1 93.1871 24.4355 31.6766 0.0000 0.0000 0.0000
# 2 24.4355 43.9104 22.0739 0.0000 0.0000 0.0000
# 3 31.6766 22.0739 66.9705 0.0000 0.0000 0.0000
# 4 0.0000 0.0000 0.0000 50.3459 0.0000 0.0000
# 5 0.0000 0.0000 0.0000 0.0000 31.6101 0.0000
# 6 0.0000 0.0000 0.0000 0.0000 0.0000 39.5037
#
#
#
# Elastic Compliance Matrix: (Units=1/GPa)
#
#
# Indices 1 2 3 4 5 6 
#
# 1 0.013725 -0.005243 -0.004764 0.000000 0.000000 0.000000
# 2 -0.005243 0.029299 -0.007177 0.000000 0.000000 0.000000
# 3 -0.004764 -0.007177 0.019551 0.000000 0.000000 0.000000
# 4 0.000000 0.000000 0.000000 0.019863 0.000000 0.000000
# 5 0.000000 0.000000 0.000000 0.000000 0.031635 0.000000
# 6 0.000000 0.000000 0.000000 0.000000 0.000000 0.025314
#
#
# Mechanical properties :
#
#
# Convention : Reuss Voigt Hill
#
# Bulk Modulus (GPa) = 35.45208 40.04890 37.75049
# Shear Modulus (GPa) = 27.29874 32.68408 29.99141
#
# Velocity S-wave (km/s) = 3.70944 4.05887 3.88809
# Velocity P-wave (km/s) = 6.01800 6.49251 6.25975
#
# Compressibility (1/GPa) = 0.02820709
#
# Stress axis : x y z
#
# Youngs Moduli (GPa) = 72.85825 34.13035 51.14857
#
# Poissons Ratio (x) = 0.17895 0.24366
# Poissons Ratio (y) = 0.38201 0.36711
# Poissons Ratio (z) = 0.34708 0.24496
#
# Static dielectric constant tensor:
#      x y z
#    x 1.773910 0.000000 0.000000 
#    y 0.000000 1.687710 0.000000 
#    z 0.000000 0.000000 1.772270 
# 
# From -- ./inp_files/13039.got.cif
#   From: 2010.05.17/outbox.cif.g08.bks.cpg/sg58_7_cif.got.tgz:13039.got - 2010.06.03 14:20:14.
