data_PCOD9442678
_publ_section_title
;
Structure prediction by ZEFSAII (Michael W. Deem and Ramdas Pophale) SiO2 
 PCOD9442678
Probable space group: P N N M
;
_chemical_formula_sum "Si O2"
_cell_formula_units_Z 44
_cell_length_a 24.980657
_cell_length_b 6.225104
_cell_length_c 14.334467
_cell_angle_alpha 90.000000
_cell_angle_beta 90.000000
_cell_angle_gamma 90.000000
_cell_volume 2229.112652
_symmetry_space_group_name_H-M "P N N M"
_symmetry_group_IT_number 58
_symmetry_cell_setting 'orthorhombic'
loop_
_space_group_symop_operation_xyz
x,y,z
-x,-y,z
1/2+x,1/2-y,1/2-z
1/2-x,1/2+y,1/2-z
-x,-y,-z
x,y,-z
1/2-x,1/2+y,1/2+z
1/2+x,1/2-y,1/2+z
loop_
_atom_site_type_symbol
_atom_site_label
_atom_site_fract_x
_atom_site_fract_y
_atom_site_fract_z
Si Si1 0.251231 0.232772 0.391799
Si Si2 0.181286 0.032203 0.236436
Si Si3 0.500000 0.500000 0.201235
Si Si4 0.911395 0.312422 0.761241
Si Si5 0.353522 0.913850 0.604965
Si Si6 0.443313 0.873847 0.896810
O O1 0.239318 0.287444 0.500000
O O2 0.203992 0.123495 0.333025
O O3 0.271782 0.431835 0.328748
O O4 0.300346 0.062335 0.393304
O O5 0.154919 0.219299 0.175471
O O6 0.137971 0.847836 0.253320
O O7 0.534424 0.673721 0.257830
O O8 0.541447 0.363198 0.138678
O O9 0.901202 0.437798 0.856930
O O10 0.911604 0.489102 0.679124
O O11 0.362112 0.837182 0.500000
O O12 0.500000 0.000000 0.902874
O O13 0.419109 0.869531 0.000000
#
# Coordination Sequence:
#
# PCOD9442678 Si02
#       6
#     8   8   4   8   8   8
#     4  10  21  36  59  87 118 158 201 244 296 355
#     4  11  20  38  60  87 122 156 198 248 294 357
#     4  10  19  38  61  84 118 158 199 250 303 348
#     4  10  22  36  59  87 119 153 198 249 296 358
#     4  10  21  39  60  84 116 160 200 240 300 360
#     4   9  18  34  57  85 117 155 193 234 292 356
#
# _framework density 19.738795
#
# number of rings (size 3 to 8) (size 9 to 14) (size 15 to 20)
#    0.000    2.000    1.818    1.909    0.000    2.182 
#    0.000    3.182    0.000   10.364    0.000    0.000 
#    0.000    0.000    0.000    0.000    0.000    0.000 
#
# Total GULP energy -245633.121659 kJ/mol
# GULP energy per Si atom -5582.570947 kJ/mol
# Density = 1.969387 g / cm^3
# Si number density = 19.738795 Si / 1000 Ang^3
#
#
#
# Elastic Constant Matrix: (Units=GPa)
#
#
# Indices 1 2 3 4 5 6 
#
# 1 38.6529 17.6612 43.9024 0.0000 0.0000 0.0000
# 2 17.6612 76.8356 30.3931 0.0000 0.0000 0.0000
# 3 43.9024 30.3931 125.2427 0.0000 0.0000 0.0000
# 4 0.0000 0.0000 0.0000 14.9062 0.0000 0.0000
# 5 0.0000 0.0000 0.0000 0.0000 24.8472 0.0000
# 6 0.0000 0.0000 0.0000 0.0000 0.0000 29.8761
#
#
#
# Elastic Compliance Matrix: (Units=1/GPa)
#
#
# Indices 1 2 3 4 5 6 
#
# 1 0.044333 -0.004472 -0.014455 0.000000 0.000000 0.000000
# 2 -0.004472 0.014848 -0.002035 0.000000 0.000000 0.000000
# 3 -0.014455 -0.002035 0.013546 0.000000 0.000000 0.000000
# 4 0.000000 0.000000 0.000000 0.067086 0.000000 0.000000
# 5 0.000000 0.000000 0.000000 0.000000 0.040246 0.000000
# 6 0.000000 0.000000 0.000000 0.000000 0.000000 0.033472
#
#
# Mechanical properties :
#
#
# Convention : Reuss Voigt Hill
#
# Bulk Modulus (GPa) = 32.46688 47.18273 39.82481
# Shear Modulus (GPa) = 18.81657 23.84420 21.33038
#
# Velocity S-wave (km/s) = 3.09087 3.47938 3.29086
# Velocity P-wave (km/s) = 5.40573 6.33221 5.88722
#
# Compressibility (1/GPa) = 0.03080062
#
# Stress axis : x y z
#
# Youngs Moduli (GPa) = 22.55646 67.34929 73.82503
#
# Poissons Ratio (x) = 0.30122 1.06715
# Poissons Ratio (y) = 0.10088 0.15027
# Poissons Ratio (z) = 0.32606 0.13709
#
# Static dielectric constant tensor:
#      x y z
#    x 1.714820 0.000000 0.000000 
#    y 0.000000 1.693240 0.000000 
#    z 0.000000 0.000000 1.680510 
# 
# From -- ./inp_files/23618.got.cif
#   From: 2010.05.17/outbox.cif.g08.bks.cpg/sg58_12_cif.got.tgz:23618.got - 2010.06.03 14:20:14.
