data_PCOD9442362
_publ_section_title
;
Structure prediction by ZEFSAII (Michael W. Deem and Ramdas Pophale) SiO2 
 PCOD9442362
Probable space group: P N N M
;
_chemical_formula_sum "Si O2"
_cell_formula_units_Z 58
_cell_length_a 26.672884
_cell_length_b 12.739502
_cell_length_c 7.519594
_cell_angle_alpha 90.000000
_cell_angle_beta 90.000000
_cell_angle_gamma 90.000000
_cell_volume 2555.152470
_symmetry_space_group_name_H-M "P N N M"
_symmetry_group_IT_number 58
_symmetry_cell_setting 'orthorhombic'
loop_
_space_group_symop_operation_xyz
x,y,z
-x,-y,z
1/2+x,1/2-y,1/2-z
1/2-x,1/2+y,1/2-z
-x,-y,-z
x,y,-z
1/2-x,1/2+y,1/2+z
1/2+x,1/2-y,1/2+z
loop_
_atom_site_type_symbol
_atom_site_label
_atom_site_fract_x
_atom_site_fract_y
_atom_site_fract_z
Si Si1 0.500000 0.500000 0.000000
Si Si2 0.664865 0.364977 0.788333
Si Si3 0.071901 0.422925 0.282607
Si Si4 0.393705 0.347098 0.288540
Si Si5 0.060517 0.069642 0.205763
Si Si6 0.532849 0.845680 0.787000
Si Si7 0.790264 0.085675 0.796309
Si Si8 0.183345 0.365548 0.715474
O O1 0.483345 0.585079 0.843567
O O2 0.607312 0.354519 0.728687
O O3 0.688552 0.467735 0.704043
O O4 0.691362 0.257041 0.745037
O O5 0.665209 0.379676 0.000000
O O6 0.072608 0.417092 0.500000
O O7 0.056774 0.542109 0.233389
O O8 0.128255 0.398843 0.219334
O O9 0.025226 0.349002 0.223030
O O10 0.389600 0.362744 0.500000
O O11 0.417155 0.457154 0.223369
O O12 0.429953 0.249010 0.261217
O O13 0.336240 0.344778 0.218724
O O14 0.045881 0.065423 0.000000
O O15 0.530822 0.846406 0.000000
O O16 0.734549 0.082068 0.717424
O O17 0.783756 0.122346 0.000000
O O18 0.180419 0.379191 0.500000
#
# Coordination Sequence:
#
# PCOD9442362 Si02
#       8
#     2   8   8   8   8   8   8   8
#     4  12  22  36  60  86 116 158 214 240 292 356
#     4  10  19  35  56  82 111 151 200 249 300 360
#     4   8  16  32  49  76 110 138 181 239 295 353
#     4   9  19  34  52  76 110 148 188 233 293 352
#     4  10  22  39  56  83 122 159 194 247 300 357
#     4   9  17  30  54  80 105 141 184 236 289 345
#     4   9  19  36  55  76 109 152 190 241 303 357
#     4   9  18  33  56  81 109 151 200 244 303 369
#
# _framework density 22.699231999999999
#
# number of rings (size 3 to 8) (size 9 to 14) (size 15 to 20)
#    0.000    2.759    0.690    2.276    0.966    2.759 
#    2.483    2.759    0.000    3.310    0.000    0.000 
#    0.000    0.000    0.000    0.000    0.000    0.000 
#
# Total GULP energy -323026.974406 kJ/mol
# GULP energy per Si atom -5569.430593 kJ/mol
# Density = 2.264757 g / cm^3
# Si number density = 22.699232 Si / 1000 Ang^3
#
#
#
# Elastic Constant Matrix: (Units=GPa)
#
#
# Indices 1 2 3 4 5 6 
#
# 1 194.0556 43.8903 6.9207 0.0000 0.0000 0.0000
# 2 43.8903 50.5718 -2.9743 0.0000 0.0000 0.0000
# 3 6.9207 -2.9743 74.7802 0.0000 0.0000 0.0000
# 4 0.0000 0.0000 0.0000 5.4169 0.0000 0.0000
# 5 0.0000 0.0000 0.0000 0.0000 11.3353 0.0000
# 6 0.0000 0.0000 0.0000 0.0000 0.0000 32.6860
#
#
#
# Elastic Compliance Matrix: (Units=1/GPa)
#
#
# Indices 1 2 3 4 5 6 
#
# 1 0.006462 -0.005657 -0.000823 0.000000 0.000000 0.000000
# 2 -0.005657 0.024772 0.001509 0.000000 0.000000 0.000000
# 3 -0.000823 0.001509 0.013509 0.000000 0.000000 0.000000
# 4 0.000000 0.000000 0.000000 0.184607 0.000000 0.000000
# 5 0.000000 0.000000 0.000000 0.000000 0.088220 0.000000
# 6 0.000000 0.000000 0.000000 0.000000 0.000000 0.030594
#
#
# Mechanical properties :
#
#
# Convention : Reuss Voigt Hill
#
# Bulk Modulus (GPa) = 28.73495 46.12010 37.42752
# Shear Modulus (GPa) = 13.52428 27.99235 20.75831
#
# Velocity S-wave (km/s) = 2.44356 3.51548 3.02734
# Velocity P-wave (km/s) = 4.54398 6.06961 5.36134
#
# Compressibility (1/GPa) = 0.03480083
#
# Stress axis : x y z
#
# Youngs Moduli (GPa) = 154.75374 40.36844 74.02634
#
# Poissons Ratio (x) = 0.22835 0.06092
# Poissons Ratio (y) = 0.87537 -0.11169
# Poissons Ratio (z) = 0.12736 -0.06091
#
# Static dielectric constant tensor:
#      x y z
#    x 1.994370 0.000000 0.000000 
#    y 0.000000 1.855150 0.000000 
#    z 0.000000 0.000000 1.858560 
# 
# From -- ./inp_files/9899.got.cif
#   From: 2010.05.17/outbox.cif.g08.bks.cpg/sg58_5_cif.got.tgz:9899.got - 2010.06.03 14:20:14.
