data_PCOD9442001
_publ_section_title
;
Structure prediction by ZEFSAII (Michael W. Deem and Ramdas Pophale) SiO2 
 PCOD9442001
Probable space group: P N N M
;
_chemical_formula_sum "Si O2"
_cell_formula_units_Z 64
_cell_length_a 10.117180
_cell_length_b 23.249155
_cell_length_c 12.698264
_cell_angle_alpha 90.000000
_cell_angle_beta 90.000000
_cell_angle_gamma 90.000000
_cell_volume 2986.833417
_symmetry_space_group_name_H-M "P N N M"
_symmetry_group_IT_number 58
_symmetry_cell_setting 'orthorhombic'
loop_
_space_group_symop_operation_xyz
x,y,z
-x,-y,z
1/2+x,1/2-y,1/2-z
1/2-x,1/2+y,1/2-z
-x,-y,-z
x,y,-z
1/2-x,1/2+y,1/2+z
1/2+x,1/2-y,1/2+z
loop_
_atom_site_type_symbol
_atom_site_label
_atom_site_fract_x
_atom_site_fract_y
_atom_site_fract_z
Si Si1 0.382425 0.798425 0.164480
Si Si2 0.185103 0.898776 0.116389
Si Si3 0.361752 0.483294 0.118140
Si Si4 0.028178 0.353250 0.124815
Si Si5 0.129197 0.468256 0.243601
Si Si6 0.056783 0.861232 0.320588
Si Si7 0.769449 0.821987 0.321495
Si Si8 0.830439 0.264951 0.617538
O O1 0.296214 0.849694 0.121222
O O2 0.407931 0.807332 0.291612
O O3 0.305429 0.740825 0.134012
O O4 0.527458 0.796266 0.117142
O O5 0.267458 0.951012 0.166199
O O6 0.076225 0.877103 0.198433
O O7 0.136109 0.909166 0.000000
O O8 0.500000 0.500000 0.172711
O O9 0.225486 0.504004 0.167538
O O10 0.368732 0.413414 0.121022
O O11 0.366204 0.505084 0.000000
O O12 0.869569 0.345811 0.137745
O O13 0.077424 0.413466 0.175617
O O14 0.061183 0.348470 0.000000
O O15 0.000000 0.500000 0.282637
O O16 0.125660 0.799639 0.343853
O O17 0.901119 0.858450 0.344471
O O18 0.752458 0.803823 0.198558
O O19 0.775238 0.261222 0.500000
#
# Coordination Sequence:
#
# PCOD9442001 Si02
#       8
#     8   8   8   8   8   8   8   8
#     4   9  19  37  51  81 117 151 196 244 286 347
#     4  10  20  38  62  84 114 156 202 243 302 365
#     4  10  22  39  62  90 121 162 199 239 311 377
#     4  10  22  37  60  89 121 160 202 251 309 366
#     4  10  23  42  63  92 124 152 197 265 309 361
#     4  10  21  37  55  84 121 155 197 253 296 353
#     4  10  21  36  52  84 122 155 203 246 290 358
#     4  10  19  33  54  78 112 155 193 237 292 344
#
# _framework density 21.427375000000001
#
# number of rings (size 3 to 8) (size 9 to 14) (size 15 to 20)
#    0.000    2.125    1.250    1.125    1.750    5.250 
#    0.000    0.000    0.000    6.000    0.000    0.000 
#    0.000    0.000    0.000    0.000    0.000    0.000 
#
# Total GULP energy -356852.609444 kJ/mol
# GULP energy per Si atom -5575.822023 kJ/mol
# Density = 2.137861 g / cm^3
# Si number density = 21.427375 Si / 1000 Ang^3
#
#
#
# Elastic Constant Matrix: (Units=GPa)
#
#
# Indices 1 2 3 4 5 6 
#
# 1 72.4627 -6.3570 -20.6561 0.0000 0.0000 0.0000
# 2 -6.3570 19.5523 -8.4450 0.0000 0.0000 0.0000
# 3 -20.6561 -8.4450 114.8952 0.0000 0.0000 0.0000
# 4 0.0000 0.0000 0.0000 -0.6682 0.0000 0.0000
# 5 0.0000 0.0000 0.0000 0.0000 -56.0123 0.0000
# 6 0.0000 0.0000 0.0000 0.0000 0.0000 32.8472
#
#
#
# Elastic Compliance Matrix: (Units=1/GPa)
#
#
# Indices 1 2 3 4 5 6 
#
# 1 0.015273 0.006354 0.003213 0.000000 0.000000 0.000000
# 2 0.006354 0.055465 0.005219 0.000000 0.000000 0.000000
# 3 0.003213 0.005219 0.009665 0.000000 0.000000 0.000000
# 4 0.000000 0.000000 0.000000 -1.496481 0.000000 0.000000
# 5 0.000000 0.000000 0.000000 0.000000 -0.017853 0.000000
# 6 0.000000 0.000000 0.000000 0.000000 0.000000 0.030444
#
#
# Mechanical properties :
#
#
# Convention : Reuss Voigt Hill
#
# Bulk Modulus (GPa) = 9.09308 15.11044 12.10176
# Shear Modulus (GPa) = -3.58063 11.39124 3.90530
#
# Velocity S-wave (km/s) = -1.29410 2.30819 1.35149
# Velocity P-wave (km/s) = 1.42126 3.76443 2.84525
#
# Compressibility (1/GPa) = 0.10997375
#
# Stress axis : x y z
#
# Youngs Moduli (GPa) = 65.47313 18.02950 103.46810
#
# Poissons Ratio (x) = -0.11455 -0.33243
# Poissons Ratio (y) = -0.41598 -0.54000
# Poissons Ratio (z) = -0.21036 -0.09410
#
# Static dielectric constant tensor:
#      x y z
#    x 1.765650 0.000000 0.000000 
#    y 0.000000 1.823720 0.000000 
#    z 0.000000 0.000000 1.848130 
# 
# From -- ./inp_files/14800.got.cif
#   From: 2010.05.17/outbox.cif.g08.bks.cpg/sg58_8_cif.got.tgz:14800.got - 2010.06.03 14:20:14.
