data_PCOD9442409
_publ_section_title
;
Structure prediction by ZEFSAII (Michael W. Deem and Ramdas Pophale) SiO2 
 PCOD9442409
Probable space group: P N N M
;
_chemical_formula_sum "Si O2"
_cell_formula_units_Z 56
_cell_length_a 24.667139
_cell_length_b 13.571346
_cell_length_c 9.154750
_cell_angle_alpha 90.000000
_cell_angle_beta 90.000000
_cell_angle_gamma 90.000000
_cell_volume 3064.701585
_symmetry_space_group_name_H-M "P N N M"
_symmetry_group_IT_number 58
_symmetry_cell_setting 'orthorhombic'
loop_
_space_group_symop_operation_xyz
x,y,z
-x,-y,z
1/2+x,1/2-y,1/2-z
1/2-x,1/2+y,1/2-z
-x,-y,-z
x,y,-z
1/2-x,1/2+y,1/2+z
1/2+x,1/2-y,1/2+z
loop_
_atom_site_type_symbol
_atom_site_label
_atom_site_fract_x
_atom_site_fract_y
_atom_site_fract_z
Si Si1 0.126497 0.117164 0.674317
Si Si2 0.440665 0.455826 0.326558
Si Si3 0.059355 0.721686 0.826707
Si Si4 0.562857 0.207142 0.673510
Si Si5 0.775614 0.777794 0.824806
Si Si6 0.665945 0.075887 0.672216
Si Si7 0.162643 0.629355 0.673701
O O1 0.128069 0.117908 0.500000
O O2 0.085405 0.200709 0.735639
O O3 0.184296 0.148049 0.741502
O O4 0.104196 0.014351 0.735777
O O5 0.500000 0.500000 0.290986
O O6 0.431916 0.472446 0.500000
O O7 0.440124 0.339206 0.299635
O O8 0.107425 0.669184 0.742529
O O9 0.999031 0.684502 0.788174
O O10 0.066986 0.706017 0.000000
O O11 0.564179 0.233919 0.500000
O O12 0.605112 0.118466 0.693990
O O13 0.794706 0.666973 0.789066
O O14 0.713613 0.800713 0.789332
O O15 0.783777 0.789890 0.000000
O O16 0.672547 0.054519 0.500000
O O17 0.674903 0.978781 0.764420
O O18 0.157813 0.625814 0.500000
#
# Coordination Sequence:
#
# PCOD9442409 Si02
#       7
#     8   8   8   8   8   8   8
#     4  11  21  32  55  89 119 148 187 242 294 337
#     4  10  19  35  58  83 116 156 195 231 275 342
#     4  10  21  37  59  83 112 154 198 236 277 336
#     4   9  18  37  60  82 111 152 198 233 273 342
#     4   9  21  42  62  79 108 155 200 234 277 343
#     4   9  19  38  64  84 106 145 195 239 276 336
#     4  11  24  40  58  85 121 150 182 238 297 341
#
# _framework density 18.272579
#
# number of rings (size 3 to 8) (size 9 to 14) (size 15 to 20)
#    0.000    2.143    1.429    2.571    0.000    6.571 
#    0.000    5.714    0.000    0.000    0.000    0.000 
#    0.000    0.000    0.000    0.000    0.000    0.000 
#
# Total GULP energy -312696.297357 kJ/mol
# GULP energy per Si atom -5583.862453 kJ/mol
# Density = 1.823099 g / cm^3
# Si number density = 18.272579 Si / 1000 Ang^3
#
#
#
# Elastic Constant Matrix: (Units=GPa)
#
#
# Indices 1 2 3 4 5 6 
#
# 1 119.7115 48.0638 41.9016 0.0000 0.0000 0.0000
# 2 48.0638 70.3236 34.1771 0.0000 0.0000 0.0000
# 3 41.9016 34.1771 39.3556 0.0000 0.0000 0.0000
# 4 0.0000 0.0000 0.0000 25.0281 0.0000 0.0000
# 5 0.0000 0.0000 0.0000 0.0000 22.7684 0.0000
# 6 0.0000 0.0000 0.0000 0.0000 0.0000 15.0843
#
#
#
# Elastic Compliance Matrix: (Units=1/GPa)
#
#
# Indices 1 2 3 4 5 6 
#
# 1 0.013938 -0.004004 -0.011363 0.000000 0.000000 0.000000
# 2 -0.004004 0.025754 -0.018102 0.000000 0.000000 0.000000
# 3 -0.011363 -0.018102 0.053228 0.000000 0.000000 0.000000
# 4 0.000000 0.000000 0.000000 0.039955 0.000000 0.000000
# 5 0.000000 0.000000 0.000000 0.000000 0.043921 0.000000
# 6 0.000000 0.000000 0.000000 0.000000 0.000000 0.066294
#
#
# Mechanical properties :
#
#
# Convention : Reuss Voigt Hill
#
# Bulk Modulus (GPa) = 38.48853 53.07506 45.78179
# Shear Modulus (GPa) = 15.68928 19.59270 17.64099
#
# Velocity S-wave (km/s) = 2.93341 3.27807 3.11052
# Velocity P-wave (km/s) = 5.70810 6.59068 6.16520
#
# Compressibility (1/GPa) = 0.02598177
#
# Stress axis : x y z
#
# Youngs Moduli (GPa) = 71.74513 38.82837 18.78724
#
# Poissons Ratio (x) = 0.15547 0.21347
# Poissons Ratio (y) = 0.28727 0.34009
# Poissons Ratio (z) = 0.81522 0.70289
#
# Static dielectric constant tensor:
#      x y z
#    x 1.628180 0.000000 0.000000 
#    y 0.000000 1.609860 0.000000 
#    z 0.000000 0.000000 1.604090 
# 
# From -- ./inp_files/8963.got.cif
#   From: 2010.05.17/outbox.cif.g08.bks.cpg/sg58_5_cif.got.tgz:8963.got - 2010.06.03 14:20:14.
