data_PCOD9442915
_publ_section_title
;
Structure prediction by ZEFSAII (Michael W. Deem and Ramdas Pophale) SiO2 
 PCOD9442915
Probable space group: P N N M
;
_chemical_formula_sum "Si O2"
_cell_formula_units_Z 48
_cell_length_a 15.448871
_cell_length_b 19.275215
_cell_length_c 7.555825
_cell_angle_alpha 90.000000
_cell_angle_beta 90.000000
_cell_angle_gamma 90.000000
_cell_volume 2249.975911
_symmetry_space_group_name_H-M "P N N M"
_symmetry_group_IT_number 58
_symmetry_cell_setting 'orthorhombic'
loop_
_space_group_symop_operation_xyz
x,y,z
-x,-y,z
1/2+x,1/2-y,1/2-z
1/2-x,1/2+y,1/2-z
-x,-y,-z
x,y,-z
1/2-x,1/2+y,1/2+z
1/2+x,1/2-y,1/2+z
loop_
_atom_site_type_symbol
_atom_site_label
_atom_site_fract_x
_atom_site_fract_y
_atom_site_fract_z
Si Si1 0.642927 0.072525 0.715937
Si Si2 0.634046 0.441722 0.705350
Si Si3 0.495546 0.672097 0.297001
Si Si4 0.011561 0.673051 0.782826
Si Si5 0.834595 0.098361 0.296961
Si Si6 0.172035 0.584467 0.785562
O O1 0.644223 0.073064 0.500000
O O2 0.563762 0.120157 0.772391
O O3 0.736879 0.100029 0.775475
O O4 0.636984 0.991829 0.767397
O O5 0.611721 0.455044 0.500000
O O6 0.565483 0.387453 0.783031
O O7 0.638049 0.517383 0.791985
O O8 0.730300 0.410084 0.717699
O O9 0.465013 0.679074 0.500000
O O10 0.493872 0.749084 0.219758
O O11 0.593047 0.643720 0.296147
O O12 0.104430 0.642699 0.728224
O O13 0.012306 0.673912 0.000000
O O14 0.832233 0.121542 0.500000
O O15 0.176657 0.585109 0.000000
#
# Coordination Sequence:
#
# PCOD9442915 Si02
#       6
#     8   8   8   8   8   8
#     4   8  15  29  51  77  98 123 165 209 246 288
#     4  10  20  34  52  73 101 135 169 208 253 303
#     4  10  21  34  49  72 102 137 169 199 248 307
#     4   9  17  31  51  74 102 134 167 204 247 300
#     4  10  20  34  55  78  98 126 168 216 256 293
#     4   9  17  31  54  79  99 127 170 214 250 287
#
# _framework density 21.333561
#
# number of rings (size 3 to 8) (size 9 to 14) (size 15 to 20)
#    0.000    2.667    0.000    3.000    0.000    6.667 
#    0.000    2.500    0.000   14.000    0.000    0.000 
#    0.000    0.000    0.000    0.000    0.000    0.000 
#
# Total GULP energy -267982.589552 kJ/mol
# GULP energy per Si atom -5582.970616 kJ/mol
# Density = 2.128501 g / cm^3
# Si number density = 21.333561 Si / 1000 Ang^3
#
#
#
# Elastic Constant Matrix: (Units=GPa)
#
#
# Indices 1 2 3 4 5 6 
#
# 1 54.7597 23.5167 -7.2146 0.0000 0.0000 0.0000
# 2 23.5167 36.5323 -5.9345 0.0000 0.0000 0.0000
# 3 -7.2146 -5.9345 51.4640 0.0000 0.0000 0.0000
# 4 0.0000 0.0000 0.0000 9.0055 0.0000 0.0000
# 5 0.0000 0.0000 0.0000 0.0000 26.7683 0.0000
# 6 0.0000 0.0000 0.0000 0.0000 0.0000 3.0913
#
#
#
# Elastic Compliance Matrix: (Units=1/GPa)
#
#
# Indices 1 2 3 4 5 6 
#
# 1 0.025385 -0.016064 0.001706 0.000000 0.000000 0.000000
# 2 -0.016064 0.038061 0.002137 0.000000 0.000000 0.000000
# 3 0.001706 0.002137 0.019917 0.000000 0.000000 0.000000
# 4 0.000000 0.000000 0.000000 0.111044 0.000000 0.000000
# 5 0.000000 0.000000 0.000000 0.000000 0.037358 0.000000
# 6 0.000000 0.000000 0.000000 0.000000 0.000000 0.323489
#
#
# Mechanical properties :
#
#
# Convention : Reuss Voigt Hill
#
# Bulk Modulus (GPa) = 16.97169 18.16566 17.56868
# Shear Modulus (GPa) = 8.34259 16.59890 12.47074
#
# Velocity S-wave (km/s) = 1.97966 2.79241 2.42039
# Velocity P-wave (km/s) = 3.63291 4.35089 4.00801
#
# Compressibility (1/GPa) = 0.05892164
#
# Stress axis : x y z
#
# Youngs Moduli (GPa) = 39.39330 26.27380 50.20911
#
# Poissons Ratio (x) = 0.42206 -0.08567
# Poissons Ratio (y) = 0.63280 -0.10730
# Poissons Ratio (z) = -0.06722 -0.05615
#
# Static dielectric constant tensor:
#      x y z
#    x 1.744690 0.000000 0.000000 
#    y 0.000000 1.744290 0.000000 
#    z 0.000000 0.000000 1.806170 
# 
# From -- ./inp_files/5880.got.cif
#   From: 2010.05.17/outbox.cif.g08.bks.cpg/sg58_3_cif.got.tgz:5880.got - 2010.06.03 14:20:14.
