data_PCOD9442531
_publ_section_title
;
Structure prediction by ZEFSAII (Michael W. Deem and Ramdas Pophale) SiO2 
 PCOD9442531
Probable space group: P N N M
;
_chemical_formula_sum "Si O2"
_cell_formula_units_Z 64
_cell_length_a 10.547998
_cell_length_b 20.089851
_cell_length_c 15.482925
_cell_angle_alpha 90.000000
_cell_angle_beta 90.000000
_cell_angle_gamma 90.000000
_cell_volume 3280.951152
_symmetry_space_group_name_H-M "P N N M"
_symmetry_group_IT_number 58
_symmetry_cell_setting 'orthorhombic'
loop_
_space_group_symop_operation_xyz
x,y,z
-x,-y,z
1/2+x,1/2-y,1/2-z
1/2-x,1/2+y,1/2-z
-x,-y,-z
x,y,-z
1/2-x,1/2+y,1/2+z
1/2+x,1/2-y,1/2+z
loop_
_atom_site_type_symbol
_atom_site_label
_atom_site_fract_x
_atom_site_fract_y
_atom_site_fract_z
Si Si1 0.099308 0.438643 0.266487
Si Si2 0.216961 0.742553 0.320563
Si Si3 0.201246 0.376542 0.905106
Si Si4 0.969224 0.361610 0.404390
Si Si5 0.509936 0.576488 0.098256
Si Si6 0.288354 0.019327 0.092960
Si Si7 0.972654 0.922027 0.097806
Si Si8 0.474799 0.677263 0.750369
O O1 0.130967 0.413352 0.172073
O O2 0.209636 0.471443 0.325293
O O3 0.000000 0.500000 0.257340
O O4 0.060217 0.373572 0.322925
O O5 0.276998 0.799886 0.380174
O O6 0.141696 0.688545 0.377875
O O7 0.338873 0.712201 0.270014
O O8 0.098397 0.776154 0.267874
O O9 0.341690 0.407177 0.907010
O O10 0.142787 0.383420 0.000000
O O11 0.019566 0.344081 0.500000
O O12 0.914097 0.436523 0.410107
O O13 0.500000 0.500000 0.127405
O O14 0.455681 0.629279 0.166345
O O15 0.457293 0.581951 0.000000
O O16 0.179262 0.074000 0.098389
O O17 0.275321 0.983960 0.000000
O O18 0.011727 0.870359 0.170011
O O19 0.014958 0.906219 0.000000
O O20 0.000000 0.000000 0.115082
#
# Coordination Sequence:
#
# PCOD9442531 Si02
#       8
#     8   8   8   8   8   8   8   8
#     4  10  21  34  56  90 120 147 194 252 313 354
#     4  11  23  39  59  87 117 164 211 247 293 357
#     4  10  22  38  56  80 114 157 207 250 292 358
#     4  10  19  36  59  83 116 156 197 240 292 363
#     4   9  20  38  62  88 112 149 200 253 308 361
#     4   9  18  33  56  86 117 147 185 236 301 370
#     4  10  21  36  59  91 119 153 197 247 316 384
#     4  11  23  39  63  86 123 159 206 255 303 357
#
# _framework density 19.506537999999999
#
# number of rings (size 3 to 8) (size 9 to 14) (size 15 to 20)
#    0.000    2.000    1.250    1.875    5.250    2.750 
#    0.000    0.625    0.000    2.250    0.000    0.000 
#    0.000    0.000    0.000    0.000    0.000    0.000 
#
# Total GULP energy -356355.589132 kJ/mol
# GULP energy per Si atom -5568.056080 kJ/mol
# Density = 1.946214 g / cm^3
# Si number density = 19.506538 Si / 1000 Ang^3
#
#
#
# Elastic Constant Matrix: (Units=GPa)
#
#
# Indices 1 2 3 4 5 6 
#
# 1 33.9595 30.1820 43.8176 0.0000 0.0000 0.0000
# 2 30.1820 102.4505 72.2056 0.0000 0.0000 0.0000
# 3 43.8176 72.2056 173.3012 0.0000 0.0000 0.0000
# 4 0.0000 0.0000 0.0000 12.4961 0.0000 0.0000
# 5 0.0000 0.0000 0.0000 0.0000 24.2375 0.0000
# 6 0.0000 0.0000 0.0000 0.0000 0.0000 32.6055
#
#
#
# Elastic Compliance Matrix: (Units=1/GPa)
#
#
# Indices 1 2 3 4 5 6 
#
# 1 0.047812 -0.007879 -0.008806 0.000000 0.000000 0.000000
# 2 -0.007879 0.015117 -0.004306 0.000000 0.000000 0.000000
# 3 -0.008806 -0.004306 0.009791 0.000000 0.000000 0.000000
# 4 0.000000 0.000000 0.000000 0.080025 0.000000 0.000000
# 5 0.000000 0.000000 0.000000 0.000000 0.041258 0.000000
# 6 0.000000 0.000000 0.000000 0.000000 0.000000 0.030670
#
#
# Mechanical properties :
#
#
# Convention : Reuss Voigt Hill
#
# Bulk Modulus (GPa) = 32.53397 66.90237 49.71817
# Shear Modulus (GPa) = 18.05697 24.76822 21.41260
#
# Velocity S-wave (km/s) = 3.04581 3.56721 3.31677
# Velocity P-wave (km/s) = 5.39296 7.16509 6.34123
#
# Compressibility (1/GPa) = 0.03073710
#
# Stress axis : x y z
#
# Youngs Moduli (GPa) = 20.91536 66.15053 102.13435
#
# Poissons Ratio (x) = 0.52121 0.89939
# Poissons Ratio (y) = 0.16479 0.43982
# Poissons Ratio (z) = 0.18418 0.28487
#
# Static dielectric constant tensor:
#      x y z
#    x 1.775940 0.000000 0.000000 
#    y 0.000000 1.705390 0.000000 
#    z 0.000000 0.000000 1.737120 
# 
# From -- ./inp_files/21497.got.cif
#   From: 2010.05.17/outbox.cif.g08.bks.cpg/sg58_11_cif.got.tgz:21497.got - 2010.06.03 14:20:14.
