data_PCOD9442091
_publ_section_title
;
Structure prediction by ZEFSAII (Michael W. Deem and Ramdas Pophale) SiO2 
 PCOD9442091
Probable space group: P N N M
;
_chemical_formula_sum "Si O2"
_cell_formula_units_Z 64
_cell_length_a 21.087191
_cell_length_b 17.743327
_cell_length_c 8.475634
_cell_angle_alpha 90.000000
_cell_angle_beta 90.000000
_cell_angle_gamma 90.000000
_cell_volume 3171.217158
_symmetry_space_group_name_H-M "P N N M"
_symmetry_group_IT_number 58
_symmetry_cell_setting 'orthorhombic'
loop_
_space_group_symop_operation_xyz
x,y,z
-x,-y,z
1/2+x,1/2-y,1/2-z
1/2-x,1/2+y,1/2-z
-x,-y,-z
x,y,-z
1/2-x,1/2+y,1/2+z
1/2+x,1/2-y,1/2+z
loop_
_atom_site_type_symbol
_atom_site_label
_atom_site_fract_x
_atom_site_fract_y
_atom_site_fract_z
Si Si1 0.277316 0.085679 0.315797
Si Si2 0.862156 0.708598 0.686352
Si Si3 0.504674 0.200603 0.682546
Si Si4 0.632933 0.623049 0.690120
Si Si5 0.995920 0.883859 0.183929
Si Si6 0.769760 0.572343 0.690503
Si Si7 0.370693 0.208323 0.185242
Si Si8 0.642420 0.375979 0.687712
O O1 0.286621 0.098569 0.500000
O O2 0.315232 0.150142 0.223887
O O3 0.203323 0.090698 0.271671
O O4 0.298571 0.002453 0.265447
O O5 0.856483 0.725644 0.500000
O O6 0.932543 0.677973 0.723450
O O7 0.809866 0.646770 0.729259
O O8 0.854796 0.786025 0.782139
O O9 0.509916 0.178550 0.500000
O O10 0.502906 0.292376 0.687731
O O11 0.437888 0.175886 0.754235
O O12 0.630266 0.616298 0.500000
O O13 0.564511 0.594112 0.752191
O O14 0.696942 0.582949 0.744052
O O15 0.639708 0.711457 0.730219
O O16 0.926513 0.904114 0.248493
O O17 0.995071 0.906974 0.000000
O O18 0.769994 0.564478 0.500000
O O19 0.374823 0.222536 0.000000
O O20 0.645902 0.390818 0.500000
#
# Coordination Sequence:
#
# PCOD9442091 Si02
#       8
#     8   8   8   8   8   8   8   8
#     4  12  25  39  54  74 106 146 187 230 274 324
#     4  10  19  33  56  86 115 143 179 223 273 325
#     4   9  17  32  54  81 112 143 178 220 268 320
#     4   9  17  34  59  85 112 141 177 220 270 326
#     4   7  13  27  51  81 108 136 170 212 259 311
#     4  10  22  38  55  77 109 146 182 224 272 324
#     4  11  21  35  58  85 111 139 177 225 275 327
#     4  10  19  34  57  83 111 143 182 225 271 325
#
# _framework density 20.181525000000001
#
# number of rings (size 3 to 8) (size 9 to 14) (size 15 to 20)
#    0.000    2.250    0.000    5.625    0.000    2.500 
#    0.000    1.875    0.000    7.500    0.000    0.000 
#    0.000    0.000    0.000    0.000    0.000    0.000 
#
# Total GULP energy -357225.083309 kJ/mol
# GULP energy per Si atom -5581.641927 kJ/mol
# Density = 2.013559 g / cm^3
# Si number density = 20.181525 Si / 1000 Ang^3
#
#
#
# Elastic Constant Matrix: (Units=GPa)
#
#
# Indices 1 2 3 4 5 6 
#
# 1 94.6722 16.5525 -0.6375 0.0000 0.0000 0.0000
# 2 16.5525 41.0141 -10.9555 0.0000 0.0000 0.0000
# 3 -0.6375 -10.9555 8.3958 0.0000 0.0000 0.0000
# 4 0.0000 0.0000 0.0000 10.2978 0.0000 0.0000
# 5 0.0000 0.0000 0.0000 0.0000 37.7316 0.0000
# 6 0.0000 0.0000 0.0000 0.0000 0.0000 -25.1366
#
#
#
# Elastic Compliance Matrix: (Units=1/GPa)
#
#
# Indices 1 2 3 4 5 6 
#
# 1 0.011713 -0.006892 -0.008104 0.000000 0.000000 0.000000
# 2 -0.006892 0.041482 0.053606 0.000000 0.000000 0.000000
# 3 -0.008104 0.053606 0.188443 0.000000 0.000000 0.000000
# 4 0.000000 0.000000 0.000000 0.097109 0.000000 0.000000
# 5 0.000000 0.000000 0.000000 0.000000 0.026503 0.000000
# 6 0.000000 0.000000 0.000000 0.000000 0.000000 -0.039783
#
#
# Mechanical properties :
#
#
# Convention : Reuss Voigt Hill
#
# Bulk Modulus (GPa) = 3.13617 17.11122 10.12370
# Shear Modulus (GPa) = 14.10311 13.85339 13.97825
#
# Velocity S-wave (km/s) = 2.64637 2.62284 2.63463
# Velocity P-wave (km/s) = 3.30077 4.20351 3.77919
#
# Compressibility (1/GPa) = 0.31886034
#
# Stress axis : x y z
#
# Youngs Moduli (GPa) = 85.37410 24.10660 5.30666
#
# Poissons Ratio (x) = 0.16614 0.04300
# Poissons Ratio (y) = 0.58838 -0.28447
# Poissons Ratio (z) = 0.69184 -1.29227
#
# Static dielectric constant tensor:
#      x y z
#    x 1.753700 0.000000 0.000000 
#    y 0.000000 1.701960 0.000000 
#    z 0.000000 0.000000 1.681800 
# 
# From -- ./inp_files/9283.got.cif
#   From: 2010.05.17/outbox.cif.g08.bks.cpg/sg58_5_cif.got.tgz:9283.got - 2010.06.03 14:20:14.
