data_PCOD9442945
_publ_section_title
;
Structure prediction by ZEFSAII (Michael W. Deem and Ramdas Pophale) SiO2 
 PCOD9442945
Probable space group: P N N M
;
_chemical_formula_sum "Si O2"
_cell_formula_units_Z 64
_cell_length_a 11.971439
_cell_length_b 34.189577
_cell_length_c 8.201364
_cell_angle_alpha 90.000000
_cell_angle_beta 90.000000
_cell_angle_gamma 90.000000
_cell_volume 3356.805454
_symmetry_space_group_name_H-M "P N N M"
_symmetry_group_IT_number 58
_symmetry_cell_setting 'orthorhombic'
loop_
_space_group_symop_operation_xyz
x,y,z
-x,-y,z
1/2+x,1/2-y,1/2-z
1/2-x,1/2+y,1/2-z
-x,-y,-z
x,y,-z
1/2-x,1/2+y,1/2+z
1/2+x,1/2-y,1/2+z
loop_
_atom_site_type_symbol
_atom_site_label
_atom_site_fract_x
_atom_site_fract_y
_atom_site_fract_z
Si Si1 0.972267 0.360619 0.195324
Si Si2 0.325935 0.328720 0.307815
Si Si3 0.184740 0.403375 0.693831
Si Si4 0.560812 0.298500 0.191953
Si Si5 0.342434 0.468950 0.196752
Si Si6 0.114264 0.286708 0.192689
Si Si7 0.588293 0.445266 0.198815
Si Si8 0.780575 0.868289 0.300038
O O1 0.062625 0.393671 0.238251
O O2 0.026112 0.319521 0.252488
O O3 0.847442 0.367927 0.256640
O O4 0.964468 0.358330 0.000000
O O5 0.348556 0.332481 0.500000
O O6 0.268686 0.368918 0.246121
O O7 0.440028 0.317613 0.220546
O O8 0.231615 0.295801 0.279198
O O9 0.179057 0.399676 0.500000
O O10 0.238087 0.444564 0.740324
O O11 0.571588 0.256752 0.277132
O O12 0.653837 0.329318 0.250325
O O13 0.577483 0.292076 0.000000
O O14 0.458854 0.448486 0.250241
O O15 0.351795 0.514240 0.247801
O O16 0.340331 0.468273 0.000000
O O17 0.131179 0.292849 0.000000
O O18 0.651821 0.406646 0.254666
O O19 0.587360 0.444834 0.000000
O O20 0.781286 0.868909 0.500000
#
# Coordination Sequence:
#
# PCOD9442945 Si02
#       8
#     8   8   8   8   8   8   8   8
#     4   9  19  36  56  74  99 139 180 218 261 312
#     4  10  21  37  54  74 104 137 177 224 263 311
#     4  10  20  34  53  77 104 138 176 220 267 311
#     4  11  22  34  55  83 108 138 173 217 274 328
#     4   9  16  29  54  82 107 137 172 217 266 317
#     4  10  21  36  54  77 104 137 178 222 268 319
#     4   8  15  29  51  81 110 135 172 219 264 310
#     4   9  18  33  53  78 106 137 174 218 264 317
#
# _framework density 19.065747000000002
#
# number of rings (size 3 to 8) (size 9 to 14) (size 15 to 20)
#    0.000    2.500    0.000    3.000    1.750    3.000 
#    0.000    3.125    0.000    6.750    0.000    0.000 
#    0.000    0.000    0.000    0.000    0.000    0.000 
#
# Total GULP energy -357176.419447 kJ/mol
# GULP energy per Si atom -5580.881554 kJ/mol
# Density = 1.902235 g / cm^3
# Si number density = 19.065747 Si / 1000 Ang^3
#
#
#
# Elastic Constant Matrix: (Units=GPa)
#
#
# Indices 1 2 3 4 5 6 
#
# 1 92.6393 41.9586 2.5347 0.0000 0.0000 0.0000
# 2 41.9586 77.6441 3.9732 0.0000 0.0000 0.0000
# 3 2.5347 3.9732 6.4846 0.0000 0.0000 0.0000
# 4 0.0000 0.0000 0.0000 15.1717 0.0000 0.0000
# 5 0.0000 0.0000 0.0000 0.0000 -5.2030 0.0000
# 6 0.0000 0.0000 0.0000 0.0000 0.0000 15.0230
#
#
#
# Elastic Compliance Matrix: (Units=1/GPa)
#
#
# Indices 1 2 3 4 5 6 
#
# 1 0.014298 -0.007681 -0.000882 0.000000 0.000000 0.000000
# 2 -0.007681 0.017423 -0.007673 0.000000 0.000000 0.000000
# 3 -0.000882 -0.007673 0.159258 0.000000 0.000000 0.000000
# 4 0.000000 0.000000 0.000000 0.065912 0.000000 0.000000
# 5 0.000000 0.000000 0.000000 0.000000 -0.192195 0.000000
# 6 0.000000 0.000000 0.000000 0.000000 0.000000 0.066565
#
#
# Mechanical properties :
#
#
# Convention : Reuss Voigt Hill
#
# Bulk Modulus (GPa) = 6.30891 30.41123 18.36007
# Shear Modulus (GPa) = 23.08744 13.55175 18.31959
#
# Velocity S-wave (km/s) = 3.48363 2.66896 3.10314
# Velocity P-wave (km/s) = 4.41555 5.04808 4.74237
#
# Compressibility (1/GPa) = 0.15850588
#
# Stress axis : x y z
#
# Youngs Moduli (GPa) = 69.94107 57.39593 6.27912
#
# Poissons Ratio (x) = 0.44088 0.00554
# Poissons Ratio (y) = 0.53724 0.04818
# Poissons Ratio (z) = 0.06172 0.44038
#
# Static dielectric constant tensor:
#      x y z
#    x 1.643680 0.000000 0.000000 
#    y 0.000000 1.657760 0.000000 
#    z 0.000000 0.000000 1.667270 
# 
# From -- ./inp_files/4756.got.cif
#   From: 2010.05.17/outbox.cif.g08.bks.cpg/sg58_3_cif.got.tgz:4756.got - 2010.06.03 14:20:14.
