data_PCOD9442658
_publ_section_title
;
Structure prediction by ZEFSAII (Michael W. Deem and Ramdas Pophale) SiO2 
 PCOD9442658
Probable space group: P N N M
;
_chemical_formula_sum "Si O2"
_cell_formula_units_Z 40
_cell_length_a 4.946727
_cell_length_b 25.002923
_cell_length_c 14.133997
_cell_angle_alpha 90.000000
_cell_angle_beta 90.000000
_cell_angle_gamma 90.000000
_cell_volume 1748.129982
_symmetry_space_group_name_H-M "P N N M"
_symmetry_group_IT_number 58
_symmetry_cell_setting 'orthorhombic'
loop_
_space_group_symop_operation_xyz
x,y,z
-x,-y,z
1/2+x,1/2-y,1/2-z
1/2-x,1/2+y,1/2-z
-x,-y,-z
x,y,-z
1/2-x,1/2+y,1/2+z
1/2+x,1/2-y,1/2+z
loop_
_atom_site_type_symbol
_atom_site_label
_atom_site_fract_x
_atom_site_fract_y
_atom_site_fract_z
Si Si1 0.894017 0.215245 0.236066
Si Si2 0.665984 0.615938 0.388296
Si Si3 0.687925 0.636743 0.101731
Si Si4 0.656166 0.948853 0.817191
Si Si5 0.686411 0.936909 0.395277
O O1 0.679141 0.262786 0.226394
O O2 0.921085 0.174849 0.147874
O O3 0.766751 0.178283 0.317140
O O4 0.719512 0.615749 0.500000
O O5 0.428913 0.573430 0.363787
O O6 0.933772 0.597760 0.331363
O O7 0.387230 0.613461 0.107751
O O8 0.883680 0.585737 0.106416
O O9 0.732403 0.662539 0.000000
O O10 0.724581 0.963117 0.707396
O O11 0.500000 0.000000 0.859661
O O12 0.732771 0.962471 0.500000
#
# Coordination Sequence:
#
# PCOD9442658 Si02
#       5
#     8   8   8   8   8
#     4  12  24  40  67  94 127 167 216 270 332 399
#     4  12  27  47  67  96 138 177 224 281 330 383
#     4  10  20  37  62  88 122 162 204 255 318 388
#     4  12  24  43  71  99 133 178 226 275 332 396
#     4  10  19  37  64  93 126 165 204 257 327 384
#
# _framework density 22.881594
#
# number of rings (size 3 to 8) (size 9 to 14) (size 15 to 20)
#    0.000    0.800    4.000    3.600    0.000    4.400 
#    0.000    0.000    0.000    6.000    0.000    0.000 
#    0.000    0.000    0.000    0.000    0.000    0.000 
#
# Total GULP energy -223451.458398 kJ/mol
# GULP energy per Si atom -5586.286460 kJ/mol
# Density = 2.282951 g / cm^3
# Si number density = 22.881594 Si / 1000 Ang^3
#
#
#
# Elastic Constant Matrix: (Units=GPa)
#
#
# Indices 1 2 3 4 5 6 
#
# 1 87.0940 16.1861 23.0963 0.0000 0.0000 0.0000
# 2 16.1861 58.8942 22.3384 0.0000 0.0000 0.0000
# 3 23.0963 22.3384 125.8021 0.0000 0.0000 0.0000
# 4 0.0000 0.0000 0.0000 -3.4858 0.0000 0.0000
# 5 0.0000 0.0000 0.0000 0.0000 -281.5398 0.0000
# 6 0.0000 0.0000 0.0000 0.0000 0.0000 38.3071
#
#
#
# Elastic Compliance Matrix: (Units=1/GPa)
#
#
# Indices 1 2 3 4 5 6 
#
# 1 0.012470 -0.002744 -0.001802 0.000000 0.000000 0.000000
# 2 -0.002744 0.018809 -0.002836 0.000000 0.000000 0.000000
# 3 -0.001802 -0.002836 0.008783 0.000000 0.000000 0.000000
# 4 0.000000 0.000000 0.000000 -0.286875 0.000000 0.000000
# 5 0.000000 0.000000 0.000000 0.000000 -0.003552 0.000000
# 6 0.000000 0.000000 0.000000 0.000000 0.000000 0.026105
#
#
# Mechanical properties :
#
#
# Convention : Reuss Voigt Hill
#
# Bulk Modulus (GPa) = 39.52781 43.89242 41.71011
# Shear Modulus (GPa) = -24.86786 -35.33240 -30.10013
#
# Velocity S-wave (km/s) = -3.30025 -3.93382 -3.63088
# Velocity P-wave (km/s) = 1.67040 1.18709 0.83098
#
# Compressibility (1/GPa) = 0.02529864
#
# Stress axis : x y z
#
# Youngs Moduli (GPa) = 80.19481 53.16496 113.84999
#
# Poissons Ratio (x) = 0.14586 0.20518
# Poissons Ratio (y) = 0.22002 0.32291
# Poissons Ratio (z) = 0.14452 0.15079
#
# Static dielectric constant tensor:
#      x y z
#    x 1.845860 0.000000 0.000000 
#    y 0.000000 1.908010 0.000000 
#    z 0.000000 0.000000 1.856550 
# 
# From -- ./inp_files/18517.got.cif
#   From: 2010.05.17/outbox.cif.g08.bks.cpg/sg58_10_cif.got.tgz:18517.got - 2010.06.03 14:20:14.
