data_PCOD9442402
_publ_section_title
;
Structure prediction by ZEFSAII (Michael W. Deem and Ramdas Pophale) SiO2 
 PCOD9442402
Probable space group: P N N M
;
_chemical_formula_sum "Si O2"
_cell_formula_units_Z 48
_cell_length_a 9.646511
_cell_length_b 18.866824
_cell_length_c 13.441043
_cell_angle_alpha 90.000000
_cell_angle_beta 90.000000
_cell_angle_gamma 90.000000
_cell_volume 2446.256724
_symmetry_space_group_name_H-M "P N N M"
_symmetry_group_IT_number 58
_symmetry_cell_setting 'orthorhombic'
loop_
_space_group_symop_operation_xyz
x,y,z
-x,-y,z
1/2+x,1/2-y,1/2-z
1/2-x,1/2+y,1/2-z
-x,-y,-z
x,y,-z
1/2-x,1/2+y,1/2+z
1/2+x,1/2-y,1/2+z
loop_
_atom_site_type_symbol
_atom_site_label
_atom_site_fract_x
_atom_site_fract_y
_atom_site_fract_z
Si Si1 0.328581 0.175077 0.110334
Si Si2 0.534590 0.678998 0.818477
Si Si3 0.490325 0.723197 0.612119
Si Si4 0.740312 0.401246 0.802177
Si Si5 0.523107 0.117502 0.385793
Si Si6 0.205473 0.956706 0.617840
O O1 0.416258 0.245766 0.137352
O O2 0.318547 0.117498 0.198869
O O3 0.167677 0.198286 0.104256
O O4 0.370518 0.149667 0.000000
O O5 0.564612 0.680030 0.699383
O O6 0.370569 0.660495 0.826305
O O7 0.615919 0.614276 0.868021
O O8 0.550843 0.721937 0.500000
O O9 0.480123 0.802927 0.654010
O O10 0.866376 0.407631 0.879216
O O11 0.663355 0.476155 0.814959
O O12 0.566131 0.126303 0.500000
O O13 0.640120 0.065999 0.345685
O O14 0.199992 0.975433 0.500000
#
# Coordination Sequence:
#
# PCOD9442402 Si02
#       6
#     8   8   8   8   8   8
#     4  10  20  37  58  81 113 159 194 230 291 349
#     4  11  21  36  61  87 116 149 192 246 296 339
#     4   9  18  35  58  83 111 145 192 235 279 342
#     4  11  23  36  56  90 119 149 195 245 285 349
#     4  10  19  35  58  82 112 151 190 231 282 343
#     4  11  23  39  60  86 122 160 189 234 305 359
#
# _framework density 19.621817
#
# number of rings (size 3 to 8) (size 9 to 14) (size 15 to 20)
#    0.000    1.667    3.333    2.000    0.000    4.667 
#    0.000    0.833    0.000    6.000    0.000    0.000 
#    0.000    0.000    0.000    0.000    0.000    0.000 
#
# Total GULP energy -267275.787078 kJ/mol
# GULP energy per Si atom -5568.245564 kJ/mol
# Density = 1.957716 g / cm^3
# Si number density = 19.621817 Si / 1000 Ang^3
#
#
#
# Elastic Constant Matrix: (Units=GPa)
#
#
# Indices 1 2 3 4 5 6 
#
# 1 33.8491 8.5819 24.5874 0.0000 0.0000 0.0000
# 2 8.5819 76.1320 41.4999 0.0000 0.0000 0.0000
# 3 24.5874 41.4999 98.6070 0.0000 0.0000 0.0000
# 4 0.0000 0.0000 0.0000 17.1460 0.0000 0.0000
# 5 0.0000 0.0000 0.0000 0.0000 14.0581 0.0000
# 6 0.0000 0.0000 0.0000 0.0000 0.0000 21.3890
#
#
#
# Elastic Compliance Matrix: (Units=1/GPa)
#
#
# Indices 1 2 3 4 5 6 
#
# 1 0.036147 0.001088 -0.009471 0.000000 0.000000 0.000000
# 2 0.001088 0.017078 -0.007459 0.000000 0.000000 0.000000
# 3 -0.009471 -0.007459 0.015642 0.000000 0.000000 0.000000
# 4 0.000000 0.000000 0.000000 0.058323 0.000000 0.000000
# 5 0.000000 0.000000 0.000000 0.000000 0.071133 0.000000
# 6 0.000000 0.000000 0.000000 0.000000 0.000000 0.046753
#
#
# Mechanical properties :
#
#
# Convention : Reuss Voigt Hill
#
# Bulk Modulus (GPa) = 26.89384 39.76961 33.33173
# Shear Modulus (GPa) = 17.29184 19.44655 18.36919
#
# Velocity S-wave (km/s) = 2.97182 3.15154 3.06300
# Velocity P-wave (km/s) = 5.05088 5.79267 5.43445
#
# Compressibility (1/GPa) = 0.03718324
#
# Stress axis : x y z
#
# Youngs Moduli (GPa) = 27.66513 58.55377 63.93039
#
# Poissons Ratio (x) = -0.06371 0.60549
# Poissons Ratio (y) = -0.03010 0.47685
# Poissons Ratio (z) = 0.26202 0.43675
#
# Static dielectric constant tensor:
#      x y z
#    x 1.750600 0.000000 0.000000 
#    y 0.000000 1.757500 0.000000 
#    z 0.000000 0.000000 1.736980 
# 
# From -- ./inp_files/19799.got.cif
#   From: 2010.05.17/outbox.cif.g08.bks.cpg/sg58_10_cif.got.tgz:19799.got - 2010.06.03 14:20:14.
