data_PCOD9442261
_publ_section_title
;
Structure prediction by ZEFSAII (Michael W. Deem and Ramdas Pophale) SiO2 
 PCOD9442261
Probable space group: P N N M
;
_chemical_formula_sum "Si O2"
_cell_formula_units_Z 48
_cell_length_a 11.793770
_cell_length_b 8.503563
_cell_length_c 22.789117
_cell_angle_alpha 90.000000
_cell_angle_beta 90.000000
_cell_angle_gamma 90.000000
_cell_volume 2285.499264
_symmetry_space_group_name_H-M "P N N M"
_symmetry_group_IT_number 58
_symmetry_cell_setting 'orthorhombic'
loop_
_space_group_symop_operation_xyz
x,y,z
-x,-y,z
1/2+x,1/2-y,1/2-z
1/2-x,1/2+y,1/2-z
-x,-y,-z
x,y,-z
1/2-x,1/2+y,1/2+z
1/2+x,1/2-y,1/2+z
loop_
_atom_site_type_symbol
_atom_site_label
_atom_site_fract_x
_atom_site_fract_y
_atom_site_fract_z
Si Si1 0.828986 0.969690 0.729429
Si Si2 0.063184 0.847188 0.158673
Si Si3 0.742251 0.792841 0.568062
Si Si4 0.878220 0.059551 0.600111
Si Si5 0.991401 0.671732 0.429585
Si Si6 0.089073 0.375294 0.235192
O O1 0.860625 0.784762 0.735036
O O2 0.877772 0.071843 0.783845
O O3 0.880229 0.028561 0.668749
O O4 0.696871 0.013077 0.723576
O O5 0.150970 0.773733 0.112735
O O6 0.979050 0.709074 0.181431
O O7 0.000000 0.000000 0.131785
O O8 0.721604 0.751217 0.500000
O O9 0.867672 0.734973 0.587826
O O10 0.768020 0.979320 0.573119
O O11 0.894912 0.241524 0.589855
O O12 0.000000 0.000000 0.573439
O O13 0.990305 0.672255 0.500000
O O14 0.000000 0.500000 0.405535
O O15 0.000000 0.500000 0.263220
#
# Coordination Sequence:
#
# PCOD9442261 Si02
#       6
#     8   8   8   8   8   8
#     4  11  23  39  60  89 124 163 206 255 321 386
#     4  10  23  41  60  88 124 164 212 264 314 373
#     4  10  20  37  60  84 119 169 217 261 315 378
#     4  10  19  34  57  86 120 158 201 254 318 375
#     4   9  19  35  57  89 124 158 206 264 316 370
#     4  11  22  39  62  86 122 161 200 252 309 375
#
# _framework density 21.001975999999999
#
# number of rings (size 3 to 8) (size 9 to 14) (size 15 to 20)
#    0.000    1.833    0.000    5.000    0.000    6.333 
#    0.000   10.000    0.000    5.500    0.000    0.000 
#    0.000    0.000    0.000    0.000    0.000    0.833 
#
# Total GULP energy -267447.956126 kJ/mol
# GULP energy per Si atom -5571.832419 kJ/mol
# Density = 2.095417 g / cm^3
# Si number density = 21.001976 Si / 1000 Ang^3
#
#
#
# Elastic Constant Matrix: (Units=GPa)
#
#
# Indices 1 2 3 4 5 6 
#
# 1 127.9584 59.2877 45.4350 0.0000 0.0000 0.0000
# 2 59.2877 130.4489 31.6047 0.0000 0.0000 0.0000
# 3 45.4350 31.6047 97.5928 0.0000 0.0000 0.0000
# 4 0.0000 0.0000 0.0000 15.5618 0.0000 0.0000
# 5 0.0000 0.0000 0.0000 0.0000 -7.3407 0.0000
# 6 0.0000 0.0000 0.0000 0.0000 0.0000 47.4842
#
#
#
# Elastic Compliance Matrix: (Units=1/GPa)
#
#
# Indices 1 2 3 4 5 6 
#
# 1 0.011077 -0.004107 -0.003827 0.000000 0.000000 0.000000
# 2 -0.004107 0.009841 -0.001275 0.000000 0.000000 0.000000
# 3 -0.003827 -0.001275 0.012441 0.000000 0.000000 0.000000
# 4 0.000000 0.000000 0.000000 0.064260 0.000000 0.000000
# 5 0.000000 0.000000 0.000000 0.000000 -0.136228 0.000000
# 6 0.000000 0.000000 0.000000 0.000000 0.000000 0.021060
#
#
# Mechanical properties :
#
#
# Convention : Reuss Voigt Hill
#
# Bulk Modulus (GPa) = 66.92760 69.85053 68.38907
# Shear Modulus (GPa) = 854.74070 25.78592 440.26331
#
# Velocity S-wave (km/s) = 20.19566 3.50778 14.49429
# Velocity P-wave (km/s) = 23.99492 7.05246 17.68464
#
# Compressibility (1/GPa) = 0.01494152
#
# Stress axis : x y z
#
# Youngs Moduli (GPa) = 90.27840 101.61173 80.37847
#
# Poissons Ratio (x) = 0.41734 0.30759
# Poissons Ratio (y) = 0.37079 0.10248
# Poissons Ratio (z) = 0.34548 0.12955
#
# Static dielectric constant tensor:
#      x y z
#    x 1.784690 0.000000 0.000000 
#    y 0.000000 1.986370 0.000000 
#    z 0.000000 0.000000 1.738690 
# 
# From -- ./inp_files/31888.got.cif
#   From: 2010.05.17/outbox.cif.g08.bks.cpg/sg58_16_cif.got.tgz:31888.got - 2010.06.03 14:20:14.
