data_PCOD9442820
_publ_section_title
;
Structure prediction by ZEFSAII (Michael W. Deem and Ramdas Pophale) SiO2 
 PCOD9442820
Probable space group: P N N M
;
_chemical_formula_sum "Si O2"
_cell_formula_units_Z 48
_cell_length_a 23.945205
_cell_length_b 12.363732
_cell_length_c 7.593889
_cell_angle_alpha 90.000000
_cell_angle_beta 90.000000
_cell_angle_gamma 90.000000
_cell_volume 2248.186765
_symmetry_space_group_name_H-M "P N N M"
_symmetry_group_IT_number 58
_symmetry_cell_setting 'orthorhombic'
loop_
_space_group_symop_operation_xyz
x,y,z
-x,-y,z
1/2+x,1/2-y,1/2-z
1/2-x,1/2+y,1/2-z
-x,-y,-z
x,y,-z
1/2-x,1/2+y,1/2+z
1/2+x,1/2-y,1/2+z
loop_
_atom_site_type_symbol
_atom_site_label
_atom_site_fract_x
_atom_site_fract_y
_atom_site_fract_z
Si Si1 0.778100 0.644933 0.287899
Si Si2 0.546175 0.171065 0.285616
Si Si3 0.126528 0.518221 0.705869
Si Si4 0.924983 0.263078 0.796690
Si Si5 0.344988 0.421552 0.716921
Si Si6 0.357785 0.666218 0.290803
O O1 0.778689 0.638883 0.500000
O O2 0.822123 0.553925 0.223385
O O3 0.715687 0.621547 0.227391
O O4 0.802850 0.761603 0.239751
O O5 0.545903 0.167224 0.500000
O O6 0.571798 0.056926 0.227361
O O7 0.484420 0.199824 0.220708
O O8 0.590190 0.262465 0.224695
O O9 0.136258 0.537649 0.500000
O O10 0.115651 0.633555 0.791229
O O11 0.893242 0.159650 0.721127
O O12 0.936817 0.235880 0.000000
O O13 0.344994 0.420479 0.500000
O O14 0.353486 0.544633 0.776722
O O15 0.365658 0.657573 0.500000
#
# Coordination Sequence:
#
# PCOD9442820 Si02
#       6
#     8   8   8   8   8   8
#     4   9  19  35  52  72 101 133 166 207 253 298
#     4   9  18  33  53  77 102 131 169 210 251 298
#     4  10  20  33  52  76 103 136 171 208 251 297
#     4  10  20  33  51  76 105 133 166 209 253 298
#     4   9  19  34  52  75 102 133 166 207 255 298
#     4   9  18  34  55  75  98 131 169 206 250 302
#
# _framework density 21.350539999999999
#
# number of rings (size 3 to 8) (size 9 to 14) (size 15 to 20)
#    0.000    2.667    0.000    1.000    2.333    4.000 
#    0.000    5.000    0.000    0.000    0.000    5.833 
#    0.000    0.000    0.000    0.000    0.000    0.000 
#
# Total GULP energy -267996.184822 kJ/mol
# GULP energy per Si atom -5583.253850 kJ/mol
# Density = 2.130195 g / cm^3
# Si number density = 21.350540 Si / 1000 Ang^3
#
#
#
# Elastic Constant Matrix: (Units=GPa)
#
#
# Indices 1 2 3 4 5 6 
#
# 1 37.7420 12.0626 -1.8450 0.0000 0.0000 0.0000
# 2 12.0626 128.0566 -8.1257 0.0000 0.0000 0.0000
# 3 -1.8450 -8.1257 42.8427 0.0000 0.0000 0.0000
# 4 0.0000 0.0000 0.0000 21.7429 0.0000 0.0000
# 5 0.0000 0.0000 0.0000 0.0000 15.1889 0.0000
# 6 0.0000 0.0000 0.0000 0.0000 0.0000 14.2077
#
#
#
# Elastic Compliance Matrix: (Units=1/GPa)
#
#
# Indices 1 2 3 4 5 6 
#
# 1 0.027339 -0.002531 0.000697 0.000000 0.000000 0.000000
# 2 -0.002531 0.008138 0.001435 0.000000 0.000000 0.000000
# 3 0.000697 0.001435 0.023643 0.000000 0.000000 0.000000
# 4 0.000000 0.000000 0.000000 0.045992 0.000000 0.000000
# 5 0.000000 0.000000 0.000000 0.000000 0.065837 0.000000
# 6 0.000000 0.000000 0.000000 0.000000 0.000000 0.070385
#
#
# Mechanical properties :
#
#
# Convention : Reuss Voigt Hill
#
# Bulk Modulus (GPa) = 17.14609 23.64723 20.39666
# Shear Modulus (GPa) = 19.11509 23.99787 21.55648
#
# Velocity S-wave (km/s) = 2.99540 3.35624 3.18094
# Velocity P-wave (km/s) = 4.47341 5.11066 4.80262
#
# Compressibility (1/GPa) = 0.05832232
#
# Stress axis : x y z
#
# Youngs Moduli (GPa) = 36.57823 122.87296 42.29522
#
# Poissons Ratio (x) = 0.31099 -0.02949
# Poissons Ratio (y) = 0.09258 -0.06068
# Poissons Ratio (z) = -0.02551 -0.17627
#
# Static dielectric constant tensor:
#      x y z
#    x 1.766760 0.000000 0.000000 
#    y 0.000000 1.737800 0.000000 
#    z 0.000000 0.000000 1.796420 
# 
# From -- ./inp_files/4194.got.cif
#   From: 2010.05.17/outbox.cif.g08.bks.cpg/sg58_3_cif.got.tgz:4194.got - 2010.06.03 14:20:14.
