data_PCOD9442752
_publ_section_title
;
Structure prediction by ZEFSAII (Michael W. Deem and Ramdas Pophale) SiO2 
 PCOD9442752
Probable space group: P N N M
;
_chemical_formula_sum "Si O2"
_cell_formula_units_Z 48
_cell_length_a 32.983314
_cell_length_b 6.916175
_cell_length_c 8.923853
_cell_angle_alpha 90.000000
_cell_angle_beta 90.000000
_cell_angle_gamma 90.000000
_cell_volume 2035.694816
_symmetry_space_group_name_H-M "P N N M"
_symmetry_group_IT_number 58
_symmetry_cell_setting 'orthorhombic'
loop_
_space_group_symop_operation_xyz
x,y,z
-x,-y,z
1/2+x,1/2-y,1/2-z
1/2-x,1/2+y,1/2-z
-x,-y,-z
x,y,-z
1/2-x,1/2+y,1/2+z
1/2+x,1/2-y,1/2+z
loop_
_atom_site_type_symbol
_atom_site_label
_atom_site_fract_x
_atom_site_fract_y
_atom_site_fract_z
Si Si1 0.944574 0.184413 0.322221
Si Si2 0.968640 0.728514 0.677285
Si Si3 0.304063 0.956023 0.332877
Si Si4 0.635578 0.575345 0.680663
Si Si5 0.278237 0.509264 0.332689
Si Si6 0.117778 0.346061 0.320233
O O1 0.938641 0.225416 0.500000
O O2 0.901956 0.203526 0.237794
O O3 0.985436 0.290595 0.264600
O O4 0.956820 0.956190 0.310720
O O5 0.971899 0.688338 0.500000
O O6 0.928570 0.616550 0.731976
O O7 0.311707 0.029018 0.500000
O O8 0.295740 0.725169 0.342456
O O9 0.261378 0.024831 0.267750
O O10 0.344927 0.973185 0.237700
O O11 0.633931 0.557226 0.500000
O O12 0.682975 0.617349 0.719382
O O13 0.626917 0.369519 0.759808
O O14 0.265879 0.446347 0.500000
O O15 0.117909 0.345477 0.500000
#
# Coordination Sequence:
#
# PCOD9442752 Si02
#       6
#     8   8   8   8   8   8
#     4   8  12  20  33  49  72 104 140 171 204 250
#     4   7  11  19  32  50  72 102 139 171 200 249
#     4  10  20  32  47  68  90 113 148 188 220 259
#     4   9  16  25  36  55  82 108 140 179 214 253
#     4   9  19  33  46  63  89 118 147 181 220 262
#     4   9  15  25  40  55  77 111 143 172 214 259
#
# _framework density 23.579173000000001
#
# number of rings (size 3 to 8) (size 9 to 14) (size 15 to 20)
#    0.000    3.333    0.000    4.500    0.000    4.000 
#    0.000    7.500    0.000    0.000    0.000    0.000 
#    0.000    1.333    0.000   15.000    0.000   17.833 
#
# Total GULP energy -267847.202783 kJ/mol
# GULP energy per Si atom -5580.150058 kJ/mol
# Density = 2.352551 g / cm^3
# Si number density = 23.579173 Si / 1000 Ang^3
#
#
#
# Elastic Constant Matrix: (Units=GPa)
#
#
# Indices 1 2 3 4 5 6 
#
# 1 263.7585 40.0656 87.0964 0.0000 0.0000 0.0000
# 2 40.0656 73.9771 11.3228 0.0000 0.0000 0.0000
# 3 87.0964 11.3228 76.9926 0.0000 0.0000 0.0000
# 4 0.0000 0.0000 0.0000 12.2231 0.0000 0.0000
# 5 0.0000 0.0000 0.0000 0.0000 39.2460 0.0000
# 6 0.0000 0.0000 0.0000 0.0000 0.0000 53.9349
#
#
#
# Elastic Compliance Matrix: (Units=1/GPa)
#
#
# Indices 1 2 3 4 5 6 
#
# 1 0.006453 -0.002432 -0.006942 0.000000 0.000000 0.000000
# 2 -0.002432 0.014746 0.000583 0.000000 0.000000 0.000000
# 3 -0.006942 0.000583 0.020756 0.000000 0.000000 0.000000
# 4 0.000000 0.000000 0.000000 0.081812 0.000000 0.000000
# 5 0.000000 0.000000 0.000000 0.000000 0.025480 0.000000
# 6 0.000000 0.000000 0.000000 0.000000 0.000000 0.018541
#
#
# Mechanical properties :
#
#
# Convention : Reuss Voigt Hill
#
# Bulk Modulus (GPa) = 41.03142 76.85532 58.94337
# Shear Modulus (GPa) = 25.84032 39.49705 32.66868
#
# Velocity S-wave (km/s) = 3.31402 4.09722 3.72625
# Velocity P-wave (km/s) = 5.66419 7.41945 6.60043
#
# Compressibility (1/GPa) = 0.02437157
#
# Stress axis : x y z
#
# Youngs Moduli (GPa) = 154.95837 67.81555 48.17873
#
# Poissons Ratio (x) = 0.16496 0.33448
# Poissons Ratio (y) = 0.37694 -0.02809
# Poissons Ratio (z) = 1.07580 -0.03955
#
# Static dielectric constant tensor:
#      x y z
#    x 1.934550 0.000000 0.000000 
#    y 0.000000 2.055520 0.000000 
#    z 0.000000 0.000000 1.836140 
# 
# From -- ./inp_files/4494.got.cif
#   From: 2010.05.17/outbox.cif.g08.bks.cpg/sg58_3_cif.got.tgz:4494.got - 2010.06.03 14:20:14.
