data_PCOD9442933
_publ_section_title
;
Structure prediction by ZEFSAII (Michael W. Deem and Ramdas Pophale) SiO2 
 PCOD9442933
Probable space group: P N N M
;
_chemical_formula_sum "Si O2"
_cell_formula_units_Z 64
_cell_length_a 25.626082
_cell_length_b 15.192810
_cell_length_c 7.376193
_cell_angle_alpha 90.000000
_cell_angle_beta 90.000000
_cell_angle_gamma 90.000000
_cell_volume 2871.789410
_symmetry_space_group_name_H-M "P N N M"
_symmetry_group_IT_number 58
_symmetry_cell_setting 'orthorhombic'
loop_
_space_group_symop_operation_xyz
x,y,z
-x,-y,z
1/2+x,1/2-y,1/2-z
1/2-x,1/2+y,1/2-z
-x,-y,-z
x,y,-z
1/2-x,1/2+y,1/2+z
1/2+x,1/2-y,1/2+z
loop_
_atom_site_type_symbol
_atom_site_label
_atom_site_fract_x
_atom_site_fract_y
_atom_site_fract_z
Si Si1 0.517599 0.097911 0.778741
Si Si2 0.234197 0.165496 0.218219
Si Si3 0.741129 0.126489 0.213849
Si Si4 0.870684 0.562041 0.279416
Si Si5 0.950864 0.054768 0.285443
Si Si6 0.651420 0.870453 0.219762
Si Si7 0.333056 0.503115 0.718528
Si Si8 0.562255 0.751204 0.221778
O O1 0.577515 0.112736 0.721976
O O2 0.479545 0.175733 0.720824
O O3 0.500000 0.000000 0.722469
O O4 0.516028 0.097237 0.000000
O O5 0.237825 0.268228 0.266724
O O6 0.289352 0.126109 0.280847
O O7 0.189081 0.098516 0.280471
O O8 0.232472 0.163238 0.000000
O O9 0.685720 0.092092 0.287666
O O10 0.792476 0.073976 0.282595
O O11 0.740689 0.106537 0.000000
O O12 0.869397 0.567030 0.500000
O O13 0.877471 0.459907 0.230340
O O14 0.960132 0.063483 0.500000
O O15 0.949003 0.153875 0.212149
O O16 0.893208 0.013455 0.266585
O O17 0.000000 0.000000 0.211952
O O18 0.619082 0.786030 0.279186
O O19 0.652852 0.868485 0.000000
O O20 0.331514 0.502476 0.500000
O O21 0.562187 0.750377 0.000000
#
# Coordination Sequence:
#
# PCOD9442933 Si02
#       8
#     8   8   8   8   8   8   8   8
#     4   9  14  21  38  67 100 128 159 203 255 312
#     4  10  20  34  54  78 106 144 185 223 265 323
#     4  10  20  34  52  79 111 140 176 225 274 320
#     4   9  15  25  43  68 100 134 163 204 259 308
#     4  10  22  38  55  78 109 140 177 229 284 330
#     4   9  14  25  46  68  94 131 174 210 248 303
#     4  10  21  38  58  79 107 144 190 232 270 328
#     4   9  16  26  44  71 101 135 172 212 260 319
#
# _framework density 22.285758000000001
#
# number of rings (size 3 to 8) (size 9 to 14) (size 15 to 20)
#    0.000    2.500    2.500    0.750    0.000    3.250 
#    0.000    2.500    0.000    0.000    0.000    0.000 
#    0.000    1.000    0.000    0.000    0.000    0.000 
#
# Total GULP energy -357173.970166 kJ/mol
# GULP energy per Si atom -5580.843284 kJ/mol
# Density = 2.223504 g / cm^3
# Si number density = 22.285758 Si / 1000 Ang^3
#
#
#
# Elastic Constant Matrix: (Units=GPa)
#
#
# Indices 1 2 3 4 5 6 
#
# 1 168.5116 67.4113 -6.1903 0.0000 0.0000 0.0000
# 2 67.4113 94.8079 -11.4172 0.0000 0.0000 0.0000
# 3 -6.1903 -11.4172 75.7108 0.0000 0.0000 0.0000
# 4 0.0000 0.0000 0.0000 6.8237 0.0000 0.0000
# 5 0.0000 0.0000 0.0000 0.0000 -4.3318 0.0000
# 6 0.0000 0.0000 0.0000 0.0000 0.0000 34.7661
#
#
#
# Elastic Compliance Matrix: (Units=1/GPa)
#
#
# Indices 1 2 3 4 5 6 
#
# 1 0.008297 -0.005925 -0.000215 0.000000 0.000000 0.000000
# 2 -0.005925 0.014974 0.001774 0.000000 0.000000 0.000000
# 3 -0.000215 0.001774 0.013458 0.000000 0.000000 0.000000
# 4 0.000000 0.000000 0.000000 0.146547 0.000000 0.000000
# 5 0.000000 0.000000 0.000000 0.000000 -0.230850 0.000000
# 6 0.000000 0.000000 0.000000 0.000000 0.000000 0.028764
#
#
# Mechanical properties :
#
#
# Convention : Reuss Voigt Hill
#
# Bulk Modulus (GPa) = 35.71979 48.73754 42.22867
# Shear Modulus (GPa) = -6705.84656 26.73337 -3339.55659
#
# Velocity S-wave (km/s) = -54.91412 3.46724 -38.75267
# Velocity P-wave (km/s) = 63.28257 6.16002 44.53503
#
# Compressibility (1/GPa) = 0.02799568
#
# Stress axis : x y z
#
# Youngs Moduli (GPa) = 120.53007 66.78170 74.30504
#
# Poissons Ratio (x) = 0.39569 0.01599
# Poissons Ratio (y) = 0.71415 -0.13179
# Poissons Ratio (z) = 0.02593 -0.11845
#
# Static dielectric constant tensor:
#      x y z
#    x 1.810750 0.000000 0.000000 
#    y 0.000000 1.825520 0.000000 
#    z 0.000000 0.000000 1.880330 
# 
# From -- ./inp_files/10090.got.cif
#   From: 2010.05.17/outbox.cif.g08.bks.cpg/sg58_6_cif.got.tgz:10090.got - 2010.06.03 14:20:14.
