data_PCOD9442391
_publ_section_title
;
Structure prediction by ZEFSAII (Michael W. Deem and Ramdas Pophale) SiO2 
 PCOD9442391
Probable space group: P N N M
;
_chemical_formula_sum "Si O2"
_cell_formula_units_Z 56
_cell_length_a 22.706063
_cell_length_b 16.170261
_cell_length_c 8.415999
_cell_angle_alpha 90.000000
_cell_angle_beta 90.000000
_cell_angle_gamma 90.000000
_cell_volume 3090.043146
_symmetry_space_group_name_H-M "P N N M"
_symmetry_group_IT_number 58
_symmetry_cell_setting 'orthorhombic'
loop_
_space_group_symop_operation_xyz
x,y,z
-x,-y,z
1/2+x,1/2-y,1/2-z
1/2-x,1/2+y,1/2-z
-x,-y,-z
x,y,-z
1/2-x,1/2+y,1/2+z
1/2+x,1/2-y,1/2+z
loop_
_atom_site_type_symbol
_atom_site_label
_atom_site_fract_x
_atom_site_fract_y
_atom_site_fract_z
Si Si1 0.552100 0.778196 0.808633
Si Si2 0.483806 0.623840 0.808007
Si Si3 0.901874 0.012929 0.692242
Si Si4 0.188678 0.555038 0.190295
Si Si5 0.557545 0.957446 0.686226
Si Si6 0.720992 0.582288 0.686912
Si Si7 0.188737 0.741630 0.311730
O O1 0.501221 0.715137 0.758312
O O2 0.547253 0.860730 0.709362
O O3 0.618512 0.744723 0.781357
O O4 0.547923 0.793059 0.000000
O O5 0.424617 0.577876 0.755354
O O6 0.541771 0.569987 0.769976
O O7 0.480924 0.623860 0.000000
O O8 0.893697 0.014678 0.500000
O O9 0.843516 0.046553 0.771156
O O10 0.123366 0.529945 0.252874
O O11 0.233655 0.482794 0.236118
O O12 0.202899 0.648649 0.250039
O O13 0.185894 0.561076 0.000000
O O14 0.560014 0.980578 0.500000
O O15 0.500000 0.000000 0.759434
O O16 0.730460 0.581337 0.500000
O O17 0.722191 0.678121 0.743686
O O18 0.197301 0.741218 0.500000
#
# Coordination Sequence:
#
# PCOD9442391 Si02
#       7
#     8   8   8   8   8   8   8
#     4   9  16  29  52  80 105 133 174 217 260 316
#     4   8  14  27  49  76 103 136 175 213 258 314
#     4   9  16  30  51  73 104 143 178 212 257 312
#     4  10  21  38  59  82 109 142 182 226 276 330
#     4   9  19  36  56  78 103 132 168 215 272 323
#     4  12  23  35  53  80 113 149 189 226 270 325
#     4  10  19  35  58  81 107 140 182 230 278 327
#
# _framework density 18.122724000000002
#
# number of rings (size 3 to 8) (size 9 to 14) (size 15 to 20)
#    0.000    2.429    1.429    3.000    0.000    1.429 
#    0.000    3.571    0.000    3.429    0.000    0.000 
#    0.000    0.000    0.000    0.000    0.000    0.000 
#
# Total GULP energy -311822.376343 kJ/mol
# GULP energy per Si atom -5568.256720 kJ/mol
# Density = 1.808148 g / cm^3
# Si number density = 18.122724 Si / 1000 Ang^3
#
#
#
# Elastic Constant Matrix: (Units=GPa)
#
#
# Indices 1 2 3 4 5 6 
#
# 1 71.3727 60.4356 10.6982 0.0000 0.0000 0.0000
# 2 60.4356 80.9844 16.1044 0.0000 0.0000 0.0000
# 3 10.6982 16.1044 28.6635 0.0000 0.0000 0.0000
# 4 0.0000 0.0000 0.0000 28.5449 0.0000 0.0000
# 5 0.0000 0.0000 0.0000 0.0000 5.9880 0.0000
# 6 0.0000 0.0000 0.0000 0.0000 0.0000 35.7855
#
#
#
# Elastic Compliance Matrix: (Units=1/GPa)
#
#
# Indices 1 2 3 4 5 6 
#
# 1 0.038163 -0.028873 0.001978 0.000000 0.000000 0.000000
# 2 -0.028873 0.035745 -0.009307 0.000000 0.000000 0.000000
# 3 0.001978 -0.009307 0.039378 0.000000 0.000000 0.000000
# 4 0.000000 0.000000 0.000000 0.035033 0.000000 0.000000
# 5 0.000000 0.000000 0.000000 0.000000 0.167001 0.000000
# 6 0.000000 0.000000 0.000000 0.000000 0.000000 0.027944
#
#
# Mechanical properties :
#
#
# Convention : Reuss Voigt Hill
#
# Bulk Modulus (GPa) = 24.45971 39.49966 31.97968
# Shear Modulus (GPa) = 11.64700 20.31584 15.98142
#
# Velocity S-wave (km/s) = 2.53785 3.35179 2.97281
# Velocity P-wave (km/s) = 4.70251 6.06814 5.42844
#
# Compressibility (1/GPa) = 0.04088356
#
# Stress axis : x y z
#
# Youngs Moduli (GPa) = 26.20357 27.97555 25.39468
#
# Poissons Ratio (x) = 0.80773 -0.05024
# Poissons Ratio (y) = 0.75657 0.23635
# Poissons Ratio (z) = -0.05184 0.26037
#
# Static dielectric constant tensor:
#      x y z
#    x 1.635770 0.000000 0.000000 
#    y 0.000000 1.654960 0.000000 
#    z 0.000000 0.000000 1.626740 
# 
# From -- ./inp_files/9041.got.cif
#   From: 2010.05.17/outbox.cif.g08.bks.cpg/sg58_5_cif.got.tgz:9041.got - 2010.06.03 14:20:14.
