data_PCOD9442486
_publ_section_title
;
Structure prediction by ZEFSAII (Michael W. Deem and Ramdas Pophale) SiO2 
 PCOD9442486
Probable space group: P N N M
;
_chemical_formula_sum "Si O2"
_cell_formula_units_Z 36
_cell_length_a 11.616616
_cell_length_b 8.499725
_cell_length_c 20.263248
_cell_angle_alpha 90.000000
_cell_angle_beta 90.000000
_cell_angle_gamma 90.000000
_cell_volume 2000.753421
_symmetry_space_group_name_H-M "P N N M"
_symmetry_group_IT_number 58
_symmetry_cell_setting 'orthorhombic'
loop_
_space_group_symop_operation_xyz
x,y,z
-x,-y,z
1/2+x,1/2-y,1/2-z
1/2-x,1/2+y,1/2-z
-x,-y,-z
x,y,-z
1/2-x,1/2+y,1/2+z
1/2+x,1/2-y,1/2+z
loop_
_atom_site_type_symbol
_atom_site_label
_atom_site_fract_x
_atom_site_fract_y
_atom_site_fract_z
Si Si1 0.706584 0.174552 0.922223
Si Si2 0.000000 0.500000 0.649542
Si Si3 0.683160 0.757750 0.195229
Si Si4 0.363653 0.470966 0.076792
Si Si5 0.364227 0.478676 0.314672
O O1 0.588015 0.099356 0.895269
O O2 0.698670 0.362221 0.911725
O O3 0.807489 0.094955 0.880239
O O4 0.717329 0.145429 0.000000
O O5 0.078520 0.617384 0.691994
O O6 0.678644 0.660125 0.127218
O O7 0.665923 0.638883 0.255045
O O8 0.799904 0.857150 0.199806
O O9 0.500000 0.500000 0.087619
O O10 0.348960 0.425345 0.000000
O O11 0.500000 0.500000 0.319888
#
# Coordination Sequence:
#
# PCOD9442486 Si02
#       5
#     8   4   8   8   8
#     4  10  21  39  61  91 124 161 209 252 306 362
#     4  10  21  34  64  96 117 160 200 268 305 352
#     4  11  23  39  63  89 123 158 207 251 310 367
#     4  10  19  35  62  93 124 154 194 258 311 351
#     4  11  26  41  60  88 124 168 200 253 306 370
#
# _framework density 17.993224000000001
#
# number of rings (size 3 to 8) (size 9 to 14) (size 15 to 20)
#    0.000    1.556    2.222    2.333    6.222    4.000 
#    0.000    0.000    0.000    2.667    0.000    0.000 
#    0.000    0.000    0.000    0.000    0.000    0.000 
#
# Total GULP energy -201199.765917 kJ/mol
# GULP energy per Si atom -5588.882387 kJ/mol
# Density = 1.795227 g / cm^3
# Si number density = 17.993224 Si / 1000 Ang^3
#
#
#
# Elastic Constant Matrix: (Units=GPa)
#
#
# Indices 1 2 3 4 5 6 
#
# 1 146.5406 54.9794 46.9877 0.0000 0.0000 0.0000
# 2 54.9794 83.8730 38.5837 0.0000 0.0000 0.0000
# 3 46.9877 38.5837 57.3462 0.0000 0.0000 0.0000
# 4 0.0000 0.0000 0.0000 35.9346 0.0000 0.0000
# 5 0.0000 0.0000 0.0000 0.0000 8.9220 0.0000
# 6 0.0000 0.0000 0.0000 0.0000 0.0000 24.9291
#
#
#
# Elastic Compliance Matrix: (Units=1/GPa)
#
#
# Indices 1 2 3 4 5 6 
#
# 1 0.010141 -0.004091 -0.005556 0.000000 0.000000 0.000000
# 2 -0.004091 0.018918 -0.009376 0.000000 0.000000 0.000000
# 3 -0.005556 -0.009376 0.028299 0.000000 0.000000 0.000000
# 4 0.000000 0.000000 0.000000 0.027828 0.000000 0.000000
# 5 0.000000 0.000000 0.000000 0.000000 0.112083 0.000000
# 6 0.000000 0.000000 0.000000 0.000000 0.000000 0.040114
#
#
# Mechanical properties :
#
#
# Convention : Reuss Voigt Hill
#
# Bulk Modulus (GPa) = 51.78578 63.20685 57.49632
# Shear Modulus (GPa) = 17.73890 23.77108 20.75499
#
# Velocity S-wave (km/s) = 3.14326 3.63865 3.39999
# Velocity P-wave (km/s) = 6.48202 7.27031 6.88746
#
# Compressibility (1/GPa) = 0.01931032
#
# Stress axis : x y z
#
# Youngs Moduli (GPa) = 98.61362 52.86011 35.33695
#
# Poissons Ratio (x) = 0.21626 0.19634
# Poissons Ratio (y) = 0.40345 0.33132
# Poissons Ratio (z) = 0.54792 0.49562
#
# Static dielectric constant tensor:
#      x y z
#    x 1.588880 0.000000 0.000000 
#    y 0.000000 1.622800 0.000000 
#    z 0.000000 0.000000 1.596500 
# 
# From -- ./inp_files/29365.got.cif
#   From: 2010.05.17/outbox.cif.g08.bks.cpg/sg58_15_cif.got.tgz:29365.got - 2010.06.03 14:20:14.
