data_PCOD9442895
_publ_section_title
;
Structure prediction by ZEFSAII (Michael W. Deem and Ramdas Pophale) SiO2 
 PCOD9442895
Probable space group: P N N M
;
_chemical_formula_sum "Si O2"
_cell_formula_units_Z 64
_cell_length_a 30.834531
_cell_length_b 14.859130
_cell_length_c 8.713440
_cell_angle_alpha 90.000000
_cell_angle_beta 90.000000
_cell_angle_gamma 90.000000
_cell_volume 3992.274313
_symmetry_space_group_name_H-M "P N N M"
_symmetry_group_IT_number 58
_symmetry_cell_setting 'orthorhombic'
loop_
_space_group_symop_operation_xyz
x,y,z
-x,-y,z
1/2+x,1/2-y,1/2-z
1/2-x,1/2+y,1/2-z
-x,-y,-z
x,y,-z
1/2-x,1/2+y,1/2+z
1/2+x,1/2-y,1/2+z
loop_
_atom_site_type_symbol
_atom_site_label
_atom_site_fract_x
_atom_site_fract_y
_atom_site_fract_z
Si Si1 0.132476 0.833943 0.818982
Si Si2 0.699307 0.177922 0.816854
Si Si3 0.452574 0.399932 0.182273
Si Si4 0.673833 0.494544 0.824053
Si Si5 0.777354 0.491013 0.821580
Si Si6 0.135635 0.184183 0.182928
Si Si7 0.286610 0.214253 0.312809
Si Si8 0.545555 0.400337 0.683378
O O1 0.086361 0.835756 0.735299
O O2 0.169315 0.764253 0.764483
O O3 0.152969 0.931648 0.785612
O O4 0.125771 0.821687 0.000000
O O5 0.658011 0.224960 0.739540
O O6 0.743390 0.230886 0.764701
O O7 0.703084 0.073823 0.771288
O O8 0.696590 0.187740 0.000000
O O9 0.444162 0.500801 0.247830
O O10 0.499280 0.372265 0.248809
O O11 0.454743 0.405289 0.000000
O O12 0.725460 0.502352 0.818909
O O13 0.660484 0.396076 0.769442
O O14 0.659254 0.509853 0.000000
O O15 0.786234 0.389793 0.763961
O O16 0.791368 0.496730 0.000000
O O17 0.084931 0.167323 0.217625
O O18 0.141158 0.174757 0.000000
O O19 0.285681 0.214753 0.500000
O O20 0.541997 0.410050 0.500000
#
# Coordination Sequence:
#
# PCOD9442895 Si02
#       8
#     8   8   8   8   8   8   8   8
#     4  11  20  33  51  72 102 140 178 211 252 306
#     4  11  21  35  52  75 103 135 175 214 252 301
#     4  11  21  32  49  74 104 134 168 209 259 306
#     4  11  20  30  49  74 104 137 172 216 255 295
#     4  10  20  36  51  71 102 137 174 216 256 295
#     4  11  22  34  51  75 102 138 175 210 253 306
#     4   9  19  34  51  71  99 136 176 213 250 297
#     4  10  20  34  51  72 101 134 172 209 251 308
#
# _framework density 16.030961999999999
#
# number of rings (size 3 to 8) (size 9 to 14) (size 15 to 20)
#    0.000    1.500    3.750    3.750    0.000    2.000 
#    0.000    1.250    0.000    0.000    0.000    0.875 
#    0.000    7.000    0.000    0.000    0.000    0.000 
#
# Total GULP energy -357225.548850 kJ/mol
# GULP energy per Si atom -5581.649201 kJ/mol
# Density = 1.599447 g / cm^3
# Si number density = 16.030962 Si / 1000 Ang^3
#
#
#
# Elastic Constant Matrix: (Units=GPa)
#
#
# Indices 1 2 3 4 5 6 
#
# 1 95.6180 24.1201 35.1345 0.0000 0.0000 0.0000
# 2 24.1201 56.1528 7.8529 0.0000 0.0000 0.0000
# 3 35.1345 7.8529 59.0721 0.0000 0.0000 0.0000
# 4 0.0000 0.0000 0.0000 17.6442 0.0000 0.0000
# 5 0.0000 0.0000 0.0000 0.0000 19.8009 0.0000
# 6 0.0000 0.0000 0.0000 0.0000 0.0000 22.9492
#
#
#
# Elastic Compliance Matrix: (Units=1/GPa)
#
#
# Indices 1 2 3 4 5 6 
#
# 1 0.014737 -0.005201 -0.008074 0.000000 0.000000 0.000000
# 2 -0.005201 0.019982 0.000437 0.000000 0.000000 0.000000
# 3 -0.008074 0.000437 0.021672 0.000000 0.000000 0.000000
# 4 0.000000 0.000000 0.000000 0.056676 0.000000 0.000000
# 5 0.000000 0.000000 0.000000 0.000000 0.050503 0.000000
# 6 0.000000 0.000000 0.000000 0.000000 0.000000 0.043575
#
#
# Mechanical properties :
#
#
# Convention : Reuss Voigt Hill
#
# Bulk Modulus (GPa) = 32.55676 38.33976 35.44826
# Shear Modulus (GPa) = 20.57125 21.66122 21.11623
#
# Velocity S-wave (km/s) = 3.58609 3.67987 3.63328
# Velocity P-wave (km/s) = 6.12368 6.48253 6.30566
#
# Compressibility (1/GPa) = 0.03071558
#
# Stress axis : x y z
#
# Youngs Moduli (GPa) = 67.85672 50.04626 46.14168
#
# Poissons Ratio (x) = 0.26029 0.37253
# Poissons Ratio (y) = 0.35293 -0.02017
# Poissons Ratio (z) = 0.54786 -0.02188
#
# Static dielectric constant tensor:
#      x y z
#    x 1.549080 0.000000 0.000000 
#    y 0.000000 1.518160 0.000000 
#    z 0.000000 0.000000 1.544980 
# 
# From -- ./inp_files/7163.got.cif
#   From: 2010.05.17/outbox.cif.g08.bks.cpg/sg58_4_cif.got.tgz:7163.got - 2010.06.03 14:20:14.
