data_PCOD9442318
_publ_section_title
;
Structure prediction by ZEFSAII (Michael W. Deem and Ramdas Pophale) SiO2 
 PCOD9442318
Probable space group: P N N M
;
_chemical_formula_sum "Si O2"
_cell_formula_units_Z 58
_cell_length_a 19.118723
_cell_length_b 17.214649
_cell_length_c 7.614977
_cell_angle_alpha 90.000000
_cell_angle_beta 90.000000
_cell_angle_gamma 90.000000
_cell_volume 2506.257266
_symmetry_space_group_name_H-M "P N N M"
_symmetry_group_IT_number 58
_symmetry_cell_setting 'orthorhombic'
loop_
_space_group_symop_operation_xyz
x,y,z
-x,-y,z
1/2+x,1/2-y,1/2-z
1/2-x,1/2+y,1/2-z
-x,-y,-z
x,y,-z
1/2-x,1/2+y,1/2+z
1/2+x,1/2-y,1/2+z
loop_
_atom_site_type_symbol
_atom_site_label
_atom_site_fract_x
_atom_site_fract_y
_atom_site_fract_z
Si Si1 0.585628 0.642459 0.786254
Si Si2 0.000000 0.500000 0.000000
Si Si3 0.573204 0.330619 0.785790
Si Si4 0.157482 0.018030 0.713850
Si Si5 0.814725 0.713726 0.286998
Si Si6 0.309705 0.965804 0.294169
Si Si7 0.072664 0.575355 0.687094
Si Si8 0.324880 0.210003 0.700950
O O1 0.506407 0.658805 0.730115
O O2 0.612416 0.557272 0.735414
O O3 0.635961 0.707702 0.709896
O O4 0.589169 0.647238 0.000000
O O5 0.979485 0.436385 0.153621
O O6 0.620144 0.403593 0.727821
O O7 0.612002 0.251767 0.733186
O O8 0.572648 0.332070 0.000000
O O9 0.159101 0.019333 0.500000
O O10 0.237626 0.005017 0.767781
O O11 0.811216 0.711342 0.500000
O O12 0.803840 0.626604 0.222345
O O13 0.752200 0.771035 0.227698
O O14 0.321559 0.984591 0.500000
O O15 0.375739 0.001128 0.196510
O O16 0.036392 0.582281 0.500000
O O17 0.125434 0.647679 0.708553
O O18 0.316412 0.183281 0.500000
#
# Coordination Sequence:
#
# PCOD9442318 Si02
#       8
#     8   2   8   8   8   8   8   8
#     4  10  19  34  59  92 125 163 221 275 333 408
#     4  12  26  52  68 102 136 172 230 288 348 410
#     4   9  18  33  56  88 121 159 212 274 334 397
#     4   9  17  32  59  90 126 169 213 270 336 400
#     4  10  21  37  60  90 130 176 227 281 341 406
#     4  11  21  39  64  95 134 171 223 284 334 400
#     4  12  26  46  74 100 135 180 231 286 346 416
#     4  11  22  41  64  91 134 179 226 280 340 411
#
# _framework density 23.142078999999999
#
# number of rings (size 3 to 8) (size 9 to 14) (size 15 to 20)
#    0.000    1.655    2.759    2.276    0.000    5.517 
#    0.000    2.759    0.000    4.138    0.000    0.000 
#    0.000    0.000    0.000    0.000    0.000    0.000 
#
# Total GULP energy -324022.134118 kJ/mol
# GULP energy per Si atom -5586.588519 kJ/mol
# Density = 2.308941 g / cm^3
# Si number density = 23.142079 Si / 1000 Ang^3
#
#
#
# Elastic Constant Matrix: (Units=GPa)
#
#
# Indices 1 2 3 4 5 6 
#
# 1 61.7296 -2.1603 -0.3079 0.0000 0.0000 0.0000
# 2 -2.1603 41.3522 -4.1536 0.0000 0.0000 0.0000
# 3 -0.3079 -4.1536 91.6668 0.0000 0.0000 0.0000
# 4 0.0000 0.0000 0.0000 20.7936 0.0000 0.0000
# 5 0.0000 0.0000 0.0000 0.0000 2.5116 0.0000
# 6 0.0000 0.0000 0.0000 0.0000 0.0000 -13.3127
#
#
#
# Elastic Compliance Matrix: (Units=1/GPa)
#
#
# Indices 1 2 3 4 5 6 
#
# 1 0.016230 0.000857 0.000093 0.000000 0.000000 0.000000
# 2 0.000857 0.024338 0.001106 0.000000 0.000000 0.000000
# 3 0.000093 0.001106 0.010959 0.000000 0.000000 0.000000
# 4 0.000000 0.000000 0.000000 0.048092 0.000000 0.000000
# 5 0.000000 0.000000 0.000000 0.000000 0.398150 0.000000
# 6 0.000000 0.000000 0.000000 0.000000 0.000000 -0.075116
#
#
# Mechanical properties :
#
#
# Convention : Reuss Voigt Hill
#
# Bulk Modulus (GPa) = 17.97249 20.16724 19.06987
# Shear Modulus (GPa) = 11.43935 15.42319 13.43127
#
# Velocity S-wave (km/s) = 2.22572 2.58438 2.41173
# Velocity P-wave (km/s) = 3.79317 4.19986 4.00168
#
# Compressibility (1/GPa) = 0.05564060
#
# Stress axis : x y z
#
# Youngs Moduli (GPa) = 61.61375 41.08741 91.24516
#
# Poissons Ratio (x) = -0.03522 -0.00852
# Poissons Ratio (y) = -0.05282 -0.10089
# Poissons Ratio (z) = -0.00575 -0.04543
#
# Static dielectric constant tensor:
#      x y z
#    x 1.868840 0.000000 0.000000 
#    y 0.000000 1.825300 0.000000 
#    z 0.000000 0.000000 1.929960 
# 
# From -- ./inp_files/8001.got.cif
#   From: 2010.05.17/outbox.cif.g08.bks.cpg/sg58_5_cif.got.tgz:8001.got - 2010.06.03 14:20:14.
