data_PCOD9442679
_publ_section_title
;
Structure prediction by ZEFSAII (Michael W. Deem and Ramdas Pophale) SiO2 
 PCOD9442679
Probable space group: P N N M
;
_chemical_formula_sum "Si O2"
_cell_formula_units_Z 40
_cell_length_a 7.960237
_cell_length_b 16.108863
_cell_length_c 13.396630
_cell_angle_alpha 90.000000
_cell_angle_beta 90.000000
_cell_angle_gamma 90.000000
_cell_volume 1717.854785
_symmetry_space_group_name_H-M "P N N M"
_symmetry_group_IT_number 58
_symmetry_cell_setting 'orthorhombic'
loop_
_space_group_symop_operation_xyz
x,y,z
-x,-y,z
1/2+x,1/2-y,1/2-z
1/2-x,1/2+y,1/2-z
-x,-y,-z
x,y,-z
1/2-x,1/2+y,1/2+z
1/2+x,1/2-y,1/2+z
loop_
_atom_site_type_symbol
_atom_site_label
_atom_site_fract_x
_atom_site_fract_y
_atom_site_fract_z
Si Si1 0.460335 0.670855 0.619294
Si Si2 0.861260 0.225587 0.303598
Si Si3 0.924979 0.634191 0.384989
Si Si4 0.258182 0.023793 0.182643
Si Si5 0.182714 0.958924 0.610740
O O1 0.483439 0.673472 0.500000
O O2 0.297031 0.724938 0.652272
O O3 0.610642 0.709803 0.685333
O O4 0.404277 0.578696 0.655751
O O5 0.846814 0.135479 0.354176
O O6 0.025127 0.280240 0.331448
O O7 0.917206 0.654440 0.500000
O O8 0.777190 0.568122 0.362567
O O9 0.088025 0.577323 0.359873
O O10 0.275477 0.008799 0.301263
O O11 0.259804 0.961707 0.500000
O O12 0.000000 0.000000 0.605632
#
# Coordination Sequence:
#
# PCOD9442679 Si02
#       5
#     8   8   8   8   8
#     4  11  23  42  64  91 129 166 203 263 316 362
#     4  11  22  41  64  92 125 165 210 254 309 375
#     4  10  20  37  65  91 119 161 200 251 310 365
#     4  10  19  38  61  90 120 155 203 249 303 371
#     4  11  22  38  58  83 119 160 198 245 299 357
#
# _framework density 23.284856000000001
#
# number of rings (size 3 to 8) (size 9 to 14) (size 15 to 20)
#    0.000    1.400    2.000    6.600    0.000    0.000 
#    0.000   15.000    0.000    0.000    0.000    0.000 
#    0.000    0.000    0.000    0.000    0.000    0.000 
#
# Total GULP energy -223365.461364 kJ/mol
# GULP energy per Si atom -5584.136534 kJ/mol
# Density = 2.323186 g / cm^3
# Si number density = 23.284856 Si / 1000 Ang^3
#
#
#
# Elastic Constant Matrix: (Units=GPa)
#
#
# Indices 1 2 3 4 5 6 
#
# 1 58.6898 9.9165 -10.4145 0.0000 0.0000 0.0000
# 2 9.9165 85.5882 28.1490 0.0000 0.0000 0.0000
# 3 -10.4145 28.1490 201.2032 0.0000 0.0000 0.0000
# 4 0.0000 0.0000 0.0000 35.6289 0.0000 0.0000
# 5 0.0000 0.0000 0.0000 0.0000 36.2776 0.0000
# 6 0.0000 0.0000 0.0000 0.0000 0.0000 35.4450
#
#
#
# Elastic Compliance Matrix: (Units=1/GPa)
#
#
# Indices 1 2 3 4 5 6 
#
# 1 0.017678 -0.002463 0.001260 0.000000 0.000000 0.000000
# 2 -0.002463 0.012590 -0.001889 0.000000 0.000000 0.000000
# 3 0.001260 -0.001889 0.005300 0.000000 0.000000 0.000000
# 4 0.000000 0.000000 0.000000 0.028067 0.000000 0.000000
# 5 0.000000 0.000000 0.000000 0.000000 0.027565 0.000000
# 6 0.000000 0.000000 0.000000 0.000000 0.000000 0.028213
#
#
# Mechanical properties :
#
#
# Convention : Reuss Voigt Hill
#
# Bulk Modulus (GPa) = 34.03146 44.53146 39.28146
# Shear Modulus (GPa) = 36.92982 42.65897 39.79439
#
# Velocity S-wave (km/s) = 3.98678 4.28489 4.13852
# Velocity P-wave (km/s) = 5.98662 6.60655 6.30421
#
# Compressibility (1/GPa) = 0.02938458
#
# Stress axis : x y z
#
# Youngs Moduli (GPa) = 56.56649 79.42550 188.69484
#
# Poissons Ratio (x) = 0.19559 -0.23767
# Poissons Ratio (y) = 0.13930 0.35643
# Poissons Ratio (z) = -0.07125 0.15003
#
# Static dielectric constant tensor:
#      x y z
#    x 1.972580 0.000000 0.000000 
#    y 0.000000 1.866920 0.000000 
#    z 0.000000 0.000000 1.866700 
# 
# From -- ./inp_files/12704.got.cif
#   From: 2010.05.17/outbox.cif.g08.bks.cpg/sg58_7_cif.got.tgz:12704.got - 2010.06.03 14:20:14.
