data_PCOD9442462
_publ_section_title
;
Structure prediction by ZEFSAII (Michael W. Deem and Ramdas Pophale) SiO2 
 PCOD9442462
Probable space group: P N N M
;
_chemical_formula_sum "Si O2"
_cell_formula_units_Z 56
_cell_length_a 15.880093
_cell_length_b 20.336520
_cell_length_c 8.314908
_cell_angle_alpha 90.000000
_cell_angle_beta 90.000000
_cell_angle_gamma 90.000000
_cell_volume 2685.264856
_symmetry_space_group_name_H-M "P N N M"
_symmetry_group_IT_number 58
_symmetry_cell_setting 'orthorhombic'
loop_
_space_group_symop_operation_xyz
x,y,z
-x,-y,z
1/2+x,1/2-y,1/2-z
1/2-x,1/2+y,1/2-z
-x,-y,-z
x,y,-z
1/2-x,1/2+y,1/2+z
1/2+x,1/2-y,1/2+z
loop_
_atom_site_type_symbol
_atom_site_label
_atom_site_fract_x
_atom_site_fract_y
_atom_site_fract_z
Si Si1 0.576773 0.955203 0.696288
Si Si2 0.839621 0.096786 0.810122
Si Si3 0.491772 0.183548 0.690941
Si Si4 0.237016 0.031009 0.309179
Si Si5 0.179195 0.170284 0.187083
Si Si6 0.180881 0.315187 0.308219
Si Si7 0.504376 0.675258 0.815218
O O1 0.576289 0.955911 0.500000
O O2 0.560057 0.880094 0.744292
O O3 0.667334 0.981141 0.747910
O O4 0.500000 0.000000 0.752551
O O5 0.755651 0.136313 0.756569
O O6 0.920912 0.125660 0.722891
O O7 0.824453 0.020275 0.775625
O O8 0.849665 0.108341 0.000000
O O9 0.480486 0.192928 0.500000
O O10 0.591039 0.171175 0.724902
O O11 0.466611 0.250195 0.780197
O O12 0.231950 0.020059 0.500000
O O13 0.217148 0.106532 0.271458
O O14 0.203763 0.239751 0.266478
O O15 0.078020 0.165026 0.206952
O O16 0.201661 0.171152 0.000000
O O17 0.169294 0.321145 0.500000
O O18 0.477342 0.669674 0.000000
#
# Coordination Sequence:
#
# PCOD9442462 Si02
#       7
#     8   8   8   8   8   8   8
#     4   9  19  35  58  88 123 161 199 241 294 359
#     4  11  24  41  61  88 122 159 203 252 307 363
#     4  10  19  35  60  89 120 157 201 247 301 358
#     4  11  23  40  62  90 123 161 205 250 304 364
#     4  11  23  41  63  89 122 159 203 251 307 365
#     4  10  21  38  61  88 122 160 201 251 304 357
#     4  11  23  40  62  89 118 154 203 253 307 363
#
# _framework density 20.854552000000002
#
# number of rings (size 3 to 8) (size 9 to 14) (size 15 to 20)
#    0.000    1.571    0.000    6.857    2.000    4.000 
#    0.000    5.000    0.000    5.143    0.000    0.000 
#    0.000    0.000    0.000    0.000    0.000    0.000 
#
# Total GULP energy -313181.569449 kJ/mol
# GULP energy per Si atom -5592.528026 kJ/mol
# Density = 2.080709 g / cm^3
# Si number density = 20.854552 Si / 1000 Ang^3
#
#
#
# Elastic Constant Matrix: (Units=GPa)
#
#
# Indices 1 2 3 4 5 6 
#
# 1 21.5294 5.3652 -7.7869 0.0000 0.0000 0.0000
# 2 5.3652 49.1745 -13.9179 0.0000 0.0000 0.0000
# 3 -7.7869 -13.9179 36.5025 0.0000 0.0000 0.0000
# 4 0.0000 0.0000 0.0000 23.6175 0.0000 0.0000
# 5 0.0000 0.0000 0.0000 0.0000 -73.3297 0.0000
# 6 0.0000 0.0000 0.0000 0.0000 0.0000 33.1662
#
#
#
# Elastic Compliance Matrix: (Units=1/GPa)
#
#
# Indices 1 2 3 4 5 6 
#
# 1 0.050665 -0.002767 0.009753 0.000000 0.000000 0.000000
# 2 -0.002767 0.022947 0.008159 0.000000 0.000000 0.000000
# 3 0.009753 0.008159 0.032587 0.000000 0.000000 0.000000
# 4 0.000000 0.000000 0.000000 0.042341 0.000000 0.000000
# 5 0.000000 0.000000 0.000000 0.000000 -0.013637 0.000000
# 6 0.000000 0.000000 0.000000 0.000000 0.000000 0.030151
#
#
# Mechanical properties :
#
#
# Convention : Reuss Voigt Hill
#
# Bulk Modulus (GPa) = 7.32664 8.28080 7.80372
# Shear Modulus (GPa) = 27.73748 4.92722 16.33235
#
# Velocity S-wave (km/s) = 3.65093 1.53876 2.80153
# Velocity P-wave (km/s) = 4.61446 2.67141 3.77026
#
# Compressibility (1/GPa) = 0.13648812
#
# Stress axis : x y z
#
# Youngs Moduli (GPa) = 19.73738 43.57886 30.68725
#
# Poissons Ratio (x) = 0.12060 -0.29929
# Poissons Ratio (y) = 0.05462 -0.25038
# Poissons Ratio (z) = -0.19250 -0.35556
#
# Static dielectric constant tensor:
#      x y z
#    x 1.737850 0.000000 0.000000 
#    y 0.000000 1.732830 0.000000 
#    z 0.000000 0.000000 1.714630 
# 
# From -- ./inp_files/6431.got.cif
#   From: 2010.05.17/outbox.cif.g08.bks.cpg/sg58_4_cif.got.tgz:6431.got - 2010.06.03 14:20:14.
