data_PCOD9442681
_publ_section_title
;
Structure prediction by ZEFSAII (Michael W. Deem and Ramdas Pophale) SiO2 
 PCOD9442681
Probable space group: P N N M
;
_chemical_formula_sum "Si O2"
_cell_formula_units_Z 44
_cell_length_a 29.320382
_cell_length_b 8.912277
_cell_length_c 8.422889
_cell_angle_alpha 90.000000
_cell_angle_beta 90.000000
_cell_angle_gamma 90.000000
_cell_volume 2200.996631
_symmetry_space_group_name_H-M "P N N M"
_symmetry_group_IT_number 58
_symmetry_cell_setting 'orthorhombic'
loop_
_space_group_symop_operation_xyz
x,y,z
-x,-y,z
1/2+x,1/2-y,1/2-z
1/2-x,1/2+y,1/2-z
-x,-y,-z
x,y,-z
1/2-x,1/2+y,1/2+z
1/2+x,1/2-y,1/2+z
loop_
_atom_site_type_symbol
_atom_site_label
_atom_site_fract_x
_atom_site_fract_y
_atom_site_fract_z
Si Si1 0.330510 0.650228 0.250036
Si Si2 0.932594 0.127642 0.500000
Si Si3 0.544876 0.101756 0.323804
Si Si4 0.081120 0.537861 0.500000
Si Si5 0.248414 0.144884 0.000000
Si Si6 0.175106 0.411679 0.500000
Si Si7 0.434738 0.563144 0.678457
Si Si8 0.175484 0.896329 0.500000
O O1 0.286786 0.666628 0.358577
O O2 0.381250 0.614909 0.315894
O O3 0.333023 0.800828 0.147226
O O4 0.318530 0.504514 0.148495
O O5 0.943873 0.038492 0.664418
O O6 0.877794 0.141608 0.500000
O O7 0.945761 0.303159 0.500000
O O8 0.567747 0.081037 0.500000
O O9 0.500000 0.000000 0.329584
O O10 0.537575 0.280702 0.309493
O O11 0.569060 0.048372 0.162690
O O12 0.136080 0.537854 0.500000
O O13 0.288039 0.266797 0.000000
O O14 0.275300 0.987037 0.000000
O O15 0.442714 0.497476 0.500000
#
# Coordination Sequence:
#
# PCOD9442681 Si02
#       8
#     8   4   8   4   4   4   8   4
#     4  10  20  35  54  76 108 150 193 241 289 350
#     4  10  22  36  58  83 124 158 192 240 296 362
#     4  10  22  40  66  96 120 150 203 257 301 363
#     4  12  21  39  63  90 126 160 195 254 314 357
#     4  12  20  34  55  80 110 148 196 241 301 343
#     4  11  22  36  55  83 118 150 197 253 298 353
#     4  10  19  38  62  83 113 162 202 236 296 364
#     4   9  20  35  48  74 110 144 183 238 283 332
#
# _framework density 19.990942
#
# number of rings (size 3 to 8) (size 9 to 14) (size 15 to 20)
#    0.000    1.636    3.636    2.455    0.000    0.727 
#    0.000    1.818    0.000    3.273    0.000    0.000 
#    0.000    0.000    0.000    0.000    0.000    0.000 
#
# Total GULP energy -245124.739471 kJ/mol
# GULP energy per Si atom -5571.016806 kJ/mol
# Density = 1.994544 g / cm^3
# Si number density = 19.990942 Si / 1000 Ang^3
#
#
#
# Elastic Constant Matrix: (Units=GPa)
#
#
# Indices 1 2 3 4 5 6 
#
# 1 68.1913 3.2388 26.2325 0.0000 0.0000 0.0000
# 2 3.2388 82.6389 53.6083 0.0000 0.0000 0.0000
# 3 26.2325 53.6083 161.7000 0.0000 0.0000 0.0000
# 4 0.0000 0.0000 0.0000 -0.4634 0.0000 0.0000
# 5 0.0000 0.0000 0.0000 0.0000 -0.9467 0.0000
# 6 0.0000 0.0000 0.0000 0.0000 0.0000 34.8712
#
#
#
# Elastic Compliance Matrix: (Units=1/GPa)
#
#
# Indices 1 2 3 4 5 6 
#
# 1 0.015754 0.001326 -0.002995 0.000000 0.000000 0.000000
# 2 0.001326 0.015528 -0.005363 0.000000 0.000000 0.000000
# 3 -0.002995 -0.005363 0.008448 0.000000 0.000000 0.000000
# 4 0.000000 0.000000 0.000000 -2.157782 0.000000 0.000000
# 5 0.000000 0.000000 0.000000 0.000000 -1.056270 0.000000
# 6 0.000000 0.000000 0.000000 0.000000 0.000000 0.028677
#
#
# Mechanical properties :
#
#
# Convention : Reuss Voigt Hill
#
# Bulk Modulus (GPa) = 38.96401 53.18772 46.07587
# Shear Modulus (GPa) = -1.60101 21.98891 10.19395
#
# Velocity S-wave (km/s) = -0.89588 3.32014 2.26061
# Velocity P-wave (km/s) = 4.29686 6.43129 5.46921
#
# Compressibility (1/GPa) = 0.02566471
#
# Stress axis : x y z
#
# Youngs Moduli (GPa) = 63.47638 64.40021 118.36846
#
# Poissons Ratio (x) = -0.08537 0.35454
# Poissons Ratio (y) = -0.08414 0.63481
# Poissons Ratio (z) = 0.19013 0.34538
#
# Static dielectric constant tensor:
#      x y z
#    x 1.700640 0.000000 0.000000 
#    y 0.000000 1.697780 0.000000 
#    z 0.000000 0.000000 1.393690 
# 
# From -- ./inp_files/2844.got.cif
#   From: 2010.05.17/outbox.cif.g08.bks.cpg/sg58_2_cif.got.tgz:2844.got - 2010.06.03 14:20:14.
