data_PCOD9442336
_publ_section_title
;
Structure prediction by ZEFSAII (Michael W. Deem and Ramdas Pophale) SiO2 
 PCOD9442336
Probable space group: P N N M
;
_chemical_formula_sum "Si O2"
_cell_formula_units_Z 56
_cell_length_a 8.999962
_cell_length_b 20.788238
_cell_length_c 14.360395
_cell_angle_alpha 90.000000
_cell_angle_beta 90.000000
_cell_angle_gamma 90.000000
_cell_volume 2686.734437
_symmetry_space_group_name_H-M "P N N M"
_symmetry_group_IT_number 58
_symmetry_cell_setting 'orthorhombic'
loop_
_space_group_symop_operation_xyz
x,y,z
-x,-y,z
1/2+x,1/2-y,1/2-z
1/2-x,1/2+y,1/2-z
-x,-y,-z
x,y,-z
1/2-x,1/2+y,1/2+z
1/2+x,1/2-y,1/2+z
loop_
_atom_site_type_symbol
_atom_site_label
_atom_site_fract_x
_atom_site_fract_y
_atom_site_fract_z
Si Si1 0.933888 0.061282 0.765443
Si Si2 0.589764 0.063966 0.719247
Si Si3 0.885652 0.881079 0.604866
Si Si4 0.640499 0.726651 0.897018
Si Si5 0.341977 0.301871 0.689481
Si Si6 0.544799 0.148052 0.104479
Si Si7 0.561837 0.828459 0.389698
O O1 0.764265 0.051338 0.732800
O O2 0.930275 0.130769 0.815101
O O3 0.040626 0.070806 0.676931
O O4 0.000000 0.000000 0.818852
O O5 0.533222 0.094080 0.816955
O O6 0.556818 0.119417 0.644154
O O7 0.500000 0.000000 0.695594
O O8 0.876083 0.907337 0.500000
O O9 0.723105 0.858490 0.634966
O O10 0.995146 0.819435 0.602097
O O11 0.709069 0.709515 0.796771
O O12 0.586887 0.800155 0.891214
O O13 0.713112 0.717149 0.000000
O O14 0.195759 0.312326 0.627571
O O15 0.439071 0.241230 0.658398
O O16 0.553889 0.121997 0.000000
O O17 0.558489 0.819914 0.500000
#
# Coordination Sequence:
#
# PCOD9442336 Si02
#       7
#     8   8   8   8   8   8   8
#     4  10  22  38  58  84 117 166 209 247 299 374
#     4  11  24  40  59  90 125 163 205 263 319 364
#     4   9  18  33  58  86 117 155 197 242 299 379
#     4   9  16  30  54  86 120 152 196 245 300 366
#     4  10  19  34  61  88 123 157 204 256 314 363
#     4  10  19  35  60  87 117 160 206 250 303 376
#     4  11  21  36  62  96 127 157 200 260 327 383
#
# _framework density 20.843146999999998
#
# number of rings (size 3 to 8) (size 9 to 14) (size 15 to 20)
#    0.000    2.000    2.857    1.286    0.000    1.429 
#    0.000    2.143    0.000   10.714    0.000    8.000 
#    0.000    0.000    0.000    0.000    0.000    0.000 
#
# Total GULP energy -312634.094652 kJ/mol
# GULP energy per Si atom -5582.751690 kJ/mol
# Density = 2.079571 g / cm^3
# Si number density = 20.843147 Si / 1000 Ang^3
#
#
#
# Elastic Constant Matrix: (Units=GPa)
#
#
# Indices 1 2 3 4 5 6 
#
# 1 61.4120 30.7535 -1.3668 0.0000 0.0000 0.0000
# 2 30.7535 133.3399 28.9801 0.0000 0.0000 0.0000
# 3 -1.3668 28.9801 80.4053 0.0000 0.0000 0.0000
# 4 0.0000 0.0000 0.0000 10.1400 0.0000 0.0000
# 5 0.0000 0.0000 0.0000 0.0000 19.0913 0.0000
# 6 0.0000 0.0000 0.0000 0.0000 0.0000 27.9989
#
#
#
# Elastic Compliance Matrix: (Units=1/GPa)
#
#
# Indices 1 2 3 4 5 6 
#
# 1 0.018711 -0.004757 0.002033 0.000000 0.000000 0.000000
# 2 -0.004757 0.009347 -0.003450 0.000000 0.000000 0.000000
# 3 0.002033 -0.003450 0.013715 0.000000 0.000000 0.000000
# 4 0.000000 0.000000 0.000000 0.098620 0.000000 0.000000
# 5 0.000000 0.000000 0.000000 0.000000 0.052380 0.000000
# 6 0.000000 0.000000 0.000000 0.000000 0.000000 0.035716
#
#
# Mechanical properties :
#
#
# Convention : Reuss Voigt Hill
#
# Bulk Modulus (GPa) = 33.98576 43.54342 38.76459
# Shear Modulus (GPa) = 19.94861 25.89874 22.92368
#
# Velocity S-wave (km/s) = 3.09703 3.52881 3.31995
# Velocity P-wave (km/s) = 5.39719 6.12697 5.77362
#
# Compressibility (1/GPa) = 0.02942409
#
# Stress axis : x y z
#
# Youngs Moduli (GPa) = 53.44442 106.99084 72.91359
#
# Poissons Ratio (x) = 0.50899 -0.14821
# Poissons Ratio (y) = 0.25425 0.25152
# Poissons Ratio (z) = -0.10864 0.36908
#
# Static dielectric constant tensor:
#      x y z
#    x 1.754060 0.000000 0.000000 
#    y 0.000000 1.767060 0.000000 
#    z 0.000000 0.000000 1.753860 
# 
# From -- ./inp_files/20125.got.cif
#   From: 2010.05.17/outbox.cif.g08.bks.cpg/sg58_11_cif.got.tgz:20125.got - 2010.06.03 14:20:14.
