data_PCOD9442495
_publ_section_title
;
Structure prediction by ZEFSAII (Michael W. Deem and Ramdas Pophale) SiO2 
 PCOD9442495
Probable space group: P N N M
;
_chemical_formula_sum "Si O2"
_cell_formula_units_Z 56
_cell_length_a 9.935985
_cell_length_b 21.333222
_cell_length_c 14.713882
_cell_angle_alpha 90.000000
_cell_angle_beta 90.000000
_cell_angle_gamma 90.000000
_cell_volume 3118.851155
_symmetry_space_group_name_H-M "P N N M"
_symmetry_group_IT_number 58
_symmetry_cell_setting 'orthorhombic'
loop_
_space_group_symop_operation_xyz
x,y,z
-x,-y,z
1/2+x,1/2-y,1/2-z
1/2-x,1/2+y,1/2-z
-x,-y,-z
x,y,-z
1/2-x,1/2+y,1/2+z
1/2+x,1/2-y,1/2+z
loop_
_atom_site_type_symbol
_atom_site_label
_atom_site_fract_x
_atom_site_fract_y
_atom_site_fract_z
Si Si1 0.617211 0.457525 0.393350
Si Si2 0.082532 0.697536 0.101810
Si Si3 0.386686 0.718416 0.152866
Si Si4 0.891639 0.812193 0.856453
Si Si5 0.882516 0.649769 0.749886
Si Si6 0.690446 0.702882 0.100972
Si Si7 0.863874 0.538387 0.605381
O O1 0.500000 0.500000 0.351037
O O2 0.619173 0.471084 0.500000
O O3 0.601918 0.383123 0.388218
O O4 0.755581 0.487336 0.361284
O O5 0.243553 0.702047 0.108990
O O6 0.015008 0.766827 0.114373
O O7 0.011775 0.657277 0.182293
O O8 0.048008 0.675562 0.000000
O O9 0.391340 0.682925 0.248457
O O10 0.384708 0.790834 0.182705
O O11 0.529456 0.706052 0.106015
O O12 0.759762 0.771740 0.885283
O O13 0.756873 0.661327 0.818978
O O14 0.873503 0.591267 0.682811
O O15 0.729103 0.681164 0.000000
O O16 0.835377 0.561623 0.500000
O O17 0.000000 0.500000 0.599346
#
# Coordination Sequence:
#
# PCOD9442495 Si02
#       7
#     8   8   8   8   8   8   8
#     4  10  22  36  54  80 112 149 188 221 271 338
#     4  10  20  35  58  85 113 147 185 234 284 329
#     4  10  21  32  55  86 113 144 185 235 285 328
#     4  10  19  36  55  79 115 150 184 227 276 340
#     4  10  20  38  56  80 116 150 189 225 278 344
#     4  10  20  35  58  85 112 148 185 234 288 327
#     4  10  24  40  57  85 116 150 188 229 276 333
#
# _framework density 17.95533
#
# number of rings (size 3 to 8) (size 9 to 14) (size 15 to 20)
#    0.000    2.286    0.000    6.429    8.000    1.143 
#    0.000    0.000    0.000    1.714    0.000    1.000 
#    0.000    0.000    0.000    0.000    0.000    0.000 
#
# Total GULP energy -311737.410505 kJ/mol
# GULP energy per Si atom -5566.739473 kJ/mol
# Density = 1.791446 g / cm^3
# Si number density = 17.955330 Si / 1000 Ang^3
#
#
#
# Elastic Constant Matrix: (Units=GPa)
#
#
# Indices 1 2 3 4 5 6 
#
# 1 139.4116 29.2419 21.4220 0.0000 0.0000 0.0000
# 2 29.2419 75.1819 36.9664 0.0000 0.0000 0.0000
# 3 21.4220 36.9664 91.3189 0.0000 0.0000 0.0000
# 4 0.0000 0.0000 0.0000 0.2014 0.0000 0.0000
# 5 0.0000 0.0000 0.0000 0.0000 6.0423 0.0000
# 6 0.0000 0.0000 0.0000 0.0000 0.0000 2.3999
#
#
#
# Elastic Compliance Matrix: (Units=1/GPa)
#
#
# Indices 1 2 3 4 5 6 
#
# 1 0.007852 -0.002682 -0.000756 0.000000 0.000000 0.000000
# 2 -0.002682 0.017523 -0.006464 0.000000 0.000000 0.000000
# 3 -0.000756 -0.006464 0.013745 0.000000 0.000000 0.000000
# 4 0.000000 0.000000 0.000000 4.964822 0.000000 0.000000
# 5 0.000000 0.000000 0.000000 0.000000 0.165501 0.000000
# 6 0.000000 0.000000 0.000000 0.000000 0.000000 0.416677
#
#
# Mechanical properties :
#
#
# Convention : Reuss Voigt Hill
#
# Bulk Modulus (GPa) = 51.77491 53.46367 52.61929
# Shear Modulus (GPa) = 0.89089 16.28085 8.58587
#
# Velocity S-wave (km/s) = 0.70516 3.01448 2.18910
# Velocity P-wave (km/s) = 5.43700 6.47740 5.97987
#
# Compressibility (1/GPa) = 0.01931438
#
# Stress axis : x y z
#
# Youngs Moduli (GPa) = 127.35956 57.06910 72.75524
#
# Poissons Ratio (x) = 0.15307 0.05501
# Poissons Ratio (y) = 0.34160 0.47029
# Poissons Ratio (z) = 0.09630 0.36890
#
# Static dielectric constant tensor:
#      x y z
#    x 1.658160 0.000000 0.000000 
#    y 0.000000 1.592060 0.000000 
#    z 0.000000 0.000000 1.639690 
# 
# From -- ./inp_files/20111.got.cif
#   From: 2010.05.17/outbox.cif.g08.bks.cpg/sg58_11_cif.got.tgz:20111.got - 2010.06.03 14:20:14.
