data_PCOD9442084
_publ_section_title
;
Structure prediction by ZEFSAII (Michael W. Deem and Ramdas Pophale) SiO2 
 PCOD9442084
Probable space group: P N N M
;
_chemical_formula_sum "Si O2"
_cell_formula_units_Z 64
_cell_length_a 28.922026
_cell_length_b 12.465192
_cell_length_c 8.679046
_cell_angle_alpha 90.000000
_cell_angle_beta 90.000000
_cell_angle_gamma 90.000000
_cell_volume 3128.957575
_symmetry_space_group_name_H-M "P N N M"
_symmetry_group_IT_number 58
_symmetry_cell_setting 'orthorhombic'
loop_
_space_group_symop_operation_xyz
x,y,z
-x,-y,z
1/2+x,1/2-y,1/2-z
1/2-x,1/2+y,1/2-z
-x,-y,-z
x,y,-z
1/2-x,1/2+y,1/2+z
1/2+x,1/2-y,1/2+z
loop_
_atom_site_type_symbol
_atom_site_label
_atom_site_fract_x
_atom_site_fract_y
_atom_site_fract_z
Si Si1 0.317216 0.126838 0.180247
Si Si2 0.119751 0.185100 0.814411
Si Si3 0.587987 0.911893 0.319218
Si Si4 0.570204 0.528538 0.319723
Si Si5 0.026750 0.771700 0.316560
Si Si6 0.160043 0.875435 0.322445
Si Si7 0.561956 0.134755 0.815950
Si Si8 0.213522 0.061437 0.815039
O O1 0.324400 0.254042 0.194319
O O2 0.264844 0.099632 0.223262
O O3 0.358017 0.074511 0.278399
O O4 0.324099 0.097613 0.000000
O O5 0.106133 0.295564 0.734780
O O6 0.171653 0.144213 0.780352
O O7 0.084038 0.090438 0.761864
O O8 0.115597 0.194939 0.000000
O O9 0.581227 0.898223 0.500000
O O10 0.562351 0.017965 0.259040
O O11 0.568592 0.806286 0.234266
O O12 0.560683 0.519889 0.500000
O O13 0.532532 0.607888 0.246838
O O14 0.618092 0.592488 0.288773
O O15 0.026224 0.778426 0.500000
O O16 0.981468 0.707103 0.263651
O O17 0.145005 0.892795 0.500000
O O18 0.201174 0.954779 0.277637
O O19 0.560079 0.122747 0.000000
O O20 0.211278 0.042219 0.000000
#
# Coordination Sequence:
#
# PCOD9442084 Si02
#       8
#     8   8   8   8   8   8   8   8
#     4  10  21  38  60  86 118 155 196 245 299 354
#     4   9  20  39  60  86 123 160 198 247 299 353
#     4  12  25  40  62  89 119 155 201 252 302 361
#     4  10  20  36  61  89 118 154 197 247 297 350
#     4  11  23  40  62  89 120 157 201 250 301 359
#     4  10  19  33  56  84 116 154 194 243 296 350
#     4  11  25  42  61  86 122 164 202 244 302 364
#     4   9  20  38  59  85 119 157 196 243 298 355
#
# _framework density 20.454097000000001
#
# number of rings (size 3 to 8) (size 9 to 14) (size 15 to 20)
#    0.000    1.750    1.250    3.750    0.000    8.500 
#    0.000    3.750    0.000    0.000    0.000    0.000 
#    0.000    0.000    0.000    0.000    0.000    0.000 
#
# Total GULP energy -357588.783732 kJ/mol
# GULP energy per Si atom -5587.324746 kJ/mol
# Density = 2.040754 g / cm^3
# Si number density = 20.454097 Si / 1000 Ang^3
#
#
#
# Elastic Constant Matrix: (Units=GPa)
#
#
# Indices 1 2 3 4 5 6 
#
# 1 65.4024 -1.8750 -4.0797 0.0000 0.0000 0.0000
# 2 -1.8750 61.9396 1.5883 0.0000 0.0000 0.0000
# 3 -4.0797 1.5883 9.5727 0.0000 0.0000 0.0000
# 4 0.0000 0.0000 0.0000 -90.5614 0.0000 0.0000
# 5 0.0000 0.0000 0.0000 0.0000 45.8032 0.0000
# 6 0.0000 0.0000 0.0000 0.0000 0.0000 27.0291
#
#
#
# Elastic Compliance Matrix: (Units=1/GPa)
#
#
# Indices 1 2 3 4 5 6 
#
# 1 0.015713 0.000305 0.006646 0.000000 0.000000 0.000000
# 2 0.000305 0.016220 -0.002561 0.000000 0.000000 0.000000
# 3 0.006646 -0.002561 0.107721 0.000000 0.000000 0.000000
# 4 0.000000 0.000000 0.000000 -0.011042 0.000000 0.000000
# 5 0.000000 0.000000 0.000000 0.000000 0.021833 0.000000
# 6 0.000000 0.000000 0.000000 0.000000 0.000000 0.036997
#
#
# Mechanical properties :
#
#
# Convention : Reuss Voigt Hill
#
# Bulk Modulus (GPa) = 6.73698 14.24245 10.48971
# Shear Modulus (GPa) = 21.91641 5.87293 13.89467
#
# Velocity S-wave (km/s) = 3.27692 1.69632 2.60918
# Velocity P-wave (km/s) = 4.19743 3.28860 3.77050
#
# Compressibility (1/GPa) = 0.14843451
#
# Stress axis : x y z
#
# Youngs Moduli (GPa) = 63.64050 61.65350 9.28322
#
# Poissons Ratio (x) = -0.01882 -0.06170
# Poissons Ratio (y) = -0.01943 0.02378
# Poissons Ratio (z) = -0.42295 0.15790
#
# Static dielectric constant tensor:
#      x y z
#    x 1.764800 0.000000 0.000000 
#    y 0.000000 1.706970 0.000000 
#    z 0.000000 0.000000 1.695780 
# 
# From -- ./inp_files/11042.got.cif
#   From: 2010.05.17/outbox.cif.g08.bks.cpg/sg58_6_cif.got.tgz:11042.got - 2010.06.03 14:20:14.
