data_PCOD9442372
_publ_section_title
;
Structure prediction by ZEFSAII (Michael W. Deem and Ramdas Pophale) SiO2 
 PCOD9442372
Probable space group: P N N M
;
_chemical_formula_sum "Si O2"
_cell_formula_units_Z 56
_cell_length_a 21.650974
_cell_length_b 14.979955
_cell_length_c 7.459720
_cell_angle_alpha 90.000000
_cell_angle_beta 90.000000
_cell_angle_gamma 90.000000
_cell_volume 2419.415584
_symmetry_space_group_name_H-M "P N N M"
_symmetry_group_IT_number 58
_symmetry_cell_setting 'orthorhombic'
loop_
_space_group_symop_operation_xyz
x,y,z
-x,-y,z
1/2+x,1/2-y,1/2-z
1/2-x,1/2+y,1/2-z
-x,-y,-z
x,y,-z
1/2-x,1/2+y,1/2+z
1/2+x,1/2-y,1/2+z
loop_
_atom_site_type_symbol
_atom_site_label
_atom_site_fract_x
_atom_site_fract_y
_atom_site_fract_z
Si Si1 0.997646 0.777677 0.203655
Si Si2 0.790479 0.196507 0.789184
Si Si3 0.464195 0.911187 0.279952
Si Si4 0.095248 0.920250 0.781681
Si Si5 0.880254 0.879427 0.294213
Si Si6 0.760895 0.389629 0.219770
Si Si7 0.177011 0.425572 0.216020
O O1 0.996940 0.679305 0.284137
O O2 0.927563 0.812909 0.201216
O O3 0.040394 0.855413 0.280981
O O4 0.020531 0.767224 0.000000
O O5 0.841215 0.126907 0.720215
O O6 0.792496 0.297517 0.719649
O O7 0.722924 0.154244 0.766527
O O8 0.803444 0.203267 0.000000
O O9 0.464037 0.908579 0.500000
O O10 0.392948 0.913296 0.222028
O O11 0.500000 0.000000 0.226448
O O12 0.092507 0.020855 0.714726
O O13 0.093712 0.927399 0.000000
O O14 0.876413 0.849992 0.500000
O O15 0.810639 0.885737 0.222486
O O16 0.793802 0.480439 0.278654
O O17 0.760879 0.390910 0.000000
O O18 0.175747 0.428653 0.000000
#
# Coordination Sequence:
#
# PCOD9442372 Si02
#       7
#     8   8   8   8   8   8   8
#     4  10  21  36  54  80 111 142 180 225 272 318
#     4  10  20  35  55  79 107 143 182 218 267 325
#     4   9  19  34  57  86 111 140 181 227 272 321
#     4  10  21  35  54  79 109 141 178 226 270 317
#     4  11  21  36  56  80 110 144 181 220 268 325
#     4   9  19  33  53  79 107 139 173 215 267 320
#     4  10  19  35  57  81 110 140 175 223 270 315
#
# _framework density 23.146086
#
# number of rings (size 3 to 8) (size 9 to 14) (size 15 to 20)
#    0.000    2.143    1.429    1.714    2.000    2.286 
#    0.000    1.429    0.000    1.714    0.000    0.000 
#    0.000    0.000    0.000    0.000    0.000    0.000 
#
# Total GULP energy -313088.398460 kJ/mol
# GULP energy per Si atom -5590.864258 kJ/mol
# Density = 2.309340 g / cm^3
# Si number density = 23.146086 Si / 1000 Ang^3
#
#
#
# Elastic Constant Matrix: (Units=GPa)
#
#
# Indices 1 2 3 4 5 6 
#
# 1 47.8466 -8.4536 -6.2944 0.0000 0.0000 0.0000
# 2 -8.4536 117.9432 -8.3958 0.0000 0.0000 0.0000
# 3 -6.2944 -8.3958 68.7915 0.0000 0.0000 0.0000
# 4 0.0000 0.0000 0.0000 -0.3932 0.0000 0.0000
# 5 0.0000 0.0000 0.0000 0.0000 7.8230 0.0000
# 6 0.0000 0.0000 0.0000 0.0000 0.0000 22.8681
#
#
#
# Elastic Compliance Matrix: (Units=1/GPa)
#
#
# Indices 1 2 3 4 5 6 
#
# 1 0.021485 0.001695 0.002173 0.000000 0.000000 0.000000
# 2 0.001695 0.008687 0.001215 0.000000 0.000000 0.000000
# 3 0.002173 0.001215 0.014884 0.000000 0.000000 0.000000
# 4 0.000000 0.000000 0.000000 -2.542912 0.000000 0.000000
# 5 0.000000 0.000000 0.000000 0.000000 0.127828 0.000000
# 6 0.000000 0.000000 0.000000 0.000000 0.000000 0.043729
#
#
# Mechanical properties :
#
#
# Convention : Reuss Voigt Hill
#
# Bulk Modulus (GPa) = 18.10905 20.92152 19.51529
# Shear Modulus (GPa) = -2.15698 23.24126 10.54214
#
# Velocity S-wave (km/s) = -0.96640 3.17221 2.13647
# Velocity P-wave (km/s) = 2.56818 4.74086 3.81257
#
# Compressibility (1/GPa) = 0.05522101
#
# Stress axis : x y z
#
# Youngs Moduli (GPa) = 46.54330 115.11948 67.18717
#
# Poissons Ratio (x) = -0.19509 -0.14598
# Poissons Ratio (y) = -0.07887 -0.08165
# Poissons Ratio (z) = -0.10113 -0.13990
#
# Static dielectric constant tensor:
#      x y z
#    x 1.838370 0.000000 0.000000 
#    y 0.000000 1.826730 0.000000 
#    z 0.000000 0.000000 1.895380 
# 
# From -- ./inp_files/8999.got.cif
#   From: 2010.05.17/outbox.cif.g08.bks.cpg/sg58_5_cif.got.tgz:8999.got - 2010.06.03 14:20:14.
