data_PCOD9442461
_publ_section_title
;
Structure prediction by ZEFSAII (Michael W. Deem and Ramdas Pophale) SiO2 
 PCOD9442461
Probable space group: P N N M
;
_chemical_formula_sum "Si O2"
_cell_formula_units_Z 48
_cell_length_a 15.023673
_cell_length_b 14.612078
_cell_length_c 12.328311
_cell_angle_alpha 90.000000
_cell_angle_beta 90.000000
_cell_angle_gamma 90.000000
_cell_volume 2706.398136
_symmetry_space_group_name_H-M "P N N M"
_symmetry_group_IT_number 58
_symmetry_cell_setting 'orthorhombic'
loop_
_space_group_symop_operation_xyz
x,y,z
-x,-y,z
1/2+x,1/2-y,1/2-z
1/2-x,1/2+y,1/2-z
-x,-y,-z
x,y,-z
1/2-x,1/2+y,1/2+z
1/2+x,1/2-y,1/2+z
loop_
_atom_site_type_symbol
_atom_site_label
_atom_site_fract_x
_atom_site_fract_y
_atom_site_fract_z
Si Si1 0.692229 0.348287 0.789096
Si Si2 0.142858 0.046767 0.500000
Si Si3 0.003440 0.763781 0.280623
Si Si4 0.933482 0.583870 0.622184
Si Si5 0.665392 0.699741 0.369611
Si Si6 0.447602 0.358879 0.000000
Si Si7 0.256851 0.494556 0.629265
O O1 0.590476 0.316580 0.769105
O O2 0.756825 0.262567 0.816108
O O3 0.723232 0.412073 0.690816
O O4 0.690753 0.414181 0.894180
O O5 0.044292 0.091970 0.500000
O O6 0.126347 0.938298 0.500000
O O7 0.974946 0.660289 0.302742
O O8 0.071039 0.773090 0.181577
O O9 0.052749 0.800503 0.389624
O O10 0.919920 0.624005 0.500000
O O11 0.839834 0.544436 0.659568
O O12 0.000000 0.500000 0.614226
O O13 0.670035 0.711551 0.500000
O O14 0.679055 0.591500 0.346317
O O15 0.257482 0.509950 0.500000
#
# Coordination Sequence:
#
# PCOD9442461 Si02
#       7
#     8   4   8   8   8   4   8
#     4  11  21  39  63  87 124 168 204 254 308 370
#     4   9  18  32  58  84 120 157 197 248 307 370
#     4  11  21  36  64  90 122 160 209 254 309 363
#     4  10  19  35  60  89 118 155 204 258 302 353
#     4  11  23  40  62  90 125 171 205 244 316 382
#     4   9  18  32  55  94 115 143 204 263 309 346
#     4  10  22  38  62  90 122 161 208 256 308 364
#
# _framework density 17.735751
#
# number of rings (size 3 to 8) (size 9 to 14) (size 15 to 20)
#    0.000    1.667    3.333    2.000    0.000    2.667 
#    1.500    1.667    1.833    1.500    0.000    0.000 
#    0.000    0.000    0.000    0.000    0.000    0.000 
#
# Total GULP energy -267820.110973 kJ/mol
# GULP energy per Si atom -5579.585645 kJ/mol
# Density = 1.769538 g / cm^3
# Si number density = 17.735751 Si / 1000 Ang^3
#
#
#
# Elastic Constant Matrix: (Units=GPa)
#
#
# Indices 1 2 3 4 5 6 
#
# 1 72.4705 17.5689 23.3517 0.0000 0.0000 0.0000
# 2 17.5689 78.2588 37.2760 0.0000 0.0000 0.0000
# 3 23.3517 37.2760 56.8601 0.0000 0.0000 0.0000
# 4 0.0000 0.0000 0.0000 33.9269 0.0000 0.0000
# 5 0.0000 0.0000 0.0000 0.0000 31.6757 0.0000
# 6 0.0000 0.0000 0.0000 0.0000 0.0000 29.1137
#
#
#
# Elastic Compliance Matrix: (Units=1/GPa)
#
#
# Indices 1 2 3 4 5 6 
#
# 1 0.015927 -0.000669 -0.006103 0.000000 0.000000 0.000000
# 2 -0.000669 0.018608 -0.011924 0.000000 0.000000 0.000000
# 3 -0.006103 -0.011924 0.027911 0.000000 0.000000 0.000000
# 4 0.000000 0.000000 0.000000 0.029475 0.000000 0.000000
# 5 0.000000 0.000000 0.000000 0.000000 0.031570 0.000000
# 6 0.000000 0.000000 0.000000 0.000000 0.000000 0.034348
#
#
# Mechanical properties :
#
#
# Convention : Reuss Voigt Hill
#
# Bulk Modulus (GPa) = 39.91323 40.44251 40.17787
# Shear Modulus (GPa) = 24.56013 27.56944 26.06478
#
# Velocity S-wave (km/s) = 3.72530 3.94694 3.83772
# Velocity P-wave (km/s) = 6.40758 6.60480 6.50694
#
# Compressibility (1/GPa) = 0.02505435
#
# Stress axis : x y z
#
# Youngs Moduli (GPa) = 62.78533 53.74033 35.82871
#
# Poissons Ratio (x) = 0.03594 0.21865
# Poissons Ratio (y) = 0.04199 0.42723
# Poissons Ratio (z) = 0.38316 0.64081
#
# Static dielectric constant tensor:
#      x y z
#    x 1.608880 0.000000 0.000000 
#    y 0.000000 1.605020 0.000000 
#    z 0.000000 0.000000 1.606170 
# 
# From -- ./inp_files/15615.got.cif
#   From: 2010.05.17/outbox.cif.g08.bks.cpg/sg58_8_cif.got.tgz:15615.got - 2010.06.03 14:20:14.
