data_PCOD9442641
_publ_section_title
;
Structure prediction by ZEFSAII (Michael W. Deem and Ramdas Pophale) SiO2 
 PCOD9442641
Probable space group: P N N M
;
_chemical_formula_sum "Si O2"
_cell_formula_units_Z 64
_cell_length_a 13.931469
_cell_length_b 8.720714
_cell_length_c 26.357799
_cell_angle_alpha 90.000000
_cell_angle_beta 90.000000
_cell_angle_gamma 90.000000
_cell_volume 3202.271119
_symmetry_space_group_name_H-M "P N N M"
_symmetry_group_IT_number 58
_symmetry_cell_setting 'orthorhombic'
loop_
_space_group_symop_operation_xyz
x,y,z
-x,-y,z
1/2+x,1/2-y,1/2-z
1/2-x,1/2+y,1/2-z
-x,-y,-z
x,y,-z
1/2-x,1/2+y,1/2+z
1/2+x,1/2-y,1/2+z
loop_
_atom_site_type_symbol
_atom_site_label
_atom_site_fract_x
_atom_site_fract_y
_atom_site_fract_z
Si Si1 0.936272 0.365436 0.120244
Si Si2 0.245704 0.948577 0.358585
Si Si3 0.447826 0.832953 0.872561
Si Si4 0.609850 0.311846 0.669746
Si Si5 0.811910 0.518489 0.553620
Si Si6 0.896057 0.176051 0.440707
Si Si7 0.900111 0.048153 0.921102
Si Si8 0.594857 0.397228 0.785589
O O1 0.836483 0.437155 0.138494
O O2 0.907078 0.228969 0.084093
O O3 0.000000 0.500000 0.095861
O O4 0.012212 0.288445 0.160060
O O5 0.297939 0.786872 0.347421
O O6 0.178237 0.928987 0.408548
O O7 0.177500 0.006928 0.313775
O O8 0.350255 0.875116 0.901737
O O9 0.508799 0.711694 0.906949
O O10 0.426785 0.753107 0.819341
O O11 0.500000 0.000000 0.868044
O O12 0.603237 0.459503 0.633242
O O13 0.619191 0.355136 0.728091
O O14 0.849241 0.582140 0.500000
O O15 0.851157 0.346886 0.558043
O O16 0.698532 0.506894 0.553454
O O17 0.910961 0.129890 0.500000
O O18 0.000000 0.000000 0.945132
O O19 0.500000 0.500000 0.785064
#
# Coordination Sequence:
#
# PCOD9442641 Si02
#       8
#     8   8   8   8   8   8   8   8
#     4   9  20  38  61  85 122 164 205 257 311 366
#     4  11  22  41  61  93 126 161 212 263 311 381
#     4  10  22  40  62  91 126 162 208 260 307 383
#     4  10  23  41  62  88 121 171 210 255 316 369
#     4  10  20  36  64  92 118 158 213 260 311 378
#     4  10  20  40  66  91 125 166 203 262 327 377
#     4  10  19  37  62  87 120 161 210 258 309 368
#     4  12  24  39  61  93 130 163 207 257 311 376
#
# _framework density 19.985814000000001
#
# number of rings (size 3 to 8) (size 9 to 14) (size 15 to 20)
#    0.000    1.750    2.500    2.250    0.000    6.250 
#    0.000    3.750    0.000    4.500    0.000    0.000 
#    0.000    0.000    0.000    0.000    0.000    0.000 
#
# Total GULP energy -356960.060961 kJ/mol
# GULP energy per Si atom -5577.500953 kJ/mol
# Density = 1.994033 g / cm^3
# Si number density = 19.985814 Si / 1000 Ang^3
#
#
#
# Elastic Constant Matrix: (Units=GPa)
#
#
# Indices 1 2 3 4 5 6 
#
# 1 92.0148 9.7177 17.9695 0.0000 0.0000 0.0000
# 2 9.7177 61.7277 24.0056 0.0000 0.0000 0.0000
# 3 17.9695 24.0056 125.7230 0.0000 0.0000 0.0000
# 4 0.0000 0.0000 0.0000 72.1020 0.0000 0.0000
# 5 0.0000 0.0000 0.0000 0.0000 -334.3301 0.0000
# 6 0.0000 0.0000 0.0000 0.0000 0.0000 31.2540
#
#
#
# Elastic Compliance Matrix: (Units=1/GPa)
#
#
# Indices 1 2 3 4 5 6 
#
# 1 0.011267 -0.001240 -0.001374 0.000000 0.000000 0.000000
# 2 -0.001240 0.017636 -0.003190 0.000000 0.000000 0.000000
# 3 -0.001374 -0.003190 0.008759 0.000000 0.000000 0.000000
# 4 0.000000 0.000000 0.000000 0.013869 0.000000 0.000000
# 5 0.000000 0.000000 0.000000 0.000000 -0.002991 0.000000
# 6 0.000000 0.000000 0.000000 0.000000 0.000000 0.031996
#
#
# Mechanical properties :
#
#
# Convention : Reuss Voigt Hill
#
# Bulk Modulus (GPa) = 38.37961 42.53901 40.45931
# Shear Modulus (GPa) = 49.58905 -31.00996 9.28954
#
# Velocity S-wave (km/s) = 4.98658 -3.94331 2.15828
# Velocity P-wave (km/s) = 7.23877 0.77325 5.14770
#
# Compressibility (1/GPa) = 0.02605550
#
# Stress axis : x y z
#
# Youngs Moduli (GPa) = 88.75477 56.70218 114.16187
#
# Poissons Ratio (x) = 0.07028 0.15683
# Poissons Ratio (y) = 0.11001 0.36421
# Poissons Ratio (z) = 0.12192 0.18090
#
# Static dielectric constant tensor:
#      x y z
#    x 2.264710 0.000000 0.000000 
#    y 0.000000 2.070440 0.000000 
#    z 0.000000 0.000000 1.692160 
# 
# From -- ./inp_files/32247.got.cif
#   From: 2010.05.17/outbox.cif.g08.bks.cpg/sg58_17_cif.got.tgz:32247.got - 2010.06.03 14:20:14.
