data_PCOD9442662
_publ_section_title
;
Structure prediction by ZEFSAII (Michael W. Deem and Ramdas Pophale) SiO2 
 PCOD9442662
Probable space group: P N N M
;
_chemical_formula_sum "Si O2"
_cell_formula_units_Z 48
_cell_length_a 8.692628
_cell_length_b 11.166996
_cell_length_c 23.601382
_cell_angle_alpha 90.000000
_cell_angle_beta 90.000000
_cell_angle_gamma 90.000000
_cell_volume 2290.998945
_symmetry_space_group_name_H-M "P N N M"
_symmetry_group_IT_number 58
_symmetry_cell_setting 'orthorhombic'
loop_
_space_group_symop_operation_xyz
x,y,z
-x,-y,z
1/2+x,1/2-y,1/2-z
1/2-x,1/2+y,1/2-z
-x,-y,-z
x,y,-z
1/2-x,1/2+y,1/2+z
1/2+x,1/2-y,1/2+z
loop_
_atom_site_type_symbol
_atom_site_label
_atom_site_fract_x
_atom_site_fract_y
_atom_site_fract_z
Si Si1 0.115858 0.746542 0.354723
Si Si2 0.176181 0.960198 0.561674
Si Si3 0.354070 0.085627 0.349251
Si Si4 0.837412 0.063330 0.259713
Si Si5 0.260307 0.832176 0.853799
Si Si6 0.817662 0.469076 0.434653
O O1 0.173190 0.848972 0.397027
O O2 0.149323 0.809369 0.293875
O O3 0.191712 0.629861 0.384220
O O4 0.931434 0.725343 0.357067
O O5 0.234729 0.928751 0.500000
O O6 0.273217 0.063755 0.590510
O O7 0.000000 0.000000 0.558221
O O8 0.365232 0.227823 0.344347
O O9 0.500000 0.000000 0.347586
O O10 0.246232 0.031767 0.300409
O O11 0.746134 0.086874 0.202280
O O12 0.000000 0.000000 0.247482
O O13 0.236340 0.912796 0.909405
O O14 0.772720 0.437566 0.500000
O O15 0.000000 0.500000 0.437320
#
# Coordination Sequence:
#
# PCOD9442662 Si02
#       6
#     8   8   8   8   8   8
#     4  10  19  39  63  94 125 161 218 269 317 392
#     4  10  19  37  66  91 124 169 209 266 324 383
#     4  11  24  40  60  95 130 168 219 270 326 392
#     4  11  24  41  64  89 130 171 219 265 328 393
#     4  11  23  38  63  92 129 168 212 275 324 384
#     4   9  20  36  60  93 124 163 212 260 318 384
#
# _framework density 20.951559
#
# number of rings (size 3 to 8) (size 9 to 14) (size 15 to 20)
#    0.000    1.667    3.333    1.500    4.667    2.333 
#    3.000    0.000    0.000    0.500    0.000    0.000 
#    0.000    0.000    0.000    0.000    0.000    0.000 
#
# Total GULP energy -267545.095168 kJ/mol
# GULP energy per Si atom -5573.856149 kJ/mol
# Density = 2.090387 g / cm^3
# Si number density = 20.951559 Si / 1000 Ang^3
#
#
#
# Elastic Constant Matrix: (Units=GPa)
#
#
# Indices 1 2 3 4 5 6 
#
# 1 6.3138 -2.1861 -9.0546 0.0000 0.0000 0.0000
# 2 -2.1861 93.5972 24.8069 0.0000 0.0000 0.0000
# 3 -9.0546 24.8069 100.9063 0.0000 0.0000 0.0000
# 4 0.0000 0.0000 0.0000 -20.2155 0.0000 0.0000
# 5 0.0000 0.0000 0.0000 0.0000 5.7076 0.0000
# 6 0.0000 0.0000 0.0000 0.0000 0.0000 26.3088
#
#
#
# Elastic Compliance Matrix: (Units=1/GPa)
#
#
# Indices 1 2 3 4 5 6 
#
# 1 0.181775 -0.000083 0.016332 0.000000 0.000000 0.000000
# 2 -0.000083 0.011429 -0.002817 0.000000 0.000000 0.000000
# 3 0.016332 -0.002817 0.012068 0.000000 0.000000 0.000000
# 4 0.000000 0.000000 0.000000 -0.049467 0.000000 0.000000
# 5 0.000000 0.000000 0.000000 0.000000 0.175204 0.000000
# 6 0.000000 0.000000 0.000000 0.000000 0.000000 0.038010
#
#
# Mechanical properties :
#
#
# Convention : Reuss Voigt Hill
#
# Bulk Modulus (GPa) = 4.30783 25.32774 14.81778
# Shear Modulus (GPa) = 11.91797 14.84359 13.38078
#
# Velocity S-wave (km/s) = 2.38761 2.66460 2.52990
# Velocity P-wave (km/s) = 3.10829 4.64562 3.95242
#
# Compressibility (1/GPa) = 0.23213545
#
# Stress axis : x y z
#
# Youngs Moduli (GPa) = 5.50130 87.49832 82.86215
#
# Poissons Ratio (x) = 0.00726 -1.35328
# Poissons Ratio (y) = 0.00046 0.23343
# Poissons Ratio (z) = -0.08985 0.24649
#
# Static dielectric constant tensor:
#      x y z
#    x 1.763710 0.000000 0.000000 
#    y 0.000000 1.816410 0.000000 
#    z 0.000000 0.000000 1.779670 
# 
# From -- ./inp_files/31474.got.cif
#   From: 2010.05.17/outbox.cif.g08.bks.cpg/sg58_16_cif.got.tgz:31474.got - 2010.06.03 14:20:14.
