data_PCOD9442868
_publ_section_title
;
Structure prediction by ZEFSAII (Michael W. Deem and Ramdas Pophale) SiO2 
 PCOD9442868
Probable space group: P N N M
;
_chemical_formula_sum "Si O2"
_cell_formula_units_Z 56
_cell_length_a 21.170654
_cell_length_b 7.001187
_cell_length_c 19.620434
_cell_angle_alpha 90.000000
_cell_angle_beta 90.000000
_cell_angle_gamma 90.000000
_cell_volume 2908.134990
_symmetry_space_group_name_H-M "P N N M"
_symmetry_group_IT_number 58
_symmetry_cell_setting 'orthorhombic'
loop_
_space_group_symop_operation_xyz
x,y,z
-x,-y,z
1/2+x,1/2-y,1/2-z
1/2-x,1/2+y,1/2-z
-x,-y,-z
x,y,-z
1/2-x,1/2+y,1/2+z
1/2+x,1/2-y,1/2+z
loop_
_atom_site_type_symbol
_atom_site_label
_atom_site_fract_x
_atom_site_fract_y
_atom_site_fract_z
Si Si1 0.727548 0.237449 0.921641
Si Si2 0.429283 0.522945 0.710349
Si Si3 0.705852 0.447114 0.664412
Si Si4 0.608240 0.716396 0.161385
Si Si5 0.419263 0.633394 0.076539
Si Si6 0.747600 0.556244 0.184907
Si Si7 0.559733 0.115503 0.802159
O O1 0.652352 0.280511 0.918360
O O2 0.756368 0.376531 0.864096
O O3 0.752854 0.032429 0.896933
O O4 0.746031 0.274595 0.000000
O O5 0.500000 0.500000 0.680579
O O6 0.366813 0.482242 0.665984
O O7 0.426319 0.375111 0.773185
O O8 0.418688 0.730512 0.746440
O O9 0.740892 0.502090 0.735801
O O10 0.703120 0.218835 0.666898
O O11 0.584164 0.589620 0.097586
O O12 0.680528 0.652334 0.167606
O O13 0.603133 0.943735 0.168994
O O14 0.457010 0.754516 0.132362
O O15 0.441666 0.658087 0.000000
O O16 0.500000 0.000000 0.775153
#
# Coordination Sequence:
#
# PCOD9442868 Si02
#       7
#     8   8   8   8   8   8   8
#     4  10  21  39  57  84 120 151 182 230 297 355
#     4  10  21  36  51  79 110 143 184 233 289 343
#     4  11  21  33  60  87 117 145 191 239 287 344
#     4   9  19  33  51  71 107 142 179 225 284 333
#     4   9  20  35  51  74 108 144 185 230 274 339
#     4  10  20  33  56  88 114 143 184 236 287 342
#     4  11  20  32  53  73 104 149 191 232 280 333
#
# _framework density 19.256328
#
# number of rings (size 3 to 8) (size 9 to 14) (size 15 to 20)
#    0.000    2.000    2.857    1.714    2.000    1.429 
#    0.000    3.571    0.000    0.429    0.000    1.000 
#    0.000    0.000    0.000    0.000    0.000    0.000 
#
# Total GULP energy -312101.972271 kJ/mol
# GULP energy per Si atom -5573.249505 kJ/mol
# Density = 1.921250 g / cm^3
# Si number density = 19.256328 Si / 1000 Ang^3
#
#
#
# Elastic Constant Matrix: (Units=GPa)
#
#
# Indices 1 2 3 4 5 6 
#
# 1 55.5803 6.1152 12.4800 0.0000 0.0000 0.0000
# 2 6.1152 82.1061 15.5561 0.0000 0.0000 0.0000
# 3 12.4800 15.5561 45.0374 0.0000 0.0000 0.0000
# 4 0.0000 0.0000 0.0000 17.8645 0.0000 0.0000
# 5 0.0000 0.0000 0.0000 0.0000 15.8084 0.0000
# 6 0.0000 0.0000 0.0000 0.0000 0.0000 29.7538
#
#
#
# Elastic Compliance Matrix: (Units=1/GPa)
#
#
# Indices 1 2 3 4 5 6 
#
# 1 0.019201 -0.000452 -0.005165 0.000000 0.000000 0.000000
# 2 -0.000452 0.013043 -0.004380 0.000000 0.000000 0.000000
# 3 -0.005165 -0.004380 0.025148 0.000000 0.000000 0.000000
# 4 0.000000 0.000000 0.000000 0.055977 0.000000 0.000000
# 5 0.000000 0.000000 0.000000 0.000000 0.063258 0.000000
# 6 0.000000 0.000000 0.000000 0.000000 0.000000 0.033609
#
#
# Mechanical properties :
#
#
# Convention : Reuss Voigt Hill
#
# Bulk Modulus (GPa) = 26.73835 27.89182 27.31509
# Shear Modulus (GPa) = 20.60203 22.59018 21.59611
#
# Velocity S-wave (km/s) = 3.27446 3.42881 3.35252
# Velocity P-wave (km/s) = 5.31147 5.49469 5.40386
#
# Compressibility (1/GPa) = 0.03739946
#
# Stress axis : x y z
#
# Youngs Moduli (GPa) = 52.07963 76.67042 39.76495
#
# Poissons Ratio (x) = 0.03462 0.20538
# Poissons Ratio (y) = 0.02352 0.17417
# Poissons Ratio (z) = 0.26898 0.33581
#
# Static dielectric constant tensor:
#      x y z
#    x 1.767750 0.000000 0.000000 
#    y 0.000000 1.729140 0.000000 
#    z 0.000000 0.000000 1.625850 
# 
# From -- ./inp_files/30526.got.cif
#   From: 2010.05.17/outbox.cif.g08.bks.cpg/sg58_16_cif.got.tgz:30526.got - 2010.06.03 14:20:14.
