data_PCOD9442934
_publ_section_title
;
Structure prediction by ZEFSAII (Michael W. Deem and Ramdas Pophale) SiO2 
 PCOD9442934
Probable space group: P N N M
;
_chemical_formula_sum "Si O2"
_cell_formula_units_Z 58
_cell_length_a 12.476803
_cell_length_b 29.525327
_cell_length_c 7.337399
_cell_angle_alpha 90.000000
_cell_angle_beta 90.000000
_cell_angle_gamma 90.000000
_cell_volume 2702.963433
_symmetry_space_group_name_H-M "P N N M"
_symmetry_group_IT_number 58
_symmetry_cell_setting 'orthorhombic'
loop_
_space_group_symop_operation_xyz
x,y,z
-x,-y,z
1/2+x,1/2-y,1/2-z
1/2-x,1/2+y,1/2-z
-x,-y,-z
x,y,-z
1/2-x,1/2+y,1/2+z
1/2+x,1/2-y,1/2+z
loop_
_atom_site_type_symbol
_atom_site_label
_atom_site_fract_x
_atom_site_fract_y
_atom_site_fract_z
Si Si1 0.140741 0.719590 0.788124
Si Si2 0.935012 0.182527 0.776597
Si Si3 0.831856 0.844847 0.791802
Si Si4 0.177231 0.577040 0.721255
Si Si5 0.751172 0.113483 0.220762
Si Si6 0.484377 0.862438 0.779913
Si Si7 0.000000 0.000000 0.500000
Si Si8 0.803493 0.010136 0.779497
O O1 0.105213 0.768199 0.715382
O O2 0.245620 0.695757 0.706473
O O3 0.043272 0.684089 0.771301
O O4 0.166874 0.725338 0.000000
O O5 0.850257 0.144444 0.720173
O O6 0.054631 0.170183 0.712978
O O7 0.937533 0.184225 0.000000
O O8 0.768742 0.887829 0.711745
O O9 0.855693 0.857930 0.000000
O O10 0.175958 0.580231 0.500000
O O11 0.063280 0.597034 0.781242
O O12 0.211117 0.526375 0.764857
O O13 0.636509 0.131795 0.285212
O O14 0.768676 0.061179 0.266600
O O15 0.749903 0.115874 0.000000
O O16 0.481752 0.863321 0.000000
O O17 0.093501 0.001512 0.660237
O O18 0.823410 0.007723 0.000000
#
# Coordination Sequence:
#
# PCOD9442934 Si02
#       8
#     8   8   8   8   8   8   2   8
#     4  10  20  34  52  81 112 147 189 239 298 350
#     4   9  19  33  53  80 113 147 190 241 296 353
#     4   9  18  35  56  77 107 145 193 236 281 349
#     4   8  16  33  59  87 109 146 195 241 287 355
#     4   9  19  36  60  87 112 153 197 243 297 357
#     4   9  18  36  61  84 114 149 198 244 290 357
#     4  12  26  40  60  92 128 160 206 252 282 370
#     4  10  22  41  64  89 123 164 202 245 311 355
#
# _framework density 21.457929
#
# number of rings (size 3 to 8) (size 9 to 14) (size 15 to 20)
#    0.000    2.759    0.000    1.448    3.862    0.552 
#    6.207    3.448    3.034    0.828    0.000    0.000 
#    0.000    0.000    0.000    0.000    0.000    0.000 
#
# Total GULP energy -323241.913648 kJ/mol
# GULP energy per Si atom -5573.136442 kJ/mol
# Density = 2.140909 g / cm^3
# Si number density = 21.457929 Si / 1000 Ang^3
#
#
#
# Elastic Constant Matrix: (Units=GPa)
#
#
# Indices 1 2 3 4 5 6 
#
# 1 25.8565 -158.6978 14.8719 0.0000 0.0000 0.0000
# 2 -158.6978 -294.9590 29.9857 0.0000 0.0000 0.0000
# 3 14.8719 29.9857 84.7872 0.0000 0.0000 0.0000
# 4 0.0000 0.0000 0.0000 10.4967 0.0000 0.0000
# 5 0.0000 0.0000 0.0000 0.0000 -67.9454 0.0000
# 6 0.0000 0.0000 0.0000 0.0000 0.0000 -12.2411
#
#
#
# Elastic Compliance Matrix: (Units=1/GPa)
#
#
# Indices 1 2 3 4 5 6 
#
# 1 0.008991 -0.004824 0.000129 0.000000 0.000000 0.000000
# 2 -0.004824 -0.000684 0.001088 0.000000 0.000000 0.000000
# 3 0.000129 0.001088 0.011387 0.000000 0.000000 0.000000
# 4 0.000000 0.000000 0.000000 0.095268 0.000000 0.000000
# 5 0.000000 0.000000 0.000000 0.000000 -0.014718 0.000000
# 6 0.000000 0.000000 0.000000 0.000000 0.000000 -0.081692
#
#
# Mechanical properties :
#
#
# Convention : Reuss Voigt Hill
#
# Bulk Modulus (GPa) = 80.13132 -45.77728 17.17702
# Shear Modulus (GPa) = 167.08067 -18.63631 74.22218
#
# Velocity S-wave (km/s) = 8.83365 -2.95024 5.88768
# Velocity P-wave (km/s) = 11.89407 5.74326 7.36492
#
# Compressibility (1/GPa) = 0.01247951
#
# Stress axis : x y z
#
# Youngs Moduli (GPa) = 111.22306 -1461.88225 87.82128
#
# Poissons Ratio (x) = -7.05256 -0.01134
# Poissons Ratio (y) = 0.53657 -0.09556
# Poissons Ratio (z) = -0.01436 1.59070
#
# Static dielectric constant tensor:
#      x y z
#    x 1.738120 0.000000 0.000000 
#    y 0.000000 1.746800 0.000000 
#    z 0.000000 0.000000 1.856180 
# 
# From -- ./inp_files/4570.got.cif
#   From: 2010.05.17/outbox.cif.g08.bks.cpg/sg58_3_cif.got.tgz:4570.got - 2010.06.03 14:20:14.
