data_PCOD9442690
_publ_section_title
;
Structure prediction by ZEFSAII (Michael W. Deem and Ramdas Pophale) SiO2 
 PCOD9442690
Probable space group: P N N M
;
_chemical_formula_sum "Si O2"
_cell_formula_units_Z 64
_cell_length_a 14.973822
_cell_length_b 12.554168
_cell_length_c 15.594623
_cell_angle_alpha 90.000000
_cell_angle_beta 90.000000
_cell_angle_gamma 90.000000
_cell_volume 2931.537692
_symmetry_space_group_name_H-M "P N N M"
_symmetry_group_IT_number 58
_symmetry_cell_setting 'orthorhombic'
loop_
_space_group_symop_operation_xyz
x,y,z
-x,-y,z
1/2+x,1/2-y,1/2-z
1/2-x,1/2+y,1/2-z
-x,-y,-z
x,y,-z
1/2-x,1/2+y,1/2+z
1/2+x,1/2-y,1/2+z
loop_
_atom_site_type_symbol
_atom_site_label
_atom_site_fract_x
_atom_site_fract_y
_atom_site_fract_z
Si Si1 0.814274 0.602198 0.838166
Si Si2 0.495905 0.161182 0.601800
Si Si3 0.947380 0.104531 0.898948
Si Si4 0.355611 0.766649 0.096541
Si Si5 0.474803 0.120546 0.894896
Si Si6 0.272730 0.178768 0.897415
Si Si7 0.739105 0.553397 0.654170
Si Si8 0.796273 0.382325 0.901355
O O1 0.920474 0.609857 0.851576
O O2 0.770649 0.716372 0.857275
O O3 0.786259 0.562995 0.745001
O O4 0.778619 0.507715 0.898869
O O5 0.501255 0.132590 0.500000
O O6 0.503727 0.288506 0.608707
O O7 0.396235 0.134188 0.634265
O O8 0.855742 0.111403 0.847643
O O9 0.923234 0.093564 0.000000
O O10 0.000000 0.000000 0.872616
O O11 0.450433 0.796003 0.137316
O O12 0.304336 0.879686 0.092885
O O13 0.285341 0.684792 0.138676
O O14 0.373359 0.726815 0.000000
O O15 0.375730 0.157333 0.871091
O O16 0.500000 0.000000 0.867830
O O17 0.478922 0.120297 0.000000
O O18 0.225268 0.067820 0.873630
O O19 0.269287 0.191590 0.000000
O O20 0.803129 0.343274 0.000000
#
# Coordination Sequence:
#
# PCOD9442690 Si02
#       8
#     8   8   8   8   8   8   8   8
#     4  12  27  41  59  96 139 167 210 271 343 397
#     4  10  20  40  68  93 122 168 226 277 322 393
#     4  10  20  38  66  98 129 171 229 281 328 392
#     4  10  19  38  65  91 120 162 217 268 314 387
#     4   9  17  34  61  93 119 153 217 273 312 372
#     4  11  23  43  69  93 126 175 227 272 317 391
#     4  12  24  39  61  95 137 171 207 268 346 399
#     4  10  21  41  68  89 121 172 225 272 326 403
#
# _framework density 21.831547
#
# number of rings (size 3 to 8) (size 9 to 14) (size 15 to 20)
#    0.000    1.500    2.500    3.375    1.750    2.000 
#    6.750    0.625    0.000    3.000    0.000    0.000 
#    0.000    0.000    0.000    0.000    0.000    0.000 
#
# Total GULP energy -357627.062615 kJ/mol
# GULP energy per Si atom -5587.922853 kJ/mol
# Density = 2.178186 g / cm^3
# Si number density = 21.831547 Si / 1000 Ang^3
#
#
#
# Elastic Constant Matrix: (Units=GPa)
#
#
# Indices 1 2 3 4 5 6 
#
# 1 101.5324 24.4018 7.9754 0.0000 0.0000 0.0000
# 2 24.4018 115.8409 -10.7330 0.0000 0.0000 0.0000
# 3 7.9754 -10.7330 38.4657 0.0000 0.0000 0.0000
# 4 0.0000 0.0000 0.0000 -4.5998 0.0000 0.0000
# 5 0.0000 0.0000 0.0000 0.0000 72.6683 0.0000
# 6 0.0000 0.0000 0.0000 0.0000 0.0000 28.4033
#
#
#
# Elastic Compliance Matrix: (Units=1/GPa)
#
#
# Indices 1 2 3 4 5 6 
#
# 1 0.010684 -0.002521 -0.002919 0.000000 0.000000 0.000000
# 2 -0.002521 0.009457 0.003161 0.000000 0.000000 0.000000
# 3 -0.002919 0.003161 0.027484 0.000000 0.000000 0.000000
# 4 0.000000 0.000000 0.000000 -0.217398 0.000000 0.000000
# 5 0.000000 0.000000 0.000000 0.000000 0.013761 0.000000
# 6 0.000000 0.000000 0.000000 0.000000 0.000000 0.035207
#
#
# Mechanical properties :
#
#
# Convention : Reuss Voigt Hill
#
# Bulk Modulus (GPa) = 23.21888 33.23637 28.22763
# Shear Modulus (GPa) = -49.07158 34.90732 -7.08213
#
# Velocity S-wave (km/s) = -4.74617 4.00301 -1.80306
# Velocity P-wave (km/s) = 4.40186 6.05166 2.93651
#
# Compressibility (1/GPa) = 0.04306839
#
# Stress axis : x y z
#
# Youngs Moduli (GPa) = 93.59578 105.74737 36.38416
#
# Poissons Ratio (x) = 0.26659 0.10619
# Poissons Ratio (y) = 0.23596 -0.11502
# Poissons Ratio (z) = 0.27318 -0.33430
#
# Static dielectric constant tensor:
#      x y z
#    x 1.810270 0.000000 0.000000 
#    y 0.000000 1.794800 0.000000 
#    z 0.000000 0.000000 1.835710 
# 
# From -- ./inp_files/27004.got.cif
#   From: 2010.05.17/outbox.cif.g08.bks.cpg/sg58_14_cif.got.tgz:27004.got - 2010.06.03 14:20:14.
