data_PCOD9442646
_publ_section_title
;
Structure prediction by ZEFSAII (Michael W. Deem and Ramdas Pophale) SiO2 
 PCOD9442646
Probable space group: P N N M
;
_chemical_formula_sum "Si O2"
_cell_formula_units_Z 58
_cell_length_a 18.229264
_cell_length_b 15.248455
_cell_length_c 9.487605
_cell_angle_alpha 90.000000
_cell_angle_beta 90.000000
_cell_angle_gamma 90.000000
_cell_volume 2637.251647
_symmetry_space_group_name_H-M "P N N M"
_symmetry_group_IT_number 58
_symmetry_cell_setting 'orthorhombic'
loop_
_space_group_symop_operation_xyz
x,y,z
-x,-y,z
1/2+x,1/2-y,1/2-z
1/2-x,1/2+y,1/2-z
-x,-y,-z
x,y,-z
1/2-x,1/2+y,1/2+z
1/2+x,1/2-y,1/2+z
loop_
_atom_site_type_symbol
_atom_site_label
_atom_site_fract_x
_atom_site_fract_y
_atom_site_fract_z
Si Si1 0.772442 0.797129 0.661230
Si Si2 0.074871 0.095350 0.344965
Si Si3 0.362891 0.452451 0.658821
Si Si4 0.504401 0.828700 0.343602
Si Si5 0.000000 0.500000 0.000000
Si Si6 0.419992 0.303446 0.839023
Si Si7 0.793905 0.449352 0.339141
Si Si8 0.140484 0.368877 0.671028
O O1 0.745500 0.795802 0.500000
O O2 0.853253 0.843224 0.661788
O O3 0.792079 0.697457 0.704075
O O4 0.721156 0.860773 0.752576
O O5 0.077670 0.051041 0.500000
O O6 0.000379 0.149748 0.337321
O O7 0.082411 0.024583 0.223150
O O8 0.381844 0.426240 0.500000
O O9 0.366240 0.370145 0.761928
O O10 0.284756 0.500558 0.657333
O O11 0.492220 0.786468 0.500000
O O12 0.566235 0.781274 0.255033
O O13 0.429710 0.832960 0.253930
O O14 0.522995 0.927915 0.380384
O O15 0.399995 0.285796 0.000000
O O16 0.814909 0.427927 0.500000
O O17 0.844817 0.529903 0.287490
O O18 0.130799 0.365192 0.500000
#
# Coordination Sequence:
#
# PCOD9442646 Si02
#       8
#     8   8   8   8   2   8   8   8
#     4   9  17  32  54  80 111 146 192 241 285 342
#     4   9  17  30  48  76 111 145 183 230 276 338
#     4  10  20  32  47  77 121 160 186 221 286 344
#     4  10  21  39  62  84 112 143 189 248 292 349
#     4   8  24  44  58  84 118 136 178 240 314 334
#     4  11  20  33  55  83 111 150 193 234 283 346
#     4   9  20  36  54  79 120 158 192 241 295 348
#     4  10  19  37  63  87 113 152 200 242 294 354
#
# _framework density 21.992592999999999
#
# number of rings (size 3 to 8) (size 9 to 14) (size 15 to 20)
#    0.414    1.931    1.379    1.655    0.000    4.414 
#    0.000    2.759    3.034    1.655    0.000    0.000 
#    0.000    0.000    0.000    0.000    0.000    0.000 
#
# Total GULP energy -323211.064617 kJ/mol
# GULP energy per Si atom -5572.604562 kJ/mol
# Density = 2.194254 g / cm^3
# Si number density = 21.992593 Si / 1000 Ang^3
#
#
#
# Elastic Constant Matrix: (Units=GPa)
#
#
# Indices 1 2 3 4 5 6 
#
# 1 62.8799 16.5207 27.9821 0.0000 0.0000 0.0000
# 2 16.5207 99.6601 56.5874 0.0000 0.0000 0.0000
# 3 27.9821 56.5874 107.0114 0.0000 0.0000 0.0000
# 4 0.0000 0.0000 0.0000 17.4254 0.0000 0.0000
# 5 0.0000 0.0000 0.0000 0.0000 -95.7405 0.0000
# 6 0.0000 0.0000 0.0000 0.0000 0.0000 26.4790
#
#
#
# Elastic Compliance Matrix: (Units=1/GPa)
#
#
# Indices 1 2 3 4 5 6 
#
# 1 0.018011 -0.000445 -0.004474 0.000000 0.000000 0.000000
# 2 -0.000445 0.014351 -0.007472 0.000000 0.000000 0.000000
# 3 -0.004474 -0.007472 0.014466 0.000000 0.000000 0.000000
# 4 0.000000 0.000000 0.000000 0.057388 0.000000 0.000000
# 5 0.000000 0.000000 0.000000 0.000000 -0.010445 0.000000
# 6 0.000000 0.000000 0.000000 0.000000 0.000000 0.037766
#
#
# Mechanical properties :
#
#
# Convention : Reuss Voigt Hill
#
# Bulk Modulus (GPa) = 45.36244 52.41465 48.88855
# Shear Modulus (GPa) = 30.54962 0.86351 15.70657
#
# Velocity S-wave (km/s) = 3.73109 0.62729 2.67531
# Velocity P-wave (km/s) = 6.26358 4.94057 5.64099
#
# Compressibility (1/GPa) = 0.02204467
#
# Stress axis : x y z
#
# Youngs Moduli (GPa) = 55.52037 69.68327 69.12740
#
# Poissons Ratio (x) = 0.03103 0.30930
# Poissons Ratio (y) = 0.02472 0.51653
# Poissons Ratio (z) = 0.24842 0.52069
#
# Static dielectric constant tensor:
#      x y z
#    x 1.835930 0.000000 0.000000 
#    y 0.000000 1.850710 0.000000 
#    z 0.000000 0.000000 1.777000 
# 
# From -- ./inp_files/9838.got.cif
#   From: 2010.05.17/outbox.cif.g08.bks.cpg/sg58_5_cif.got.tgz:9838.got - 2010.06.03 14:20:14.
