data_PCOD9442777
_publ_section_title
;
Structure prediction by ZEFSAII (Michael W. Deem and Ramdas Pophale) SiO2 
 PCOD9442777
Probable space group: P N N M
;
_chemical_formula_sum "Si O2"
_cell_formula_units_Z 28
_cell_length_a 11.810372
_cell_length_b 7.959373
_cell_length_c 13.352495
_cell_angle_alpha 90.000000
_cell_angle_beta 90.000000
_cell_angle_gamma 90.000000
_cell_volume 1255.176671
_symmetry_space_group_name_H-M "P N N M"
_symmetry_group_IT_number 58
_symmetry_cell_setting 'orthorhombic'
loop_
_space_group_symop_operation_xyz
x,y,z
-x,-y,z
1/2+x,1/2-y,1/2-z
1/2-x,1/2+y,1/2-z
-x,-y,-z
x,y,-z
1/2-x,1/2+y,1/2+z
1/2+x,1/2-y,1/2+z
loop_
_atom_site_type_symbol
_atom_site_label
_atom_site_fract_x
_atom_site_fract_y
_atom_site_fract_z
Si Si1 0.153794 0.918002 0.650092
Si Si2 0.558825 0.220449 0.105984
Si Si3 0.000000 0.000000 0.166922
Si Si4 0.414324 0.854815 0.661882
O O1 0.284445 0.884767 0.635674
O O2 0.073668 0.771296 0.608695
O O3 0.121003 0.098882 0.606215
O O4 0.106175 0.939494 0.763599
O O5 0.584838 0.145322 0.214962
O O6 0.587214 0.135074 0.000000
O O7 0.956583 0.825968 0.121832
O O8 0.500000 0.000000 0.629317
#
# Coordination Sequence:
#
# PCOD9442777 Si02
#       4
#     8   8   4   8
#     4   8  16  32  54  80 109 149 182 232 278 335
#     4   9  19  34  56  85 114 146 190 241 288 332
#     4   8  20  30  49  82 107 142 186 232 276 322
#     4  10  20  32  56  86 114 146 192 235 287 340
#
# _framework density 22.307617
#
# number of rings (size 3 to 8) (size 9 to 14) (size 15 to 20)
#    0.000    4.000    0.000    1.714   16.000    0.571 
#    0.000    0.000    0.000    3.429    0.000   13.000 
#    0.000    0.000    0.000    0.000    0.000    0.000 
#
# Total GULP energy -155957.229398 kJ/mol
# GULP energy per Si atom -5569.901050 kJ/mol
# Density = 2.225684 g / cm^3
# Si number density = 22.307617 Si / 1000 Ang^3
#
#
#
# Elastic Constant Matrix: (Units=GPa)
#
#
# Indices 1 2 3 4 5 6 
#
# 1 199.7905 60.7444 3.0974 0.0000 0.0000 0.0000
# 2 60.7444 94.6520 4.6633 0.0000 0.0000 0.0000
# 3 3.0974 4.6633 71.8799 0.0000 0.0000 0.0000
# 4 0.0000 0.0000 0.0000 -20.4242 0.0000 0.0000
# 5 0.0000 0.0000 0.0000 0.0000 -8.6921 0.0000
# 6 0.0000 0.0000 0.0000 0.0000 0.0000 13.1918
#
#
#
# Elastic Compliance Matrix: (Units=1/GPa)
#
#
# Indices 1 2 3 4 5 6 
#
# 1 0.006219 -0.003990 -0.000009 0.000000 0.000000 0.000000
# 2 -0.003990 0.013160 -0.000682 0.000000 0.000000 0.000000
# 3 -0.000009 -0.000682 0.013957 0.000000 0.000000 0.000000
# 4 0.000000 0.000000 0.000000 -0.048961 0.000000 0.000000
# 5 0.000000 0.000000 0.000000 0.000000 -0.115047 0.000000
# 6 0.000000 0.000000 0.000000 0.000000 0.000000 0.075805
#
#
# Mechanical properties :
#
#
# Convention : Reuss Voigt Hill
#
# Bulk Modulus (GPa) = 41.71490 55.92582 48.82036
# Shear Modulus (GPa) = -133.27756 16.66959 -58.30398
#
# Velocity S-wave (km/s) = -7.73789 2.73657 -5.11792
# Velocity P-wave (km/s) = 7.81620 5.92535 3.60438
#
# Compressibility (1/GPa) = 0.02397225
#
# Stress axis : x y z
#
# Youngs Moduli (GPa) = 160.80668 75.99041 71.65012
#
# Poissons Ratio (x) = 0.30324 0.00065
# Poissons Ratio (y) = 0.64169 0.04885
# Poissons Ratio (z) = 0.00146 0.05181
#
# Static dielectric constant tensor:
#      x y z
#    x 1.756220 0.000000 0.000000 
#    y 0.000000 1.834610 0.000000 
#    z 0.000000 0.000000 1.945860 
# 
# From -- ./inp_files/20554.got.cif
#   From: 2010.05.17/outbox.cif.g08.bks.cpg/sg58_11_cif.got.tgz:20554.got - 2010.06.03 14:20:14.
