data_PCOD9442327
_publ_section_title
;
Structure prediction by ZEFSAII (Michael W. Deem and Ramdas Pophale) SiO2 
 PCOD9442327
Probable space group: P N N M
;
_chemical_formula_sum "Si O2"
_cell_formula_units_Z 64
_cell_length_a 8.179089
_cell_length_b 11.851951
_cell_length_c 29.388217
_cell_angle_alpha 90.000000
_cell_angle_beta 90.000000
_cell_angle_gamma 90.000000
_cell_volume 2848.839742
_symmetry_space_group_name_H-M "P N N M"
_symmetry_group_IT_number 58
_symmetry_cell_setting 'orthorhombic'
loop_
_space_group_symop_operation_xyz
x,y,z
-x,-y,z
1/2+x,1/2-y,1/2-z
1/2-x,1/2+y,1/2-z
-x,-y,-z
x,y,-z
1/2-x,1/2+y,1/2+z
1/2+x,1/2-y,1/2+z
loop_
_atom_site_type_symbol
_atom_site_label
_atom_site_fract_x
_atom_site_fract_y
_atom_site_fract_z
Si Si1 0.741216 0.250814 0.052044
Si Si2 0.572089 0.126517 0.550994
Si Si3 0.213136 0.342452 0.701626
Si Si4 0.302363 0.511344 0.550785
Si Si5 0.433994 0.775666 0.702248
Si Si6 0.181045 0.058537 0.848026
Si Si7 0.741670 0.068662 0.639820
Si Si8 0.409671 0.661303 0.135690
O O1 0.734311 0.116023 0.054920
O O2 0.607786 0.311351 0.082641
O O3 0.924930 0.290380 0.066134
O O4 0.726176 0.286408 0.000000
O O5 0.624128 0.160083 0.500000
O O6 0.708292 0.113219 0.588990
O O7 0.500000 0.000000 0.548531
O O8 0.390429 0.282936 0.705795
O O9 0.123674 0.316710 0.748563
O O10 0.224755 0.470676 0.684502
O O11 0.129519 0.275119 0.661159
O O12 0.500000 0.500000 0.549062
O O13 0.253134 0.555872 0.500000
O O14 0.261220 0.570064 0.599191
O O15 0.328686 0.676890 0.677775
O O16 0.403674 0.882427 0.669842
O O17 0.000000 0.000000 0.851400
O O18 0.917296 0.118586 0.653057
O O19 0.773909 0.935684 0.643554
#
# Coordination Sequence:
#
# PCOD9442327 Si02
#       8
#     8   8   8   8   8   8   8   8
#     4  10  19  34  60  89 120 160 209 253 304 375
#     4  10  20  35  57  89 122 157 204 258 306 360
#     4  11  23  43  66  88 125 160 206 254 318 371
#     4   9  17  31  57  92 121 156 201 248 304 365
#     4  11  25  42  65  94 120 161 205 259 317 375
#     4   9  20  38  62  91 125 157 198 258 308 365
#     4  11  25  39  60  87 126 164 209 253 312 367
#     4  11  23  41  59  87 123 168 207 256 306 374
#
# _framework density 22.465285999999999
#
# number of rings (size 3 to 8) (size 9 to 14) (size 15 to 20)
#    0.000    1.750    2.500    1.500    5.250    0.500 
#    0.000    3.125    0.000    0.000    0.000    1.750 
#    0.000    0.000    0.000    0.000    0.000    0.000 
#
# Total GULP energy -357433.318289 kJ/mol
# GULP energy per Si atom -5584.895598 kJ/mol
# Density = 2.241415 g / cm^3
# Si number density = 22.465286 Si / 1000 Ang^3
#
#
#
# Elastic Constant Matrix: (Units=GPa)
#
#
# Indices 1 2 3 4 5 6 
#
# 1 29.1298 -7.1330 1.9838 0.0000 0.0000 0.0000
# 2 -7.1330 51.3446 1.9595 0.0000 0.0000 0.0000
# 3 1.9838 1.9595 74.9915 0.0000 0.0000 0.0000
# 4 0.0000 0.0000 0.0000 23.0012 0.0000 0.0000
# 5 0.0000 0.0000 0.0000 0.0000 30.6069 0.0000
# 6 0.0000 0.0000 0.0000 0.0000 0.0000 12.7376
#
#
#
# Elastic Compliance Matrix: (Units=1/GPa)
#
#
# Indices 1 2 3 4 5 6 
#
# 1 0.035624 0.004990 -0.001073 0.000000 0.000000 0.000000
# 2 0.004990 0.020195 -0.000660 0.000000 0.000000 0.000000
# 3 -0.001073 -0.000660 0.013380 0.000000 0.000000 0.000000
# 4 0.000000 0.000000 0.000000 0.043476 0.000000 0.000000
# 5 0.000000 0.000000 0.000000 0.000000 0.032672 0.000000
# 6 0.000000 0.000000 0.000000 0.000000 0.000000 0.078508
#
#
# Mechanical properties :
#
#
# Convention : Reuss Voigt Hill
#
# Bulk Modulus (GPa) = 13.20755 16.56516 14.88636
# Shear Modulus (GPa) = 20.61187 23.84617 22.22902
#
# Velocity S-wave (km/s) = 3.03231 3.26155 3.14902
# Velocity P-wave (km/s) = 4.26048 4.64471 4.45674
#
# Compressibility (1/GPa) = 0.07571429
#
# Stress axis : x y z
#
# Youngs Moduli (GPa) = 28.07087 49.51807 74.73587
#
# Poissons Ratio (x) = -0.24710 0.08018
# Poissons Ratio (y) = -0.14007 0.04930
# Poissons Ratio (z) = 0.03011 0.03267
#
# Static dielectric constant tensor:
#      x y z
#    x 1.866100 0.000000 0.000000 
#    y 0.000000 1.827300 0.000000 
#    z 0.000000 0.000000 1.877940 
# 
# From -- ./inp_files/34755.got.cif
#   From: 2010.05.17/outbox.cif.g08.bks.cpg/sg58_18_cif.got.tgz:34755.got - 2010.06.03 14:20:14.
