data_PCOD9442684
_publ_section_title
;
Structure prediction by ZEFSAII (Michael W. Deem and Ramdas Pophale) SiO2 
 PCOD9442684
Probable space group: P N N M
;
_chemical_formula_sum "Si O2"
_cell_formula_units_Z 56
_cell_length_a 21.651692
_cell_length_b 14.905211
_cell_length_c 7.757492
_cell_angle_alpha 90.000000
_cell_angle_beta 90.000000
_cell_angle_gamma 90.000000
_cell_volume 2503.521384
_symmetry_space_group_name_H-M "P N N M"
_symmetry_group_IT_number 58
_symmetry_cell_setting 'orthorhombic'
loop_
_space_group_symop_operation_xyz
x,y,z
-x,-y,z
1/2+x,1/2-y,1/2-z
1/2-x,1/2+y,1/2-z
-x,-y,-z
x,y,-z
1/2-x,1/2+y,1/2+z
1/2+x,1/2-y,1/2+z
loop_
_atom_site_type_symbol
_atom_site_label
_atom_site_fract_x
_atom_site_fract_y
_atom_site_fract_z
Si Si1 0.462614 0.586608 0.211013
Si Si2 0.208944 0.709565 0.211474
Si Si3 0.474102 0.783225 0.798091
Si Si4 0.089469 0.595740 0.208059
Si Si5 0.177475 0.094707 0.300315
Si Si6 0.633595 0.095681 0.300156
Si Si7 0.771945 0.093928 0.802247
O O1 0.500000 0.500000 0.272881
O O2 0.490987 0.682857 0.260647
O O3 0.391499 0.589041 0.271800
O O4 0.462412 0.581087 0.000000
O O5 0.151083 0.648711 0.262273
O O6 0.272598 0.664232 0.274387
O O7 0.202183 0.812221 0.268457
O O8 0.210599 0.710165 0.000000
O O9 0.529429 0.852352 0.770027
O O10 0.411968 0.820735 0.713402
O O11 0.460428 0.778123 0.000000
O O12 0.096857 0.492616 0.262894
O O13 0.086312 0.596246 0.000000
O O14 0.170000 0.121127 0.500000
O O15 0.207610 0.996088 0.291963
O O16 0.649969 0.080372 0.500000
O O17 0.697978 0.104485 0.203518
O O18 0.792079 0.083678 0.000000
#
# Coordination Sequence:
#
# PCOD9442684 Si02
#       7
#     8   8   8   8   8   8   8
#     4   9  20  38  60  86 119 159 200 239 290 357
#     4   9  19  37  58  82 116 160 196 232 295 362
#     4  11  23  38  60  90 120 152 196 253 300 334
#     4  10  21  39  60  83 115 158 201 236 289 365
#     4  10  19  38  63  83 113 159 199 232 284 358
#     4  11  22  40  63  86 117 161 201 232 288 366
#     4  11  22  36  60  91 120 149 191 248 299 338
#
# _framework density 22.368494999999999
#
# number of rings (size 3 to 8) (size 9 to 14) (size 15 to 20)
#    0.000    1.857    1.429    2.571    2.000    5.143 
#    0.000    5.000    0.000    2.143    0.000    0.000 
#    0.000    0.000    0.000    0.000    0.000    0.000 
#
# Total GULP energy -313041.519994 kJ/mol
# GULP energy per Si atom -5590.027143 kJ/mol
# Density = 2.231758 g / cm^3
# Si number density = 22.368495 Si / 1000 Ang^3
#
#
#
# Elastic Constant Matrix: (Units=GPa)
#
#
# Indices 1 2 3 4 5 6 
#
# 1 51.9994 -10.9827 -4.6754 0.0000 0.0000 0.0000
# 2 -10.9827 85.1068 -3.1182 0.0000 0.0000 0.0000
# 3 -4.6754 -3.1182 36.3359 0.0000 0.0000 0.0000
# 4 0.0000 0.0000 0.0000 27.8546 0.0000 0.0000
# 5 0.0000 0.0000 0.0000 0.0000 63.5156 0.0000
# 6 0.0000 0.0000 0.0000 0.0000 0.0000 32.6857
#
#
#
# Elastic Compliance Matrix: (Units=1/GPa)
#
#
# Indices 1 2 3 4 5 6 
#
# 1 0.020052 0.002691 0.002811 0.000000 0.000000 0.000000
# 2 0.002691 0.012148 0.001389 0.000000 0.000000 0.000000
# 3 0.002811 0.001389 0.028002 0.000000 0.000000 0.000000
# 4 0.000000 0.000000 0.000000 0.035901 0.000000 0.000000
# 5 0.000000 0.000000 0.000000 0.000000 0.015744 0.000000
# 6 0.000000 0.000000 0.000000 0.000000 0.000000 0.030594
#
#
# Mechanical properties :
#
#
# Convention : Reuss Voigt Hill
#
# Bulk Modulus (GPa) = 13.51670 15.09883 14.30776
# Shear Modulus (GPa) = 32.61125 37.62574 35.11849
#
# Velocity S-wave (km/s) = 3.82240 4.10577 3.96662
# Velocity P-wave (km/s) = 5.05340 5.40751 5.23345
#
# Compressibility (1/GPa) = 0.07398257
#
# Stress axis : x y z
#
# Youngs Moduli (GPa) = 49.87033 82.31776 35.71196
#
# Poissons Ratio (x) = -0.22149 -0.10039
# Poissons Ratio (y) = -0.13418 -0.04959
# Poissons Ratio (z) = -0.14019 -0.11432
#
# Static dielectric constant tensor:
#      x y z
#    x 1.783030 0.000000 0.000000 
#    y 0.000000 1.814910 0.000000 
#    z 0.000000 0.000000 1.875700 
# 
# From -- ./inp_files/6290.got.cif
#   From: 2010.05.17/outbox.cif.g08.bks.cpg/sg58_4_cif.got.tgz:6290.got - 2010.06.03 14:20:14.
