data_PCOD9442207
_publ_section_title
;
Structure prediction by ZEFSAII (Michael W. Deem and Ramdas Pophale) SiO2 
 PCOD9442207
Probable space group: P N N M
;
_chemical_formula_sum "Si O2"
_cell_formula_units_Z 48
_cell_length_a 18.516567
_cell_length_b 12.280363
_cell_length_c 11.213851
_cell_angle_alpha 90.000000
_cell_angle_beta 90.000000
_cell_angle_gamma 90.000000
_cell_volume 2549.919421
_symmetry_space_group_name_H-M "P N N M"
_symmetry_group_IT_number 58
_symmetry_cell_setting 'orthorhombic'
loop_
_space_group_symop_operation_xyz
x,y,z
-x,-y,z
1/2+x,1/2-y,1/2-z
1/2-x,1/2+y,1/2-z
-x,-y,-z
x,y,-z
1/2-x,1/2+y,1/2+z
1/2+x,1/2-y,1/2+z
loop_
_atom_site_type_symbol
_atom_site_label
_atom_site_fract_x
_atom_site_fract_y
_atom_site_fract_z
Si Si1 0.778091 0.733957 0.369444
Si Si2 0.636034 0.304010 0.363021
Si Si3 0.222941 0.520738 0.131956
Si Si4 0.165420 0.949760 0.191744
Si Si5 0.571351 0.935967 0.645967
Si Si6 0.465111 0.308125 0.357102
O O1 0.816676 0.727192 0.500000
O O2 0.824439 0.740962 0.246230
O O3 0.718544 0.638567 0.367690
O O4 0.736984 0.849735 0.370257
O O5 0.643940 0.261227 0.500000
O O6 0.663449 0.429439 0.363417
O O7 0.550546 0.310339 0.334949
O O8 0.293801 0.467777 0.184680
O O9 0.144940 0.510447 0.193572
O O10 0.214258 0.478079 0.000000
O O11 0.085401 0.900966 0.197656
O O12 0.573726 0.937726 0.500000
O O13 0.564167 0.810077 0.680010
O O14 0.500000 0.000000 0.682319
O O15 0.455990 0.319585 0.500000
#
# Coordination Sequence:
#
# PCOD9442207 Si02
#       6
#     8   8   8   8   8   8
#     4  10  20  36  55  77 111 155 186 217 277 347
#     4  10  22  36  56  88 115 142 189 245 284 324
#     4   9  19  34  51  79 112 144 188 233 277 332
#     4  11  20  33  57  82 112 151 185 232 285 344
#     4   9  17  30  51  77 108 144 182 230 282 329
#     4  10  19  34  56  82 111 142 183 235 288 332
#
# _framework density 18.824124999999999
#
# number of rings (size 3 to 8) (size 9 to 14) (size 15 to 20)
#    0.000    2.167    1.667    2.000    2.333    2.000 
#    0.000    0.833    0.000    4.000    0.000    1.167 
#    0.000    0.000    0.000    0.000    0.000    0.000 
#
# Total GULP energy -267277.608213 kJ/mol
# GULP energy per Si atom -5568.283504 kJ/mol
# Density = 1.878128 g / cm^3
# Si number density = 18.824125 Si / 1000 Ang^3
#
#
#
# Elastic Constant Matrix: (Units=GPa)
#
#
# Indices 1 2 3 4 5 6 
#
# 1 110.2432 17.1013 49.4862 0.0000 0.0000 0.0000
# 2 17.1013 70.9704 18.2802 0.0000 0.0000 0.0000
# 3 49.4862 18.2802 76.8319 0.0000 0.0000 0.0000
# 4 0.0000 0.0000 0.0000 -4.7018 0.0000 0.0000
# 5 0.0000 0.0000 0.0000 0.0000 26.2964 0.0000
# 6 0.0000 0.0000 0.0000 0.0000 0.0000 38.9131
#
#
#
# Elastic Compliance Matrix: (Units=1/GPa)
#
#
# Indices 1 2 3 4 5 6 
#
# 1 0.012830 -0.001026 -0.008019 0.000000 0.000000 0.000000
# 2 -0.001026 0.015092 -0.002930 0.000000 0.000000 0.000000
# 3 -0.008019 -0.002930 0.018878 0.000000 0.000000 0.000000
# 4 0.000000 0.000000 0.000000 -0.212684 0.000000 0.000000
# 5 0.000000 0.000000 0.000000 0.000000 0.038028 0.000000
# 6 0.000000 0.000000 0.000000 0.000000 0.000000 0.025698
#
#
# Mechanical properties :
#
#
# Convention : Reuss Voigt Hill
#
# Bulk Modulus (GPa) = 43.76538 47.53119 45.64828
# Shear Modulus (GPa) = -70.83072 23.64672 -23.59200
#
# Velocity S-wave (km/s) = -6.14079 3.54813 -3.54402
# Velocity P-wave (km/s) = 5.19413 6.48772 2.74878
#
# Compressibility (1/GPa) = 0.02284911
#
# Stress axis : x y z
#
# Youngs Moduli (GPa) = 77.94393 66.25890 52.97260
#
# Poissons Ratio (x) = 0.06798 0.42480
# Poissons Ratio (y) = 0.07996 0.15521
# Poissons Ratio (z) = 0.62506 0.19414
#
# Static dielectric constant tensor:
#      x y z
#    x 1.652020 0.000000 0.000000 
#    y 0.000000 1.695020 0.000000 
#    z 0.000000 0.000000 1.682440 
# 
# From -- ./inp_files/14358.got.cif
#   From: 2010.05.17/outbox.cif.g08.bks.cpg/sg58_8_cif.got.tgz:14358.got - 2010.06.03 14:20:14.
