data_PCOD9442258
_publ_section_title
;
Structure prediction by ZEFSAII (Michael W. Deem and Ramdas Pophale) SiO2 
 PCOD9442258
Probable space group: P N N M
;
_chemical_formula_sum "Si O2"
_cell_formula_units_Z 48
_cell_length_a 12.409610
_cell_length_b 22.692523
_cell_length_c 7.569493
_cell_angle_alpha 90.000000
_cell_angle_beta 90.000000
_cell_angle_gamma 90.000000
_cell_volume 2131.609804
_symmetry_space_group_name_H-M "P N N M"
_symmetry_group_IT_number 58
_symmetry_cell_setting 'orthorhombic'
loop_
_space_group_symop_operation_xyz
x,y,z
-x,-y,z
1/2+x,1/2-y,1/2-z
1/2-x,1/2+y,1/2-z
-x,-y,-z
x,y,-z
1/2-x,1/2+y,1/2+z
1/2+x,1/2-y,1/2+z
loop_
_atom_site_type_symbol
_atom_site_label
_atom_site_fract_x
_atom_site_fract_y
_atom_site_fract_z
Si Si1 0.860017 0.862872 0.212200
Si Si2 0.866598 0.322820 0.716475
Si Si3 0.232093 0.394169 0.203508
Si Si4 0.088757 0.805682 0.710278
Si Si5 0.873903 0.994549 0.213355
Si Si6 0.999093 0.434027 0.297420
O O1 0.758893 0.823820 0.267656
O O2 0.839946 0.929656 0.272731
O O3 0.976972 0.839487 0.262455
O O4 0.859598 0.864878 0.000000
O O5 0.873484 0.324055 0.500000
O O6 0.917074 0.261211 0.777023
O O7 0.924443 0.382435 0.780002
O O8 0.309273 0.343018 0.279733
O O9 0.304279 0.453056 0.208985
O O10 0.119934 0.408464 0.296363
O O11 0.205543 0.380094 0.000000
O O12 0.105714 0.802748 0.500000
O O13 0.863438 0.998649 0.000000
O O14 0.000000 0.000000 0.256287
O O15 0.960611 0.442282 0.500000
O O16 0.000000 0.500000 0.217351
#
# Coordination Sequence:
#
# PCOD9442258 Si02
#       6
#     8   8   8   8   8   8
#     4  10  20  37  62  85 109 145 193 241 281 330
#     4   9  20  38  59  82 112 151 191 237 289 339
#     4  11  23  36  56  86 123 157 186 231 293 353
#     4  10  22  38  54  81 119 154 186 228 289 350
#     4  10  19  34  57  86 113 144 193 241 280 330
#     4  10  21  40  65  87 111 149 199 247 290 339
#
# _framework density 22.518191000000002
#
# number of rings (size 3 to 8) (size 9 to 14) (size 15 to 20)
#    0.000    2.000    1.667    1.500    2.333    4.667 
#    0.000    1.667    0.000    0.000    0.000    0.000 
#    0.000    0.000    0.000    0.000    0.000    0.000 
#
# Total GULP energy -268171.303564 kJ/mol
# GULP energy per Si atom -5586.902158 kJ/mol
# Density = 2.246694 g / cm^3
# Si number density = 22.518191 Si / 1000 Ang^3
#
#
#
# Elastic Constant Matrix: (Units=GPa)
#
#
# Indices 1 2 3 4 5 6 
#
# 1 94.1595 40.0932 -5.7328 0.0000 0.0000 0.0000
# 2 40.0932 154.3492 2.6588 0.0000 0.0000 0.0000
# 3 -5.7328 2.6588 48.4882 0.0000 0.0000 0.0000
# 4 0.0000 0.0000 0.0000 -8.8753 0.0000 0.0000
# 5 0.0000 0.0000 0.0000 0.0000 21.6976 0.0000
# 6 0.0000 0.0000 0.0000 0.0000 0.0000 22.4839
#
#
#
# Elastic Compliance Matrix: (Units=1/GPa)
#
#
# Indices 1 2 3 4 5 6 
#
# 1 0.012064 -0.003161 0.001600 0.000000 0.000000 0.000000
# 2 -0.003161 0.007313 -0.000775 0.000000 0.000000 0.000000
# 3 0.001600 -0.000775 0.020855 0.000000 0.000000 0.000000
# 4 0.000000 0.000000 0.000000 -0.112672 0.000000 0.000000
# 5 0.000000 0.000000 0.000000 0.000000 0.046088 0.000000
# 6 0.000000 0.000000 0.000000 0.000000 0.000000 0.044476
#
#
# Mechanical properties :
#
#
# Convention : Reuss Voigt Hill
#
# Bulk Modulus (GPa) = 28.12181 41.22615 34.67398
# Shear Modulus (GPa) = 144.29781 24.39308 84.34545
#
# Velocity S-wave (km/s) = 8.01372 3.29486 6.12682
# Velocity P-wave (km/s) = 9.90666 5.72909 8.09211
#
# Compressibility (1/GPa) = 0.03555959
#
# Stress axis : x y z
#
# Youngs Moduli (GPa) = 82.89326 136.73711 47.94968
#
# Poissons Ratio (x) = 0.43225 -0.07670
# Poissons Ratio (y) = 0.26204 0.03715
# Poissons Ratio (z) = -0.13260 0.10594
#
# Static dielectric constant tensor:
#      x y z
#    x 1.789630 0.000000 0.000000 
#    y 0.000000 1.838440 0.000000 
#    z 0.000000 0.000000 1.883150 
# 
# From -- ./inp_files/4208.got.cif
#   From: 2010.05.17/outbox.cif.g08.bks.cpg/sg58_3_cif.got.tgz:4208.got - 2010.06.03 14:20:14.
