data_PCOD9442443
_publ_section_title
;
Structure prediction by ZEFSAII (Michael W. Deem and Ramdas Pophale) SiO2 
 PCOD9442443
Probable space group: P N N M
;
_chemical_formula_sum "Si O2"
_cell_formula_units_Z 56
_cell_length_a 15.081148
_cell_length_b 21.489337
_cell_length_c 7.748040
_cell_angle_alpha 90.000000
_cell_angle_beta 90.000000
_cell_angle_gamma 90.000000
_cell_volume 2511.014801
_symmetry_space_group_name_H-M "P N N M"
_symmetry_group_IT_number 58
_symmetry_cell_setting 'orthorhombic'
loop_
_space_group_symop_operation_xyz
x,y,z
-x,-y,z
1/2+x,1/2-y,1/2-z
1/2-x,1/2+y,1/2-z
-x,-y,-z
x,y,-z
1/2-x,1/2+y,1/2+z
1/2+x,1/2-y,1/2+z
loop_
_atom_site_type_symbol
_atom_site_label
_atom_site_fract_x
_atom_site_fract_y
_atom_site_fract_z
Si Si1 0.275967 0.485728 0.208905
Si Si2 0.396577 0.375713 0.209427
Si Si3 0.601914 0.768583 0.703950
Si Si4 0.915795 0.681618 0.798641
Si Si5 0.793871 0.789696 0.703318
Si Si6 0.407825 0.594779 0.789138
Si Si7 0.082888 0.460682 0.702763
O O1 0.315321 0.419075 0.264809
O O2 0.345114 0.538405 0.265824
O O3 0.176239 0.495071 0.270957
O O4 0.274103 0.486416 0.000000
O O5 0.395558 0.305655 0.275579
O O6 0.489756 0.406947 0.263208
O O7 0.394959 0.372778 0.000000
O O8 0.601062 0.783646 0.500000
O O9 0.510359 0.795706 0.776962
O O10 0.694938 0.793358 0.778201
O O11 0.835876 0.721424 0.720531
O O12 0.908517 0.607857 0.781756
O O13 0.913980 0.698101 0.000000
O O14 0.785861 0.802861 0.500000
O O15 0.862821 0.840833 0.770791
O O16 0.409416 0.593710 0.000000
O O17 0.067607 0.451313 0.500000
O O18 0.000000 0.500000 0.773396
#
# Coordination Sequence:
#
# PCOD9442443 Si02
#       7
#     8   8   8   8   8   8   8
#     4  10  21  37  62  91 119 154 198 246 291 343
#     4  10  19  35  59  89 120 155 195 234 288 351
#     4  10  22  36  56  86 117 150 193 241 292 347
#     4  11  23  40  62  89 118 151 196 247 294 344
#     4  10  20  37  60  86 119 160 197 238 296 353
#     4   9  18  34  59  88 119 154 196 241 290 348
#     4  11  26  45  62  84 117 157 200 243 297 358
#
# _framework density 22.301739000000001
#
# number of rings (size 3 to 8) (size 9 to 14) (size 15 to 20)
#    0.000    1.857    1.429    2.143    2.000    6.857 
#    0.000    1.429    0.000    1.714    0.000    0.000 
#    0.000    0.000    0.000    0.000    0.000    0.000 
#
# Total GULP energy -312987.457271 kJ/mol
# GULP energy per Si atom -5589.061737 kJ/mol
# Density = 2.225098 g / cm^3
# Si number density = 22.301739 Si / 1000 Ang^3
#
#
#
# Elastic Constant Matrix: (Units=GPa)
#
#
# Indices 1 2 3 4 5 6 
#
# 1 121.0818 -5.2212 -2.3646 0.0000 0.0000 0.0000
# 2 -5.2212 40.1204 -11.8518 0.0000 0.0000 0.0000
# 3 -2.3646 -11.8518 29.6880 0.0000 0.0000 0.0000
# 4 0.0000 0.0000 0.0000 -1.1454 0.0000 0.0000
# 5 0.0000 0.0000 0.0000 0.0000 13.0234 0.0000
# 6 0.0000 0.0000 0.0000 0.0000 0.0000 31.8667
#
#
#
# Elastic Compliance Matrix: (Units=1/GPa)
#
#
# Indices 1 2 3 4 5 6 
#
# 1 0.008346 0.001454 0.001245 0.000000 0.000000 0.000000
# 2 0.001454 0.028511 0.011498 0.000000 0.000000 0.000000
# 3 0.001245 0.011498 0.038373 0.000000 0.000000 0.000000
# 4 0.000000 0.000000 0.000000 -0.873094 0.000000 0.000000
# 5 0.000000 0.000000 0.000000 0.000000 0.076785 0.000000
# 6 0.000000 0.000000 0.000000 0.000000 0.000000 0.031381
#
#
# Mechanical properties :
#
#
# Convention : Reuss Voigt Hill
#
# Bulk Modulus (GPa) = 9.65038 16.89055 13.27046
# Shear Modulus (GPa) = -7.31473 22.77080 7.72803
#
# Velocity S-wave (km/s) = -1.81301 3.19883 1.86353
# Velocity P-wave (km/s) = 0.21472 4.60797 3.25479
#
# Compressibility (1/GPa) = 0.10362289
#
# Stress axis : x y z
#
# Youngs Moduli (GPa) = 119.81942 35.07460 26.06010
#
# Poissons Ratio (x) = -0.05100 -0.03245
# Poissons Ratio (y) = -0.17421 -0.29963
# Poissons Ratio (z) = -0.14920 -0.40327
#
# Static dielectric constant tensor:
#      x y z
#    x 1.834110 0.000000 0.000000 
#    y 0.000000 1.780210 0.000000 
#    z 0.000000 0.000000 1.841050 
# 
# From -- ./inp_files/6454.got.cif
#   From: 2010.05.17/outbox.cif.g08.bks.cpg/sg58_4_cif.got.tgz:6454.got - 2010.06.03 14:20:14.
