data_PCOD9442698
_publ_section_title
;
Structure prediction by ZEFSAII (Michael W. Deem and Ramdas Pophale) SiO2 
 PCOD9442698
Probable space group: P N N M
;
_chemical_formula_sum "Si O2"
_cell_formula_units_Z 64
_cell_length_a 11.755966
_cell_length_b 15.327795
_cell_length_c 16.076000
_cell_angle_alpha 90.000000
_cell_angle_beta 90.000000
_cell_angle_gamma 90.000000
_cell_volume 2896.783261
_symmetry_space_group_name_H-M "P N N M"
_symmetry_group_IT_number 58
_symmetry_cell_setting 'orthorhombic'
loop_
_space_group_symop_operation_xyz
x,y,z
-x,-y,z
1/2+x,1/2-y,1/2-z
1/2-x,1/2+y,1/2-z
-x,-y,-z
x,y,-z
1/2-x,1/2+y,1/2+z
1/2+x,1/2-y,1/2+z
loop_
_atom_site_type_symbol
_atom_site_label
_atom_site_fract_x
_atom_site_fract_y
_atom_site_fract_z
Si Si1 0.370227 0.491027 0.164404
Si Si2 0.387582 0.230274 0.343406
Si Si3 0.991453 0.115776 0.908393
Si Si4 0.357999 0.677515 0.094719
Si Si5 0.559447 0.180537 0.776703
Si Si6 0.809418 0.980822 0.157383
Si Si7 0.606773 0.869987 0.097597
Si Si8 0.297913 0.307928 0.818938
O O1 0.500000 0.500000 0.195141
O O2 0.361735 0.573189 0.104091
O O3 0.291327 0.502205 0.245444
O O4 0.341382 0.393980 0.133224
O O5 0.463974 0.283241 0.406152
O O6 0.272228 0.202271 0.385300
O O7 0.460527 0.162694 0.291367
O O8 0.364794 0.299108 0.268494
O O9 0.095221 0.094897 0.848130
O O10 0.878161 0.060305 0.885960
O O11 0.031222 0.091158 0.000000
O O12 0.425550 0.729122 0.167988
O O13 0.389597 0.702475 0.000000
O O14 0.512419 0.120826 0.852299
O O15 0.671049 0.180456 0.718473
O O16 0.695180 0.947952 0.115312
O O17 0.671388 0.781572 0.132489
O O18 0.587402 0.861670 0.000000
#
# Coordination Sequence:
#
# PCOD9442698 Si02
#       8
#     8   8   8   8   8   8   8   8
#     4  12  21  38  64  88 118 157 201 254 306 367
#     4  10  19  39  58  85 116 161 205 239 298 371
#     4  11  19  31  57  88 120 149 190 256 312 352
#     4  11  24  39  61  92 124 155 200 261 313 358
#     4  10  21  39  64  86 118 167 210 247 304 380
#     4  11  20  35  55  88 118 151 203 247 303 365
#     4  11  22  38  61  90 126 160 200 258 316 367
#     4  10  21  37  61  88 117 160 211 248 299 371
#
# _framework density 22.093471999999998
#
# number of rings (size 3 to 8) (size 9 to 14) (size 15 to 20)
#    0.000    1.250    2.500    7.500    0.000    0.750 
#    0.000    3.125    0.000    1.500    0.000    0.000 
#    0.000    0.000    0.000    0.000    0.000    0.000 
#
# Total GULP energy -356483.942381 kJ/mol
# GULP energy per Si atom -5570.061600 kJ/mol
# Density = 2.204319 g / cm^3
# Si number density = 22.093472 Si / 1000 Ang^3
#
#
#
# Elastic Constant Matrix: (Units=GPa)
#
#
# Indices 1 2 3 4 5 6 
#
# 1 46.6532 5.4567 5.7553 0.0000 0.0000 0.0000
# 2 5.4567 45.5349 4.5596 0.0000 0.0000 0.0000
# 3 5.7553 4.5596 64.4717 0.0000 0.0000 0.0000
# 4 0.0000 0.0000 0.0000 15.7692 0.0000 0.0000
# 5 0.0000 0.0000 0.0000 0.0000 18.7659 0.0000
# 6 0.0000 0.0000 0.0000 0.0000 0.0000 22.3505
#
#
#
# Elastic Compliance Matrix: (Units=1/GPa)
#
#
# Indices 1 2 3 4 5 6 
#
# 1 0.021942 -0.002451 -0.001785 0.000000 0.000000 0.000000
# 2 -0.002451 0.022392 -0.001365 0.000000 0.000000 0.000000
# 3 -0.001785 -0.001365 0.015767 0.000000 0.000000 0.000000
# 4 0.000000 0.000000 0.000000 0.063415 0.000000 0.000000
# 5 0.000000 0.000000 0.000000 0.000000 0.053288 0.000000
# 6 0.000000 0.000000 0.000000 0.000000 0.000000 0.044742
#
#
# Mechanical properties :
#
#
# Convention : Reuss Voigt Hill
#
# Bulk Modulus (GPa) = 20.45070 20.91145 20.68108
# Shear Modulus (GPa) = 20.07666 20.76967 20.42316
#
# Velocity S-wave (km/s) = 3.01776 3.06940 3.04369
# Velocity P-wave (km/s) = 4.62807 4.69544 4.66188
#
# Compressibility (1/GPa) = 0.04889808
#
# Stress axis : x y z
#
# Youngs Moduli (GPa) = 45.57541 44.65980 63.42532
#
# Poissons Ratio (x) = 0.10944 0.11324
# Poissons Ratio (y) = 0.11169 0.08656
# Poissons Ratio (z) = 0.08137 0.06095
#
# Static dielectric constant tensor:
#      x y z
#    x 1.847340 0.000000 0.000000 
#    y 0.000000 1.900030 0.000000 
#    z 0.000000 0.000000 1.815320 
# 
# From -- ./inp_files/21507.got.cif
#   From: 2010.05.17/outbox.cif.g08.bks.cpg/sg58_11_cif.got.tgz:21507.got - 2010.06.03 14:20:14.
