data_PCOD9442948
_publ_section_title
;
Structure prediction by ZEFSAII (Michael W. Deem and Ramdas Pophale) SiO2 
 PCOD9442948
Probable space group: P N N M
;
_chemical_formula_sum "Si O2"
_cell_formula_units_Z 64
_cell_length_a 18.511753
_cell_length_b 12.954633
_cell_length_c 15.048066
_cell_angle_alpha 90.000000
_cell_angle_beta 90.000000
_cell_angle_gamma 90.000000
_cell_volume 3608.721345
_symmetry_space_group_name_H-M "P N N M"
_symmetry_group_IT_number 58
_symmetry_cell_setting 'orthorhombic'
loop_
_space_group_symop_operation_xyz
x,y,z
-x,-y,z
1/2+x,1/2-y,1/2-z
1/2-x,1/2+y,1/2-z
-x,-y,-z
x,y,-z
1/2-x,1/2+y,1/2+z
1/2+x,1/2-y,1/2+z
loop_
_atom_site_type_symbol
_atom_site_label
_atom_site_fract_x
_atom_site_fract_y
_atom_site_fract_z
Si Si1 0.051740 0.087085 0.202859
Si Si2 0.932164 0.427654 0.605890
Si Si3 0.064895 0.754640 0.256833
Si Si4 0.829967 0.786873 0.105234
Si Si5 0.299138 0.942627 0.606253
Si Si6 0.437181 0.084436 0.605309
Si Si7 0.769234 0.474553 0.394060
Si Si8 0.825820 0.063239 0.742418
O O1 0.098887 0.154532 0.136374
O O2 0.001360 0.164904 0.256945
O O3 0.110137 0.020978 0.257194
O O4 0.000000 0.000000 0.159748
O O5 0.933753 0.408581 0.500000
O O6 0.936691 0.322835 0.660887
O O7 0.854298 0.479134 0.625769
O O8 0.000000 0.500000 0.628967
O O9 0.058475 0.683435 0.168736
O O10 0.136681 0.825037 0.258399
O O11 0.825761 0.670271 0.138595
O O12 0.761500 0.859590 0.127582
O O13 0.831584 0.779591 0.000000
O O14 0.286648 0.939290 0.500000
O O15 0.226520 0.960028 0.660593
O O16 0.361137 0.026784 0.622157
O O17 0.442432 0.110517 0.500000
O O18 0.500000 0.000000 0.623753
O O19 0.758419 0.492057 0.500000
O O20 0.721338 0.547983 0.332094
#
# Coordination Sequence:
#
# PCOD9442948 Si02
#       8
#     8   8   8   8   8   8   8   8
#     4   9  20  35  50  75 107 138 175 214 257 312
#     4  10  21  37  56  78 104 137 180 224 260 297
#     4  11  21  35  56  77 104 140 176 215 258 310
#     4   9  17  31  53  78 102 132 171 213 259 313
#     4  10  20  34  53  78 106 137 174 213 256 310
#     4  10  21  36  54  79 110 139 169 210 263 322
#     4   9  18  34  55  78 103 131 169 215 260 308
#     4  10  21  36  54  77 106 139 173 215 263 307
#
# _framework density 17.734812999999999
#
# number of rings (size 3 to 8) (size 9 to 14) (size 15 to 20)
#    0.000    2.250    0.000    2.625    0.000    5.750 
#    0.000    3.125    0.000    5.250    0.000    0.000 
#    0.000    0.000    0.000    0.000    0.000    0.000 
#
# Total GULP energy -356884.975062 kJ/mol
# GULP energy per Si atom -5576.327735 kJ/mol
# Density = 1.769445 g / cm^3
# Si number density = 17.734813 Si / 1000 Ang^3
#
#
#
# Elastic Constant Matrix: (Units=GPa)
#
#
# Indices 1 2 3 4 5 6 
#
# 1 136.3134 58.7254 44.9343 0.0000 0.0000 0.0000
# 2 58.7254 96.3011 43.4368 0.0000 0.0000 0.0000
# 3 44.9343 43.4368 44.8002 0.0000 0.0000 0.0000
# 4 0.0000 0.0000 0.0000 16.4459 0.0000 0.0000
# 5 0.0000 0.0000 0.0000 0.0000 43.1849 0.0000
# 6 0.0000 0.0000 0.0000 0.0000 0.0000 22.8902
#
#
#
# Elastic Compliance Matrix: (Units=1/GPa)
#
#
# Indices 1 2 3 4 5 6 
#
# 1 0.011494 -0.003215 -0.008411 0.000000 0.000000 0.000000
# 2 -0.003215 0.019354 -0.015540 0.000000 0.000000 0.000000
# 3 -0.008411 -0.015540 0.045825 0.000000 0.000000 0.000000
# 4 0.000000 0.000000 0.000000 0.060805 0.000000 0.000000
# 5 0.000000 0.000000 0.000000 0.000000 0.023156 0.000000
# 6 0.000000 0.000000 0.000000 0.000000 0.000000 0.043687
#
#
# Mechanical properties :
#
#
# Convention : Reuss Voigt Hill
#
# Bulk Modulus (GPa) = 44.76284 63.51196 54.13740
# Shear Modulus (GPa) = 18.78989 25.19207 21.99098
#
# Velocity S-wave (km/s) = 3.25851 3.77302 3.52517
# Velocity P-wave (km/s) = 6.28109 7.40748 6.86742
#
# Compressibility (1/GPa) = 0.02233996
#
# Stress axis : x y z
#
# Youngs Moduli (GPa) = 87.00395 51.66794 21.82236
#
# Poissons Ratio (x) = 0.16613 0.18354
# Poissons Ratio (y) = 0.27975 0.33913
# Poissons Ratio (z) = 0.73176 0.80294
#
# Static dielectric constant tensor:
#      x y z
#    x 1.617750 0.000000 0.000000 
#    y 0.000000 1.603680 0.000000 
#    z 0.000000 0.000000 1.591790 
# 
# From -- ./inp_files/22973.got.cif
#   From: 2010.05.17/outbox.cif.g08.bks.cpg/sg58_12_cif.got.tgz:22973.got - 2010.06.03 14:20:14.
