data_PCOD9442775
_publ_section_title
;
Structure prediction by ZEFSAII (Michael W. Deem and Ramdas Pophale) SiO2 
 PCOD9442775
Probable space group: P N N M
;
_chemical_formula_sum "Si O2"
_cell_formula_units_Z 58
_cell_length_a 23.333369
_cell_length_b 15.102399
_cell_length_c 7.457286
_cell_angle_alpha 90.000000
_cell_angle_beta 90.000000
_cell_angle_gamma 90.000000
_cell_volume 2627.871885
_symmetry_space_group_name_H-M "P N N M"
_symmetry_group_IT_number 58
_symmetry_cell_setting 'orthorhombic'
loop_
_space_group_symop_operation_xyz
x,y,z
-x,-y,z
1/2+x,1/2-y,1/2-z
1/2-x,1/2+y,1/2-z
-x,-y,-z
x,y,-z
1/2-x,1/2+y,1/2+z
1/2+x,1/2-y,1/2+z
loop_
_atom_site_type_symbol
_atom_site_label
_atom_site_fract_x
_atom_site_fract_y
_atom_site_fract_z
Si Si1 0.629409 0.003863 0.781326
Si Si2 0.847974 0.785126 0.795951
Si Si3 0.769446 0.626862 0.293527
Si Si4 0.858914 0.135822 0.215196
Si Si5 0.452646 0.840664 0.782717
Si Si6 0.915393 0.952230 0.782508
Si Si7 0.918133 0.321771 0.713156
Si Si8 0.500000 0.500000 0.000000
O O1 0.685550 0.056218 0.714672
O O2 0.574354 0.064107 0.735371
O O3 0.619702 0.904082 0.718984
O O4 0.632787 0.004374 0.000000
O O5 0.801241 0.721910 0.706376
O O6 0.907759 0.731506 0.786875
O O7 0.865256 0.882727 0.733969
O O8 0.828457 0.793455 0.000000
O O9 0.761599 0.599989 0.500000
O O10 0.706158 0.632420 0.214298
O O11 0.889303 0.227518 0.259024
O O12 0.894590 0.050205 0.273817
O O13 0.857006 0.130367 0.000000
O O14 0.516927 0.826580 0.717319
O O15 0.451443 0.834354 0.000000
O O16 0.970586 0.937550 0.659747
O O17 0.924925 0.947102 0.000000
O O18 0.923026 0.335487 0.500000
#
# Coordination Sequence:
#
# PCOD9442775 Si02
#       8
#     8   8   8   8   8   8   8   2
#     4   8  15  32  56  83 107 141 186 238 284 340
#     4  10  21  37  59  87 115 153 196 252 301 352
#     4   9  19  38  63  81 110 154 201 244 300 363
#     4  10  23  41  55  80 120 158 193 250 306 355
#     4   9  18  32  55  82 115 147 185 230 286 359
#     4  10  25  43  62  93 130 164 212 257 314 377
#     4  10  20  32  55  85 112 141 188 236 288 355
#     4  12  26  40  72  90 124 174 210 260 314 374
#
# _framework density 22.071090999999999
#
# number of rings (size 3 to 8) (size 9 to 14) (size 15 to 20)
#    0.000    2.483    0.000    1.862    4.828    3.862 
#    0.000    5.517    0.000    4.138    0.000    0.000 
#    0.000    0.000    0.000    0.000    0.000    0.000 
#
# Total GULP energy -323235.717596 kJ/mol
# GULP energy per Si atom -5573.029614 kJ/mol
# Density = 2.202086 g / cm^3
# Si number density = 22.071091 Si / 1000 Ang^3
#
#
#
# Elastic Constant Matrix: (Units=GPa)
#
#
# Indices 1 2 3 4 5 6 
#
# 1 79.8744 37.2953 3.1152 0.0000 0.0000 0.0000
# 2 37.2953 134.3266 -7.7370 0.0000 0.0000 0.0000
# 3 3.1152 -7.7370 73.1703 0.0000 0.0000 0.0000
# 4 0.0000 0.0000 0.0000 23.2399 0.0000 0.0000
# 5 0.0000 0.0000 0.0000 0.0000 -5.8216 0.0000
# 6 0.0000 0.0000 0.0000 0.0000 0.0000 1.2110
#
#
#
# Elastic Compliance Matrix: (Units=1/GPa)
#
#
# Indices 1 2 3 4 5 6 
#
# 1 0.014464 -0.004076 -0.001047 0.000000 0.000000 0.000000
# 2 -0.004076 0.008639 0.001087 0.000000 0.000000 0.000000
# 3 -0.001047 0.001087 0.013826 0.000000 0.000000 0.000000
# 4 0.000000 0.000000 0.000000 0.043029 0.000000 0.000000
# 5 0.000000 0.000000 0.000000 0.000000 -0.171774 0.000000
# 6 0.000000 0.000000 0.000000 0.000000 0.000000 0.825769
#
#
# Mechanical properties :
#
#
# Convention : Reuss Voigt Hill
#
# Bulk Modulus (GPa) = 34.65354 39.19092 36.92223
# Shear Modulus (GPa) = 6.65208 20.70572 13.67890
#
# Velocity S-wave (km/s) = 1.73795 3.06623 2.49221
# Velocity P-wave (km/s) = 4.44548 5.50735 5.00465
#
# Compressibility (1/GPa) = 0.02885708
#
# Stress axis : x y z
#
# Youngs Moduli (GPa) = 69.13859 115.75603 72.32615
#
# Poissons Ratio (x) = 0.47183 0.07571
# Poissons Ratio (y) = 0.28181 -0.07862
# Poissons Ratio (z) = 0.07237 -0.12583
#
# Static dielectric constant tensor:
#      x y z
#    x 1.833590 0.000000 0.000000 
#    y 0.000000 1.853570 0.000000 
#    z 0.000000 0.000000 1.855670 
# 
# From -- ./inp_files/9879.got.cif
#   From: 2010.05.17/outbox.cif.g08.bks.cpg/sg58_5_cif.got.tgz:9879.got - 2010.06.03 14:20:14.
