data_PCOD9442860
_publ_section_title
;
Structure prediction by ZEFSAII (Michael W. Deem and Ramdas Pophale) SiO2 
 PCOD9442860
Probable space group: P N N M
;
_chemical_formula_sum "Si O2"
_cell_formula_units_Z 48
_cell_length_a 15.339046
_cell_length_b 19.947857
_cell_length_c 8.850346
_cell_angle_alpha 90.000000
_cell_angle_beta 90.000000
_cell_angle_gamma 90.000000
_cell_volume 2708.038570
_symmetry_space_group_name_H-M "P N N M"
_symmetry_group_IT_number 58
_symmetry_cell_setting 'orthorhombic'
loop_
_space_group_symop_operation_xyz
x,y,z
-x,-y,z
1/2+x,1/2-y,1/2-z
1/2-x,1/2+y,1/2-z
-x,-y,-z
x,y,-z
1/2-x,1/2+y,1/2+z
1/2+x,1/2-y,1/2+z
loop_
_atom_site_type_symbol
_atom_site_label
_atom_site_fract_x
_atom_site_fract_y
_atom_site_fract_z
Si Si1 0.697729 0.168860 0.181524
Si Si2 0.883010 0.190909 0.319374
Si Si3 0.432345 0.057674 0.681618
Si Si4 0.589510 0.534350 0.180805
Si Si5 0.513981 0.201407 0.318364
Si Si6 0.227874 0.486840 0.679926
O O1 0.786763 0.199293 0.248473
O O2 0.610862 0.201265 0.249441
O O3 0.699170 0.089343 0.223253
O O4 0.698137 0.173983 0.000000
O O5 0.879117 0.200035 0.500000
O O6 0.910228 0.113869 0.288196
O O7 0.952859 0.240613 0.246984
O O8 0.425622 0.054752 0.500000
O O9 0.469817 0.130084 0.722923
O O10 0.500000 0.000000 0.730873
O O11 0.339704 0.039220 0.751455
O O12 0.500000 0.500000 0.230385
O O13 0.674770 0.504215 0.258788
O O14 0.597855 0.525703 0.000000
O O15 0.518860 0.205558 0.500000
O O16 0.226924 0.490708 0.500000
#
# Coordination Sequence:
#
# PCOD9442860 Si02
#       6
#     8   8   8   8   8   8
#     4  10  20  36  58  82 110 147 187 228 280 338
#     4  10  21  38  59  83 112 146 187 234 281 337
#     4  10  20  35  56  82 112 148 189 227 273 336
#     4   9  19  38  62  83 107 146 190 228 274 336
#     4  11  22  37  58  83 113 150 189 234 282 334
#     4  10  20  33  55  85 114 143 180 233 282 327
#
# _framework density 17.725006
#
# number of rings (size 3 to 8) (size 9 to 14) (size 15 to 20)
#    0.000    2.000    1.667    2.000    0.000    4.000 
#    3.000    0.000    0.000    0.000    0.000    0.000 
#    0.000    0.000    0.000    0.000    0.000    0.000 
#
# Total GULP energy -268036.505796 kJ/mol
# GULP energy per Si atom -5584.093871 kJ/mol
# Density = 1.768466 g / cm^3
# Si number density = 17.725006 Si / 1000 Ang^3
#
#
#
# Elastic Constant Matrix: (Units=GPa)
#
#
# Indices 1 2 3 4 5 6 
#
# 1 191.0763 72.4626 59.2572 0.0000 0.0000 0.0000
# 2 72.4626 56.7835 38.3958 0.0000 0.0000 0.0000
# 3 59.2572 38.3958 44.2373 0.0000 0.0000 0.0000
# 4 0.0000 0.0000 0.0000 25.2592 0.0000 0.0000
# 5 0.0000 0.0000 0.0000 0.0000 30.5702 0.0000
# 6 0.0000 0.0000 0.0000 0.0000 0.0000 36.6113
#
#
#
# Elastic Compliance Matrix: (Units=1/GPa)
#
#
# Indices 1 2 3 4 5 6 
#
# 1 0.010771 -0.009656 -0.006047 0.000000 0.000000 0.000000
# 2 -0.009656 0.051286 -0.031580 0.000000 0.000000 0.000000
# 3 -0.006047 -0.031580 0.058114 0.000000 0.000000 0.000000
# 4 0.000000 0.000000 0.000000 0.039590 0.000000 0.000000
# 5 0.000000 0.000000 0.000000 0.000000 0.032712 0.000000
# 6 0.000000 0.000000 0.000000 0.000000 0.000000 0.027314
#
#
# Mechanical properties :
#
#
# Convention : Reuss Voigt Hill
#
# Bulk Modulus (GPa) = 39.05169 70.25869 54.65519
# Shear Modulus (GPa) = 15.48533 26.62023 21.05278
#
# Velocity S-wave (km/s) = 2.95895 3.87957 3.45011
# Velocity P-wave (km/s) = 5.80979 7.73255 6.83908
#
# Compressibility (1/GPa) = 0.02560709
#
# Stress axis : x y z
#
# Youngs Moduli (GPa) = 92.84570 19.49837 17.20744
#
# Poissons Ratio (x) = 0.18828 0.10405
# Poissons Ratio (y) = 0.89651 0.54340
# Poissons Ratio (z) = 0.56140 0.61575
#
# Static dielectric constant tensor:
#      x y z
#    x 1.579390 0.000000 0.000000 
#    y 0.000000 1.591650 0.000000 
#    z 0.000000 0.000000 1.588140 
# 
# From -- ./inp_files/5842.got.cif
#   From: 2010.05.17/outbox.cif.g08.bks.cpg/sg58_3_cif.got.tgz:5842.got - 2010.06.03 14:20:14.
