data_PCOD9442204
_publ_section_title
;
Structure prediction by ZEFSAII (Michael W. Deem and Ramdas Pophale) SiO2 
 PCOD9442204
Probable space group: P N N M
;
_chemical_formula_sum "Si O2"
_cell_formula_units_Z 64
_cell_length_a 20.458571
_cell_length_b 17.115639
_cell_length_c 8.115102
_cell_angle_alpha 90.000000
_cell_angle_beta 90.000000
_cell_angle_gamma 90.000000
_cell_volume 2841.596416
_symmetry_space_group_name_H-M "P N N M"
_symmetry_group_IT_number 58
_symmetry_cell_setting 'orthorhombic'
loop_
_space_group_symop_operation_xyz
x,y,z
-x,-y,z
1/2+x,1/2-y,1/2-z
1/2-x,1/2+y,1/2-z
-x,-y,-z
x,y,-z
1/2-x,1/2+y,1/2+z
1/2+x,1/2-y,1/2+z
loop_
_atom_site_type_symbol
_atom_site_label
_atom_site_fract_x
_atom_site_fract_y
_atom_site_fract_z
Si Si1 0.792868 0.096495 0.297992
Si Si2 0.385290 0.540999 0.809316
Si Si3 0.719519 0.317880 0.808425
Si Si4 0.894071 0.716946 0.697056
Si Si5 0.355604 0.118376 0.304527
Si Si6 0.355473 0.944816 0.300465
Si Si7 0.507232 0.348402 0.312968
Si Si8 0.884505 0.225498 0.310721
O O1 0.793905 0.095455 0.500000
O O2 0.719979 0.072005 0.249431
O O3 0.820594 0.180474 0.243198
O O4 0.846016 0.032695 0.240493
O O5 0.331957 0.610745 0.807069
O O6 0.449049 0.575756 0.723298
O O7 0.402197 0.525728 0.000000
O O8 0.677225 0.246389 0.738246
O O9 0.786213 0.350798 0.733543
O O10 0.733370 0.298972 0.000000
O O11 0.897218 0.730929 0.500000
O O12 0.898990 0.625643 0.732817
O O13 0.946570 0.773322 0.780078
O O14 0.346565 0.107715 0.500000
O O15 0.401237 0.192995 0.276337
O O16 0.373557 0.032323 0.243172
O O17 0.358412 0.941165 0.500000
O O18 0.484714 0.349325 0.500000
O O19 0.444179 0.334705 0.201987
O O20 0.873166 0.244353 0.500000
#
# Coordination Sequence:
#
# PCOD9442204 Si02
#       8
#     8   8   8   8   8   8   8   8
#     4   9  18  34  59  88 119 153 187 226 276 339
#     4   9  16  33  59  85 113 150 189 225 271 330
#     4   8  14  28  53  80 107 143 181 216 266 329
#     4  10  20  35  58  84 111 146 188 233 280 332
#     4  10  19  34  56  81 113 151 185 224 279 336
#     4  10  19  34  58  88 119 149 183 226 278 338
#     4  11  23  40  58  79 110 149 195 240 284 333
#     4  11  23  38  56  81 112 150 194 237 279 329
#
# _framework density 22.522551
#
# number of rings (size 3 to 8) (size 9 to 14) (size 15 to 20)
#    0.000    2.250    1.250    3.375    0.000    1.000 
#    0.000    8.125    0.000    3.750    0.000    0.000 
#    0.000    0.000    0.000    0.000    0.000    0.000 
#
# Total GULP energy -357270.862450 kJ/mol
# GULP energy per Si atom -5582.357226 kJ/mol
# Density = 2.247129 g / cm^3
# Si number density = 22.522551 Si / 1000 Ang^3
#
#
#
# Elastic Constant Matrix: (Units=GPa)
#
#
# Indices 1 2 3 4 5 6 
#
# 1 33.9067 -12.3468 -2.9796 0.0000 0.0000 0.0000
# 2 -12.3468 90.3870 7.4409 0.0000 0.0000 0.0000
# 3 -2.9796 7.4409 33.2952 0.0000 0.0000 0.0000
# 4 0.0000 0.0000 0.0000 20.1649 0.0000 0.0000
# 5 0.0000 0.0000 0.0000 0.0000 12.8679 0.0000
# 6 0.0000 0.0000 0.0000 0.0000 0.0000 27.1817
#
#
#
# Elastic Compliance Matrix: (Units=1/GPa)
#
#
# Indices 1 2 3 4 5 6 
#
# 1 0.031150 0.004101 0.001871 0.000000 0.000000 0.000000
# 2 0.004101 0.011811 -0.002272 0.000000 0.000000 0.000000
# 3 0.001871 -0.002272 0.030710 0.000000 0.000000 0.000000
# 4 0.000000 0.000000 0.000000 0.049591 0.000000 0.000000
# 5 0.000000 0.000000 0.000000 0.000000 0.077713 0.000000
# 6 0.000000 0.000000 0.000000 0.000000 0.000000 0.036789
#
#
# Mechanical properties :
#
#
# Convention : Reuss Voigt Hill
#
# Bulk Modulus (GPa) = 12.33493 15.75753 14.04623
# Shear Modulus (GPa) = 19.42589 23.07453 21.25021
#
# Velocity S-wave (km/s) = 2.94004 3.20427 3.07499
# Velocity P-wave (km/s) = 4.12476 4.54987 4.34252
#
# Compressibility (1/GPa) = 0.08107058
#
# Stress axis : x y z
#
# Youngs Moduli (GPa) = 32.10223 84.66814 32.56299
#
# Poissons Ratio (x) = -0.34723 -0.06093
# Poissons Ratio (y) = -0.13165 0.07400
# Poissons Ratio (z) = -0.06007 0.19241
#
# Static dielectric constant tensor:
#      x y z
#    x 1.854950 0.000000 0.000000 
#    y 0.000000 1.870470 0.000000 
#    z 0.000000 0.000000 1.800460 
# 
# From -- ./inp_files/8348.got.cif
#   From: 2010.05.17/outbox.cif.g08.bks.cpg/sg58_5_cif.got.tgz:8348.got - 2010.06.03 14:20:14.
