data_PCOD9442837
_publ_section_title
;
Structure prediction by ZEFSAII (Michael W. Deem and Ramdas Pophale) SiO2 
 PCOD9442837
Probable space group: P N N M
;
_chemical_formula_sum "Si O2"
_cell_formula_units_Z 64
_cell_length_a 17.667153
_cell_length_b 20.407813
_cell_length_c 7.796989
_cell_angle_alpha 90.000000
_cell_angle_beta 90.000000
_cell_angle_gamma 90.000000
_cell_volume 2811.188437
_symmetry_space_group_name_H-M "P N N M"
_symmetry_group_IT_number 58
_symmetry_cell_setting 'orthorhombic'
loop_
_space_group_symop_operation_xyz
x,y,z
-x,-y,z
1/2+x,1/2-y,1/2-z
1/2-x,1/2+y,1/2-z
-x,-y,-z
x,y,-z
1/2-x,1/2+y,1/2+z
1/2+x,1/2-y,1/2+z
loop_
_atom_site_type_symbol
_atom_site_label
_atom_site_fract_x
_atom_site_fract_y
_atom_site_fract_z
Si Si1 0.147927 0.722747 0.201515
Si Si2 0.599379 0.637358 0.804832
Si Si3 0.759289 0.617319 0.803548
Si Si4 0.900585 0.685461 0.208305
Si Si5 0.437583 0.665484 0.793224
Si Si6 0.465283 0.098953 0.700933
Si Si7 0.165000 0.508434 0.692484
Si Si8 0.726610 0.372852 0.208570
O O1 0.119010 0.785179 0.302455
O O2 0.090173 0.662043 0.215203
O O3 0.228017 0.692954 0.258378
O O4 0.151530 0.740815 0.000000
O O5 0.676021 0.607466 0.724881
O O6 0.515746 0.634729 0.724838
O O7 0.592284 0.611833 0.000000
O O8 0.816091 0.670821 0.725767
O O9 0.807473 0.551062 0.807292
O O10 0.744510 0.637672 0.000000
O O11 0.930658 0.757270 0.252821
O O12 0.956370 0.627523 0.271894
O O13 0.900345 0.681462 0.000000
O O14 0.360013 0.631423 0.734970
O O15 0.439865 0.660526 0.000000
O O16 0.475323 0.084170 0.500000
O O17 0.417939 0.038792 0.776353
O O18 0.169985 0.484066 0.500000
O O19 0.225049 0.566936 0.721058
O O20 0.729861 0.376641 0.000000
#
# Coordination Sequence:
#
# PCOD9442837 Si02
#       8
#     8   8   8   8   8   8   8   8
#     4   9  16  29  51  76 104 139 176 214 263 319
#     4  10  20  33  52  80 111 142 177 220 272 322
#     4  10  22  39  56  76 108 149 187 223 266 326
#     4  10  20  35  57  84 114 149 185 218 264 330
#     4  10  20  34  55  85 117 144 176 224 276 322
#     4   9  18  34  55  80 111 148 181 214 266 328
#     4  11  23  38  57  80 105 139 188 237 278 318
#     4   9  19  36  56  77 106 146 184 219 268 330
#
# _framework density 22.766171
#
# number of rings (size 3 to 8) (size 9 to 14) (size 15 to 20)
#    0.000    2.250    1.250    2.625    0.000    4.500 
#    0.000    3.125    0.000    3.750    0.000    0.000 
#    0.000    0.000    0.000    0.000    0.000    0.000 
#
# Total GULP energy -357301.852591 kJ/mol
# GULP energy per Si atom -5582.841447 kJ/mol
# Density = 2.271435 g / cm^3
# Si number density = 22.766171 Si / 1000 Ang^3
#
#
#
# Elastic Constant Matrix: (Units=GPa)
#
#
# Indices 1 2 3 4 5 6 
#
# 1 176.9289 12.9247 10.1179 0.0000 0.0000 0.0000
# 2 12.9247 37.7107 -7.8422 0.0000 0.0000 0.0000
# 3 10.1179 -7.8422 41.0691 0.0000 0.0000 0.0000
# 4 0.0000 0.0000 0.0000 21.0863 0.0000 0.0000
# 5 0.0000 0.0000 0.0000 0.0000 9.1143 0.0000
# 6 0.0000 0.0000 0.0000 0.0000 0.0000 27.9570
#
#
#
# Elastic Compliance Matrix: (Units=1/GPa)
#
#
# Indices 1 2 3 4 5 6 
#
# 1 0.005940 -0.002437 -0.001929 0.000000 0.000000 0.000000
# 2 -0.002437 0.028614 0.006064 0.000000 0.000000 0.000000
# 3 -0.001929 0.006064 0.025982 0.000000 0.000000 0.000000
# 4 0.000000 0.000000 0.000000 0.047424 0.000000 0.000000
# 5 0.000000 0.000000 0.000000 0.000000 0.109718 0.000000
# 6 0.000000 0.000000 0.000000 0.000000 0.000000 0.035769
#
#
# Mechanical properties :
#
#
# Convention : Reuss Voigt Hill
#
# Bulk Modulus (GPa) = 15.64128 31.78997 23.71562
# Shear Modulus (GPa) = 18.42553 27.66539 23.04546
#
# Velocity S-wave (km/s) = 2.84797 3.48975 3.18507
# Velocity P-wave (km/s) = 4.20713 5.49835 4.89549
#
# Compressibility (1/GPa) = 0.06393340
#
# Stress axis : x y z
#
# Youngs Moduli (GPa) = 168.34121 34.94792 38.48768
#
# Poissons Ratio (x) = 0.08517 0.07424
# Poissons Ratio (y) = 0.41026 -0.23340
# Poissons Ratio (z) = 0.32470 -0.21193
#
# Static dielectric constant tensor:
#      x y z
#    x 1.928390 0.000000 0.000000 
#    y 0.000000 1.811120 0.000000 
#    z 0.000000 0.000000 1.844600 
# 
# From -- ./inp_files/8350.got.cif
#   From: 2010.05.17/outbox.cif.g08.bks.cpg/sg58_5_cif.got.tgz:8350.got - 2010.06.03 14:20:14.
