data_PCOD9442487
_publ_section_title
;
Structure prediction by ZEFSAII (Michael W. Deem and Ramdas Pophale) SiO2 
 PCOD9442487
Probable space group: P N N M
;
_chemical_formula_sum "Si O2"
_cell_formula_units_Z 64
_cell_length_a 11.909804
_cell_length_b 17.128898
_cell_length_c 14.185362
_cell_angle_alpha 90.000000
_cell_angle_beta 90.000000
_cell_angle_gamma 90.000000
_cell_volume 2893.839636
_symmetry_space_group_name_H-M "P N N M"
_symmetry_group_IT_number 58
_symmetry_cell_setting 'orthorhombic'
loop_
_space_group_symop_operation_xyz
x,y,z
-x,-y,z
1/2+x,1/2-y,1/2-z
1/2-x,1/2+y,1/2-z
-x,-y,-z
x,y,-z
1/2-x,1/2+y,1/2+z
1/2+x,1/2-y,1/2+z
loop_
_atom_site_type_symbol
_atom_site_label
_atom_site_fract_x
_atom_site_fract_y
_atom_site_fract_z
Si Si1 0.790949 0.574417 0.394205
Si Si2 0.428297 0.191164 0.715076
Si Si3 0.416206 0.617460 0.202223
Si Si4 0.606657 0.698012 0.890137
Si Si5 0.023817 0.907673 0.101900
Si Si6 0.857149 0.633166 0.110307
Si Si7 0.276804 0.755571 0.111975
Si Si8 0.196958 0.524816 0.787098
O O1 0.821917 0.550752 0.500000
O O2 0.657857 0.592151 0.391892
O O3 0.834461 0.660750 0.371900
O O4 0.817572 0.511634 0.316425
O O5 0.420818 0.232108 0.817331
O O6 0.550116 0.178172 0.670947
O O7 0.350118 0.245841 0.649105
O O8 0.371599 0.105223 0.710585
O O9 0.527469 0.624554 0.138632
O O10 0.458646 0.625667 0.309124
O O11 0.344936 0.690690 0.167287
O O12 0.328781 0.545831 0.196219
O O13 0.735425 0.672677 0.876465
O O14 0.587801 0.717919 0.000000
O O15 0.988709 0.874687 0.000000
O O16 0.000000 0.000000 0.102314
O O17 0.845014 0.542934 0.143223
O O18 0.886829 0.635997 0.000000
O O19 0.278173 0.741415 0.000000
#
# Coordination Sequence:
#
# PCOD9442487 Si02
#       8
#     8   8   8   8   8   8   8   8
#     4  10  21  40  65  96 137 180 230 284 341 417
#     4  11  25  44  74 100 141 187 231 293 352 423
#     4  11  23  40  69 100 141 183 230 289 352 420
#     4  11  27  48  72 104 143 189 241 297 358 422
#     4  10  19  35  63 100 137 174 224 285 342 402
#     4  11  26  48  72 103 143 185 240 298 352 419
#     4  10  22  41  67 101 133 183 240 284 340 420
#     4  11  24  40  69 108 137 187 229 290 357 424
#
# _framework density 22.115945
#
# number of rings (size 3 to 8) (size 9 to 14) (size 15 to 20)
#    0.000    1.375    1.250    3.375    5.250    4.000 
#    0.000    3.750    0.000    1.500    0.000    0.000 
#    0.000    0.000    0.000    0.000    0.000    0.000 
#
# Total GULP energy -357914.683085 kJ/mol
# GULP energy per Si atom -5592.416923 kJ/mol
# Density = 2.206561 g / cm^3
# Si number density = 22.115945 Si / 1000 Ang^3
#
#
#
# Elastic Constant Matrix: (Units=GPa)
#
#
# Indices 1 2 3 4 5 6 
#
# 1 62.0509 -0.2254 55.0646 0.0000 0.0000 0.0000
# 2 -0.2254 68.4712 43.3841 0.0000 0.0000 0.0000
# 3 55.0646 43.3841 148.8324 0.0000 0.0000 0.0000
# 4 0.0000 0.0000 0.0000 28.8756 0.0000 0.0000
# 5 0.0000 0.0000 0.0000 0.0000 -44.2042 0.0000
# 6 0.0000 0.0000 0.0000 0.0000 0.0000 29.7313
#
#
#
# Elastic Compliance Matrix: (Units=1/GPa)
#
#
# Indices 1 2 3 4 5 6 
#
# 1 0.027076 0.007894 -0.012319 0.000000 0.000000 0.000000
# 2 0.007894 0.020215 -0.008813 0.000000 0.000000 0.000000
# 3 -0.012319 -0.008813 0.013846 0.000000 0.000000 0.000000
# 4 0.000000 0.000000 0.000000 0.034631 0.000000 0.000000
# 5 0.000000 0.000000 0.000000 0.000000 -0.022622 0.000000
# 6 0.000000 0.000000 0.000000 0.000000 0.000000 0.033635
#
#
# Mechanical properties :
#
#
# Convention : Reuss Voigt Hill
#
# Bulk Modulus (GPa) = 28.85041 52.86680 40.85861
# Shear Modulus (GPa) = 34.52801 14.95594 24.74198
#
# Velocity S-wave (km/s) = 3.95552 2.60331 3.34838
# Velocity P-wave (km/s) = 5.82537 5.74391 5.78479
#
# Compressibility (1/GPa) = 0.03466155
#
# Stress axis : x y z
#
# Youngs Moduli (GPa) = 36.93256 49.46848 72.22442
#
# Poissons Ratio (x) = -0.39053 0.88972
# Poissons Ratio (y) = -0.29156 0.63654
# Poissons Ratio (z) = 0.45497 0.43598
#
# Static dielectric constant tensor:
#      x y z
#    x 1.878050 0.000000 0.000000 
#    y 0.000000 1.930620 0.000000 
#    z 0.000000 0.000000 1.793780 
# 
# From -- ./inp_files/21508.got.cif
#   From: 2010.05.17/outbox.cif.g08.bks.cpg/sg58_11_cif.got.tgz:21508.got - 2010.06.03 14:20:14.
