data_PCOD9442463
_publ_section_title
;
Structure prediction by ZEFSAII (Michael W. Deem and Ramdas Pophale) SiO2 
 PCOD9442463
Probable space group: P N N M
;
_chemical_formula_sum "Si O2"
_cell_formula_units_Z 52
_cell_length_a 9.731647
_cell_length_b 10.434392
_cell_length_c 25.225187
_cell_angle_alpha 90.000000
_cell_angle_beta 90.000000
_cell_angle_gamma 90.000000
_cell_volume 2561.461838
_symmetry_space_group_name_H-M "P N N M"
_symmetry_group_IT_number 58
_symmetry_cell_setting 'orthorhombic'
loop_
_space_group_symop_operation_xyz
x,y,z
-x,-y,z
1/2+x,1/2-y,1/2-z
1/2-x,1/2+y,1/2-z
-x,-y,-z
x,y,-z
1/2-x,1/2+y,1/2+z
1/2+x,1/2-y,1/2+z
loop_
_atom_site_type_symbol
_atom_site_label
_atom_site_fract_x
_atom_site_fract_y
_atom_site_fract_z
Si Si1 0.947418 0.866006 0.403026
Si Si2 0.500000 0.500000 0.700899
Si Si3 0.031826 0.252155 0.866298
Si Si4 0.835149 0.863521 0.714337
Si Si5 0.732384 0.694182 0.062987
Si Si6 0.175581 0.603412 0.941552
Si Si7 0.513420 0.858113 0.262639
O O1 0.086697 0.786754 0.407344
O O2 0.879396 0.896290 0.345701
O O3 0.820424 0.822598 0.438067
O O4 0.000000 0.000000 0.426873
O O5 0.482702 0.376100 0.663752
O O6 0.375836 0.529713 0.741838
O O7 0.920515 0.329633 0.899449
O O8 0.070827 0.346973 0.817976
O O9 0.155879 0.222987 0.905763
O O10 0.674158 0.833241 0.723197
O O11 0.938360 0.746131 0.726910
O O12 0.789836 0.546725 0.068574
O O13 0.720161 0.717872 0.000000
O O14 0.114190 0.613453 0.000000
O O15 0.500000 0.000000 0.240554
#
# Coordination Sequence:
#
# PCOD9442463 Si02
#       7
#     8   4   8   8   8   8   8
#     4  10  20  34  59  86 124 159 193 248 317 368
#     4  10  26  40  61  82 131 160 216 250 310 370
#     4  11  22  39  60  87 119 160 203 258 310 374
#     4  11  24  41  61  91 125 167 211 266 307 382
#     4  10  21  36  60  92 123 155 201 258 316 373
#     4  10  19  35  60  90 119 152 199 255 313 377
#     4  11  26  39  64  91 127 168 215 254 324 377
#
# _framework density 20.300909000000001
#
# number of rings (size 3 to 8) (size 9 to 14) (size 15 to 20)
#    0.000    1.538    2.308    2.308   10.769    3.077 
#    0.000    1.538    0.000    0.000    0.000    2.154 
#    0.000    0.000    0.000    0.000    0.000    0.000 
#
# Total GULP energy -289871.968686 kJ/mol
# GULP energy per Si atom -5574.460936 kJ/mol
# Density = 2.025470 g / cm^3
# Si number density = 20.300909 Si / 1000 Ang^3
#
#
#
# Elastic Constant Matrix: (Units=GPa)
#
#
# Indices 1 2 3 4 5 6 
#
# 1 99.9508 8.6056 19.2169 0.0000 0.0000 0.0000
# 2 8.6056 47.4477 16.6594 0.0000 0.0000 0.0000
# 3 19.2169 16.6594 96.4631 0.0000 0.0000 0.0000
# 4 0.0000 0.0000 0.0000 20.8067 0.0000 0.0000
# 5 0.0000 0.0000 0.0000 0.0000 28.6941 0.0000
# 6 0.0000 0.0000 0.0000 0.0000 0.0000 17.9082
#
#
#
# Elastic Compliance Matrix: (Units=1/GPa)
#
#
# Indices 1 2 3 4 5 6 
#
# 1 0.010472 -0.001242 -0.001872 0.000000 0.000000 0.000000
# 2 -0.001242 0.022584 -0.003653 0.000000 0.000000 0.000000
# 3 -0.001872 -0.003653 0.011370 0.000000 0.000000 0.000000
# 4 0.000000 0.000000 0.000000 0.048061 0.000000 0.000000
# 5 0.000000 0.000000 0.000000 0.000000 0.034850 0.000000
# 6 0.000000 0.000000 0.000000 0.000000 0.000000 0.055840
#
#
# Mechanical properties :
#
#
# Convention : Reuss Voigt Hill
#
# Bulk Modulus (GPa) = 32.37014 36.98060 34.67537
# Shear Modulus (GPa) = 24.15359 26.77378 25.46368
#
# Velocity S-wave (km/s) = 3.45306 3.63553 3.54547
# Velocity P-wave (km/s) = 5.64606 5.98987 5.82050
#
# Compressibility (1/GPa) = 0.03089267
#
# Stress axis : x y z
#
# Youngs Moduli (GPa) = 95.49542 44.27981 87.94804
#
# Poissons Ratio (x) = 0.05500 0.16460
# Poissons Ratio (y) = 0.11862 0.32126
# Poissons Ratio (z) = 0.17873 0.16175
#
# Static dielectric constant tensor:
#      x y z
#    x 1.809800 0.000000 0.000000 
#    y 0.000000 1.748800 0.000000 
#    z 0.000000 0.000000 1.732450 
# 
# From -- ./inp_files/33282.got.cif
#   From: 2010.05.17/outbox.cif.g08.bks.cpg/sg58_17_cif.got.tgz:33282.got - 2010.06.03 14:20:14.
