data_PCOD9442056
_publ_section_title
;
Structure prediction by ZEFSAII (Michael W. Deem and Ramdas Pophale) SiO2 
 PCOD9442056
Probable space group: P N N M
;
_chemical_formula_sum "Si O2"
_cell_formula_units_Z 56
_cell_length_a 14.682260
_cell_length_b 19.113078
_cell_length_c 8.050413
_cell_angle_alpha 90.000000
_cell_angle_beta 90.000000
_cell_angle_gamma 90.000000
_cell_volume 2259.132501
_symmetry_space_group_name_H-M "P N N M"
_symmetry_group_IT_number 58
_symmetry_cell_setting 'orthorhombic'
loop_
_space_group_symop_operation_xyz
x,y,z
-x,-y,z
1/2+x,1/2-y,1/2-z
1/2-x,1/2+y,1/2-z
-x,-y,-z
x,y,-z
1/2-x,1/2+y,1/2+z
1/2+x,1/2-y,1/2+z
loop_
_atom_site_type_symbol
_atom_site_label
_atom_site_fract_x
_atom_site_fract_y
_atom_site_fract_z
Si Si1 0.286708 0.197987 0.197643
Si Si2 0.545125 0.151308 0.306778
Si Si3 0.389580 0.642095 0.200613
Si Si4 0.441698 0.286134 0.191605
Si Si5 0.104458 0.988666 0.699747
Si Si6 0.617459 0.943392 0.693731
Si Si7 0.717308 0.080722 0.810916
O O1 0.180339 0.198309 0.230881
O O2 0.345152 0.263254 0.263245
O O3 0.326607 0.128781 0.284030
O O4 0.302772 0.192057 0.000000
O O5 0.525528 0.166701 0.500000
O O6 0.503642 0.215487 0.202651
O O7 0.484627 0.082409 0.261595
O O8 0.650983 0.133251 0.286855
O O9 0.491567 0.655953 0.264650
O O10 0.355980 0.565069 0.244959
O O11 0.391197 0.646333 0.000000
O O12 0.426306 0.305883 0.000000
O O13 0.100297 0.982000 0.500000
O O14 0.177988 0.932063 0.758004
O O15 0.000000 0.000000 0.756271
O O16 0.618431 0.964567 0.500000
O O17 0.666124 0.005521 0.791048
O O18 0.715161 0.103012 0.000000
#
# Coordination Sequence:
#
# PCOD9442056 Si02
#       7
#     8   8   8   8   8   8   8
#     4  10  19  33  56  85 115 150 193 242 293 355
#     4  10  21  36  56  84 118 153 190 237 288 349
#     4  10  20  38  63  84 114 156 193 241 294 348
#     4   9  20  38  57  83 119 154 193 241 299 354
#     4  10  22  41  63  86 114 154 203 246 291 349
#     4  10  19  33  55  83 114 149 192 235 284 348
#     4  12  23  35  56  85 119 155 190 236 294 348
#
# _framework density 24.788274000000001
#
# number of rings (size 3 to 8) (size 9 to 14) (size 15 to 20)
#    0.000    1.857    1.429    3.000    0.000    4.857 
#    2.571    0.000    0.000    0.000    0.000    0.000 
#    0.000    0.000    0.000    0.000    0.000    0.000 
#
# Total GULP energy -313004.551196 kJ/mol
# GULP energy per Si atom -5589.366986 kJ/mol
# Density = 2.473186 g / cm^3
# Si number density = 24.788274 Si / 1000 Ang^3
#
#
#
# Elastic Constant Matrix: (Units=GPa)
#
#
# Indices 1 2 3 4 5 6 
#
# 1 154.5351 7.4933 8.2791 0.0000 0.0000 0.0000
# 2 7.4933 70.5423 -1.1366 0.0000 0.0000 0.0000
# 3 8.2791 -1.1366 38.2358 0.0000 0.0000 0.0000
# 4 0.0000 0.0000 0.0000 -53.6057 0.0000 0.0000
# 5 0.0000 0.0000 0.0000 0.0000 18.3785 0.0000
# 6 0.0000 0.0000 0.0000 0.0000 0.0000 41.0843
#
#
#
# Elastic Compliance Matrix: (Units=1/GPa)
#
#
# Indices 1 2 3 4 5 6 
#
# 1 0.006584 -0.000723 -0.001447 0.000000 0.000000 0.000000
# 2 -0.000723 0.014262 0.000580 0.000000 0.000000 0.000000
# 3 -0.001447 0.000580 0.026484 0.000000 0.000000 0.000000
# 4 0.000000 0.000000 0.000000 -0.018655 0.000000 0.000000
# 5 0.000000 0.000000 0.000000 0.000000 0.054412 0.000000
# 6 0.000000 0.000000 0.000000 0.000000 0.000000 0.024340
#
#
# Mechanical properties :
#
#
# Convention : Reuss Voigt Hill
#
# Bulk Modulus (GPa) = 22.64946 32.50943 27.57944
# Shear Modulus (GPa) = 39.89718 17.74992 28.82355
#
# Velocity S-wave (km/s) = 4.01623 2.67883 3.41367
# Velocity P-wave (km/s) = 5.53749 4.76566 5.16601
#
# Compressibility (1/GPa) = 0.04415117
#
# Stress axis : x y z
#
# Youngs Moduli (GPa) = 151.89297 70.11637 37.75858
#
# Poissons Ratio (x) = 0.05067 0.05464
# Poissons Ratio (y) = 0.10976 -0.02192
# Poissons Ratio (z) = 0.21979 -0.04070
#
# Static dielectric constant tensor:
#      x y z
#    x 2.018630 0.000000 0.000000 
#    y 0.000000 2.006200 0.000000 
#    z 0.000000 0.000000 1.873430 
# 
# From -- ./inp_files/6316.got.cif
#   From: 2010.05.17/outbox.cif.g08.bks.cpg/sg58_4_cif.got.tgz:6316.got - 2010.06.03 14:20:14.
