data_PCOD9442290
_publ_section_title
;
Structure prediction by ZEFSAII (Michael W. Deem and Ramdas Pophale) SiO2 
 PCOD9442290
Probable space group: P N N M
;
_chemical_formula_sum "Si O2"
_cell_formula_units_Z 64
_cell_length_a 13.116466
_cell_length_b 14.418859
_cell_length_c 18.613982
_cell_angle_alpha 90.000000
_cell_angle_beta 90.000000
_cell_angle_gamma 90.000000
_cell_volume 3520.359552
_symmetry_space_group_name_H-M "P N N M"
_symmetry_group_IT_number 58
_symmetry_cell_setting 'orthorhombic'
loop_
_space_group_symop_operation_xyz
x,y,z
-x,-y,z
1/2+x,1/2-y,1/2-z
1/2-x,1/2+y,1/2-z
-x,-y,-z
x,y,-z
1/2-x,1/2+y,1/2+z
1/2+x,1/2-y,1/2+z
loop_
_atom_site_type_symbol
_atom_site_label
_atom_site_fract_x
_atom_site_fract_y
_atom_site_fract_z
Si Si1 0.881371 0.483898 0.916584
Si Si2 0.806760 0.934782 0.083654
Si Si3 0.323849 0.843579 0.339760
Si Si4 0.325328 0.188260 0.192508
Si Si5 0.799080 0.621931 0.416680
Si Si6 0.476869 0.705421 0.415858
Si Si7 0.541155 0.101788 0.204116
Si Si8 0.325045 0.212901 0.358014
O O1 0.813639 0.554242 0.871159
O O2 0.850086 0.378855 0.902705
O O3 0.000000 0.500000 0.896043
O O4 0.872799 0.506649 0.000000
O O5 0.734277 0.883687 0.141190
O O6 0.919205 0.892297 0.094209
O O7 0.789898 0.044443 0.091235
O O8 0.779353 0.911587 0.000000
O O9 0.219201 0.788603 0.328607
O O10 0.392883 0.783080 0.394667
O O11 0.387986 0.854846 0.266215
O O12 0.444783 0.166967 0.187807
O O13 0.301537 0.180936 0.277305
O O14 0.827139 0.624767 0.500000
O O15 0.891205 0.590108 0.366658
O O16 0.761492 0.721835 0.390354
O O17 0.506635 0.714395 0.500000
O O18 0.572219 0.725508 0.364920
O O19 0.500000 0.000000 0.226403
#
# Coordination Sequence:
#
# PCOD9442290 Si02
#       8
#     8   8   8   8   8   8   8   8
#     4  11  21  35  59  90 119 152 195 245 299 353
#     4   9  21  39  59  85 119 157 202 248 296 356
#     4  11  21  36  58  88 121 153 193 245 293 351
#     4  11  22  37  61  88 119 159 193 241 304 347
#     4  11  24  40  59  87 122 161 201 246 299 355
#     4  10  19  34  58  86 118 155 195 244 302 358
#     4  12  22  39  62  89 119 155 202 250 291 349
#     4  12  22  36  59  89 125 158 199 246 302 362
#
# _framework density 18.179960999999999
#
# number of rings (size 3 to 8) (size 9 to 14) (size 15 to 20)
#    0.000    1.125    5.000    2.625    0.000    1.750 
#    0.000    1.875    0.000    0.750    0.000    1.750 
#    0.000    0.000    0.000    0.000    0.000    0.000 
#
# Total GULP energy -357249.300605 kJ/mol
# GULP energy per Si atom -5582.020322 kJ/mol
# Density = 1.813858 g / cm^3
# Si number density = 18.179961 Si / 1000 Ang^3
#
#
#
# Elastic Constant Matrix: (Units=GPa)
#
#
# Indices 1 2 3 4 5 6 
#
# 1 49.4364 36.6436 20.3061 0.0000 0.0000 0.0000
# 2 36.6436 88.0840 21.8918 0.0000 0.0000 0.0000
# 3 20.3061 21.8918 84.4153 0.0000 0.0000 0.0000
# 4 0.0000 0.0000 0.0000 18.1568 0.0000 0.0000
# 5 0.0000 0.0000 0.0000 0.0000 33.9495 0.0000
# 6 0.0000 0.0000 0.0000 0.0000 0.0000 30.9285
#
#
#
# Elastic Compliance Matrix: (Units=1/GPa)
#
#
# Indices 1 2 3 4 5 6 
#
# 1 0.030671 -0.011678 -0.004349 0.000000 0.000000 0.000000
# 2 -0.011678 0.016582 -0.001491 0.000000 0.000000 0.000000
# 3 -0.004349 -0.001491 0.013279 0.000000 0.000000 0.000000
# 4 0.000000 0.000000 0.000000 0.055076 0.000000 0.000000
# 5 0.000000 0.000000 0.000000 0.000000 0.029456 0.000000
# 6 0.000000 0.000000 0.000000 0.000000 0.000000 0.032333
#
#
# Mechanical properties :
#
#
# Convention : Reuss Voigt Hill
#
# Bulk Modulus (GPa) = 39.22436 42.17984 40.70210
# Shear Modulus (GPa) = 22.63152 26.14657 24.38905
#
# Velocity S-wave (km/s) = 3.53209 3.79649 3.66667
# Velocity P-wave (km/s) = 6.18519 6.51685 6.35319
#
# Compressibility (1/GPa) = 0.02549436
#
# Stress axis : x y z
#
# Youngs Moduli (GPa) = 32.60430 60.30764 75.30658
#
# Poissons Ratio (x) = 0.70429 0.32753
# Poissons Ratio (y) = 0.38076 0.11228
# Poissons Ratio (z) = 0.14180 0.08992
#
# Static dielectric constant tensor:
#      x y z
#    x 1.621550 0.000000 0.000000 
#    y 0.000000 1.643280 0.000000 
#    z 0.000000 0.000000 1.621250 
# 
# From -- ./inp_files/27006.got.cif
#   From: 2010.05.17/outbox.cif.g08.bks.cpg/sg58_14_cif.got.tgz:27006.got - 2010.06.03 14:20:14.
