data_PCOD9442451
_publ_section_title
;
Structure prediction by ZEFSAII (Michael W. Deem and Ramdas Pophale) SiO2 
 PCOD9442451
Probable space group: P N N M
;
_chemical_formula_sum "Si O2"
_cell_formula_units_Z 40
_cell_length_a 27.437448
_cell_length_b 10.350432
_cell_length_c 7.828294
_cell_angle_alpha 90.000000
_cell_angle_beta 90.000000
_cell_angle_gamma 90.000000
_cell_volume 2223.152827
_symmetry_space_group_name_H-M "P N N M"
_symmetry_group_IT_number 58
_symmetry_cell_setting 'orthorhombic'
loop_
_space_group_symop_operation_xyz
x,y,z
-x,-y,z
1/2+x,1/2-y,1/2-z
1/2-x,1/2+y,1/2-z
-x,-y,-z
x,y,-z
1/2-x,1/2+y,1/2+z
1/2+x,1/2-y,1/2+z
loop_
_atom_site_type_symbol
_atom_site_label
_atom_site_fract_x
_atom_site_fract_y
_atom_site_fract_z
Si Si1 0.604245 0.475568 0.200943
Si Si2 0.529513 0.868439 0.500000
Si Si3 0.295283 0.196717 0.702068
Si Si4 0.405282 0.217420 0.808248
Si Si5 0.961980 0.881568 0.000000
Si Si6 0.216285 0.988326 0.706264
O O1 0.590612 0.627490 0.218132
O O2 0.571301 0.396492 0.331417
O O3 0.661323 0.467839 0.250257
O O4 0.598653 0.441178 0.000000
O O5 0.563761 0.853517 0.665351
O O6 0.491890 0.749785 0.500000
O O7 0.500000 0.000000 0.500000
O O8 0.302848 0.177353 0.500000
O O9 0.347876 0.187453 0.789813
O O10 0.256609 0.090725 0.764145
O O11 0.276378 0.342834 0.728623
O O12 0.421529 0.187228 0.000000
O O13 0.000000 0.000000 0.000000
O O14 0.217558 0.982474 0.500000
#
# Coordination Sequence:
#
# PCOD9442451 Si02
#       6
#     8   4   8   8   4   8
#     4   9  19  37  61  89 118 145 197 255 291 347
#     4  12  26  44  60  88 124 156 204 250 298 362
#     4  10  19  35  60  86 119 157 195 242 290 353
#     4  10  20  39  64  86 118 159 197 240 302 360
#     4  12  22  38  66  90 108 156 206 240 300 344
#     4   9  20  36  54  85 121 154 193 241 294 351
#
# _framework density 17.992464999999999
#
# number of rings (size 3 to 8) (size 9 to 14) (size 15 to 20)
#    0.000    2.000    3.000    1.800    4.200    3.200 
#    3.600    0.000    0.000    0.000    0.000    0.000 
#    0.000    0.000    0.000    0.000    0.000    0.000 
#
# Total GULP energy -223321.156700 kJ/mol
# GULP energy per Si atom -5583.028917 kJ/mol
# Density = 1.795151 g / cm^3
# Si number density = 17.992465 Si / 1000 Ang^3
#
#
#
# Elastic Constant Matrix: (Units=GPa)
#
#
# Indices 1 2 3 4 5 6 
#
# 1 96.3017 74.4241 54.7713 0.0000 0.0000 0.0000
# 2 74.4241 101.0680 42.5375 0.0000 0.0000 0.0000
# 3 54.7713 42.5375 88.8416 0.0000 0.0000 0.0000
# 4 0.0000 0.0000 0.0000 0.0347 0.0000 0.0000
# 5 0.0000 0.0000 0.0000 0.0000 30.9103 0.0000
# 6 0.0000 0.0000 0.0000 0.0000 0.0000 37.4825
#
#
#
# Elastic Compliance Matrix: (Units=1/GPa)
#
#
# Indices 1 2 3 4 5 6 
#
# 1 0.029632 -0.017698 -0.009794 0.000000 0.000000 0.000000
# 2 -0.017698 0.022962 -0.000083 0.000000 0.000000 0.000000
# 3 -0.009794 -0.000083 0.017334 0.000000 0.000000 0.000000
# 4 0.000000 0.000000 0.000000 28.804924 0.000000 0.000000
# 5 0.000000 0.000000 0.000000 0.000000 0.032352 0.000000
# 6 0.000000 0.000000 0.000000 0.000000 0.000000 0.026679
#
#
# Mechanical properties :
#
#
# Convention : Reuss Voigt Hill
#
# Bulk Modulus (GPa) = 67.67469 69.96412 68.81941
# Shear Modulus (GPa) = 0.17245 21.31740 10.74493
#
# Velocity S-wave (km/s) = 0.30993 3.44582 2.44640
# Velocity P-wave (km/s) = 6.15000 7.40279 6.80528
#
# Compressibility (1/GPa) = 0.01477657
#
# Stress axis : x y z
#
# Youngs Moduli (GPa) = 33.74732 43.55072 57.68962
#
# Poissons Ratio (x) = 0.77076 0.56504
# Poissons Ratio (y) = 0.59726 0.00480
# Poissons Ratio (z) = 0.33054 0.00362
#
# Static dielectric constant tensor:
#      x y z
#    x 1.607690 0.000000 0.000000 
#    y 0.000000 1.582200 0.000000 
#    z 0.000000 0.000000 1.631640 
# 
# From -- ./inp_files/10282.got.cif
#   From: 2010.05.17/outbox.cif.g08.bks.cpg/sg58_6_cif.got.tgz:10282.got - 2010.06.03 14:20:14.
