data_PCOD9442020
_publ_section_title
;
Structure prediction by ZEFSAII (Michael W. Deem and Ramdas Pophale) SiO2 
 PCOD9442020
Probable space group: P N N M
;
_chemical_formula_sum "Si O2"
_cell_formula_units_Z 58
_cell_length_a 23.494221
_cell_length_b 15.684345
_cell_length_c 7.690642
_cell_angle_alpha 90.000000
_cell_angle_beta 90.000000
_cell_angle_gamma 90.000000
_cell_volume 2833.935958
_symmetry_space_group_name_H-M "P N N M"
_symmetry_group_IT_number 58
_symmetry_cell_setting 'orthorhombic'
loop_
_space_group_symop_operation_xyz
x,y,z
-x,-y,z
1/2+x,1/2-y,1/2-z
1/2-x,1/2+y,1/2-z
-x,-y,-z
x,y,-z
1/2-x,1/2+y,1/2+z
1/2+x,1/2-y,1/2+z
loop_
_atom_site_type_symbol
_atom_site_label
_atom_site_fract_x
_atom_site_fract_y
_atom_site_fract_z
Si Si1 0.883950 0.060881 0.787755
Si Si2 0.293912 0.080714 0.200651
Si Si3 0.755706 0.098552 0.212922
Si Si4 0.582429 0.874047 0.692830
Si Si5 0.406764 0.629328 0.703310
Si Si6 0.975539 0.203029 0.787096
Si Si7 0.293210 0.723425 0.798972
Si Si8 0.500000 0.000000 0.500000
O O1 0.821369 0.090806 0.732354
O O2 0.932552 0.127500 0.738644
O O3 0.896799 0.965381 0.723376
O O4 0.882798 0.058868 0.000000
O O5 0.361128 0.095514 0.212168
O O6 0.258303 0.156110 0.288058
O O7 0.276677 0.987334 0.268788
O O8 0.275413 0.083021 0.000000
O O9 0.726824 0.185754 0.274642
O O10 0.755117 0.101291 0.000000
O O11 0.604223 0.845570 0.500000
O O12 0.549930 0.793219 0.772079
O O13 0.537678 0.948361 0.648893
O O14 0.419657 0.615571 0.500000
O O15 0.461295 0.679360 0.775335
O O16 0.348975 0.682572 0.715273
O O17 0.977763 0.208709 0.000000
O O18 0.308076 0.736434 0.000000
#
# Coordination Sequence:
#
# PCOD9442020 Si02
#       8
#     8   8   8   8   8   8   8   2
#     4   9  15  29  53  80 108 139 185 235 276 333
#     4  11  21  38  61  86 115 149 196 247 291 341
#     4   9  19  34  55  81 113 150 190 234 288 347
#     4   9  19  37  57  82 115 153 191 238 282 349
#     4  10  19  33  54  83 114 143 187 244 284 333
#     4   9  17  30  55  83 107 148 195 231 281 338
#     4  11  22  37  57  83 115 155 191 235 298 359
#     4   8  20  36  58  76 114 152 190 234 280 326
#
# _framework density 20.466235999999999
#
# number of rings (size 3 to 8) (size 9 to 14) (size 15 to 20)
#    0.414    1.931    1.379    2.069    0.000    4.966 
#    0.000    3.103    0.000    1.655    0.000    0.000 
#    0.000    0.000    0.000    0.000    0.000    0.000 
#
# Total GULP energy -323020.875897 kJ/mol
# GULP energy per Si atom -5569.325447 kJ/mol
# Density = 2.041965 g / cm^3
# Si number density = 20.466236 Si / 1000 Ang^3
#
#
#
# Elastic Constant Matrix: (Units=GPa)
#
#
# Indices 1 2 3 4 5 6 
#
# 1 160.7516 92.9301 -10.3626 0.0000 0.0000 0.0000
# 2 92.9301 139.1055 -6.6818 0.0000 0.0000 0.0000
# 3 -10.3626 -6.6818 28.4561 0.0000 0.0000 0.0000
# 4 0.0000 0.0000 0.0000 11.5870 0.0000 0.0000
# 5 0.0000 0.0000 0.0000 0.0000 59.0244 0.0000
# 6 0.0000 0.0000 0.0000 0.0000 0.0000 30.4723
#
#
#
# Elastic Compliance Matrix: (Units=1/GPa)
#
#
# Indices 1 2 3 4 5 6 
#
# 1 0.010264 -0.006753 0.002152 0.000000 0.000000 0.000000
# 2 -0.006753 0.011714 0.000291 0.000000 0.000000 0.000000
# 3 0.002152 0.000291 0.035994 0.000000 0.000000 0.000000
# 4 0.000000 0.000000 0.000000 0.086304 0.000000 0.000000
# 5 0.000000 0.000000 0.000000 0.000000 0.016942 0.000000
# 6 0.000000 0.000000 0.000000 0.000000 0.000000 0.032817
#
#
# Mechanical properties :
#
#
# Convention : Reuss Voigt Hill
#
# Bulk Modulus (GPa) = 20.26274 53.34276 36.80275
# Shear Modulus (GPa) = 22.82011 37.04524 29.93268
#
# Velocity S-wave (km/s) = 3.34280 4.25910 3.82847
# Velocity P-wave (km/s) = 4.98209 7.09274 6.12895
#
# Compressibility (1/GPa) = 0.04935167
#
# Stress axis : x y z
#
# Youngs Moduli (GPa) = 97.43246 85.36564 27.78251
#
# Poissons Ratio (x) = 0.57649 -0.05978
# Poissons Ratio (y) = 0.65798 -0.00810
# Poissons Ratio (z) = -0.20966 -0.02487
#
# Static dielectric constant tensor:
#      x y z
#    x 1.686360 0.000000 0.000000 
#    y 0.000000 1.720450 0.000000 
#    z 0.000000 0.000000 1.802210 
# 
# From -- ./inp_files/9898.got.cif
#   From: 2010.05.17/outbox.cif.g08.bks.cpg/sg58_5_cif.got.tgz:9898.got - 2010.06.03 14:20:14.
