data_PCOD9442079
_publ_section_title
;
Structure prediction by ZEFSAII (Michael W. Deem and Ramdas Pophale) SiO2 
 PCOD9442079
Probable space group: P N N M
;
_chemical_formula_sum "Si O2"
_cell_formula_units_Z 64
_cell_length_a 16.389623
_cell_length_b 22.823081
_cell_length_c 8.838544
_cell_angle_alpha 90.000000
_cell_angle_beta 90.000000
_cell_angle_gamma 90.000000
_cell_volume 3306.160735
_symmetry_space_group_name_H-M "P N N M"
_symmetry_group_IT_number 58
_symmetry_cell_setting 'orthorhombic'
loop_
_space_group_symop_operation_xyz
x,y,z
-x,-y,z
1/2+x,1/2-y,1/2-z
1/2-x,1/2+y,1/2-z
-x,-y,-z
x,y,-z
1/2-x,1/2+y,1/2+z
1/2+x,1/2-y,1/2+z
loop_
_atom_site_type_symbol
_atom_site_label
_atom_site_fract_x
_atom_site_fract_y
_atom_site_fract_z
Si Si1 0.606210 0.353905 0.329014
Si Si2 0.190326 0.835672 0.828050
Si Si3 0.747356 0.051912 0.678470
Si Si4 0.791492 0.748971 0.826686
Si Si5 0.462861 0.295909 0.827190
Si Si6 0.906378 0.991805 0.176202
Si Si7 0.429359 0.953992 0.182255
Si Si8 0.555583 0.183047 0.818714
O O1 0.574423 0.339474 0.500000
O O2 0.689130 0.317529 0.316684
O O3 0.548514 0.327781 0.200640
O O4 0.611802 0.422869 0.318552
O O5 0.239421 0.880395 0.723697
O O6 0.224096 0.771796 0.789553
O O7 0.097061 0.831048 0.781744
O O8 0.202953 0.852735 0.000000
O O9 0.743251 0.044075 0.500000
O O10 0.660755 0.033038 0.750889
O O11 0.830865 0.022830 0.741305
O O12 0.872584 0.713051 0.778259
O O13 0.769623 0.735382 0.000000
O O14 0.478897 0.227002 0.795250
O O15 0.435164 0.301900 0.000000
O O16 0.906686 0.011698 0.000000
O O17 0.000000 0.000000 0.233426
O O18 0.452135 0.885810 0.218559
O O19 0.500000 0.000000 0.230211
O O20 0.423158 0.957521 0.000000
O O21 0.575036 0.186953 0.000000
#
# Coordination Sequence:
#
# PCOD9442079 Si02
#       8
#     8   8   8   8   8   8   8   8
#     4   9  19  36  57  83 116 154 191 231 288 353
#     4  12  23  37  57  82 114 152 198 245 297 361
#     4  12  25  40  62  92 124 161 206 262 315 363
#     4  10  19  33  56  83 112 147 188 238 294 348
#     4  10  20  34  56  87 119 149 189 241 299 359
#     4  10  21  39  63  90 123 165 207 248 299 369
#     4  10  21  40  65  89 118 162 211 256 306 369
#     4   9  18  35  58  84 114 151 191 238 298 360
#
# _framework density 19.357800999999998
#
# number of rings (size 3 to 8) (size 9 to 14) (size 15 to 20)
#    0.000    1.750    1.250    3.750    0.000    3.000 
#    2.250    0.000    0.000    0.000    0.000    0.000 
#    0.000    0.000    0.000    0.000    0.000    0.000 
#
# Total GULP energy -356819.738163 kJ/mol
# GULP energy per Si atom -5575.308409 kJ/mol
# Density = 1.931374 g / cm^3
# Si number density = 19.357801 Si / 1000 Ang^3
#
#
#
# Elastic Constant Matrix: (Units=GPa)
#
#
# Indices 1 2 3 4 5 6 
#
# 1 83.0739 22.3981 25.1532 0.0000 0.0000 0.0000
# 2 22.3981 74.1213 18.4490 0.0000 0.0000 0.0000
# 3 25.1532 18.4490 43.4144 0.0000 0.0000 0.0000
# 4 0.0000 0.0000 0.0000 272.0248 0.0000 0.0000
# 5 0.0000 0.0000 0.0000 0.0000 27.1040 0.0000
# 6 0.0000 0.0000 0.0000 0.0000 0.0000 22.1534
#
#
#
# Elastic Compliance Matrix: (Units=1/GPa)
#
#
# Indices 1 2 3 4 5 6 
#
# 1 0.015053 -0.002659 -0.007591 0.000000 0.000000 0.000000
# 2 -0.002659 0.015557 -0.005070 0.000000 0.000000 0.000000
# 3 -0.007591 -0.005070 0.029587 0.000000 0.000000 0.000000
# 4 0.000000 0.000000 0.000000 0.003676 0.000000 0.000000
# 5 0.000000 0.000000 0.000000 0.000000 0.036895 0.000000
# 6 0.000000 0.000000 0.000000 0.000000 0.000000 0.045140
#
#
# Mechanical properties :
#
#
# Convention : Reuss Voigt Hill
#
# Bulk Modulus (GPa) = 33.83518 36.95669 35.39593
# Shear Modulus (GPa) = 26.82396 73.23038 50.02717
#
# Velocity S-wave (km/s) = 3.72653 6.15727 5.08916
# Velocity P-wave (km/s) = 6.00273 8.34759 7.27032
#
# Compressibility (1/GPa) = 0.02955504
#
# Stress axis : x y z
#
# Youngs Moduli (GPa) = 66.43219 64.27987 33.79911
#
# Poissons Ratio (x) = 0.17094 0.25658
# Poissons Ratio (y) = 0.17666 0.17137
# Poissons Ratio (z) = 0.50430 0.32591
#
# Static dielectric constant tensor:
#      x y z
#    x 1.720010 0.000000 0.000000 
#    y 0.000000 1.707040 0.000000 
#    z 0.000000 0.000000 1.666470 
# 
# From -- ./inp_files/6859.got.cif
#   From: 2010.05.17/outbox.cif.g08.bks.cpg/sg58_4_cif.got.tgz:6859.got - 2010.06.03 14:20:14.
