data_PCOD9442346
_publ_section_title
;
Structure prediction by ZEFSAII (Michael W. Deem and Ramdas Pophale) SiO2 
 PCOD9442346
Probable space group: P N N M
;
_chemical_formula_sum "Si O2"
_cell_formula_units_Z 48
_cell_length_a 19.789939
_cell_length_b 5.154262
_cell_length_c 27.720339
_cell_angle_alpha 90.000000
_cell_angle_beta 90.000000
_cell_angle_gamma 90.000000
_cell_volume 2827.544726
_symmetry_space_group_name_H-M "P N N M"
_symmetry_group_IT_number 58
_symmetry_cell_setting 'orthorhombic'
loop_
_space_group_symop_operation_xyz
x,y,z
-x,-y,z
1/2+x,1/2-y,1/2-z
1/2-x,1/2+y,1/2-z
-x,-y,-z
x,y,-z
1/2-x,1/2+y,1/2+z
1/2+x,1/2-y,1/2+z
loop_
_atom_site_type_symbol
_atom_site_label
_atom_site_fract_x
_atom_site_fract_y
_atom_site_fract_z
Si Si1 0.222177 0.457672 0.721494
Si Si2 0.923832 0.553539 0.755477
Si Si3 0.537578 0.238473 0.557319
Si Si4 0.804217 0.604901 0.942857
Si Si5 0.208412 0.919683 0.118616
Si Si6 0.076250 0.944763 0.179941
O O1 0.254643 0.719677 0.743930
O O2 0.141076 0.486522 0.721991
O O3 0.248485 0.402096 0.667679
O O4 0.915224 0.839680 0.778007
O O5 0.000000 0.500000 0.736035
O O6 0.917041 0.342062 0.798182
O O7 0.500000 0.500000 0.571030
O O8 0.525088 0.230082 0.500000
O O9 0.616872 0.185769 0.560820
O O10 0.500000 0.000000 0.582486
O O11 0.792976 0.338509 0.913886
O O12 0.768534 0.840659 0.914720
O O13 0.788123 0.582849 0.000000
O O14 0.132977 0.971958 0.139567
O O15 0.000000 0.000000 0.164952
#
# Coordination Sequence:
#
# PCOD9442346 Si02
#       6
#     8   8   8   8   8   8
#     4  12  21  36  58  84 113 141 176 225 269 332
#     4  10  19  35  54  78 112 145 172 213 267 320
#     4   9  17  31  49  65  86 125 176 227 273 302
#     4  11  24  38  51  71 103 141 187 239 277 314
#     4  12  22  35  56  77 105 142 187 224 278 327
#     4  10  20  33  51  76 107 141 181 222 264 317
#
# _framework density 16.975860000000001
#
# number of rings (size 3 to 8) (size 9 to 14) (size 15 to 20)
#    0.000    1.333    3.333    3.500    0.000    4.667 
#    0.000    0.000    0.000    0.500    0.000    0.000 
#    0.000    4.000    0.000    0.000    0.000    0.000 
#
# Total GULP energy -267758.278546 kJ/mol
# GULP energy per Si atom -5578.297470 kJ/mol
# Density = 1.693722 g / cm^3
# Si number density = 16.975860 Si / 1000 Ang^3
#
#
#
# Elastic Constant Matrix: (Units=GPa)
#
#
# Indices 1 2 3 4 5 6 
#
# 1 85.9604 16.5268 45.7967 0.0000 0.0000 0.0000
# 2 16.5268 84.7781 22.0319 0.0000 0.0000 0.0000
# 3 45.7967 22.0319 104.2193 0.0000 0.0000 0.0000
# 4 0.0000 0.0000 0.0000 -76.3820 0.0000 0.0000
# 5 0.0000 0.0000 0.0000 0.0000 19.8071 0.0000
# 6 0.0000 0.0000 0.0000 0.0000 0.0000 15.1758
#
#
#
# Elastic Compliance Matrix: (Units=1/GPa)
#
#
# Indices 1 2 3 4 5 6 
#
# 1 0.015325 -0.001309 -0.006458 0.000000 0.000000 0.000000
# 2 -0.001309 0.012593 -0.002087 0.000000 0.000000 0.000000
# 3 -0.006458 -0.002087 0.012874 0.000000 0.000000 0.000000
# 4 0.000000 0.000000 0.000000 -0.013092 0.000000 0.000000
# 5 0.000000 0.000000 0.000000 0.000000 0.050487 0.000000
# 6 0.000000 0.000000 0.000000 0.000000 0.000000 0.065894
#
#
# Mechanical properties :
#
#
# Convention : Reuss Voigt Hill
#
# Bulk Modulus (GPa) = 47.42735 49.29651 48.36193
# Shear Modulus (GPa) = 29.27105 4.42701 16.84903
#
# Velocity S-wave (km/s) = 4.15694 1.61663 3.15386
# Velocity P-wave (km/s) = 7.14416 5.70849 6.46629
#
# Compressibility (1/GPa) = 0.02108488
#
# Stress axis : x y z
#
# Youngs Moduli (GPa) = 65.25130 79.40876 77.67645
#
# Poissons Ratio (x) = 0.10398 0.50160
# Poissons Ratio (y) = 0.08544 0.16209
# Poissons Ratio (z) = 0.42136 0.16571
#
# Static dielectric constant tensor:
#      x y z
#    x 1.590810 0.000000 0.000000 
#    y 0.000000 1.620300 0.000000 
#    z 0.000000 0.000000 1.578260 
# 
# From -- ./inp_files/32362.got.cif
#   From: 2010.05.17/outbox.cif.g08.bks.cpg/sg58_17_cif.got.tgz:32362.got - 2010.06.03 14:20:14.
