data_PCOD9442756
_publ_section_title
;
Structure prediction by ZEFSAII (Michael W. Deem and Ramdas Pophale) SiO2 
 PCOD9442756
Probable space group: P N N M
;
_chemical_formula_sum "Si O2"
_cell_formula_units_Z 40
_cell_length_a 25.484383
_cell_length_b 7.708461
_cell_length_c 9.270389
_cell_angle_alpha 90.000000
_cell_angle_beta 90.000000
_cell_angle_gamma 90.000000
_cell_volume 1821.125020
_symmetry_space_group_name_H-M "P N N M"
_symmetry_group_IT_number 58
_symmetry_cell_setting 'orthorhombic'
loop_
_space_group_symop_operation_xyz
x,y,z
-x,-y,z
1/2+x,1/2-y,1/2-z
1/2-x,1/2+y,1/2-z
-x,-y,-z
x,y,-z
1/2-x,1/2+y,1/2+z
1/2+x,1/2-y,1/2+z
loop_
_atom_site_type_symbol
_atom_site_label
_atom_site_fract_x
_atom_site_fract_y
_atom_site_fract_z
Si Si1 0.676668 0.043766 0.663744
Si Si2 0.083926 0.311655 0.672799
Si Si3 0.727038 0.429561 0.337070
Si Si4 0.882685 0.044984 0.172154
Si Si5 0.026377 0.806167 0.334868
O O1 0.665038 0.990772 0.500000
O O2 0.623905 0.052333 0.757725
O O3 0.700546 0.239846 0.661834
O O4 0.724038 0.937456 0.732310
O O5 0.089602 0.306511 0.500000
O O6 0.021859 0.319139 0.704646
O O7 0.101255 0.129383 0.743262
O O8 0.744667 0.470273 0.500000
O O9 0.679371 0.560627 0.298465
O O10 0.923652 0.185018 0.231529
O O11 0.888625 0.022453 0.000000
O O12 0.042645 0.769740 0.500000
O O13 0.000000 0.000000 0.334424
#
# Coordination Sequence:
#
# PCOD9442756 Si02
#       5
#     8   8   8   8   8
#     4  10  20  32  48  70  92 120 158 191 225 272
#     4   9  16  26  40  59  87 119 147 182 227 270
#     4   9  19  33  46  66  95 122 152 189 227 269
#     4   9  16  25  39  61  88 116 148 186 224 266
#     4   8  14  23  36  57  84 115 147 177 221 274
#
# _framework density 21.964444
#
# number of rings (size 3 to 8) (size 9 to 14) (size 15 to 20)
#    0.000    3.000    0.000    4.200    0.000    9.200 
#    0.000    0.000    0.000    0.000    0.000    1.400 
#    0.000   11.200    0.000    0.000    0.000    0.000 
#
# Total GULP energy -223185.476928 kJ/mol
# GULP energy per Si atom -5579.636923 kJ/mol
# Density = 2.191445 g / cm^3
# Si number density = 21.964444 Si / 1000 Ang^3
#
#
#
# Elastic Constant Matrix: (Units=GPa)
#
#
# Indices 1 2 3 4 5 6 
#
# 1 -43.5251 117.6244 -12.7683 0.0000 0.0000 0.0000
# 2 117.6244 18.3047 73.7872 0.0000 0.0000 0.0000
# 3 -12.7683 73.7872 51.7259 0.0000 0.0000 0.0000
# 4 0.0000 0.0000 0.0000 19.4813 0.0000 0.0000
# 5 0.0000 0.0000 0.0000 0.0000 49.4957 0.0000
# 6 0.0000 0.0000 0.0000 0.0000 0.0000 9.1079
#
#
#
# Elastic Compliance Matrix: (Units=1/GPa)
#
#
# Indices 1 2 3 4 5 6 
#
# 1 0.006041 0.009438 -0.011971 0.000000 0.000000 0.000000
# 2 0.009438 0.003243 -0.002296 0.000000 0.000000 0.000000
# 3 -0.011971 -0.002296 0.019653 0.000000 0.000000 0.000000
# 4 0.000000 0.000000 0.000000 0.051331 0.000000 0.000000
# 5 0.000000 0.000000 0.000000 0.000000 0.020204 0.000000
# 6 0.000000 0.000000 0.000000 0.000000 0.000000 0.109795
#
#
# Mechanical properties :
#
#
# Convention : Reuss Voigt Hill
#
# Bulk Modulus (GPa) = 51.87569 42.64357 47.25963
# Shear Modulus (GPa) = 22.08930 5.47444 13.78187
#
# Velocity S-wave (km/s) = 3.17469 1.58045 2.50764
# Velocity P-wave (km/s) = 6.09160 4.77361 5.47243
#
# Compressibility (1/GPa) = 0.01927685
#
# Stress axis : x y z
#
# Youngs Moduli (GPa) = 165.53083 308.36177 50.88164
#
# Poissons Ratio (x) = -2.91018 0.60913
# Poissons Ratio (y) = -1.56221 0.11685
# Poissons Ratio (z) = 1.98165 0.70814
#
# Static dielectric constant tensor:
#      x y z
#    x 1.804840 0.000000 0.000000 
#    y 0.000000 1.948200 0.000000 
#    z 0.000000 0.000000 1.747010 
# 
# From -- ./inp_files/2613.got.cif
#   From: 2010.05.17/outbox.cif.g08.bks.cpg/sg58_2_cif.got.tgz:2613.got - 2010.06.03 14:20:14.
