data_PCOD9442170
_publ_section_title
;
Structure prediction by ZEFSAII (Michael W. Deem and Ramdas Pophale) SiO2 
 PCOD9442170
Probable space group: P N N M
;
_chemical_formula_sum "Si O2"
_cell_formula_units_Z 48
_cell_length_a 24.420373
_cell_length_b 9.702714
_cell_length_c 7.781666
_cell_angle_alpha 90.000000
_cell_angle_beta 90.000000
_cell_angle_gamma 90.000000
_cell_volume 1843.818252
_symmetry_space_group_name_H-M "P N N M"
_symmetry_group_IT_number 58
_symmetry_cell_setting 'orthorhombic'
loop_
_space_group_symop_operation_xyz
x,y,z
-x,-y,z
1/2+x,1/2-y,1/2-z
1/2-x,1/2+y,1/2-z
-x,-y,-z
x,y,-z
1/2-x,1/2+y,1/2+z
1/2+x,1/2-y,1/2+z
loop_
_atom_site_type_symbol
_atom_site_label
_atom_site_fract_x
_atom_site_fract_y
_atom_site_fract_z
Si Si1 0.756371 0.967077 0.804740
Si Si2 0.914232 0.047741 0.209685
Si Si3 0.023726 0.212227 0.793163
Si Si4 0.346945 0.205912 0.699259
Si Si5 0.186326 0.294356 0.703921
Si Si6 0.417346 0.966874 0.796805
O O1 0.700150 0.876932 0.796630
O O2 0.801724 0.864797 0.732542
O O3 0.736504 0.111481 0.726023
O O4 0.772777 0.991808 0.000000
O O5 0.863265 0.142342 0.263944
O O6 0.967876 0.136887 0.258211
O O7 0.928308 0.893325 0.268803
O O8 0.911985 0.044268 0.000000
O O9 0.030754 0.368167 0.731254
O O10 0.025106 0.214605 0.000000
O O11 0.329461 0.213501 0.500000
O O12 0.401510 0.109947 0.707986
O O13 0.185345 0.316422 0.500000
O O14 0.131066 0.363579 0.770454
O O15 0.412719 0.991592 0.000000
#
# Coordination Sequence:
#
# PCOD9442170 Si02
#       6
#     8   8   8   8   8   8
#     4  10  21  36  54  78 105 132 168 213 256 300
#     4   8  17  33  54  78 102 131 173 217 252 303
#     4   9  17  34  56  76 101 135 173 213 258 305
#     4  10  19  34  55  77 102 135 172 209 254 305
#     4   9  20  37  53  72 102 136 169 206 249 303
#     4  10  21  36  51  75 108 137 171 214 255 300
#
# _framework density 26.032933
#
# number of rings (size 3 to 8) (size 9 to 14) (size 15 to 20)
#    0.000    2.667    0.000    3.500    0.000    6.000 
#    0.000   13.333    0.000    0.000    0.000    0.000 
#    0.000    0.000    0.000    0.000    0.000    0.000 
#
# Total GULP energy -268309.513413 kJ/mol
# GULP energy per Si atom -5589.781529 kJ/mol
# Density = 2.597368 g / cm^3
# Si number density = 26.032933 Si / 1000 Ang^3
#
#
#
# Elastic Constant Matrix: (Units=GPa)
#
#
# Indices 1 2 3 4 5 6 
#
# 1 57.0522 15.1867 -4.4763 0.0000 0.0000 0.0000
# 2 15.1867 182.2113 -1.5733 0.0000 0.0000 0.0000
# 3 -4.4763 -1.5733 48.5885 0.0000 0.0000 0.0000
# 4 0.0000 0.0000 0.0000 95.5691 0.0000 0.0000
# 5 0.0000 0.0000 0.0000 0.0000 29.9068 0.0000
# 6 0.0000 0.0000 0.0000 0.0000 0.0000 61.1501
#
#
#
# Elastic Compliance Matrix: (Units=1/GPa)
#
#
# Indices 1 2 3 4 5 6 
#
# 1 0.018051 -0.001491 0.001615 0.000000 0.000000 0.000000
# 2 -0.001491 0.005613 0.000044 0.000000 0.000000 0.000000
# 3 0.001615 0.000044 0.020731 0.000000 0.000000 0.000000
# 4 0.000000 0.000000 0.000000 0.010464 0.000000 0.000000
# 5 0.000000 0.000000 0.000000 0.000000 0.033437 0.000000
# 6 0.000000 0.000000 0.000000 0.000000 0.000000 0.016353
#
#
# Mechanical properties :
#
#
# Convention : Reuss Voigt Hill
#
# Bulk Modulus (GPa) = 22.35515 34.01402 28.18459
# Shear Modulus (GPa) = 41.93825 55.90619 48.92222
#
# Velocity S-wave (km/s) = 4.01804 4.63916 4.33973
# Velocity P-wave (km/s) = 5.48927 6.46451 5.99675
#
# Compressibility (1/GPa) = 0.04473242
#
# Stress axis : x y z
#
# Youngs Moduli (GPa) = 55.39770 178.16573 48.23648
#
# Poissons Ratio (x) = 0.26557 -0.07789
# Poissons Ratio (y) = 0.08257 -0.00214
# Poissons Ratio (z) = -0.08945 -0.00791
#
# Static dielectric constant tensor:
#      x y z
#    x 2.200380 0.000000 0.000000 
#    y 0.000000 2.034010 0.000000 
#    z 0.000000 0.000000 1.939250 
# 
# From -- ./inp_files/2901.got.cif
#   From: 2010.05.17/outbox.cif.g08.bks.cpg/sg58_2_cif.got.tgz:2901.got - 2010.06.03 14:20:14.
