data_PCOD9442090
_publ_section_title
;
Structure prediction by ZEFSAII (Michael W. Deem and Ramdas Pophale) SiO2 
 PCOD9442090
Probable space group: P N N M
;
_chemical_formula_sum "Si O2"
_cell_formula_units_Z 48
_cell_length_a 8.343834
_cell_length_b 15.670035
_cell_length_c 16.787493
_cell_angle_alpha 90.000000
_cell_angle_beta 90.000000
_cell_angle_gamma 90.000000
_cell_volume 2194.934002
_symmetry_space_group_name_H-M "P N N M"
_symmetry_group_IT_number 58
_symmetry_cell_setting 'orthorhombic'
loop_
_space_group_symop_operation_xyz
x,y,z
-x,-y,z
1/2+x,1/2-y,1/2-z
1/2-x,1/2+y,1/2-z
-x,-y,-z
x,y,-z
1/2-x,1/2+y,1/2+z
1/2+x,1/2-y,1/2+z
loop_
_atom_site_type_symbol
_atom_site_label
_atom_site_fract_x
_atom_site_fract_y
_atom_site_fract_z
Si Si1 0.331026 0.549672 0.770802
Si Si2 0.399457 0.190873 0.239703
Si Si3 0.370668 0.937814 0.849231
Si Si4 0.786979 0.746657 0.912233
Si Si5 0.169181 0.454025 0.093473
Si Si6 0.948278 0.146071 0.847112
O O1 0.237222 0.637922 0.785406
O O2 0.215903 0.505431 0.707054
O O3 0.308972 0.492455 0.850042
O O4 0.487662 0.581069 0.721745
O O5 0.542175 0.130499 0.208566
O O6 0.330679 0.230820 0.158764
O O7 0.435848 0.267376 0.297584
O O8 0.216835 0.888190 0.885206
O O9 0.500000 0.000000 0.893468
O O10 0.846968 0.648887 0.898905
O O11 0.916659 0.823810 0.908803
O O12 0.711782 0.747009 0.000000
O O13 0.000000 0.500000 0.114865
O O14 0.200226 0.471995 0.000000
#
# Coordination Sequence:
#
# PCOD9442090 Si02
#       6
#     8   8   8   8   8   8
#     4  10  19  33  56  85 118 150 194 245 290 350
#     4  10  20  35  58  83 113 155 202 244 283 339
#     4  10  20  34  55  82 109 139 187 247 294 338
#     4  10  22  39  59  87 123 158 194 243 299 352
#     4  10  19  33  56  88 126 161 191 233 295 360
#     4  11  20  34  60  87 112 152 200 244 292 351
#
# _framework density 21.868538999999998
#
# number of rings (size 3 to 8) (size 9 to 14) (size 15 to 20)
#    0.000    1.833    0.000    7.000    0.000    0.000 
#    0.000    1.667    0.000   35.000    0.000    4.667 
#    0.000    0.000    0.000    0.000    0.000    0.000 
#
# Total GULP energy -267312.054789 kJ/mol
# GULP energy per Si atom -5569.001141 kJ/mol
# Density = 2.181877 g / cm^3
# Si number density = 21.868539 Si / 1000 Ang^3
#
#
#
# Elastic Constant Matrix: (Units=GPa)
#
#
# Indices 1 2 3 4 5 6 
#
# 1 71.9430 12.3474 6.5131 0.0000 0.0000 0.0000
# 2 12.3474 74.3421 -6.1456 0.0000 0.0000 0.0000
# 3 6.5131 -6.1456 71.8002 0.0000 0.0000 0.0000
# 4 0.0000 0.0000 0.0000 20.3352 0.0000 0.0000
# 5 0.0000 0.0000 0.0000 0.0000 17.0790 0.0000
# 6 0.0000 0.0000 0.0000 0.0000 0.0000 36.2657
#
#
#
# Elastic Compliance Matrix: (Units=1/GPa)
#
#
# Indices 1 2 3 4 5 6 
#
# 1 0.014473 -0.002530 -0.001529 0.000000 0.000000 0.000000
# 2 -0.002530 0.013990 0.001427 0.000000 0.000000 0.000000
# 3 -0.001529 0.001427 0.014188 0.000000 0.000000 0.000000
# 4 0.000000 0.000000 0.000000 0.049176 0.000000 0.000000
# 5 0.000000 0.000000 0.000000 0.000000 0.058552 0.000000
# 6 0.000000 0.000000 0.000000 0.000000 0.000000 0.027574
#
#
# Mechanical properties :
#
#
# Convention : Reuss Voigt Hill
#
# Bulk Modulus (GPa) = 26.74849 27.05720 26.90285
# Shear Modulus (GPa) = 25.55202 28.42733 26.98967
#
# Velocity S-wave (km/s) = 3.42195 3.60935 3.51690
# Velocity P-wave (km/s) = 5.27930 5.45613 5.36845
#
# Compressibility (1/GPa) = 0.03738528
#
# Stress axis : x y z
#
# Youngs Moduli (GPa) = 69.09607 71.48207 70.48010
#
# Poissons Ratio (x) = 0.18086 0.10779
# Poissons Ratio (y) = 0.17482 -0.10057
# Poissons Ratio (z) = 0.10567 -0.10200
#
# Static dielectric constant tensor:
#      x y z
#    x 1.964990 0.000000 0.000000 
#    y 0.000000 4.310940 0.000000 
#    z 0.000000 0.000000 1.774170 
# 
# From -- ./inp_files/25277.got.cif
#   From: 2010.05.17/outbox.cif.g08.bks.cpg/sg58_13_cif.got.tgz:25277.got - 2010.06.03 14:20:14.
