data_PCOD9442094
_publ_section_title
;
Structure prediction by ZEFSAII (Michael W. Deem and Ramdas Pophale) SiO2 
 PCOD9442094
Probable space group: P N N M
;
_chemical_formula_sum "Si O2"
_cell_formula_units_Z 64
_cell_length_a 28.741996
_cell_length_b 13.102350
_cell_length_c 7.645078
_cell_angle_alpha 90.000000
_cell_angle_beta 90.000000
_cell_angle_gamma 90.000000
_cell_volume 2879.042274
_symmetry_space_group_name_H-M "P N N M"
_symmetry_group_IT_number 58
_symmetry_cell_setting 'orthorhombic'
loop_
_space_group_symop_operation_xyz
x,y,z
-x,-y,z
1/2+x,1/2-y,1/2-z
1/2-x,1/2+y,1/2-z
-x,-y,-z
x,y,-z
1/2-x,1/2+y,1/2+z
1/2+x,1/2-y,1/2+z
loop_
_atom_site_type_symbol
_atom_site_label
_atom_site_fract_x
_atom_site_fract_y
_atom_site_fract_z
Si Si1 0.953491 0.743183 0.207589
Si Si2 0.369699 0.434893 0.297600
Si Si3 0.806938 0.249030 0.298236
Si Si4 0.357066 0.653283 0.707037
Si Si5 0.027729 0.898108 0.785853
Si Si6 0.345807 0.033780 0.785324
Si Si7 0.948252 0.515661 0.300094
Si Si8 0.291933 0.832666 0.801414
O O1 0.911746 0.823702 0.226938
O O2 0.941476 0.637485 0.298059
O O3 0.000251 0.797411 0.271694
O O4 0.957305 0.721079 0.000000
O O5 0.379106 0.462010 0.500000
O O6 0.336428 0.339091 0.291604
O O7 0.347897 0.539264 0.225200
O O8 0.419723 0.406125 0.221729
O O9 0.821324 0.248313 0.500000
O O10 0.819771 0.362152 0.232484
O O11 0.753492 0.215038 0.286919
O O12 0.345195 0.662215 0.500000
O O13 0.329568 0.742803 0.799632
O O14 0.027048 0.893994 0.000000
O O15 0.000000 0.000000 0.735945
O O16 0.316648 0.934117 0.726680
O O17 0.399974 0.029840 0.725394
O O18 0.347164 0.028094 0.000000
O O19 0.951443 0.477087 0.500000
O O20 0.000000 0.500000 0.219712
O O21 0.277779 0.857680 0.000000
#
# Coordination Sequence:
#
# PCOD9442094 Si02
#       8
#     8   8   8   8   8   8   8   8
#     4  10  19  33  56  87 118 151 195 244 289 337
#     4  10  21  38  60  87 122 161 200 241 293 354
#     4  11  25  43  62  87 119 155 197 247 303 354
#     4  10  20  36  60  89 120 154 194 243 299 352
#     4   9  16  31  55  83 117 157 194 229 278 344
#     4   9  21  42  62  84 118 157 193 240 296 353
#     4  10  21  38  60  83 114 160 201 234 290 361
#     4  11  23  42  66  88 113 151 200 247 300 360
#
# _framework density 22.229614000000002
#
# number of rings (size 3 to 8) (size 9 to 14) (size 15 to 20)
#    0.000    2.000    2.500    0.750    3.500    0.750 
#    0.000    3.125    0.000    0.750    0.000    0.000 
#    0.000    0.000    0.000    0.000    0.000    0.000 
#
# Total GULP energy -357310.999533 kJ/mol
# GULP energy per Si atom -5582.984368 kJ/mol
# Density = 2.217902 g / cm^3
# Si number density = 22.229614 Si / 1000 Ang^3
#
#
#
# Elastic Constant Matrix: (Units=GPa)
#
#
# Indices 1 2 3 4 5 6 
#
# 1 121.8226 65.0412 2.2111 0.0000 0.0000 0.0000
# 2 65.0412 135.6676 1.4300 0.0000 0.0000 0.0000
# 3 2.2111 1.4300 40.2484 0.0000 0.0000 0.0000
# 4 0.0000 0.0000 0.0000 10.9895 0.0000 0.0000
# 5 0.0000 0.0000 0.0000 0.0000 5.5951 0.0000
# 6 0.0000 0.0000 0.0000 0.0000 0.0000 31.3310
#
#
#
# Elastic Compliance Matrix: (Units=1/GPa)
#
#
# Indices 1 2 3 4 5 6 
#
# 1 0.011040 -0.005288 -0.000419 0.000000 0.000000 0.000000
# 2 -0.005288 0.009907 -0.000061 0.000000 0.000000 0.000000
# 3 -0.000419 -0.000061 0.024871 0.000000 0.000000 0.000000
# 4 0.000000 0.000000 0.000000 0.090996 0.000000 0.000000
# 5 0.000000 0.000000 0.000000 0.000000 0.178726 0.000000
# 6 0.000000 0.000000 0.000000 0.000000 0.000000 0.031917
#
#
# Mechanical properties :
#
#
# Convention : Reuss Voigt Hill
#
# Bulk Modulus (GPa) = 29.17076 48.34478 38.75777
# Shear Modulus (GPa) = 13.49818 24.85355 19.17587
#
# Velocity S-wave (km/s) = 2.46685 3.34733 2.94024
# Velocity P-wave (km/s) = 4.61137 6.06091 5.38514
#
# Compressibility (1/GPa) = 0.03428090
#
# Stress axis : x y z
#
# Youngs Moduli (GPa) = 90.58298 100.94055 40.20767
#
# Poissons Ratio (x) = 0.53379 0.01683
# Poissons Ratio (y) = 0.47902 0.00247
# Poissons Ratio (z) = 0.03792 0.00620
#
# Static dielectric constant tensor:
#      x y z
#    x 1.827690 0.000000 0.000000 
#    y 0.000000 1.792160 0.000000 
#    z 0.000000 0.000000 1.857310 
# 
# From -- ./inp_files/10996.got.cif
#   From: 2010.05.17/outbox.cif.g08.bks.cpg/sg58_6_cif.got.tgz:10996.got - 2010.06.03 14:20:14.
