data_PCOD9442785
_publ_section_title
;
Structure prediction by ZEFSAII (Michael W. Deem and Ramdas Pophale) SiO2 
 PCOD9442785
Probable space group: P N N M
;
_chemical_formula_sum "Si O2"
_cell_formula_units_Z 48
_cell_length_a 24.657299
_cell_length_b 9.755254
_cell_length_c 7.530516
_cell_angle_alpha 90.000000
_cell_angle_beta 90.000000
_cell_angle_gamma 90.000000
_cell_volume 1811.376874
_symmetry_space_group_name_H-M "P N N M"
_symmetry_group_IT_number 58
_symmetry_cell_setting 'orthorhombic'
loop_
_space_group_symop_operation_xyz
x,y,z
-x,-y,z
1/2+x,1/2-y,1/2-z
1/2-x,1/2+y,1/2-z
-x,-y,-z
x,y,-z
1/2-x,1/2+y,1/2+z
1/2+x,1/2-y,1/2+z
loop_
_atom_site_type_symbol
_atom_site_label
_atom_site_fract_x
_atom_site_fract_y
_atom_site_fract_z
Si Si1 0.249989 0.465742 0.283275
Si Si2 0.917653 0.957729 0.209762
Si Si3 0.184714 0.720026 0.792934
Si Si4 0.415948 0.038606 0.715431
Si Si5 0.350547 0.785877 0.795006
Si Si6 0.520618 0.714008 0.282761
O O1 0.250714 0.470958 0.500000
O O2 0.236974 0.618799 0.220069
O O3 0.299894 0.370088 0.223350
O O4 0.198431 0.374805 0.216728
O O5 0.864396 0.866011 0.231071
O O6 0.967044 0.863665 0.280641
O O7 0.929783 0.111982 0.270810
O O8 0.925310 0.968026 0.000000
O O9 0.135698 0.629523 0.719655
O O10 0.171503 0.740438 0.000000
O O11 0.416745 0.033287 0.500000
O O12 0.466478 0.131620 0.773352
O O13 0.402820 0.885086 0.772118
O O14 0.338374 0.772926 0.000000
O O15 0.517542 0.719891 0.500000
#
# Coordination Sequence:
#
# PCOD9442785 Si02
#       6
#     8   8   8   8   8   8
#     4   9  19  34  49  69  99 128 154 192 238 278
#     4   9  17  32  52  72  94 122 158 197 238 282
#     4   9  18  32  50  71  93 121 159 195 228 277
#     4   9  17  32  52  71  92 121 158 196 233 276
#     4  10  20  33  47  68 100 131 157 189 232 280
#     4   8  16  31  51  73  95 119 153 201 245 277
#
# _framework density 26.499177
#
# number of rings (size 3 to 8) (size 9 to 14) (size 15 to 20)
#    0.000    3.000    0.000    1.500    0.000    3.333 
#    0.000    8.333    0.000    0.000    0.000    0.000 
#    0.000    0.000    0.000    0.000    0.000    0.000 
#
# Total GULP energy -268071.116086 kJ/mol
# GULP energy per Si atom -5584.814918 kJ/mol
# Density = 2.643886 g / cm^3
# Si number density = 26.499177 Si / 1000 Ang^3
#
#
#
# Elastic Constant Matrix: (Units=GPa)
#
#
# Indices 1 2 3 4 5 6 
#
# 1 42.0552 21.0924 -6.9105 0.0000 0.0000 0.0000
# 2 21.0924 190.6259 -7.3366 0.0000 0.0000 0.0000
# 3 -6.9105 -7.3366 63.1280 0.0000 0.0000 0.0000
# 4 0.0000 0.0000 0.0000 4.2285 0.0000 0.0000
# 5 0.0000 0.0000 0.0000 0.0000 10.3827 0.0000
# 6 0.0000 0.0000 0.0000 0.0000 0.0000 48.4959
#
#
#
# Elastic Compliance Matrix: (Units=1/GPa)
#
#
# Indices 1 2 3 4 5 6 
#
# 1 0.025556 -0.002732 0.002480 0.000000 0.000000 0.000000
# 2 -0.002732 0.005562 0.000347 0.000000 0.000000 0.000000
# 3 0.002480 0.000347 0.016153 0.000000 0.000000 0.000000
# 4 0.000000 0.000000 0.000000 0.236492 0.000000 0.000000
# 5 0.000000 0.000000 0.000000 0.000000 0.096314 0.000000
# 6 0.000000 0.000000 0.000000 0.000000 0.000000 0.020620
#
#
# Mechanical properties :
#
#
# Convention : Reuss Voigt Hill
#
# Bulk Modulus (GPa) = 21.07022 34.38887 27.72954
# Shear Modulus (GPa) = 12.00979 31.88566 21.94772
#
# Velocity S-wave (km/s) = 2.13119 3.47258 2.88104
# Velocity P-wave (km/s) = 3.74493 5.39295 4.64265
#
# Compressibility (1/GPa) = 0.04746035
#
# Stress axis : x y z
#
# Youngs Moduli (GPa) = 39.12956 179.80546 61.90930
#
# Poissons Ratio (x) = 0.49128 -0.15354
# Poissons Ratio (y) = 0.10691 -0.02150
# Poissons Ratio (z) = -0.09704 -0.06244
#
# Static dielectric constant tensor:
#      x y z
#    x 2.227450 0.000000 0.000000 
#    y 0.000000 2.041680 0.000000 
#    z 0.000000 0.000000 2.005700 
# 
# From -- ./inp_files/2952.got.cif
#   From: 2010.05.17/outbox.cif.g08.bks.cpg/sg58_2_cif.got.tgz:2952.got - 2010.06.03 14:20:14.
