data_PCOD9442180
_publ_section_title
;
Structure prediction by ZEFSAII (Michael W. Deem and Ramdas Pophale) SiO2 
 PCOD9442180
Probable space group: P N N M
;
_chemical_formula_sum "Si O2"
_cell_formula_units_Z 58
_cell_length_a 24.170244
_cell_length_b 14.271698
_cell_length_c 8.372176
_cell_angle_alpha 90.000000
_cell_angle_beta 90.000000
_cell_angle_gamma 90.000000
_cell_volume 2887.985652
_symmetry_space_group_name_H-M "P N N M"
_symmetry_group_IT_number 58
_symmetry_cell_setting 'orthorhombic'
loop_
_space_group_symop_operation_xyz
x,y,z
-x,-y,z
1/2+x,1/2-y,1/2-z
1/2-x,1/2+y,1/2-z
-x,-y,-z
x,y,-z
1/2-x,1/2+y,1/2+z
1/2+x,1/2-y,1/2+z
loop_
_atom_site_type_symbol
_atom_site_label
_atom_site_fract_x
_atom_site_fract_y
_atom_site_fract_z
Si Si1 0.915490 0.009552 0.808702
Si Si2 0.324419 0.210398 0.818875
Si Si3 0.511808 0.351564 0.188636
Si Si4 0.303066 0.010926 0.317391
Si Si5 0.930492 0.522363 0.815032
Si Si6 0.500000 0.000000 0.000000
Si Si7 0.298493 0.405097 0.314220
Si Si8 0.940866 0.298291 0.178023
O O1 0.959363 0.082023 0.732918
O O2 0.853498 0.038268 0.762042
O O3 0.920879 0.015209 0.000000
O O4 0.935214 0.906712 0.754921
O O5 0.308217 0.122343 0.710727
O O6 0.295006 0.307086 0.777770
O O7 0.389998 0.227310 0.792461
O O8 0.314460 0.182139 0.000000
O O9 0.496414 0.252474 0.266756
O O10 0.515855 0.342304 0.000000
O O11 0.287293 0.993164 0.500000
O O12 0.364463 0.969400 0.291990
O O13 0.256091 0.965879 0.209813
O O14 0.942334 0.410121 0.825164
O O15 0.960448 0.545539 0.646419
O O16 0.943182 0.557870 0.000000
O O17 0.306352 0.382361 0.500000
O O18 0.926937 0.264483 0.000000
#
# Coordination Sequence:
#
# PCOD9442180 Si02
#       8
#     8   8   8   8   8   2   8   8
#     4  10  20  33  49  76 113 155 189 228 290 344
#     4  11  21  34  58  88 116 148 199 250 297 356
#     4  11  20  29  50  78 114 147 190 240 279 343
#     4  10  22  40  62  87 123 155 198 254 300 352
#     4   9  22  39  61  93 118 151 196 247 300 357
#     4  12  22  36  72  86 124 146 194 242 312 354
#     4  11  22  36  60  86 117 158 202 244 301 362
#     4  10  19  34  55  81 115 149 192 245 296 344
#
# _framework density 20.083202
#
# number of rings (size 3 to 8) (size 9 to 14) (size 15 to 20)
#    0.000    1.655    1.379    6.000    5.793    1.655 
#    0.000    0.000    3.034    0.000    0.000    0.000 
#    0.000    0.000    0.000    0.000    0.000    0.000 
#
# Total GULP energy -323099.708689 kJ/mol
# GULP energy per Si atom -5570.684633 kJ/mol
# Density = 2.003749 g / cm^3
# Si number density = 20.083202 Si / 1000 Ang^3
#
#
#
# Elastic Constant Matrix: (Units=GPa)
#
#
# Indices 1 2 3 4 5 6 
#
# 1 75.0932 0.4647 20.3294 0.0000 0.0000 0.0000
# 2 0.4647 19.9479 7.2600 0.0000 0.0000 0.0000
# 3 20.3294 7.2600 98.1640 0.0000 0.0000 0.0000
# 4 0.0000 0.0000 0.0000 23.9640 0.0000 0.0000
# 5 0.0000 0.0000 0.0000 0.0000 9.5878 0.0000
# 6 0.0000 0.0000 0.0000 0.0000 0.0000 26.6554
#
#
#
# Elastic Compliance Matrix: (Units=1/GPa)
#
#
# Indices 1 2 3 4 5 6 
#
# 1 0.014119 0.000756 -0.002980 0.000000 0.000000 0.000000
# 2 0.000756 0.051558 -0.003970 0.000000 0.000000 0.000000
# 3 -0.002980 -0.003970 0.011098 0.000000 0.000000 0.000000
# 4 0.000000 0.000000 0.000000 0.041729 0.000000 0.000000
# 5 0.000000 0.000000 0.000000 0.000000 0.104299 0.000000
# 6 0.000000 0.000000 0.000000 0.000000 0.000000 0.037516
#
#
# Mechanical properties :
#
#
# Convention : Reuss Voigt Hill
#
# Bulk Modulus (GPa) = 15.53116 27.70148 21.61632
# Shear Modulus (GPa) = 16.99708 23.05151 20.02429
#
# Velocity S-wave (km/s) = 2.91234 3.39160 3.16106
# Velocity P-wave (km/s) = 4.36568 5.40005 4.91018
#
# Compressibility (1/GPa) = 0.06438669
#
# Stress axis : x y z
#
# Youngs Moduli (GPa) = 70.82748 19.39571 90.10853
#
# Poissons Ratio (x) = -0.01466 0.26851
# Poissons Ratio (y) = -0.05352 0.35769
# Poissons Ratio (z) = 0.21105 0.07699
#
# Static dielectric constant tensor:
#      x y z
#    x 1.716330 0.000000 0.000000 
#    y 0.000000 1.729560 0.000000 
#    z 0.000000 0.000000 1.701510 
# 
# From -- ./inp_files/9845.got.cif
#   From: 2010.05.17/outbox.cif.g08.bks.cpg/sg58_5_cif.got.tgz:9845.got - 2010.06.03 14:20:14.
