data_PCOD9442477
_publ_section_title
;
Structure prediction by ZEFSAII (Michael W. Deem and Ramdas Pophale) SiO2 
 PCOD9442477
Probable space group: P N N M
;
_chemical_formula_sum "Si O2"
_cell_formula_units_Z 56
_cell_length_a 14.148883
_cell_length_b 14.346152
_cell_length_c 14.786848
_cell_angle_alpha 90.000000
_cell_angle_beta 90.000000
_cell_angle_gamma 90.000000
_cell_volume 3001.464367
_symmetry_space_group_name_H-M "P N N M"
_symmetry_group_IT_number 58
_symmetry_cell_setting 'orthorhombic'
loop_
_space_group_symop_operation_xyz
x,y,z
-x,-y,z
1/2+x,1/2-y,1/2-z
1/2-x,1/2+y,1/2-z
-x,-y,-z
x,y,-z
1/2-x,1/2+y,1/2+z
1/2+x,1/2-y,1/2+z
loop_
_atom_site_type_symbol
_atom_site_label
_atom_site_fract_x
_atom_site_fract_y
_atom_site_fract_z
Si Si1 0.280918 0.531054 0.274445
Si Si2 0.744418 0.649201 0.394685
Si Si3 0.072808 0.724184 0.894618
Si Si4 0.592988 0.436521 0.894076
Si Si5 0.955710 0.724332 0.394744
Si Si6 0.443673 0.595396 0.607419
Si Si7 0.564086 0.908880 0.765036
O O1 0.282501 0.431661 0.325480
O O2 0.326644 0.529529 0.174778
O O3 0.348878 0.596293 0.334579
O O4 0.173596 0.565138 0.273901
O O5 0.725135 0.620792 0.500000
O O6 0.679697 0.739675 0.378123
O O7 0.854189 0.673798 0.386120
O O8 0.048124 0.638082 0.832166
O O9 0.007714 0.814338 0.874977
O O10 0.063047 0.701852 0.000000
O O11 0.500000 0.500000 0.885714
O O12 0.561876 0.331536 0.869251
O O13 0.623000 0.436274 0.000000
O O14 0.983230 0.722428 0.500000
O O15 0.031366 0.669498 0.335971
O O16 0.500000 0.500000 0.630708
O O17 0.424154 0.591903 0.500000
O O18 0.500000 0.000000 0.777948
#
# Coordination Sequence:
#
# PCOD9442477 Si02
#       7
#     8   8   8   8   8   8   8
#     4  12  22  36  61  92 124 160 198 261 304 357
#     4  10  20  37  64  94 122 159 204 248 308 369
#     4  10  22  40  63  89 123 160 198 251 309 369
#     4  10  23  43  66  93 122 161 209 252 305 367
#     4  10  22  42  64  87 123 166 207 251 302 363
#     4  10  19  35  61  94 122 145 190 257 320 363
#     4  12  26  41  57  89 125 167 215 244 297 365
#
# _framework density 18.65756
#
# number of rings (size 3 to 8) (size 9 to 14) (size 15 to 20)
#    0.000    1.429    2.857    2.571    2.000    3.429 
#    0.000    0.000    0.000    3.429    0.000    0.000 
#    0.000    0.000    0.000    0.000    0.000    0.000 
#
# Total GULP energy -312930.550881 kJ/mol
# GULP energy per Si atom -5588.045551 kJ/mol
# Density = 1.861509 g / cm^3
# Si number density = 18.657560 Si / 1000 Ang^3
#
#
#
# Elastic Constant Matrix: (Units=GPa)
#
#
# Indices 1 2 3 4 5 6 
#
# 1 100.6502 18.7293 44.3901 0.0000 0.0000 0.0000
# 2 18.7293 73.7787 49.0744 0.0000 0.0000 0.0000
# 3 44.3901 49.0744 80.7005 0.0000 0.0000 0.0000
# 4 0.0000 0.0000 0.0000 30.6711 0.0000 0.0000
# 5 0.0000 0.0000 0.0000 0.0000 16.3024 0.0000
# 6 0.0000 0.0000 0.0000 0.0000 0.0000 10.9667
#
#
#
# Elastic Compliance Matrix: (Units=1/GPa)
#
#
# Indices 1 2 3 4 5 6 
#
# 1 0.013391 0.002519 -0.008897 0.000000 0.000000 0.000000
# 2 0.002519 0.023234 -0.015514 0.000000 0.000000 0.000000
# 3 -0.008897 -0.015514 0.026720 0.000000 0.000000 0.000000
# 4 0.000000 0.000000 0.000000 0.032604 0.000000 0.000000
# 5 0.000000 0.000000 0.000000 0.000000 0.061341 0.000000
# 6 0.000000 0.000000 0.000000 0.000000 0.000000 0.091185
#
#
# Mechanical properties :
#
#
# Convention : Reuss Voigt Hill
#
# Bulk Modulus (GPa) = 51.12732 53.27966 52.20349
# Shear Modulus (GPa) = 16.73473 21.11707 18.92590
#
# Velocity S-wave (km/s) = 2.99815 3.36791 3.18839
# Velocity P-wave (km/s) = 6.28074 6.61380 6.44942
#
# Compressibility (1/GPa) = 0.01955901
#
# Stress axis : x y z
#
# Youngs Moduli (GPa) = 74.67840 43.04034 37.42528
#
# Poissons Ratio (x) = -0.10841 0.33299
# Poissons Ratio (y) = -0.18810 0.58062
# Poissons Ratio (z) = 0.66445 0.66774
#
# Static dielectric constant tensor:
#      x y z
#    x 1.635730 0.000000 0.000000 
#    y 0.000000 1.631430 0.000000 
#    z 0.000000 0.000000 1.654790 
# 
# From -- ./inp_files/21268.got.cif
#   From: 2010.05.17/outbox.cif.g08.bks.cpg/sg58_11_cif.got.tgz:21268.got - 2010.06.03 14:20:14.
