data_PCOD9442117
_publ_section_title
;
Structure prediction by ZEFSAII (Michael W. Deem and Ramdas Pophale) SiO2 
 PCOD9442117
Probable space group: P N N M
;
_chemical_formula_sum "Si O2"
_cell_formula_units_Z 64
_cell_length_a 20.659231
_cell_length_b 17.339402
_cell_length_c 7.702280
_cell_angle_alpha 90.000000
_cell_angle_beta 90.000000
_cell_angle_gamma 90.000000
_cell_volume 2759.100816
_symmetry_space_group_name_H-M "P N N M"
_symmetry_group_IT_number 58
_symmetry_cell_setting 'orthorhombic'
loop_
_space_group_symop_operation_xyz
x,y,z
-x,-y,z
1/2+x,1/2-y,1/2-z
1/2-x,1/2+y,1/2-z
-x,-y,-z
x,y,-z
1/2-x,1/2+y,1/2+z
1/2+x,1/2-y,1/2+z
loop_
_atom_site_type_symbol
_atom_site_label
_atom_site_fract_x
_atom_site_fract_y
_atom_site_fract_z
Si Si1 0.238065 0.837994 0.204769
Si Si2 0.018610 0.647882 0.703508
Si Si3 0.983677 0.181683 0.789716
Si Si4 0.623889 0.127891 0.196533
Si Si5 0.122148 0.942632 0.787505
Si Si6 0.737161 0.830268 0.207575
Si Si7 0.878656 0.879559 0.787881
Si Si8 0.865724 0.459324 0.804457
O O1 0.310467 0.840528 0.281133
O O2 0.187900 0.900962 0.273480
O O3 0.212057 0.751559 0.224139
O O4 0.245108 0.855091 0.000000
O O5 0.016226 0.627102 0.500000
O O6 0.068334 0.589069 0.788026
O O7 0.040478 0.736114 0.722951
O O8 0.945908 0.643693 0.778735
O O9 0.057339 0.165870 0.732252
O O10 0.937825 0.111159 0.735433
O O11 0.982618 0.184417 0.000000
O O12 0.632366 0.035756 0.190820
O O13 0.619965 0.159646 0.000000
O O14 0.116934 0.031077 0.733249
O O15 0.122872 0.942838 0.000000
O O16 0.810457 0.844687 0.270717
O O17 0.691801 0.901088 0.258732
O O18 0.737791 0.826133 0.000000
O O19 0.878319 0.878751 0.000000
O O20 0.857521 0.486953 0.000000
#
# Coordination Sequence:
#
# PCOD9442117 Si02
#       8
#     8   8   8   8   8   8   8   8
#     4  10  20  36  58  84 117 155 194 234 279 338
#     4  11  23  39  59  83 115 153 189 230 287 351
#     4  10  19  33  57  87 116 148 190 236 277 326
#     4  10  22  40  61  85 116 154 192 233 286 347
#     4   9  17  31  54  82 111 146 188 231 274 323
#     4  11  22  37  58  83 115 153 192 237 290 346
#     4   9  18  33  55  83 113 148 191 236 280 330
#     4  12  25  40  60  85 113 147 192 245 295 345
#
# _framework density 23.195964
#
# number of rings (size 3 to 8) (size 9 to 14) (size 15 to 20)
#    0.000    1.750    0.000    4.875    0.000    7.500 
#    0.000    0.625    0.000    3.750    0.000    0.000 
#    0.000    0.000    0.000    0.000    0.000    0.000 
#
# Total GULP energy -358043.278882 kJ/mol
# GULP energy per Si atom -5594.426233 kJ/mol
# Density = 2.314317 g / cm^3
# Si number density = 23.195964 Si / 1000 Ang^3
#
#
#
# Elastic Constant Matrix: (Units=GPa)
#
#
# Indices 1 2 3 4 5 6 
#
# 1 93.3756 -1.3002 4.1931 0.0000 0.0000 0.0000
# 2 -1.3002 92.4515 -12.0990 0.0000 0.0000 0.0000
# 3 4.1931 -12.0990 49.3246 0.0000 0.0000 0.0000
# 4 0.0000 0.0000 0.0000 23.3067 0.0000 0.0000
# 5 0.0000 0.0000 0.0000 0.0000 -24.6188 0.0000
# 6 0.0000 0.0000 0.0000 0.0000 0.0000 46.0503
#
#
#
# Elastic Compliance Matrix: (Units=1/GPa)
#
#
# Indices 1 2 3 4 5 6 
#
# 1 0.010751 0.000033 -0.000906 0.000000 0.000000 0.000000
# 2 0.000033 0.011175 0.002738 0.000000 0.000000 0.000000
# 3 -0.000906 0.002738 0.021023 0.000000 0.000000 0.000000
# 4 0.000000 0.000000 0.000000 0.042906 0.000000 0.000000
# 5 0.000000 0.000000 0.000000 0.000000 -0.040619 0.000000
# 6 0.000000 0.000000 0.000000 0.000000 0.000000 0.021715
#
#
# Mechanical properties :
#
#
# Convention : Reuss Voigt Hill
#
# Bulk Modulus (GPa) = 21.42297 24.08218 22.75258
# Shear Modulus (GPa) = 63.46809 25.23818 44.35314
#
# Velocity S-wave (km/s) = 5.23652 3.30213 4.37751
# Velocity P-wave (km/s) = 6.76884 4.99433 5.94813
#
# Compressibility (1/GPa) = 0.04667886
#
# Stress axis : x y z
#
# Youngs Moduli (GPa) = 93.01836 89.48295 47.56785
#
# Poissons Ratio (x) = -0.00292 0.04309
# Poissons Ratio (y) = -0.00304 -0.13026
# Poissons Ratio (z) = 0.08427 -0.24505
#
# Static dielectric constant tensor:
#      x y z
#    x 1.877140 0.000000 0.000000 
#    y 0.000000 1.801640 0.000000 
#    z 0.000000 0.000000 1.849150 
# 
# From -- ./inp_files/9297.got.cif
#   From: 2010.05.17/outbox.cif.g08.bks.cpg/sg58_5_cif.got.tgz:9297.got - 2010.06.03 14:20:14.
