data_PCOD9442885
_publ_section_title
;
Structure prediction by ZEFSAII (Michael W. Deem and Ramdas Pophale) SiO2 
 PCOD9442885
Probable space group: P N N M
;
_chemical_formula_sum "Si O2"
_cell_formula_units_Z 48
_cell_length_a 8.065767
_cell_length_b 10.541145
_cell_length_c 29.701079
_cell_angle_alpha 90.000000
_cell_angle_beta 90.000000
_cell_angle_gamma 90.000000
_cell_volume 2525.257598
_symmetry_space_group_name_H-M "P N N M"
_symmetry_group_IT_number 58
_symmetry_cell_setting 'orthorhombic'
loop_
_space_group_symop_operation_xyz
x,y,z
-x,-y,z
1/2+x,1/2-y,1/2-z
1/2-x,1/2+y,1/2-z
-x,-y,-z
x,y,-z
1/2-x,1/2+y,1/2+z
1/2+x,1/2-y,1/2+z
loop_
_atom_site_type_symbol
_atom_site_label
_atom_site_fract_x
_atom_site_fract_y
_atom_site_fract_z
Si Si1 0.463879 0.136871 0.601893
Si Si2 0.383656 0.623075 0.551980
Si Si3 0.652495 0.223908 0.688885
Si Si4 0.525491 0.637905 0.762647
Si Si5 0.405608 0.633726 0.860054
Si Si6 0.619903 0.881646 0.871268
O O1 0.518240 0.254693 0.571159
O O2 0.577115 0.149447 0.646843
O O3 0.273590 0.140382 0.617560
O O4 0.500000 0.000000 0.580607
O O5 0.500000 0.500000 0.555001
O O6 0.337858 0.643245 0.500000
O O7 0.226062 0.598574 0.583770
O O8 0.513186 0.261560 0.724430
O O9 0.748259 0.346723 0.668122
O O10 0.794135 0.149472 0.715551
O O11 0.500000 0.500000 0.742314
O O12 0.402685 0.648856 0.805648
O O13 0.500000 0.500000 0.868806
O O14 0.513670 0.752987 0.876424
O O15 0.500000 0.000000 0.861371
#
# Coordination Sequence:
#
# PCOD9442885 Si02
#       6
#     8   8   8   8   8   8
#     4  11  21  38  62  83 111 150 190 233 284 341
#     4  10  22  40  62  89 117 146 183 229 285 348
#     4  10  22  34  52  81 111 150 195 239 282 329
#     4  10  20  34  50  75 111 149 192 236 279 326
#     4  10  20  37  57  81 113 150 191 235 283 332
#     4  10  21  37  57  84 114 150 191 234 286 342
#
# _framework density 19.007963
#
# number of rings (size 3 to 8) (size 9 to 14) (size 15 to 20)
#    0.000    1.833    0.000    6.000    0.000    7.333 
#    0.000    2.500    0.000    2.000    0.000    0.000 
#    0.000    0.000    0.000    0.000    0.000    0.000 
#
# Total GULP energy -267970.702184 kJ/mol
# GULP energy per Si atom -5582.722962 kJ/mol
# Density = 1.896470 g / cm^3
# Si number density = 19.007963 Si / 1000 Ang^3
#
#
#
# Elastic Constant Matrix: (Units=GPa)
#
#
# Indices 1 2 3 4 5 6 
#
# 1 77.2381 17.4475 15.7666 0.0000 0.0000 0.0000
# 2 17.4475 96.3232 22.6303 0.0000 0.0000 0.0000
# 3 15.7666 22.6303 37.5309 0.0000 0.0000 0.0000
# 4 0.0000 0.0000 0.0000 14.1028 0.0000 0.0000
# 5 0.0000 0.0000 0.0000 0.0000 12.9387 0.0000
# 6 0.0000 0.0000 0.0000 0.0000 0.0000 29.6592
#
#
#
# Elastic Compliance Matrix: (Units=1/GPa)
#
#
# Indices 1 2 3 4 5 6 
#
# 1 0.014316 -0.001375 -0.005185 0.000000 0.000000 0.000000
# 2 -0.001375 0.012227 -0.006795 0.000000 0.000000 0.000000
# 3 -0.005185 -0.006795 0.032920 0.000000 0.000000 0.000000
# 4 0.000000 0.000000 0.000000 0.070908 0.000000 0.000000
# 5 0.000000 0.000000 0.000000 0.000000 0.077288 0.000000
# 6 0.000000 0.000000 0.000000 0.000000 0.000000 0.033716
#
#
# Mechanical properties :
#
#
# Convention : Reuss Voigt Hill
#
# Bulk Modulus (GPa) = 30.53132 35.86453 33.19793
# Shear Modulus (GPa) = 17.92092 21.68998 19.80545
#
# Velocity S-wave (km/s) = 3.07385 3.38168 3.23144
# Velocity P-wave (km/s) = 5.35680 5.84438 5.60590
#
# Compressibility (1/GPa) = 0.03275325
#
# Stress axis : x y z
#
# Youngs Moduli (GPa) = 69.85199 81.78473 30.37642
#
# Poissons Ratio (x) = 0.11245 0.15750
# Poissons Ratio (y) = 0.09604 0.20641
# Poissons Ratio (z) = 0.36219 0.55574
#
# Static dielectric constant tensor:
#      x y z
#    x 1.676960 0.000000 0.000000 
#    y 0.000000 1.674670 0.000000 
#    z 0.000000 0.000000 1.631250 
# 
# From -- ./inp_files/34606.got.cif
#   From: 2010.05.17/outbox.cif.g08.bks.cpg/sg58_18_cif.got.tgz:34606.got - 2010.06.03 14:20:14.
