data_PCOD9442657
_publ_section_title
;
Structure prediction by ZEFSAII (Michael W. Deem and Ramdas Pophale) SiO2 
 PCOD9442657
Probable space group: P N N M
;
_chemical_formula_sum "Si O2"
_cell_formula_units_Z 64
_cell_length_a 11.910550
_cell_length_b 19.041205
_cell_length_c 13.798933
_cell_angle_alpha 90.000000
_cell_angle_beta 90.000000
_cell_angle_gamma 90.000000
_cell_volume 3129.476908
_symmetry_space_group_name_H-M "P N N M"
_symmetry_group_IT_number 58
_symmetry_cell_setting 'orthorhombic'
loop_
_space_group_symop_operation_xyz
x,y,z
-x,-y,z
1/2+x,1/2-y,1/2-z
1/2-x,1/2+y,1/2-z
-x,-y,-z
x,y,-z
1/2-x,1/2+y,1/2+z
1/2+x,1/2-y,1/2+z
loop_
_atom_site_type_symbol
_atom_site_label
_atom_site_fract_x
_atom_site_fract_y
_atom_site_fract_z
Si Si1 0.783529 0.893127 0.613427
Si Si2 0.543819 0.397275 0.392640
Si Si3 0.371309 0.995291 0.272192
Si Si4 0.747723 0.646955 0.184793
Si Si5 0.476855 0.421142 0.816762
Si Si6 0.346065 0.213706 0.268685
Si Si7 0.696513 0.905641 0.112626
Si Si8 0.051183 0.271137 0.105624
O O1 0.788054 0.905139 0.500000
O O2 0.908318 0.883298 0.655495
O O3 0.719642 0.823135 0.644269
O O4 0.713973 0.956412 0.664278
O O5 0.500787 0.416478 0.500000
O O6 0.470102 0.419673 0.300896
O O7 0.670961 0.424528 0.380207
O O8 0.559365 0.313001 0.391545
O O9 0.321083 0.917006 0.271815
O O10 0.500000 0.000000 0.309193
O O11 0.368732 0.032683 0.167596
O O12 0.635980 0.611426 0.141117
O O13 0.697695 0.707618 0.254140
O O14 0.830923 0.689761 0.115599
O O15 0.500000 0.500000 0.849669
O O16 0.325178 0.165461 0.174235
O O17 0.474303 0.210202 0.302986
O O18 0.669203 0.896770 0.000000
O O19 0.002145 0.290224 0.000000
#
# Coordination Sequence:
#
# PCOD9442657 Si02
#       8
#     8   8   8   8   8   8   8   8
#     4  11  24  44  64  91 133 177 216 267 336 399
#     4  10  19  37  64  92 124 166 209 257 323 391
#     4  11  24  44  66  94 129 175 224 274 331 391
#     4  12  23  39  70  98 131 172 223 273 333 393
#     4  12  22  42  65  92 134 171 214 275 330 386
#     4  11  22  40  69  95 134 168 216 275 337 384
#     4  10  20  41  67  89 127 172 214 262 329 401
#     4  11  23  40  63  96 131 168 214 268 322 390
#
# _framework density 20.450700999999999
#
# number of rings (size 3 to 8) (size 9 to 14) (size 15 to 20)
#    0.000    1.000    6.250    1.875    0.000    2.000 
#    0.000    1.875    0.000    0.750    0.000    0.000 
#    0.000    0.000    0.000    0.000    0.000    0.000 
#
# Total GULP energy -357251.419833 kJ/mol
# GULP energy per Si atom -5582.053435 kJ/mol
# Density = 2.040415 g / cm^3
# Si number density = 20.450701 Si / 1000 Ang^3
#
#
#
# Elastic Constant Matrix: (Units=GPa)
#
#
# Indices 1 2 3 4 5 6 
#
# 1 95.8854 22.5192 14.8233 0.0000 0.0000 0.0000
# 2 22.5192 95.9818 3.6401 0.0000 0.0000 0.0000
# 3 14.8233 3.6401 97.5232 0.0000 0.0000 0.0000
# 4 0.0000 0.0000 0.0000 8.5761 0.0000 0.0000
# 5 0.0000 0.0000 0.0000 0.0000 0.5956 0.0000
# 6 0.0000 0.0000 0.0000 0.0000 0.0000 30.2153
#
#
#
# Elastic Compliance Matrix: (Units=1/GPa)
#
#
# Indices 1 2 3 4 5 6 
#
# 1 0.011287 -0.002587 -0.001619 0.000000 0.000000 0.000000
# 2 -0.002587 0.011026 -0.000018 0.000000 0.000000 0.000000
# 3 -0.001619 -0.000018 0.010501 0.000000 0.000000 0.000000
# 4 0.000000 0.000000 0.000000 0.116603 0.000000 0.000000
# 5 0.000000 0.000000 0.000000 0.000000 1.678882 0.000000
# 6 0.000000 0.000000 0.000000 0.000000 0.000000 0.033096
#
#
# Mechanical properties :
#
#
# Convention : Reuss Voigt Hill
#
# Bulk Modulus (GPa) = 41.04145 41.26173 41.15159
# Shear Modulus (GPa) = 2.66246 24.43793 13.55019
#
# Velocity S-wave (km/s) = 1.14224 3.46058 2.57685
# Velocity P-wave (km/s) = 4.67458 6.01560 5.38698
#
# Compressibility (1/GPa) = 0.02436561
#
# Stress axis : x y z
#
# Youngs Moduli (GPa) = 88.59815 90.69276 95.23137
#
# Poissons Ratio (x) = 0.23460 0.15418
# Poissons Ratio (y) = 0.22918 0.00175
# Poissons Ratio (z) = 0.14344 0.00167
#
# Static dielectric constant tensor:
#      x y z
#    x 1.748790 0.000000 0.000000 
#    y 0.000000 1.744140 0.000000 
#    z 0.000000 0.000000 1.718800 
# 
# From -- ./inp_files/21500.got.cif
#   From: 2010.05.17/outbox.cif.g08.bks.cpg/sg58_11_cif.got.tgz:21500.got - 2010.06.03 14:20:14.
