data_PCOD9442253
_publ_section_title
;
Structure prediction by ZEFSAII (Michael W. Deem and Ramdas Pophale) SiO2 
 PCOD9442253
Probable space group: P N N M
;
_chemical_formula_sum "Si O2"
_cell_formula_units_Z 64
_cell_length_a 29.743805
_cell_length_b 12.229697
_cell_length_c 9.068578
_cell_angle_alpha 90.000000
_cell_angle_beta 90.000000
_cell_angle_gamma 90.000000
_cell_volume 3298.765282
_symmetry_space_group_name_H-M "P N N M"
_symmetry_group_IT_number 58
_symmetry_cell_setting 'orthorhombic'
loop_
_space_group_symop_operation_xyz
x,y,z
-x,-y,z
1/2+x,1/2-y,1/2-z
1/2-x,1/2+y,1/2-z
-x,-y,-z
x,y,-z
1/2-x,1/2+y,1/2+z
1/2+x,1/2-y,1/2+z
loop_
_atom_site_type_symbol
_atom_site_label
_atom_site_fract_x
_atom_site_fract_y
_atom_site_fract_z
Si Si1 0.615276 0.856355 0.176489
Si Si2 0.813819 0.532076 0.324086
Si Si3 0.661315 0.275175 0.177581
Si Si4 0.723238 0.480752 0.823652
Si Si5 0.437313 0.444832 0.331090
Si Si6 0.522351 0.761356 0.825334
Si Si7 0.564604 0.301155 0.325358
Si Si8 0.160728 0.849779 0.170361
O O1 0.562979 0.842740 0.219132
O O2 0.644071 0.762444 0.256671
O O3 0.639210 0.970995 0.207273
O O4 0.617217 0.836744 0.000000
O O5 0.805899 0.524520 0.500000
O O6 0.816823 0.659037 0.283097
O O7 0.773150 0.474461 0.240347
O O8 0.693125 0.376182 0.220537
O O9 0.612537 0.282428 0.250533
O O10 0.655965 0.278406 0.000000
O O11 0.699582 0.588466 0.757612
O O12 0.724094 0.486154 0.000000
O O13 0.451784 0.418596 0.500000
O O14 0.458216 0.357832 0.219858
O O15 0.447534 0.570614 0.299708
O O16 0.383583 0.427011 0.326136
O O17 0.475132 0.771305 0.742909
O O18 0.515397 0.768548 0.000000
O O19 0.567834 0.285454 0.500000
O O20 0.173600 0.832789 0.000000
#
# Coordination Sequence:
#
# PCOD9442253 Si02
#       8
#     8   8   8   8   8   8   8   8
#     4   9  20  39  60  85 118 156 199 245 293 348
#     4  10  23  43  64  85 115 156 198 244 295 351
#     4  10  23  42  62  86 118 153 197 246 292 350
#     4  11  23  38  59  89 119 148 189 241 296 354
#     4   9  18  32  50  78 115 152 189 233 287 346
#     4  10  20  33  54  84 117 155 198 242 294 351
#     4  11  21  35  56  83 117 156 198 243 297 353
#     4  10  19  34  57  84 116 154 191 233 288 346
#
# _framework density 19.401198000000001
#
# number of rings (size 3 to 8) (size 9 to 14) (size 15 to 20)
#    0.000    2.000    1.250    1.875    1.750    5.000 
#    0.000    0.625    0.000    3.750    0.000    0.000 
#    0.000    0.000    0.000    0.000    0.000    0.000 
#
# Total GULP energy -357421.994750 kJ/mol
# GULP energy per Si atom -5584.718668 kJ/mol
# Density = 1.935704 g / cm^3
# Si number density = 19.401198 Si / 1000 Ang^3
#
#
#
# Elastic Constant Matrix: (Units=GPa)
#
#
# Indices 1 2 3 4 5 6 
#
# 1 106.7266 19.4792 34.3400 0.0000 0.0000 0.0000
# 2 19.4792 42.5876 17.2320 0.0000 0.0000 0.0000
# 3 34.3400 17.2320 31.3093 0.0000 0.0000 0.0000
# 4 0.0000 0.0000 0.0000 15.6164 0.0000 0.0000
# 5 0.0000 0.0000 0.0000 0.0000 31.3928 0.0000
# 6 0.0000 0.0000 0.0000 0.0000 0.0000 13.3155
#
#
#
# Elastic Compliance Matrix: (Units=1/GPa)
#
#
# Indices 1 2 3 4 5 6 
#
# 1 0.014482 -0.000253 -0.015744 0.000000 0.000000 0.000000
# 2 -0.000253 0.030213 -0.016351 0.000000 0.000000 0.000000
# 3 -0.015744 -0.016351 0.058207 0.000000 0.000000 0.000000
# 4 0.000000 0.000000 0.000000 0.064035 0.000000 0.000000
# 5 0.000000 0.000000 0.000000 0.000000 0.031854 0.000000
# 6 0.000000 0.000000 0.000000 0.000000 0.000000 0.075100
#
#
# Mechanical properties :
#
#
# Convention : Reuss Voigt Hill
#
# Bulk Modulus (GPa) = 26.17466 35.85844 31.01655
# Shear Modulus (GPa) = 14.23194 19.36976 16.80085
#
# Velocity S-wave (km/s) = 2.71137 3.16314 2.94593
# Velocity P-wave (km/s) = 4.82935 5.64476 5.25290
#
# Compressibility (1/GPa) = 0.03820489
#
# Stress axis : x y z
#
# Youngs Moduli (GPa) = 69.05247 33.09856 17.18019
#
# Poissons Ratio (x) = 0.00839 0.27049
# Poissons Ratio (y) = 0.01750 0.28091
# Poissons Ratio (z) = 1.08717 0.54118
#
# Static dielectric constant tensor:
#      x y z
#    x 1.688980 0.000000 0.000000 
#    y 0.000000 1.658300 0.000000 
#    z 0.000000 0.000000 1.650430 
# 
# From -- ./inp_files/4661.got.cif
#   From: 2010.05.17/outbox.cif.g08.bks.cpg/sg58_3_cif.got.tgz:4661.got - 2010.06.03 14:20:14.
