data_PCOD9442073
_publ_section_title
;
Structure prediction by ZEFSAII (Michael W. Deem and Ramdas Pophale) SiO2 
 PCOD9442073
Probable space group: P N N M
;
_chemical_formula_sum "Si O2"
_cell_formula_units_Z 56
_cell_length_a 9.948018
_cell_length_b 21.148390
_cell_length_c 12.954503
_cell_angle_alpha 90.000000
_cell_angle_beta 90.000000
_cell_angle_gamma 90.000000
_cell_volume 2725.427471
_symmetry_space_group_name_H-M "P N N M"
_symmetry_group_IT_number 58
_symmetry_cell_setting 'orthorhombic'
loop_
_space_group_symop_operation_xyz
x,y,z
-x,-y,z
1/2+x,1/2-y,1/2-z
1/2-x,1/2+y,1/2-z
-x,-y,-z
x,y,-z
1/2-x,1/2+y,1/2+z
1/2+x,1/2-y,1/2+z
loop_
_atom_site_type_symbol
_atom_site_label
_atom_site_fract_x
_atom_site_fract_y
_atom_site_fract_z
Si Si1 0.136342 0.026661 0.885217
Si Si2 0.744548 0.130361 0.381663
Si Si3 0.517576 0.790150 0.666912
Si Si4 0.106885 0.742872 0.619603
Si Si5 0.837191 0.497763 0.210228
Si Si6 0.618722 0.332631 0.334766
Si Si7 0.777129 0.869640 0.616438
O O1 0.111526 0.101055 0.889578
O O2 0.271642 0.016072 0.821295
O O3 0.147685 0.999306 0.000000
O O4 0.000000 0.000000 0.833802
O O5 0.772550 0.114214 0.500000
O O6 0.602334 0.166574 0.373222
O O7 0.850205 0.185185 0.352089
O O8 0.726230 0.064831 0.322615
O O9 0.512568 0.786644 0.792380
O O10 0.494939 0.717586 0.636743
O O11 0.654421 0.820274 0.627468
O O12 0.062726 0.740520 0.500000
O O13 0.243480 0.702251 0.632461
O O14 0.784104 0.439389 0.139999
O O15 0.000000 0.500000 0.208403
O O16 0.628999 0.350153 0.212581
O O17 0.832868 0.867411 0.500000
#
# Coordination Sequence:
#
# PCOD9442073 Si02
#       7
#     8   8   8   8   8   8   8
#     4  10  23  42  62  83 113 157 202 237 284 346
#     4  10  20  35  57  85 116 151 193 238 293 354
#     4  10  19  33  56  81 112 149 189 243 288 345
#     4   9  19  34  53  79 110 149 192 235 292 346
#     4  11  22  37  62  91 122 151 190 246 294 342
#     4   9  20  36  55  77 111 152 189 241 288 341
#     4  10  20  35  56  86 116 149 192 240 294 352
#
# _framework density 20.547236000000002
#
# number of rings (size 3 to 8) (size 9 to 14) (size 15 to 20)
#    0.000    2.143    1.429    1.286    2.000    3.143 
#    0.000    0.714    0.000    2.143    0.000    0.000 
#    0.000    0.000    0.000    0.000    0.000    0.000 
#
# Total GULP energy -312354.379916 kJ/mol
# GULP energy per Si atom -5577.756784 kJ/mol
# Density = 2.050047 g / cm^3
# Si number density = 20.547236 Si / 1000 Ang^3
#
#
#
# Elastic Constant Matrix: (Units=GPa)
#
#
# Indices 1 2 3 4 5 6 
#
# 1 35.6157 14.2918 8.0233 0.0000 0.0000 0.0000
# 2 14.2918 132.2683 13.0179 0.0000 0.0000 0.0000
# 3 8.0233 13.0179 94.4214 0.0000 0.0000 0.0000
# 4 0.0000 0.0000 0.0000 6.6584 0.0000 0.0000
# 5 0.0000 0.0000 0.0000 0.0000 19.1355 0.0000
# 6 0.0000 0.0000 0.0000 0.0000 0.0000 15.2071
#
#
#
# Elastic Compliance Matrix: (Units=1/GPa)
#
#
# Indices 1 2 3 4 5 6 
#
# 1 0.029761 -0.003008 -0.002114 0.000000 0.000000 0.000000
# 2 -0.003008 0.007968 -0.000843 0.000000 0.000000 0.000000
# 3 -0.002114 -0.000843 0.010887 0.000000 0.000000 0.000000
# 4 0.000000 0.000000 0.000000 0.150187 0.000000 0.000000
# 5 0.000000 0.000000 0.000000 0.000000 0.052259 0.000000
# 6 0.000000 0.000000 0.000000 0.000000 0.000000 0.065759
#
#
# Mechanical properties :
#
#
# Convention : Reuss Voigt Hill
#
# Bulk Modulus (GPa) = 27.25831 36.99680 32.12756
# Shear Modulus (GPa) = 14.66369 23.33170 18.99769
#
# Velocity S-wave (km/s) = 2.67433 3.37340 3.04400
# Velocity P-wave (km/s) = 4.77819 5.76350 5.29381
#
# Compressibility (1/GPa) = 0.03668606
#
# Stress axis : x y z
#
# Youngs Moduli (GPa) = 33.60138 125.49669 91.85526
#
# Poissons Ratio (x) = 0.37744 0.19420
# Poissons Ratio (y) = 0.10106 0.07744
# Poissons Ratio (z) = 0.07104 0.10580
#
# Static dielectric constant tensor:
#      x y z
#    x 1.730720 0.000000 0.000000 
#    y 0.000000 1.722120 0.000000 
#    z 0.000000 0.000000 1.760260 
# 
# From -- ./inp_files/14574.got.cif
#   From: 2010.05.17/outbox.cif.g08.bks.cpg/sg58_8_cif.got.tgz:14574.got - 2010.06.03 14:20:14.
