data_PCOD9442874
_publ_section_title
;
Structure prediction by ZEFSAII (Michael W. Deem and Ramdas Pophale) SiO2 
 PCOD9442874
Probable space group: P N N M
;
_chemical_formula_sum "Si O2"
_cell_formula_units_Z 44
_cell_length_a 17.605596
_cell_length_b 8.440734
_cell_length_c 14.785091
_cell_angle_alpha 90.000000
_cell_angle_beta 90.000000
_cell_angle_gamma 90.000000
_cell_volume 2197.125921
_symmetry_space_group_name_H-M "P N N M"
_symmetry_group_IT_number 58
_symmetry_cell_setting 'orthorhombic'
loop_
_space_group_symop_operation_xyz
x,y,z
-x,-y,z
1/2+x,1/2-y,1/2-z
1/2-x,1/2+y,1/2-z
-x,-y,-z
x,y,-z
1/2-x,1/2+y,1/2+z
1/2+x,1/2-y,1/2+z
loop_
_atom_site_type_symbol
_atom_site_label
_atom_site_fract_x
_atom_site_fract_y
_atom_site_fract_z
Si Si1 0.574619 0.104954 0.392823
Si Si2 0.216357 0.087005 0.000000
Si Si3 0.149810 0.878983 0.301741
Si Si4 0.330781 0.390335 0.000000
Si Si5 0.079128 0.053552 0.142191
Si Si6 0.739988 0.251998 0.000000
Si Si7 0.207572 0.609766 0.181112
O O1 0.587189 0.140843 0.500000
O O2 0.565235 0.263612 0.336403
O O3 0.500000 0.000000 0.388177
O O4 0.644150 0.011437 0.351245
O O5 0.260687 0.258173 0.000000
O O6 0.156875 0.062085 0.916647
O O7 0.276056 0.938250 0.000000
O O8 0.126146 0.863590 0.405908
O O9 0.183289 0.713958 0.265956
O O10 0.090737 0.942637 0.228611
O O11 0.216878 0.010046 0.301091
O O12 0.307759 0.579559 0.000000
O O13 0.000000 0.000000 0.096401
O O14 0.783239 0.275516 0.094628
#
# Coordination Sequence:
#
# PCOD9442874 Si02
#       7
#     8   4   8   4   8   4   8
#     4  11  23  36  59  91 133 167 190 249 322 394
#     4  12  21  38  63  99 127 168 199 259 328 398
#     4  11  23  38  61  84 123 165 219 262 311 365
#     4  10  24  43  60  93 127 170 212 277 311 365
#     4  12  24  39  60  92 127 170 211 253 318 395
#     4  10  20  33  60  86 127 154 202 241 319 377
#     4  11  20  37  56  88 120 166 203 256 311 376
#
# _framework density 20.026161999999999
#
# number of rings (size 3 to 8) (size 9 to 14) (size 15 to 20)
#    0.000    0.909    3.636    5.727    0.000    0.000 
#    0.000    0.455    0.000    0.000    0.000    2.545 
#    0.000    0.000    0.000    0.000    0.000    0.000 
#
# Total GULP energy -245216.732879 kJ/mol
# GULP energy per Si atom -5573.107565 kJ/mol
# Density = 1.998058 g / cm^3
# Si number density = 20.026162 Si / 1000 Ang^3
#
#
#
# Elastic Constant Matrix: (Units=GPa)
#
#
# Indices 1 2 3 4 5 6 
#
# 1 45.5317 10.1177 8.4828 0.0000 0.0000 0.0000
# 2 10.1177 66.1062 -18.8660 0.0000 0.0000 0.0000
# 3 8.4828 -18.8660 97.5821 0.0000 0.0000 0.0000
# 4 0.0000 0.0000 0.0000 37.9573 0.0000 0.0000
# 5 0.0000 0.0000 0.0000 0.0000 -38.8867 0.0000
# 6 0.0000 0.0000 0.0000 0.0000 0.0000 10.7652
#
#
#
# Elastic Compliance Matrix: (Units=1/GPa)
#
#
# Indices 1 2 3 4 5 6 
#
# 1 0.023485 -0.004421 -0.002896 0.000000 0.000000 0.000000
# 2 -0.004421 0.016843 0.003641 0.000000 0.000000 0.000000
# 3 -0.002896 0.003641 0.011203 0.000000 0.000000 0.000000
# 4 0.000000 0.000000 0.000000 0.026345 0.000000 0.000000
# 5 0.000000 0.000000 0.000000 0.000000 -0.025716 0.000000
# 6 0.000000 0.000000 0.000000 0.000000 0.000000 0.092892
#
#
# Mechanical properties :
#
#
# Convention : Reuss Voigt Hill
#
# Bulk Modulus (GPa) = 22.63582 23.18766 22.91174
# Shear Modulus (GPa) = 29.91659 15.93286 22.92473
#
# Velocity S-wave (km/s) = 3.86926 2.82370 3.38707
# Velocity P-wave (km/s) = 5.59368 4.71539 5.17321
#
# Compressibility (1/GPa) = 0.04417776
#
# Stress axis : x y z
#
# Youngs Moduli (GPa) = 42.58095 59.37262 89.25861
#
# Poissons Ratio (x) = 0.26248 0.25851
# Poissons Ratio (y) = 0.18825 -0.32495
# Poissons Ratio (z) = 0.12332 -0.21615
#
# Static dielectric constant tensor:
#      x y z
#    x 1.735650 0.000000 0.000000 
#    y 0.000000 1.748370 0.000000 
#    z 0.000000 0.000000 1.750890 
# 
# From -- ./inp_files/22715.got.cif
#   From: 2010.05.17/outbox.cif.g08.bks.cpg/sg58_12_cif.got.tgz:22715.got - 2010.06.03 14:20:14.
