data_PCOD9442631
_publ_section_title
;
Structure prediction by ZEFSAII (Michael W. Deem and Ramdas Pophale) SiO2 
 PCOD9442631
Probable space group: P N N M
;
_chemical_formula_sum "Si O2"
_cell_formula_units_Z 64
_cell_length_a 9.049421
_cell_length_b 14.736528
_cell_length_c 24.227023
_cell_angle_alpha 90.000000
_cell_angle_beta 90.000000
_cell_angle_gamma 90.000000
_cell_volume 3230.844219
_symmetry_space_group_name_H-M "P N N M"
_symmetry_group_IT_number 58
_symmetry_cell_setting 'orthorhombic'
loop_
_space_group_symop_operation_xyz
x,y,z
-x,-y,z
1/2+x,1/2-y,1/2-z
1/2-x,1/2+y,1/2-z
-x,-y,-z
x,y,-z
1/2-x,1/2+y,1/2+z
1/2+x,1/2-y,1/2+z
loop_
_atom_site_type_symbol
_atom_site_label
_atom_site_fract_x
_atom_site_fract_y
_atom_site_fract_z
Si Si1 0.915032 0.096640 0.338847
Si Si2 0.301209 0.304643 0.403512
Si Si3 0.925171 0.902216 0.111885
Si Si4 0.662653 0.986891 0.617561
Si Si5 0.388284 0.642555 0.060332
Si Si6 0.856488 0.319820 0.199421
Si Si7 0.824718 0.505385 0.435367
Si Si8 0.935720 0.821069 0.766939
O O1 0.994432 0.147530 0.389841
O O2 0.952380 0.143357 0.280701
O O3 0.747551 0.072697 0.355806
O O4 0.000000 0.000000 0.335156
O O5 0.472432 0.326894 0.417808
O O6 0.211945 0.232664 0.439292
O O7 0.303123 0.257306 0.343787
O O8 0.223392 0.401792 0.405522
O O9 0.937941 0.877950 0.176446
O O10 0.759907 0.919307 0.090926
O O11 0.000000 0.000000 0.101612
O O12 0.777863 0.940116 0.575597
O O13 0.637496 0.913079 0.666078
O O14 0.500000 0.000000 0.593049
O O15 0.455564 0.629161 0.000000
O O16 0.729254 0.327197 0.244331
O O17 0.010690 0.281269 0.221142
O O18 0.781511 0.511919 0.500000
O O19 0.000000 0.500000 0.432028
#
# Coordination Sequence:
#
# PCOD9442631 Si02
#       8
#     8   8   8   8   8   8   8   8
#     4  10  19  37  62  79 115 154 192 236 293 351
#     4   9  18  38  56  82 112 148 191 234 285 353
#     4   9  20  34  58  82 111 149 195 233 285 355
#     4  10  22  39  55  86 117 148 190 241 298 348
#     4  10  20  37  62  86 109 151 202 243 291 355
#     4  10  22  36  57  84 115 149 192 230 289 348
#     4  10  21  37  57  84 117 150 191 246 296 345
#     4  11  20  37  57  84 116 151 188 238 288 348
#
# _framework density 19.809063999999999
#
# number of rings (size 3 to 8) (size 9 to 14) (size 15 to 20)
#    0.000    2.125    3.750    0.750    1.750    6.250 
#    0.000    0.625    0.000    0.000    0.000    0.000 
#    0.000    0.000    0.000    0.000    0.000    0.000 
#
# Total GULP energy -356680.563608 kJ/mol
# GULP energy per Si atom -5573.133806 kJ/mol
# Density = 1.976398 g / cm^3
# Si number density = 19.809064 Si / 1000 Ang^3
#
#
#
# Elastic Constant Matrix: (Units=GPa)
#
#
# Indices 1 2 3 4 5 6 
#
# 1 65.2524 20.8205 13.2123 0.0000 0.0000 0.0000
# 2 20.8205 54.7701 20.3509 0.0000 0.0000 0.0000
# 3 13.2123 20.3509 58.1376 0.0000 0.0000 0.0000
# 4 0.0000 0.0000 0.0000 20.2792 0.0000 0.0000
# 5 0.0000 0.0000 0.0000 0.0000 15.5307 0.0000
# 6 0.0000 0.0000 0.0000 0.0000 0.0000 26.4759
#
#
#
# Elastic Compliance Matrix: (Units=1/GPa)
#
#
# Indices 1 2 3 4 5 6 
#
# 1 0.017623 -0.005990 -0.001908 0.000000 0.000000 0.000000
# 2 -0.005990 0.023024 -0.006698 0.000000 0.000000 0.000000
# 3 -0.001908 -0.006698 0.019979 0.000000 0.000000 0.000000
# 4 0.000000 0.000000 0.000000 0.049312 0.000000 0.000000
# 5 0.000000 0.000000 0.000000 0.000000 0.064389 0.000000
# 6 0.000000 0.000000 0.000000 0.000000 0.000000 0.037770
#
#
# Mechanical properties :
#
#
# Convention : Reuss Voigt Hill
#
# Bulk Modulus (GPa) = 31.81387 31.88082 31.84734
# Shear Modulus (GPa) = 19.85967 20.70894 20.28430
#
# Velocity S-wave (km/s) = 3.16975 3.23681 3.20346
# Velocity P-wave (km/s) = 5.43061 5.48619 5.45847
#
# Compressibility (1/GPa) = 0.03143283
#
# Stress axis : x y z
#
# Youngs Moduli (GPa) = 56.74467 43.43278 50.05289
#
# Poissons Ratio (x) = 0.26017 0.09551
# Poissons Ratio (y) = 0.33991 0.33526
# Poissons Ratio (z) = 0.10827 0.29092
#
# Static dielectric constant tensor:
#      x y z
#    x 1.747440 0.000000 0.000000 
#    y 0.000000 1.702720 0.000000 
#    z 0.000000 0.000000 1.740760 
# 
# From -- ./inp_files/31610.got.cif
#   From: 2010.05.17/outbox.cif.g08.bks.cpg/sg58_16_cif.got.tgz:31610.got - 2010.06.03 14:20:14.
