data_PCOD9442561
_publ_section_title
;
Structure prediction by ZEFSAII (Michael W. Deem and Ramdas Pophale) SiO2 
 PCOD9442561
Probable space group: P N N M
;
_chemical_formula_sum "Si O2"
_cell_formula_units_Z 64
_cell_length_a 19.295725
_cell_length_b 20.407773
_cell_length_c 8.537657
_cell_angle_alpha 90.000000
_cell_angle_beta 90.000000
_cell_angle_gamma 90.000000
_cell_volume 3361.982271
_symmetry_space_group_name_H-M "P N N M"
_symmetry_group_IT_number 58
_symmetry_cell_setting 'orthorhombic'
loop_
_space_group_symop_operation_xyz
x,y,z
-x,-y,z
1/2+x,1/2-y,1/2-z
1/2-x,1/2+y,1/2-z
-x,-y,-z
x,y,-z
1/2-x,1/2+y,1/2+z
1/2+x,1/2-y,1/2+z
loop_
_atom_site_type_symbol
_atom_site_label
_atom_site_fract_x
_atom_site_fract_y
_atom_site_fract_z
Si Si1 0.812801 0.239504 0.187706
Si Si2 0.712376 0.978116 0.189339
Si Si3 0.444338 0.053785 0.189155
Si Si4 0.051320 0.182334 0.809178
Si Si5 0.793135 0.847553 0.810405
Si Si6 0.039150 0.699137 0.810886
Si Si7 0.953259 0.062620 0.189049
Si Si8 0.303931 0.407267 0.185501
O O1 0.755598 0.289090 0.252800
O O2 0.888479 0.266457 0.236829
O O3 0.801194 0.165838 0.245512
O O4 0.811115 0.239762 0.000000
O O5 0.743989 0.045375 0.251408
O O6 0.633586 0.964503 0.240688
O O7 0.760298 0.916825 0.240099
O O8 0.713349 0.979980 0.000000
O O9 0.463310 0.126197 0.245906
O O10 0.500000 0.000000 0.242567
O O11 0.444205 0.054092 0.000000
O O12 0.128143 0.163582 0.755858
O O13 0.023264 0.253261 0.759781
O O14 0.995410 0.127470 0.763292
O O15 0.052559 0.181815 0.000000
O O16 0.793299 0.847480 0.000000
O O17 0.038562 0.696234 0.000000
O O18 0.877696 0.062323 0.263224
O O19 0.944687 0.063680 0.000000
O O20 0.000000 0.000000 0.228590
O O21 0.299941 0.403397 0.000000
#
# Coordination Sequence:
#
# PCOD9442561 Si02
#       8
#     8   8   8   8   8   8   8   8
#     4  11  22  39  62  85 117 159 203 244 298 363
#     4  10  21  39  61  86 121 162 202 247 306 373
#     4  10  22  40  63  90 119 153 199 251 305 364
#     4   9  18  34  57  88 119 150 195 242 289 356
#     4  10  20  37  63  91 118 154 200 247 299 358
#     4  10  20  37  61  85 116 156 197 245 294 355
#     4  10  19  36  61  85 117 161 200 236 292 362
#     4  12  25  38  58  88 123 159 203 253 298 351
#
# _framework density 19.036389
#
# number of rings (size 3 to 8) (size 9 to 14) (size 15 to 20)
#    0.000    1.750    2.500    2.250    0.000    5.000 
#    0.000    3.750    0.000    0.000    0.000    0.000 
#    0.000    0.000    0.000    0.000    0.000    0.000 
#
# Total GULP energy -357573.999187 kJ/mol
# GULP energy per Si atom -5587.093737 kJ/mol
# Density = 1.899306 g / cm^3
# Si number density = 19.036389 Si / 1000 Ang^3
#
#
#
# Elastic Constant Matrix: (Units=GPa)
#
#
# Indices 1 2 3 4 5 6 
#
# 1 119.1018 65.2447 16.9162 0.0000 0.0000 0.0000
# 2 65.2447 162.2166 17.8345 0.0000 0.0000 0.0000
# 3 16.9162 17.8345 8.7476 0.0000 0.0000 0.0000
# 4 0.0000 0.0000 0.0000 21.3848 0.0000 0.0000
# 5 0.0000 0.0000 0.0000 0.0000 1.1930 0.0000
# 6 0.0000 0.0000 0.0000 0.0000 0.0000 39.6872
#
#
#
# Elastic Compliance Matrix: (Units=1/GPa)
#
#
# Indices 1 2 3 4 5 6 
#
# 1 0.012679 -0.003098 -0.018201 0.000000 0.000000 0.000000
# 2 -0.003098 0.008703 -0.011751 0.000000 0.000000 0.000000
# 3 -0.018201 -0.011751 0.173472 0.000000 0.000000 0.000000
# 4 0.000000 0.000000 0.000000 0.046762 0.000000 0.000000
# 5 0.000000 0.000000 0.000000 0.000000 0.838246 0.000000
# 6 0.000000 0.000000 0.000000 0.000000 0.000000 0.025197
#
#
# Mechanical properties :
#
#
# Convention : Reuss Voigt Hill
#
# Bulk Modulus (GPa) = 7.76686 54.45076 31.10881
# Shear Modulus (GPa) = 4.11835 25.12436 14.62136
#
# Velocity S-wave (km/s) = 1.47245 3.63686 2.77442
# Velocity P-wave (km/s) = 2.64191 6.80450 5.16144
#
# Compressibility (1/GPa) = 0.12875208
#
# Stress axis : x y z
#
# Youngs Moduli (GPa) = 78.87309 114.90598 5.76461
#
# Poissons Ratio (x) = 0.35602 0.10492
# Poissons Ratio (y) = 0.24438 0.06774
# Poissons Ratio (z) = 1.43557 1.35031
#
# Static dielectric constant tensor:
#      x y z
#    x 1.651280 0.000000 0.000000 
#    y 0.000000 1.633670 0.000000 
#    z 0.000000 0.000000 1.649680 
# 
# From -- ./inp_files/9235.got.cif
#   From: 2010.05.17/outbox.cif.g08.bks.cpg/sg58_5_cif.got.tgz:9235.got - 2010.06.03 14:20:14.
