data_PCOD9442491
_publ_section_title
;
Structure prediction by ZEFSAII (Michael W. Deem and Ramdas Pophale) SiO2 
 PCOD9442491
Probable space group: P N N M
;
_chemical_formula_sum "Si O2"
_cell_formula_units_Z 44
_cell_length_a 13.167534
_cell_length_b 17.574261
_cell_length_c 7.405754
_cell_angle_alpha 90.000000
_cell_angle_beta 90.000000
_cell_angle_gamma 90.000000
_cell_volume 1713.763158
_symmetry_space_group_name_H-M "P N N M"
_symmetry_group_IT_number 58
_symmetry_cell_setting 'orthorhombic'
loop_
_space_group_symop_operation_xyz
x,y,z
-x,-y,z
1/2+x,1/2-y,1/2-z
1/2-x,1/2+y,1/2-z
-x,-y,-z
x,y,-z
1/2-x,1/2+y,1/2+z
1/2+x,1/2-y,1/2+z
loop_
_atom_site_type_symbol
_atom_site_label
_atom_site_fract_x
_atom_site_fract_y
_atom_site_fract_z
Si Si1 0.858637 0.875258 0.217298
Si Si2 0.597716 0.052979 0.719918
Si Si3 0.832958 0.040261 0.794138
Si Si4 0.033669 0.278687 0.219604
Si Si5 0.196709 0.728909 0.794944
Si Si6 0.306598 0.337389 0.000000
O O1 0.919322 0.801241 0.283424
O O2 0.745624 0.853806 0.281144
O O3 0.881956 0.960972 0.269908
O O4 0.862302 0.875167 0.000000
O O5 0.609313 0.054412 0.500000
O O6 0.709220 0.030104 0.790178
O O7 0.573599 0.139122 0.780241
O O8 0.500000 0.000000 0.761928
O O9 0.853564 0.108505 0.659420
O O10 0.864884 0.056520 0.000000
O O11 0.916586 0.274491 0.278112
O O12 0.030729 0.279550 0.000000
O O13 0.249941 0.785078 0.656304
O O14 0.200823 0.755683 0.000000
#
# Coordination Sequence:
#
# PCOD9442491 Si02
#       6
#     8   8   8   8   8   4
#     4  10  21  41  67  95 136 180 222 276 331 399
#     4  10  19  35  64  97 136 174 213 282 354 405
#     4  11  24  40  64  96 131 179 229 274 338 402
#     4   9  20  39  64  93 131 171 220 270 336 406
#     4  11  23  42  69  97 128 174 222 274 339 402
#     4  12  24  44  64  92 133 166 218 280 331 392
#
# _framework density 25.674493999999999
#
# number of rings (size 3 to 8) (size 9 to 14) (size 15 to 20)
#    0.000    1.636    1.818    2.727    3.818    1.818 
#    3.273    1.818    0.000    4.364    0.000    0.000 
#    0.000    0.000    0.000    0.000    0.000    0.000 
#
# Total GULP energy -245271.629154 kJ/mol
# GULP energy per Si atom -5574.355208 kJ/mol
# Density = 2.561606 g / cm^3
# Si number density = 25.674494 Si / 1000 Ang^3
#
#
#
# Elastic Constant Matrix: (Units=GPa)
#
#
# Indices 1 2 3 4 5 6 
#
# 1 69.3025 13.2810 -18.6562 0.0000 0.0000 0.0000
# 2 13.2810 144.1027 36.8732 0.0000 0.0000 0.0000
# 3 -18.6562 36.8732 150.2560 0.0000 0.0000 0.0000
# 4 0.0000 0.0000 0.0000 -101.8356 0.0000 0.0000
# 5 0.0000 0.0000 0.0000 0.0000 -37.4679 0.0000
# 6 0.0000 0.0000 0.0000 0.0000 0.0000 37.0232
#
#
#
# Elastic Compliance Matrix: (Units=1/GPa)
#
#
# Indices 1 2 3 4 5 6 
#
# 1 0.015474 -0.002046 0.002423 0.000000 0.000000 0.000000
# 2 -0.002046 0.007675 -0.002138 0.000000 0.000000 0.000000
# 3 0.002423 -0.002138 0.007481 0.000000 0.000000 0.000000
# 4 0.000000 0.000000 0.000000 -0.009820 0.000000 0.000000
# 5 0.000000 0.000000 0.000000 0.000000 -0.026690 0.000000
# 6 0.000000 0.000000 0.000000 0.000000 0.000000 0.027010
#
#
# Mechanical properties :
#
#
# Convention : Reuss Voigt Hill
#
# Bulk Modulus (GPa) = 36.88794 47.40637 42.14716
# Shear Modulus (GPa) = 148.42198 1.68815 75.05506
#
# Velocity S-wave (km/s) = 7.61148 0.81176 5.41265
# Velocity P-wave (km/s) = 9.57313 4.40262 7.45077
#
# Compressibility (1/GPa) = 0.02710913
#
# Stress axis : x y z
#
# Youngs Moduli (GPa) = 64.62445 130.29242 133.67610
#
# Poissons Ratio (x) = 0.26661 -0.32396
# Poissons Ratio (y) = 0.13224 0.28574
# Poissons Ratio (z) = -0.15661 0.27851
#
# Static dielectric constant tensor:
#      x y z
#    x 2.240560 0.000000 0.000000 
#    y 0.000000 2.051040 0.000000 
#    z 0.000000 0.000000 5.363010 
# 
# From -- ./inp_files/5687.got.cif
#   From: 2010.05.17/outbox.cif.g08.bks.cpg/sg58_3_cif.got.tgz:5687.got - 2010.06.03 14:20:14.
