data_PCOD9442903
_publ_section_title
;
Structure prediction by ZEFSAII (Michael W. Deem and Ramdas Pophale) SiO2 
 PCOD9442903
Probable space group: P N N M
;
_chemical_formula_sum "Si O2"
_cell_formula_units_Z 64
_cell_length_a 20.320629
_cell_length_b 20.990126
_cell_length_c 8.399643
_cell_angle_alpha 90.000000
_cell_angle_beta 90.000000
_cell_angle_gamma 90.000000
_cell_volume 3582.721258
_symmetry_space_group_name_H-M "P N N M"
_symmetry_group_IT_number 58
_symmetry_cell_setting 'orthorhombic'
loop_
_space_group_symop_operation_xyz
x,y,z
-x,-y,z
1/2+x,1/2-y,1/2-z
1/2-x,1/2+y,1/2-z
-x,-y,-z
x,y,-z
1/2-x,1/2+y,1/2+z
1/2+x,1/2-y,1/2+z
loop_
_atom_site_type_symbol
_atom_site_label
_atom_site_fract_x
_atom_site_fract_y
_atom_site_fract_z
Si Si1 0.926874 0.821655 0.692552
Si Si2 0.074796 0.820959 0.190854
Si Si3 0.173921 0.431048 0.692529
Si Si4 0.326128 0.570296 0.192353
Si Si5 0.926249 0.677316 0.694010
Si Si6 0.077015 0.679635 0.690598
Si Si7 0.674861 0.928592 0.309447
Si Si8 0.174848 0.929977 0.807691
O O1 0.926789 0.822093 0.500000
O O2 0.875598 0.874849 0.748608
O O3 0.909027 0.749538 0.743409
O O4 0.001142 0.834412 0.748223
O O5 0.093697 0.750184 0.247494
O O6 0.126043 0.874500 0.247415
O O7 0.074213 0.821465 0.000000
O O8 0.173240 0.430837 0.500000
O O9 0.124452 0.376266 0.749562
O O10 0.154479 0.501456 0.749312
O O11 0.249447 0.419462 0.744505
O O12 0.250619 0.581705 0.244588
O O13 0.345659 0.499970 0.249674
O O14 0.326622 0.570553 0.000000
O O15 0.925029 0.676365 0.500000
O O16 0.001779 0.665178 0.743065
O O17 0.077103 0.681373 0.500000
O O18 0.127150 0.626347 0.748678
O O19 0.674385 0.928559 0.500000
O O20 0.174533 0.930078 0.000000
#
# Coordination Sequence:
#
# PCOD9442903 Si02
#       8
#     8   8   8   8   8   8   8   8
#     4   9  18  34  53  74  98 131 171 208 247 298
#     4  10  20  34  51  75 104 133 164 207 257 301
#     4   9  17  33  54  73  95 130 170 206 243 294
#     4   9  19  34  53  74 100 133 170 209 248 293
#     4   8  16  31  52  73  94 123 166 209 242 284
#     4  10  20  35  53  74 100 133 170 208 247 299
#     4  10  20  34  51  75 104 132 163 207 255 298
#     4   9  19  33  51  74 101 131 165 204 251 301
#
# _framework density 17.863517000000002
#
# number of rings (size 3 to 8) (size 9 to 14) (size 15 to 20)
#    0.000    2.750    0.000    1.875    0.000    4.000 
#    0.000   11.875    0.000    0.000    0.000    0.000 
#    0.000    0.000    0.000    0.000    0.000    0.000 
#
# Total GULP energy -356904.403355 kJ/mol
# GULP energy per Si atom -5576.631302 kJ/mol
# Density = 1.782286 g / cm^3
# Si number density = 17.863517 Si / 1000 Ang^3
#
#
#
# Elastic Constant Matrix: (Units=GPa)
#
#
# Indices 1 2 3 4 5 6 
#
# 1 113.4933 136.3378 17.5094 0.0000 0.0000 0.0000
# 2 136.3378 196.9274 23.0012 0.0000 0.0000 0.0000
# 3 17.5094 23.0012 13.7986 0.0000 0.0000 0.0000
# 4 0.0000 0.0000 0.0000 28.9273 0.0000 0.0000
# 5 0.0000 0.0000 0.0000 0.0000 -9.2312 0.0000
# 6 0.0000 0.0000 0.0000 0.0000 0.0000 45.3457
#
#
#
# Elastic Compliance Matrix: (Units=1/GPa)
#
#
# Indices 1 2 3 4 5 6 
#
# 1 0.052974 -0.035793 -0.007556 0.000000 0.000000 0.000000
# 2 -0.035793 0.030490 -0.005406 0.000000 0.000000 0.000000
# 3 -0.007556 -0.005406 0.091071 0.000000 0.000000 0.000000
# 4 0.000000 0.000000 0.000000 0.034569 0.000000 0.000000
# 5 0.000000 0.000000 0.000000 0.000000 -0.108328 0.000000
# 6 0.000000 0.000000 0.000000 0.000000 0.000000 0.022053
#
#
# Mechanical properties :
#
#
# Convention : Reuss Voigt Hill
#
# Bulk Modulus (GPa) = 12.98282 75.32398 44.15340
# Shear Modulus (GPa) = 20.32416 22.83307 21.57862
#
# Velocity S-wave (km/s) = 3.37671 3.57906 3.47936
# Velocity P-wave (km/s) = 4.74199 7.70309 6.39625
#
# Compressibility (1/GPa) = 0.07702489
#
# Stress axis : x y z
#
# Youngs Moduli (GPa) = 18.87715 32.79810 10.98049
#
# Poissons Ratio (x) = 1.17393 0.08297
# Poissons Ratio (y) = 0.67566 0.05936
# Poissons Ratio (z) = 0.14264 0.17729
#
# Static dielectric constant tensor:
#      x y z
#    x 1.606120 0.000000 0.000000 
#    y 0.000000 1.587650 0.000000 
#    z 0.000000 0.000000 1.619170 
# 
# From -- ./inp_files/8390.got.cif
#   From: 2010.05.17/outbox.cif.g08.bks.cpg/sg58_5_cif.got.tgz:8390.got - 2010.06.03 14:20:14.
