data_PCOD9442862
_publ_section_title
;
Structure prediction by ZEFSAII (Michael W. Deem and Ramdas Pophale) SiO2 
 PCOD9442862
Probable space group: P N N M
;
_chemical_formula_sum "Si O2"
_cell_formula_units_Z 56
_cell_length_a 17.982551
_cell_length_b 19.642248
_cell_length_c 8.969327
_cell_angle_alpha 90.000000
_cell_angle_beta 90.000000
_cell_angle_gamma 90.000000
_cell_volume 3168.125290
_symmetry_space_group_name_H-M "P N N M"
_symmetry_group_IT_number 58
_symmetry_cell_setting 'orthorhombic'
loop_
_space_group_symop_operation_xyz
x,y,z
-x,-y,z
1/2+x,1/2-y,1/2-z
1/2-x,1/2+y,1/2-z
-x,-y,-z
x,y,-z
1/2-x,1/2+y,1/2+z
1/2+x,1/2-y,1/2+z
loop_
_atom_site_type_symbol
_atom_site_label
_atom_site_fract_x
_atom_site_fract_y
_atom_site_fract_z
Si Si1 0.426776 0.691216 0.821298
Si Si2 0.805836 0.039816 0.177547
Si Si3 0.649972 0.054481 0.678793
Si Si4 0.972925 0.666360 0.819976
Si Si5 0.631361 0.896439 0.320925
Si Si6 0.787172 0.879727 0.822057
Si Si7 0.959637 0.070455 0.320810
O O1 0.451762 0.763202 0.756359
O O2 0.348360 0.667748 0.753256
O O3 0.487533 0.633451 0.781112
O O4 0.421452 0.693642 0.000000
O O5 0.729027 0.067754 0.244472
O O6 0.879029 0.073057 0.246658
O O7 0.806810 0.958764 0.213962
O O8 0.805809 0.046838 0.000000
O O9 0.659557 0.057512 0.500000
O O10 0.586869 0.108265 0.720971
O O11 0.626212 0.976998 0.715691
O O12 0.055519 0.641273 0.779247
O O13 0.970724 0.673781 0.000000
O O14 0.640807 0.891347 0.500000
O O15 0.704587 0.868207 0.240908
O O16 0.788430 0.871847 0.000000
O O17 0.950979 0.069037 0.500000
O O18 0.000000 0.000000 0.275805
#
# Coordination Sequence:
#
# PCOD9442862 Si02
#       7
#     8   8   8   8   8   8   8
#     4  11  23  38  57  80 110 150 190 230 281 337
#     4  10  20  33  55  87 115 140 179 231 281 326
#     4   9  18  35  60  85 112 147 186 229 275 331
#     4  10  21  38  58  84 115 148 186 231 282 332
#     4   9  18  35  61  87 111 144 189 231 273 330
#     4  10  20  35  56  83 113 144 181 227 281 332
#     4  10  20  36  58  80 106 144 189 232 275 331
#
# _framework density 17.676068999999998
#
# number of rings (size 3 to 8) (size 9 to 14) (size 15 to 20)
#    0.000    2.143    1.429    1.714    0.000    5.429 
#    2.571    0.000    0.000    4.286    0.000    0.000 
#    0.000    0.000    0.000    0.000    0.000    0.000 
#
# Total GULP energy -312673.510234 kJ/mol
# GULP energy per Si atom -5583.455540 kJ/mol
# Density = 1.763584 g / cm^3
# Si number density = 17.676069 Si / 1000 Ang^3
#
#
#
# Elastic Constant Matrix: (Units=GPa)
#
#
# Indices 1 2 3 4 5 6 
#
# 1 200.4403 103.1368 65.8463 0.0000 0.0000 0.0000
# 2 103.1368 109.5835 48.5924 0.0000 0.0000 0.0000
# 3 65.8463 48.5924 32.5617 0.0000 0.0000 0.0000
# 4 0.0000 0.0000 0.0000 27.0856 0.0000 0.0000
# 5 0.0000 0.0000 0.0000 0.0000 20.6148 0.0000
# 6 0.0000 0.0000 0.0000 0.0000 0.0000 18.1539
#
#
#
# Elastic Compliance Matrix: (Units=1/GPa)
#
#
# Indices 1 2 3 4 5 6 
#
# 1 0.015005 -0.001973 -0.027399 0.000000 0.000000 0.000000
# 2 -0.001973 0.027237 -0.036656 0.000000 0.000000 0.000000
# 3 -0.027399 -0.036656 0.140819 0.000000 0.000000 0.000000
# 4 0.000000 0.000000 0.000000 0.036920 0.000000 0.000000
# 5 0.000000 0.000000 0.000000 0.000000 0.048509 0.000000
# 6 0.000000 0.000000 0.000000 0.000000 0.000000 0.055084
#
#
# Mechanical properties :
#
#
# Convention : Reuss Voigt Hill
#
# Bulk Modulus (GPa) = 19.60586 86.41517 53.01052
# Shear Modulus (GPa) = 10.57908 21.50487 16.04197
#
# Velocity S-wave (km/s) = 2.44907 3.49178 3.01583
# Velocity P-wave (km/s) = 4.37186 8.07781 6.49477
#
# Compressibility (1/GPa) = 0.05100515
#
# Stress axis : x y z
#
# Youngs Moduli (GPa) = 66.64539 36.71542 7.10130
#
# Poissons Ratio (x) = 0.07243 0.19457
# Poissons Ratio (y) = 0.13147 0.26031
# Poissons Ratio (z) = 1.82600 1.34585
#
# Static dielectric constant tensor:
#      x y z
#    x 1.577450 0.000000 0.000000 
#    y 0.000000 1.584380 0.000000 
#    z 0.000000 0.000000 1.587220 
# 
# From -- ./inp_files/6254.got.cif
#   From: 2010.05.17/outbox.cif.g08.bks.cpg/sg58_4_cif.got.tgz:6254.got - 2010.06.03 14:20:14.
