data_PCOD9442400
_publ_section_title
;
Structure prediction by ZEFSAII (Michael W. Deem and Ramdas Pophale) SiO2 
 PCOD9442400
Probable space group: P N N M
;
_chemical_formula_sum "Si O2"
_cell_formula_units_Z 36
_cell_length_a 7.500977
_cell_length_b 11.847628
_cell_length_c 15.675633
_cell_angle_alpha 90.000000
_cell_angle_beta 90.000000
_cell_angle_gamma 90.000000
_cell_volume 1393.074461
_symmetry_space_group_name_H-M "P N N M"
_symmetry_group_IT_number 58
_symmetry_cell_setting 'orthorhombic'
loop_
_space_group_symop_operation_xyz
x,y,z
-x,-y,z
1/2+x,1/2-y,1/2-z
1/2-x,1/2+y,1/2-z
-x,-y,-z
x,y,-z
1/2-x,1/2+y,1/2+z
1/2+x,1/2-y,1/2+z
loop_
_atom_site_type_symbol
_atom_site_label
_atom_site_fract_x
_atom_site_fract_y
_atom_site_fract_z
Si Si1 0.650391 0.774305 0.405926
Si Si2 0.148129 0.646750 0.601986
Si Si3 0.269176 0.932279 0.818635
Si Si4 0.453860 0.379332 0.902725
Si Si5 0.000000 0.500000 0.835997
O O1 0.605870 0.728099 0.500000
O O2 0.642446 0.674235 0.336312
O O3 0.852519 0.820887 0.408228
O O4 0.541787 0.887569 0.387525
O O5 0.147566 0.645711 0.500000
O O6 0.279524 0.550695 0.636698
O O7 0.953678 0.608620 0.635838
O O8 0.168271 0.776513 0.631188
O O9 0.334630 0.967901 0.725248
O O10 0.500000 0.500000 0.861858
O O11 0.388333 0.403733 0.000000
#
# Coordination Sequence:
#
# PCOD9442400 Si02
#       5
#     8   8   8   8   4
#     4  10  19  35  58  82 111 154 196 237 294 365
#     4   8  12  23  47  74 101 133 178 230 268 330
#     4   9  17  31  49  76 110 143 188 231 291 346
#     4   8  14  25  44  77 109 136 181 231 275 324
#     4  10  21  36  51  90 118 150 194 246 305 358
#
# _framework density 25.842122
#
# number of rings (size 3 to 8) (size 9 to 14) (size 15 to 20)
#    0.000    3.333    0.000    4.333    0.000    0.000 
#   12.000    0.000    0.000    0.000    0.000    1.556 
#    0.000    0.000    0.000    0.000    0.000    0.000 
#
# Total GULP energy -200913.650898 kJ/mol
# GULP energy per Si atom -5580.934747 kJ/mol
# Density = 2.578330 g / cm^3
# Si number density = 25.842122 Si / 1000 Ang^3
#
#
#
# Elastic Constant Matrix: (Units=GPa)
#
#
# Indices 1 2 3 4 5 6 
#
# 1 53.2947 34.6692 13.9972 0.0000 0.0000 0.0000
# 2 34.6692 221.3678 11.8983 0.0000 0.0000 0.0000
# 3 13.9972 11.8983 54.4234 0.0000 0.0000 0.0000
# 4 0.0000 0.0000 0.0000 25.7489 0.0000 0.0000
# 5 0.0000 0.0000 0.0000 0.0000 0.9696 0.0000
# 6 0.0000 0.0000 0.0000 0.0000 0.0000 48.5015
#
#
#
# Elastic Compliance Matrix: (Units=1/GPa)
#
#
# Indices 1 2 3 4 5 6 
#
# 1 0.022159 -0.003202 -0.004999 0.000000 0.000000 0.000000
# 2 -0.003202 0.005034 -0.000277 0.000000 0.000000 0.000000
# 3 -0.004999 -0.000277 0.019721 0.000000 0.000000 0.000000
# 4 0.000000 0.000000 0.000000 0.038837 0.000000 0.000000
# 5 0.000000 0.000000 0.000000 0.000000 1.031311 0.000000
# 6 0.000000 0.000000 0.000000 0.000000 0.000000 0.020618
#
#
# Mechanical properties :
#
#
# Convention : Reuss Voigt Hill
#
# Bulk Modulus (GPa) = 33.38021 50.02391 41.70206
# Shear Modulus (GPa) = 4.29324 32.94541 18.61933
#
# Velocity S-wave (km/s) = 1.29033 3.57441 2.68713
# Velocity P-wave (km/s) = 3.89422 6.03612 5.07935
#
# Compressibility (1/GPa) = 0.02995787
#
# Stress axis : x y z
#
# Youngs Moduli (GPa) = 45.12759 198.66102 50.70797
#
# Poissons Ratio (x) = 0.63607 0.25350
# Poissons Ratio (y) = 0.14449 0.01405
# Poissons Ratio (z) = 0.22560 0.05503
#
# Static dielectric constant tensor:
#      x y z
#    x 2.155640 0.000000 0.000000 
#    y 0.000000 2.075860 0.000000 
#    z 0.000000 0.000000 2.021840 
# 
# From -- ./inp_files/20848.got.cif
#   From: 2010.05.17/outbox.cif.g08.bks.cpg/sg58_11_cif.got.tgz:20848.got - 2010.06.03 14:20:14.
