data_PCOD9442986
_publ_section_title
;
Structure prediction by ZEFSAII (Michael W. Deem and Ramdas Pophale) SiO2 
 PCOD9442986
Probable space group: P N N M
;
_chemical_formula_sum "Si O2"
_cell_formula_units_Z 64
_cell_length_a 13.015386
_cell_length_b 29.319497
_cell_length_c 7.554152
_cell_angle_alpha 90.000000
_cell_angle_beta 90.000000
_cell_angle_gamma 90.000000
_cell_volume 2882.698932
_symmetry_space_group_name_H-M "P N N M"
_symmetry_group_IT_number 58
_symmetry_cell_setting 'orthorhombic'
loop_
_space_group_symop_operation_xyz
x,y,z
-x,-y,z
1/2+x,1/2-y,1/2-z
1/2-x,1/2+y,1/2-z
-x,-y,-z
x,y,-z
1/2-x,1/2+y,1/2+z
1/2+x,1/2-y,1/2+z
loop_
_atom_site_type_symbol
_atom_site_label
_atom_site_fract_x
_atom_site_fract_y
_atom_site_fract_z
Si Si1 0.097541 0.028629 0.786745
Si Si2 0.471467 0.151826 0.210763
Si Si3 0.188605 0.300551 0.213460
Si Si4 0.402866 0.630339 0.293397
Si Si5 0.748345 0.546889 0.790855
Si Si6 0.870481 0.133412 0.286517
Si Si7 0.235687 0.701053 0.717459
Si Si8 0.519397 0.050833 0.202716
O O1 0.097252 0.079731 0.715518
O O2 0.202239 0.002669 0.742030
O O3 0.088623 0.030117 0.000000
O O4 0.000000 0.000000 0.718491
O O5 0.577914 0.179043 0.237520
O O6 0.375880 0.182521 0.275069
O O7 0.477820 0.099128 0.279879
O O8 0.458124 0.146790 0.000000
O O9 0.277760 0.334821 0.272613
O O10 0.223168 0.250474 0.275140
O O11 0.189593 0.299817 0.000000
O O12 0.376665 0.625453 0.500000
O O13 0.518785 0.648074 0.279983
O O14 0.319371 0.664466 0.220177
O O15 0.661536 0.582579 0.728688
O O16 0.857325 0.555706 0.703138
O O17 0.763612 0.554104 0.000000
O O18 0.875443 0.134233 0.500000
O O19 0.233729 0.702754 0.500000
O O20 0.500000 0.000000 0.283004
O O21 0.480271 0.048085 0.000000
#
# Coordination Sequence:
#
# PCOD9442986 Si02
#       8
#     8   8   8   8   8   8   8   8
#     4  10  20  34  54  81 113 148 186 232 280 329
#     4  10  21  39  62  88 116 147 192 242 286 341
#     4  10  21  40  61  82 114 153 189 232 289 344
#     4  10  21  37  59  84 113 149 193 240 283 336
#     4  11  22  36  55  81 115 152 189 230 281 343
#     4  10  21  36  56  82 115 150 185 232 285 341
#     4   9  21  39  60  85 114 151 189 237 294 338
#     4  10  22  38  60  86 112 149 194 241 288 339
#
# _framework density 22.201415999999998
#
# number of rings (size 3 to 8) (size 9 to 14) (size 15 to 20)
#    0.000    2.000    2.500    0.375    3.500    2.000 
#    0.000    1.250    0.000    0.000    0.000    0.000 
#    0.000    0.000    0.000    0.000    0.000    0.000 
#
# Total GULP energy -357369.106689 kJ/mol
# GULP energy per Si atom -5583.892292 kJ/mol
# Density = 2.215088 g / cm^3
# Si number density = 22.201416 Si / 1000 Ang^3
#
#
#
# Elastic Constant Matrix: (Units=GPa)
#
#
# Indices 1 2 3 4 5 6 
#
# 1 120.1067 80.3386 -13.4686 0.0000 0.0000 0.0000
# 2 80.3386 168.4355 4.9654 0.0000 0.0000 0.0000
# 3 -13.4686 4.9654 53.8222 0.0000 0.0000 0.0000
# 4 0.0000 0.0000 0.0000 -7.2163 0.0000 0.0000
# 5 0.0000 0.0000 0.0000 0.0000 10.7831 0.0000
# 6 0.0000 0.0000 0.0000 0.0000 0.0000 33.4222
#
#
#
# Elastic Compliance Matrix: (Units=1/GPa)
#
#
# Indices 1 2 3 4 5 6 
#
# 1 0.012968 -0.006298 0.003826 0.000000 0.000000 0.000000
# 2 -0.006298 0.009012 -0.002407 0.000000 0.000000 0.000000
# 3 0.003826 -0.002407 0.019759 0.000000 0.000000 0.000000
# 4 0.000000 0.000000 0.000000 -0.138574 0.000000 0.000000
# 5 0.000000 0.000000 0.000000 0.000000 0.092738 0.000000
# 6 0.000000 0.000000 0.000000 0.000000 0.000000 0.029920
#
#
# Mechanical properties :
#
#
# Convention : Reuss Voigt Hill
#
# Bulk Modulus (GPa) = 31.26940 54.00392 42.63666
# Shear Modulus (GPa) = 108.12923 25.43306 66.78115
#
# Velocity S-wave (km/s) = 6.98638 3.38828 5.49044
# Velocity P-wave (km/s) = 8.89912 6.29957 7.70970
#
# Compressibility (1/GPa) = 0.03198015
#
# Stress axis : x y z
#
# Youngs Moduli (GPa) = 77.11500 110.96443 50.60930
#
# Poissons Ratio (x) = 0.69885 -0.19363
# Poissons Ratio (y) = 0.48567 0.12184
# Poissons Ratio (z) = -0.29505 0.26714
#
# Static dielectric constant tensor:
#      x y z
#    x 1.766480 0.000000 0.000000 
#    y 0.000000 1.846550 0.000000 
#    z 0.000000 0.000000 1.890150 
# 
# From -- ./inp_files/4695.got.cif
#   From: 2010.05.17/outbox.cif.g08.bks.cpg/sg58_3_cif.got.tgz:4695.got - 2010.06.03 14:20:14.
