data_PCOD9442798
_publ_section_title
;
Structure prediction by ZEFSAII (Michael W. Deem and Ramdas Pophale) SiO2 
 PCOD9442798
Probable space group: P N N M
;
_chemical_formula_sum "Si O2"
_cell_formula_units_Z 64
_cell_length_a 29.377446
_cell_length_b 14.620322
_cell_length_c 8.365560
_cell_angle_alpha 90.000000
_cell_angle_beta 90.000000
_cell_angle_gamma 90.000000
_cell_volume 3593.072603
_symmetry_space_group_name_H-M "P N N M"
_symmetry_group_IT_number 58
_symmetry_cell_setting 'orthorhombic'
loop_
_space_group_symop_operation_xyz
x,y,z
-x,-y,z
1/2+x,1/2-y,1/2-z
1/2-x,1/2+y,1/2-z
-x,-y,-z
x,y,-z
1/2-x,1/2+y,1/2+z
1/2+x,1/2-y,1/2+z
loop_
_atom_site_type_symbol
_atom_site_label
_atom_site_fract_x
_atom_site_fract_y
_atom_site_fract_z
Si Si1 0.448157 0.499997 0.695065
Si Si2 0.802032 0.500006 0.305043
Si Si3 0.374953 0.351800 0.307051
Si Si4 0.198282 0.999996 0.804914
Si Si5 0.123721 0.645026 0.690987
Si Si6 0.874951 0.851802 0.192950
Si Si7 0.623713 0.145027 0.190988
Si Si8 0.051950 0.500004 0.191255
O O1 0.500000 0.500000 0.751561
O O2 0.448895 0.499995 0.500000
O O3 0.419001 0.411112 0.743520
O O4 0.418999 0.588880 0.743508
O O5 0.800733 0.500004 0.500000
O O6 0.750156 0.500008 0.248243
O O7 0.831557 0.411795 0.254967
O O8 0.831561 0.588215 0.254981
O O9 0.374949 0.349690 0.500000
O O10 0.330860 0.410975 0.256276
O O11 0.375437 0.249147 0.245858
O O12 0.169142 0.089021 0.756284
O O13 0.198845 0.999994 0.000000
O O14 0.122874 0.641614 0.500000
O O15 0.080286 0.588383 0.752590
O O16 0.875438 0.749154 0.254174
O O17 0.874946 0.849677 0.000000
O O18 0.580282 0.088394 0.252648
O O19 0.622853 0.141591 0.000000
O O20 0.000000 0.500000 0.250620
O O21 0.051132 0.500027 0.000000
#
# Coordination Sequence:
#
# PCOD9442798 Si02
#       8
#     8   8   8   8   8   8   8   8
#     4   8  15  29  48  69  93 122 159 202 243 283
#     4   8  16  31  48  67  95 132 167 200 245 294
#     4   9  17  30  50  73  95 125 167 209 245 285
#     4   8  15  30  50  70  95 129 171 214 246 279
#     4  10  20  33  50  73 103 133 158 194 248 304
#     4   9  17  30  50  73  95 125 167 209 245 285
#     4  10  20  33  50  73 103 133 158 194 248 304
#     4  10  21  37  56  75  95 124 165 207 240 279
#
# _framework density 17.812052999999999
#
# number of rings (size 3 to 8) (size 9 to 14) (size 15 to 20)
#    0.000    3.000    0.000    3.375    0.000    3.000 
#    0.000    5.000    0.000    8.250    0.000    0.000 
#    0.000    0.000    0.000    0.000    0.000    0.000 
#
# Total GULP energy -356746.000933 kJ/mol
# GULP energy per Si atom -5574.156265 kJ/mol
# Density = 1.777151 g / cm^3
# Si number density = 17.812053 Si / 1000 Ang^3
#
#
#
# Elastic Constant Matrix: (Units=GPa)
#
#
# Indices 1 2 3 4 5 6 
#
# 1 210.2691 115.1904 25.1707 0.0000 0.0000 0.0000
# 2 115.1904 200.9445 25.6977 0.0000 0.0000 0.0000
# 3 25.1707 25.6977 18.9737 0.0000 0.0000 0.0000
# 4 0.0000 0.0000 0.0000 -5.1862 0.0000 0.0000
# 5 0.0000 0.0000 0.0000 0.0000 13.4615 0.0000
# 6 0.0000 0.0000 0.0000 0.0000 0.0000 6.2446
#
#
#
# Elastic Compliance Matrix: (Units=1/GPa)
#
#
# Indices 1 2 3 4 5 6 
#
# 1 0.007284 -0.003556 -0.004847 0.000000 0.000000 0.000000
# 2 -0.003556 0.007755 -0.005786 0.000000 0.000000 0.000000
# 3 -0.004847 -0.005786 0.066971 0.000000 0.000000 0.000000
# 4 0.000000 0.000000 0.000000 -0.192819 0.000000 0.000000
# 5 0.000000 0.000000 0.000000 0.000000 0.074286 0.000000
# 6 0.000000 0.000000 0.000000 0.000000 0.000000 0.160138
#
#
# Mechanical properties :
#
#
# Convention : Reuss Voigt Hill
#
# Bulk Modulus (GPa) = 18.64548 84.70053 51.67300
# Shear Modulus (GPa) = 29.43433 20.51256 24.97344
#
# Velocity S-wave (km/s) = 4.06950 3.39722 3.74846
# Velocity P-wave (km/s) = 5.70716 7.94001 6.91431
#
# Compressibility (1/GPa) = 0.05363229
#
# Stress axis : x y z
#
# Youngs Moduli (GPa) = 137.28947 128.95519 14.93178
#
# Poissons Ratio (x) = 0.45851 0.07238
# Poissons Ratio (y) = 0.48814 0.08639
# Poissons Ratio (z) = 0.66548 0.74612
#
# Static dielectric constant tensor:
#      x y z
#    x 1.611810 0.000000 0.000000 
#    y 0.000000 1.583170 0.000000 
#    z 0.000000 0.000000 1.614190 
# 
# From -- ./inp_files/11134.got.cif
#   From: 2010.05.17/outbox.cif.g08.bks.cpg/sg58_6_cif.got.tgz:11134.got - 2010.06.03 14:20:14.
