data_PCOD9442568
_publ_section_title
;
Structure prediction by ZEFSAII (Michael W. Deem and Ramdas Pophale) SiO2 
 PCOD9442568
Probable space group: P N N M
;
_chemical_formula_sum "Si O2"
_cell_formula_units_Z 48
_cell_length_a 9.697404
_cell_length_b 28.046318
_cell_length_c 7.774773
_cell_angle_alpha 90.000000
_cell_angle_beta 90.000000
_cell_angle_gamma 90.000000
_cell_volume 2114.555365
_symmetry_space_group_name_H-M "P N N M"
_symmetry_group_IT_number 58
_symmetry_cell_setting 'orthorhombic'
loop_
_space_group_symop_operation_xyz
x,y,z
-x,-y,z
1/2+x,1/2-y,1/2-z
1/2-x,1/2+y,1/2-z
-x,-y,-z
x,y,-z
1/2-x,1/2+y,1/2+z
1/2+x,1/2-y,1/2+z
loop_
_atom_site_type_symbol
_atom_site_label
_atom_site_fract_x
_atom_site_fract_y
_atom_site_fract_z
Si Si1 0.481981 0.851637 0.305598
Si Si2 0.316392 0.381166 0.292067
Si Si3 0.319917 0.228000 0.803469
Si Si4 0.845887 0.010977 0.789846
Si Si5 0.971663 0.807697 0.800808
Si Si6 0.408799 0.046751 0.793174
O O1 0.493691 0.834232 0.500000
O O2 0.321804 0.852752 0.254933
O O3 0.581337 0.818125 0.196511
O O4 0.534743 0.905731 0.290479
O O5 0.323624 0.381971 0.500000
O O6 0.304181 0.435893 0.233081
O O7 0.454547 0.354881 0.227491
O O8 0.408208 0.268301 0.709053
O O9 0.171099 0.213096 0.727028
O O10 0.298490 0.244787 0.000000
O O11 0.742575 0.969372 0.736630
O O12 0.840585 0.011523 0.000000
O O13 0.000000 0.000000 0.736214
O O14 0.937665 0.818281 0.000000
O O15 0.500000 0.000000 0.758644
O O16 0.412521 0.054570 0.000000
#
# Coordination Sequence:
#
# PCOD9442568 Si02
#       6
#     8   8   8   8   8   8
#     4  12  25  39  59  88 124 161 203 249 300 353
#     4  10  20  39  63  90 122 160 202 246 298 354
#     4  11  24  42  65  91 120 156 198 243 298 362
#     4   9  18  32  58  90 119 154 199 248 292 345
#     4  10  23  41  65  94 123 153 195 248 301 356
#     4  10  19  36  61  87 117 157 205 247 292 352
#
# _framework density 22.699808999999998
#
# number of rings (size 3 to 8) (size 9 to 14) (size 15 to 20)
#    0.000    1.667    1.667    3.000    2.333    5.000 
#    0.000    0.000    0.000    1.000    0.000    0.000 
#    0.000    0.000    0.000    0.000    0.000    0.000 
#
# Total GULP energy -268301.943840 kJ/mol
# GULP energy per Si atom -5589.623830 kJ/mol
# Density = 2.264814 g / cm^3
# Si number density = 22.699809 Si / 1000 Ang^3
#
#
#
# Elastic Constant Matrix: (Units=GPa)
#
#
# Indices 1 2 3 4 5 6 
#
# 1 127.0958 2.8899 -3.0694 0.0000 0.0000 0.0000
# 2 2.8899 53.4188 -4.6338 0.0000 0.0000 0.0000
# 3 -3.0694 -4.6338 39.9988 0.0000 0.0000 0.0000
# 4 0.0000 0.0000 0.0000 21.8108 0.0000 0.0000
# 5 0.0000 0.0000 0.0000 0.0000 14.0596 0.0000
# 6 0.0000 0.0000 0.0000 0.0000 0.0000 40.0978
#
#
#
# Elastic Compliance Matrix: (Units=1/GPa)
#
#
# Indices 1 2 3 4 5 6 
#
# 1 0.007890 -0.000378 0.000562 0.000000 0.000000 0.000000
# 2 -0.000378 0.018928 0.002164 0.000000 0.000000 0.000000
# 3 0.000562 0.002164 0.025295 0.000000 0.000000 0.000000
# 4 0.000000 0.000000 0.000000 0.045849 0.000000 0.000000
# 5 0.000000 0.000000 0.000000 0.000000 0.071126 0.000000
# 6 0.000000 0.000000 0.000000 0.000000 0.000000 0.024939
#
#
# Mechanical properties :
#
#
# Convention : Reuss Voigt Hill
#
# Bulk Modulus (GPa) = 17.60328 23.43187 20.51758
# Shear Modulus (GPa) = 24.00752 30.21540 27.11146
#
# Velocity S-wave (km/s) = 3.25562 3.65236 3.45968
# Velocity P-wave (km/s) = 4.68014 5.30389 5.00175
#
# Compressibility (1/GPa) = 0.05680758
#
# Stress axis : x y z
#
# Youngs Moduli (GPa) = 126.73884 52.83132 39.53426
#
# Poissons Ratio (x) = 0.01998 -0.02220
# Poissons Ratio (y) = 0.04792 -0.08554
# Poissons Ratio (z) = -0.07118 -0.11432
#
# Static dielectric constant tensor:
#      x y z
#    x 1.845870 0.000000 0.000000 
#    y 0.000000 1.826210 0.000000 
#    z 0.000000 0.000000 1.846740 
# 
# From -- ./inp_files/2848.got.cif
#   From: 2010.05.17/outbox.cif.g08.bks.cpg/sg58_2_cif.got.tgz:2848.got - 2010.06.03 14:20:14.
