data_PCOD9442059
_publ_section_title
;
Structure prediction by ZEFSAII (Michael W. Deem and Ramdas Pophale) SiO2 
 PCOD9442059
Probable space group: P N N M
;
_chemical_formula_sum "Si O2"
_cell_formula_units_Z 64
_cell_length_a 25.010223
_cell_length_b 14.988670
_cell_length_c 7.907163
_cell_angle_alpha 90.000000
_cell_angle_beta 90.000000
_cell_angle_gamma 90.000000
_cell_volume 2964.158029
_symmetry_space_group_name_H-M "P N N M"
_symmetry_group_IT_number 58
_symmetry_cell_setting 'orthorhombic'
loop_
_space_group_symop_operation_xyz
x,y,z
-x,-y,z
1/2+x,1/2-y,1/2-z
1/2-x,1/2+y,1/2-z
-x,-y,-z
x,y,-z
1/2-x,1/2+y,1/2+z
1/2+x,1/2-y,1/2+z
loop_
_atom_site_type_symbol
_atom_site_label
_atom_site_fract_x
_atom_site_fract_y
_atom_site_fract_z
Si Si1 0.044688 0.433820 0.303889
Si Si2 0.633243 0.582523 0.299724
Si Si3 0.208092 0.213134 0.799238
Si Si4 0.173299 0.738682 0.795625
Si Si5 0.645373 0.960452 0.303456
Si Si6 0.740977 0.483167 0.700184
Si Si7 0.911579 0.751524 0.297054
Si Si8 0.548360 0.442688 0.803410
O O1 0.029054 0.419456 0.500000
O O2 0.100437 0.486649 0.294881
O O3 0.057263 0.335693 0.229714
O O4 0.000000 0.500000 0.227246
O O5 0.619888 0.578016 0.500000
O O6 0.632634 0.684334 0.239078
O O7 0.694620 0.553965 0.281120
O O8 0.597781 0.510226 0.206998
O O9 0.265317 0.256278 0.756742
O O10 0.152371 0.252322 0.733677
O O11 0.216986 0.111191 0.736292
O O12 0.202361 0.210059 0.000000
O O13 0.155327 0.640454 0.739025
O O14 0.173080 0.738725 0.000000
O O15 0.629490 0.956848 0.500000
O O16 0.703586 0.005040 0.288698
O O17 0.752458 0.473220 0.500000
O O18 0.917521 0.751605 0.500000
O O19 0.934699 0.846295 0.230922
O O20 0.500000 0.500000 0.724423
O O21 0.534278 0.426137 0.000000
#
# Coordination Sequence:
#
# PCOD9442059 Si02
#       8
#     8   8   8   8   8   8   8   8
#     4  10  23  42  62  82 108 151 201 241 285 343
#     4  10  20  36  57  83 117 155 192 230 277 340
#     4  10  19  33  55  85 116 148 192 236 277 332
#     4   9  20  36  55  83 120 159 191 227 286 347
#     4  10  21  37  57  84 116 149 189 239 291 337
#     4   9  18  33  54  81 116 151 186 229 276 336
#     4  10  21  38  59  82 112 149 187 234 289 343
#     4  10  22  39  59  86 118 151 189 236 290 342
#
# _framework density 21.591293
#
# number of rings (size 3 to 8) (size 9 to 14) (size 15 to 20)
#    0.000    2.250    1.250    0.750    1.750    4.000 
#    0.000    1.250    0.000    0.000    0.000    0.000 
#    0.000    0.000    0.000    0.000    0.000    0.000 
#
# Total GULP energy -357071.158067 kJ/mol
# GULP energy per Si atom -5579.236845 kJ/mol
# Density = 2.154215 g / cm^3
# Si number density = 21.591293 Si / 1000 Ang^3
#
#
#
# Elastic Constant Matrix: (Units=GPa)
#
#
# Indices 1 2 3 4 5 6 
#
# 1 74.3553 52.6243 4.3474 0.0000 0.0000 0.0000
# 2 52.6243 115.1041 13.0865 0.0000 0.0000 0.0000
# 3 4.3474 13.0865 16.5711 0.0000 0.0000 0.0000
# 4 0.0000 0.0000 0.0000 13.1955 0.0000 0.0000
# 5 0.0000 0.0000 0.0000 0.0000 14.7143 0.0000
# 6 0.0000 0.0000 0.0000 0.0000 0.0000 26.2150
#
#
#
# Elastic Compliance Matrix: (Units=1/GPa)
#
#
# Indices 1 2 3 4 5 6 
#
# 1 0.019953 -0.009368 0.002164 0.000000 0.000000 0.000000
# 2 -0.009368 0.013943 -0.008554 0.000000 0.000000 0.000000
# 3 0.002164 -0.008554 0.066533 0.000000 0.000000 0.000000
# 4 0.000000 0.000000 0.000000 0.075783 0.000000 0.000000
# 5 0.000000 0.000000 0.000000 0.000000 0.067961 0.000000
# 6 0.000000 0.000000 0.000000 0.000000 0.000000 0.038146
#
#
# Mechanical properties :
#
#
# Convention : Reuss Voigt Hill
#
# Bulk Modulus (GPa) = 14.51104 38.46075 26.48590
# Shear Modulus (GPa) = 14.84531 19.88979 17.36755
#
# Velocity S-wave (km/s) = 2.62498 3.03841 2.83923
# Velocity P-wave (km/s) = 3.99033 5.49190 4.80020
#
# Compressibility (1/GPa) = 0.06891304
#
# Stress axis : x y z
#
# Youngs Moduli (GPa) = 50.11867 71.71927 15.03012
#
# Poissons Ratio (x) = 0.67187 -0.03252
# Poissons Ratio (y) = 0.46952 0.12856
# Poissons Ratio (z) = -0.10844 0.61345
#
# Static dielectric constant tensor:
#      x y z
#    x 1.763320 0.000000 0.000000 
#    y 0.000000 1.846980 0.000000 
#    z 0.000000 0.000000 1.815150 
# 
# From -- ./inp_files/10004.got.cif
#   From: 2010.05.17/outbox.cif.g08.bks.cpg/sg58_6_cif.got.tgz:10004.got - 2010.06.03 14:20:14.
