data_PCOD9442697
_publ_section_title
;
Structure prediction by ZEFSAII (Michael W. Deem and Ramdas Pophale) SiO2 
 PCOD9442697
Probable space group: P N N M
;
_chemical_formula_sum "Si O2"
_cell_formula_units_Z 64
_cell_length_a 8.676380
_cell_length_b 28.112175
_cell_length_c 13.570623
_cell_angle_alpha 90.000000
_cell_angle_beta 90.000000
_cell_angle_gamma 90.000000
_cell_volume 3310.036616
_symmetry_space_group_name_H-M "P N N M"
_symmetry_group_IT_number 58
_symmetry_cell_setting 'orthorhombic'
loop_
_space_group_symop_operation_xyz
x,y,z
-x,-y,z
1/2+x,1/2-y,1/2-z
1/2-x,1/2+y,1/2-z
-x,-y,-z
x,y,-z
1/2-x,1/2+y,1/2+z
1/2+x,1/2-y,1/2+z
loop_
_atom_site_type_symbol
_atom_site_label
_atom_site_fract_x
_atom_site_fract_y
_atom_site_fract_z
Si Si1 0.068560 0.658104 0.614814
Si Si2 0.319176 0.989587 0.107175
Si Si3 0.737512 0.218217 0.886991
Si Si4 0.720860 0.318397 0.209526
Si Si5 0.088766 0.858314 0.764746
Si Si6 0.617996 0.089023 0.256688
Si Si7 0.102413 0.047198 0.223514
Si Si8 0.667496 0.913754 0.615413
O O1 0.098520 0.647621 0.500000
O O2 0.938383 0.699298 0.619775
O O3 0.986522 0.614991 0.673430
O O4 0.215866 0.672156 0.680021
O O5 0.304508 0.954093 0.198476
O O6 0.500000 0.000000 0.103001
O O7 0.219272 0.035465 0.134646
O O8 0.271008 0.970315 0.000000
O O9 0.757866 0.265262 0.822736
O O10 0.846093 0.175458 0.850161
O O11 0.770415 0.229559 0.000000
O O12 0.538564 0.328814 0.204933
O O13 0.803331 0.358008 0.141400
O O14 0.997875 0.905868 0.796978
O O15 0.243826 0.876335 0.710088
O O16 0.501566 0.074135 0.342121
O O17 0.205901 0.058496 0.319491
O O18 0.000000 0.000000 0.236489
O O19 0.681476 0.922452 0.500000
#
# Coordination Sequence:
#
# PCOD9442697 Si02
#       8
#     8   8   8   8   8   8   8   8
#     4   9  19  34  55  80 110 151 193 237 298 365
#     4  11  22  37  61  87 119 167 210 244 305 372
#     4  10  20  36  58  84 117 157 199 243 302 371
#     4  10  20  37  60  85 120 154 194 257 308 360
#     4  10  22  37  60  88 121 158 198 252 309 360
#     4  10  19  39  58  81 120 154 199 254 298 356
#     4  11  22  40  61  89 133 162 201 258 304 358
#     4  10  22  40  63  88 116 163 211 252 302 365
#
# _framework density 19.335134
#
# number of rings (size 3 to 8) (size 9 to 14) (size 15 to 20)
#    0.000    1.875    2.500    1.500    0.000    2.000 
#    0.000    4.375    0.000    6.000    0.000    0.000 
#    0.000    0.000    0.000    0.000    0.000    0.000 
#
# Total GULP energy -356987.055272 kJ/mol
# GULP energy per Si atom -5577.922739 kJ/mol
# Density = 1.929113 g / cm^3
# Si number density = 19.335134 Si / 1000 Ang^3
#
#
#
# Elastic Constant Matrix: (Units=GPa)
#
#
# Indices 1 2 3 4 5 6 
#
# 1 106.6726 35.9817 42.6744 0.0000 0.0000 0.0000
# 2 35.9817 83.4709 22.4024 0.0000 0.0000 0.0000
# 3 42.6744 22.4024 76.7118 0.0000 0.0000 0.0000
# 4 0.0000 0.0000 0.0000 16.7589 0.0000 0.0000
# 5 0.0000 0.0000 0.0000 0.0000 7.4134 0.0000
# 6 0.0000 0.0000 0.0000 0.0000 0.0000 18.4862
#
#
#
# Elastic Compliance Matrix: (Units=1/GPa)
#
#
# Indices 1 2 3 4 5 6 
#
# 1 0.013203 -0.004036 -0.006166 0.000000 0.000000 0.000000
# 2 -0.004036 0.014233 -0.001911 0.000000 0.000000 0.000000
# 3 -0.006166 -0.001911 0.017024 0.000000 0.000000 0.000000
# 4 0.000000 0.000000 0.000000 0.059670 0.000000 0.000000
# 5 0.000000 0.000000 0.000000 0.000000 0.134890 0.000000
# 6 0.000000 0.000000 0.000000 0.000000 0.000000 0.054094
#
#
# Mechanical properties :
#
#
# Convention : Reuss Voigt Hill
#
# Bulk Modulus (GPa) = 49.42417 52.10805 50.76611
# Shear Modulus (GPa) = 15.42804 19.58481 17.50642
#
# Velocity S-wave (km/s) = 2.82783 3.18608 3.01228
# Velocity P-wave (km/s) = 6.02324 6.36736 6.19769
#
# Compressibility (1/GPa) = 0.02023301
#
# Stress axis : x y z
#
# Youngs Moduli (GPa) = 75.74250 70.25869 58.74087
#
# Poissons Ratio (x) = 0.28359 0.36218
# Poissons Ratio (y) = 0.30573 0.11226
# Poissons Ratio (z) = 0.46701 0.13427
#
# Static dielectric constant tensor:
#      x y z
#    x 1.718280 0.000000 0.000000 
#    y 0.000000 1.708110 0.000000 
#    z 0.000000 0.000000 1.638060 
# 
# From -- ./inp_files/13403.got.cif
#   From: 2010.05.17/outbox.cif.g08.bks.cpg/sg58_7_cif.got.tgz:13403.got - 2010.06.03 14:20:14.
