data_PCOD9442502
_publ_section_title
;
Structure prediction by ZEFSAII (Michael W. Deem and Ramdas Pophale) SiO2 
 PCOD9442502
Probable space group: P N N M
;
_chemical_formula_sum "Si O2"
_cell_formula_units_Z 48
_cell_length_a 14.514794
_cell_length_b 20.932758
_cell_length_c 7.783097
_cell_angle_alpha 90.000000
_cell_angle_beta 90.000000
_cell_angle_gamma 90.000000
_cell_volume 2364.774710
_symmetry_space_group_name_H-M "P N N M"
_symmetry_group_IT_number 58
_symmetry_cell_setting 'orthorhombic'
loop_
_space_group_symop_operation_xyz
x,y,z
-x,-y,z
1/2+x,1/2-y,1/2-z
1/2-x,1/2+y,1/2-z
-x,-y,-z
x,y,-z
1/2-x,1/2+y,1/2+z
1/2+x,1/2-y,1/2+z
loop_
_atom_site_type_symbol
_atom_site_label
_atom_site_fract_x
_atom_site_fract_y
_atom_site_fract_z
Si Si1 0.745237 0.605335 0.700792
Si Si2 0.945159 0.563234 0.710740
Si Si3 0.764864 0.252651 0.297933
Si Si4 0.042895 0.692475 0.709659
Si Si5 0.079013 0.187408 0.708016
Si Si6 0.038594 0.932768 0.704768
O O1 0.742541 0.590875 0.500000
O O2 0.839204 0.572827 0.770062
O O3 0.752722 0.682324 0.721001
O O4 0.647040 0.581109 0.770573
O O5 0.942482 0.563182 0.500000
O O6 0.000000 0.500000 0.764162
O O7 0.003605 0.624896 0.766593
O O8 0.777835 0.240529 0.500000
O O9 0.857030 0.285822 0.229561
O O10 0.681911 0.301635 0.270562
O O11 0.045278 0.690324 0.500000
O O12 0.974471 0.748799 0.760595
O O13 0.080321 0.185675 0.500000
O O14 0.022778 0.126161 0.771896
O O15 0.023917 0.933690 0.500000
O O16 0.000000 0.000000 0.773745
#
# Coordination Sequence:
#
# PCOD9442502 Si02
#       6
#     8   8   8   8   8   8
#     4  11  21  35  59  86 112 147 190 239 288 341
#     4   9  18  33  54  80 109 143 179 221 280 340
#     4  11  21  34  57  86 114 149 191 235 281 337
#     4   9  17  32  53  77 107 143 181 222 272 332
#     4  10  19  36  57  80 111 146 189 234 279 337
#     4  10  22  40  60  81 114 158 193 232 295 358
#
# _framework density 20.297917000000002
#
# number of rings (size 3 to 8) (size 9 to 14) (size 15 to 20)
#    0.000    2.000    3.333    1.000    0.000    2.333 
#    0.000    1.667    0.000    2.000    0.000    0.000 
#    0.000    0.000    0.000    0.000    0.000    0.000 
#
# Total GULP energy -267910.906647 kJ/mol
# GULP energy per Si atom -5581.477222 kJ/mol
# Density = 2.025172 g / cm^3
# Si number density = 20.297917 Si / 1000 Ang^3
#
#
#
# Elastic Constant Matrix: (Units=GPa)
#
#
# Indices 1 2 3 4 5 6 
#
# 1 114.6611 31.8029 -9.0449 0.0000 0.0000 0.0000
# 2 31.8029 124.6418 0.2396 0.0000 0.0000 0.0000
# 3 -9.0449 0.2396 19.8096 0.0000 0.0000 0.0000
# 4 0.0000 0.0000 0.0000 3.6281 0.0000 0.0000
# 5 0.0000 0.0000 0.0000 0.0000 20.7741 0.0000
# 6 0.0000 0.0000 0.0000 0.0000 0.0000 33.0399
#
#
#
# Elastic Compliance Matrix: (Units=1/GPa)
#
#
# Indices 1 2 3 4 5 6 
#
# 1 0.009769 -0.002501 0.004491 0.000000 0.000000 0.000000
# 2 -0.002501 0.008664 -0.001247 0.000000 0.000000 0.000000
# 3 0.004491 -0.001247 0.052546 0.000000 0.000000 0.000000
# 4 0.000000 0.000000 0.000000 0.275624 0.000000 0.000000
# 5 0.000000 0.000000 0.000000 0.000000 0.048137 0.000000
# 6 0.000000 0.000000 0.000000 0.000000 0.000000 0.030266
#
#
# Mechanical properties :
#
#
# Convention : Reuss Voigt Hill
#
# Bulk Modulus (GPa) = 13.79984 33.90085 23.85034
# Shear Modulus (GPa) = 11.16878 27.22942 19.19910
#
# Velocity S-wave (km/s) = 2.34827 3.66661 3.07883
# Velocity P-wave (km/s) = 3.76376 5.88755 4.94111
#
# Compressibility (1/GPa) = 0.07246463
#
# Stress axis : x y z
#
# Youngs Moduli (GPa) = 102.36057 115.42524 19.03085
#
# Poissons Ratio (x) = 0.28872 -0.08547
# Poissons Ratio (y) = 0.25604 0.02373
# Poissons Ratio (z) = -0.45969 0.14392
#
# Static dielectric constant tensor:
#      x y z
#    x 1.722810 0.000000 0.000000 
#    y 0.000000 1.692020 0.000000 
#    z 0.000000 0.000000 1.747790 
# 
# From -- ./inp_files/5900.got.cif
#   From: 2010.05.17/outbox.cif.g08.bks.cpg/sg58_3_cif.got.tgz:5900.got - 2010.06.03 14:20:14.
