data_PCOD9442720
_publ_section_title
;
Structure prediction by ZEFSAII (Michael W. Deem and Ramdas Pophale) SiO2 
 PCOD9442720
Probable space group: P N N M
;
_chemical_formula_sum "Si O2"
_cell_formula_units_Z 64
_cell_length_a 8.125023
_cell_length_b 11.476278
_cell_length_c 29.785147
_cell_angle_alpha 90.000000
_cell_angle_beta 90.000000
_cell_angle_gamma 90.000000
_cell_volume 2777.316708
_symmetry_space_group_name_H-M "P N N M"
_symmetry_group_IT_number 58
_symmetry_cell_setting 'orthorhombic'
loop_
_space_group_symop_operation_xyz
x,y,z
-x,-y,z
1/2+x,1/2-y,1/2-z
1/2-x,1/2+y,1/2-z
-x,-y,-z
x,y,-z
1/2-x,1/2+y,1/2+z
1/2+x,1/2-y,1/2+z
loop_
_atom_site_type_symbol
_atom_site_label
_atom_site_fract_x
_atom_site_fract_y
_atom_site_fract_z
Si Si1 0.680981 0.552115 0.166609
Si Si2 0.333132 0.331206 0.386016
Si Si3 0.874248 0.818435 0.949961
Si Si4 0.263743 0.413209 0.933065
Si Si5 0.160726 0.563718 0.625092
Si Si6 0.862944 0.829464 0.450009
Si Si7 0.170038 0.684714 0.804384
Si Si8 0.541649 0.776116 0.207302
O O1 0.500000 0.500000 0.155087
O O2 0.754227 0.594140 0.120196
O O3 0.790175 0.448721 0.185207
O O4 0.644696 0.657770 0.199488
O O5 0.455896 0.353199 0.426975
O O6 0.281381 0.454974 0.365582
O O7 0.187632 0.255094 0.409243
O O8 0.409477 0.251626 0.346594
O O9 0.864450 0.678083 0.952412
O O10 0.738139 0.858707 0.914012
O O11 0.850444 0.865555 0.000000
O O12 0.446006 0.366350 0.945996
O O13 0.262254 0.549011 0.945828
O O14 0.107674 0.633636 0.669750
O O15 0.000000 0.500000 0.606516
O O16 0.835467 0.779723 0.500000
O O17 0.349503 0.747174 0.799917
O O18 0.071912 0.688813 0.758333
#
# Coordination Sequence:
#
# PCOD9442720 Si02
#       8
#     8   8   8   8   8   8   8   8
#     4  10  19  41  70  99 139 180 222 286 346 411
#     4  12  26  46  67 102 144 192 234 293 370 428
#     4  12  28  47  70 104 146 191 244 302 370 435
#     4  11  19  40  69 103 138 182 238 292 355 416
#     4  12  26  48  77  99 139 187 245 304 356 436
#     4  11  21  38  70 103 139 185 241 296 351 423
#     4  11  25  45  73 106 142 188 232 290 358 424
#     4  11  25  45  72 108 142 179 240 296 351 432
#
# _framework density 23.043825999999999
#
# number of rings (size 3 to 8) (size 9 to 14) (size 15 to 20)
#    0.000    0.750    5.000    3.750    3.500    2.250 
#    0.000    2.500    0.000    0.000    0.000    0.000 
#    0.000    0.000    0.000    0.000    0.000    0.000 
#
# Total GULP energy -358224.291644 kJ/mol
# GULP energy per Si atom -5597.254557 kJ/mol
# Density = 2.299138 g / cm^3
# Si number density = 23.043826 Si / 1000 Ang^3
#
#
#
# Elastic Constant Matrix: (Units=GPa)
#
#
# Indices 1 2 3 4 5 6 
#
# 1 39.5431 15.6153 13.9854 0.0000 0.0000 0.0000
# 2 15.6153 91.3499 11.6837 0.0000 0.0000 0.0000
# 3 13.9854 11.6837 131.1984 0.0000 0.0000 0.0000
# 4 0.0000 0.0000 0.0000 1.0779 0.0000 0.0000
# 5 0.0000 0.0000 0.0000 0.0000 21.2437 0.0000
# 6 0.0000 0.0000 0.0000 0.0000 0.0000 21.0975
#
#
#
# Elastic Compliance Matrix: (Units=1/GPa)
#
#
# Indices 1 2 3 4 5 6 
#
# 1 0.027960 -0.004449 -0.002584 0.000000 0.000000 0.000000
# 2 -0.004449 0.011781 -0.000575 0.000000 0.000000 0.000000
# 3 -0.002584 -0.000575 0.007949 0.000000 0.000000 0.000000
# 4 0.000000 0.000000 0.000000 0.927772 0.000000 0.000000
# 5 0.000000 0.000000 0.000000 0.000000 0.047073 0.000000
# 6 0.000000 0.000000 0.000000 0.000000 0.000000 0.047399
#
#
# Mechanical properties :
#
#
# Convention : Reuss Voigt Hill
#
# Bulk Modulus (GPa) = 30.79456 38.29559 34.54507
# Shear Modulus (GPa) = 4.56215 23.40426 13.98321
#
# Velocity S-wave (km/s) = 1.40857 3.19037 2.46602
# Velocity P-wave (km/s) = 4.00474 5.49781 4.80957
#
# Compressibility (1/GPa) = 0.03247327
#
# Stress axis : x y z
#
# Youngs Moduli (GPa) = 35.76578 84.88284 125.80648
#
# Poissons Ratio (x) = 0.37764 0.32511
# Poissons Ratio (y) = 0.15912 0.07233
# Poissons Ratio (z) = 0.09243 0.04880
#
# Static dielectric constant tensor:
#      x y z
#    x 1.911640 0.000000 0.000000 
#    y 0.000000 1.876010 0.000000 
#    z 0.000000 0.000000 1.841760 
# 
# From -- ./inp_files/34764.got.cif
#   From: 2010.05.17/outbox.cif.g08.bks.cpg/sg58_18_cif.got.tgz:34764.got - 2010.06.03 14:20:14.
