data_PCOD9442287
_publ_section_title
;
Structure prediction by ZEFSAII (Michael W. Deem and Ramdas Pophale) SiO2 
 PCOD9442287
Probable space group: P N N M
;
_chemical_formula_sum "Si O2"
_cell_formula_units_Z 40
_cell_length_a 10.062051
_cell_length_b 9.920802
_cell_length_c 16.669922
_cell_angle_alpha 90.000000
_cell_angle_beta 90.000000
_cell_angle_gamma 90.000000
_cell_volume 1664.051887
_symmetry_space_group_name_H-M "P N N M"
_symmetry_group_IT_number 58
_symmetry_cell_setting 'orthorhombic'
loop_
_space_group_symop_operation_xyz
x,y,z
-x,-y,z
1/2+x,1/2-y,1/2-z
1/2-x,1/2+y,1/2-z
-x,-y,-z
x,y,-z
1/2-x,1/2+y,1/2+z
1/2+x,1/2-y,1/2+z
loop_
_atom_site_type_symbol
_atom_site_label
_atom_site_fract_x
_atom_site_fract_y
_atom_site_fract_z
Si Si1 0.720567 0.155202 0.088302
Si Si2 0.108312 0.097526 0.692756
Si Si3 0.197392 0.663221 0.412283
Si Si4 0.887272 0.404514 0.750982
Si Si5 0.510386 0.295729 0.638274
O O1 0.655855 0.264181 0.148649
O O2 0.880095 0.142604 0.098567
O O3 0.678799 0.999121 0.090835
O O4 0.691631 0.208919 0.000000
O O5 0.248719 0.030341 0.720004
O O6 0.043662 0.135701 0.777263
O O7 0.000000 0.000000 0.650897
O O8 0.143624 0.708466 0.500000
O O9 0.144769 0.699515 0.322583
O O10 0.353478 0.700634 0.409946
O O11 0.954669 0.346081 0.830954
O O12 0.000000 0.500000 0.718436
#
# Coordination Sequence:
#
# PCOD9442287 Si02
#       5
#     8   8   8   8   8
#     4  10  20  35  58  89 122 156 200 256 313 366
#     4  10  21  36  59  87 120 163 208 252 306 373
#     4  10  20  35  58  88 121 155 198 257 316 364
#     4  10  21  37  59  87 121 159 205 256 309 372
#     4  10  19  34  58  85 117 161 207 251 303 370
#
# _framework density 24.037710000000001
#
# number of rings (size 3 to 8) (size 9 to 14) (size 15 to 20)
#    0.000    2.000    0.000    4.800    0.000    5.600 
#    0.000    1.000    0.000   19.800    0.000    0.000 
#    0.000    8.000    0.000    0.000    0.000    0.000 
#
# Total GULP energy -223016.017885 kJ/mol
# GULP energy per Si atom -5575.400447 kJ/mol
# Density = 2.398300 g / cm^3
# Si number density = 24.037710 Si / 1000 Ang^3
#
#
#
# Elastic Constant Matrix: (Units=GPa)
#
#
# Indices 1 2 3 4 5 6 
#
# 1 155.4162 40.9795 25.6581 0.0000 0.0000 0.0000
# 2 40.9795 37.5738 13.8029 0.0000 0.0000 0.0000
# 3 25.6581 13.8029 112.7629 0.0000 0.0000 0.0000
# 4 0.0000 0.0000 0.0000 21.4000 0.0000 0.0000
# 5 0.0000 0.0000 0.0000 0.0000 0.5124 0.0000
# 6 0.0000 0.0000 0.0000 0.0000 0.0000 36.6905
#
#
#
# Elastic Compliance Matrix: (Units=1/GPa)
#
#
# Indices 1 2 3 4 5 6 
#
# 1 0.009118 -0.009614 -0.000898 0.000000 0.000000 0.000000
# 2 -0.009614 0.038005 -0.002464 0.000000 0.000000 0.000000
# 3 -0.000898 -0.002464 0.009374 0.000000 0.000000 0.000000
# 4 0.000000 0.000000 0.000000 0.046729 0.000000 0.000000
# 5 0.000000 0.000000 0.000000 0.000000 1.951741 0.000000
# 6 0.000000 0.000000 0.000000 0.000000 0.000000 0.027255
#
#
# Mechanical properties :
#
#
# Convention : Reuss Voigt Hill
#
# Bulk Modulus (GPa) = 32.73956 51.84820 42.29388
# Shear Modulus (GPa) = 2.36032 26.74139 14.55085
#
# Velocity S-wave (km/s) = 0.99200 3.33900 2.46302
# Velocity P-wave (km/s) = 3.86804 6.04000 5.07165
#
# Compressibility (1/GPa) = 0.03054409
#
# Stress axis : x y z
#
# Youngs Moduli (GPa) = 109.67813 26.31212 106.67684
#
# Poissons Ratio (x) = 0.25297 0.09577
# Poissons Ratio (y) = 1.05447 0.26290
# Poissons Ratio (z) = 0.09847 0.06485
#
# Static dielectric constant tensor:
#      x y z
#    x 1.991960 0.000000 0.000000 
#    y 0.000000 2.083580 0.000000 
#    z 0.000000 0.000000 1.946960 
# 
# From -- ./inp_files/24946.got.cif
#   From: 2010.05.17/outbox.cif.g08.bks.cpg/sg58_13_cif.got.tgz:24946.got - 2010.06.03 14:20:14.
