data_PCOD9442440
_publ_section_title
;
Structure prediction by ZEFSAII (Michael W. Deem and Ramdas Pophale) SiO2 
 PCOD9442440
Probable space group: P N N M
;
_chemical_formula_sum "Si O2"
_cell_formula_units_Z 64
_cell_length_a 13.123620
_cell_length_b 14.373409
_cell_length_c 17.600950
_cell_angle_alpha 90.000000
_cell_angle_beta 90.000000
_cell_angle_gamma 90.000000
_cell_volume 3320.087577
_symmetry_space_group_name_H-M "P N N M"
_symmetry_group_IT_number 58
_symmetry_cell_setting 'orthorhombic'
loop_
_space_group_symop_operation_xyz
x,y,z
-x,-y,z
1/2+x,1/2-y,1/2-z
1/2-x,1/2+y,1/2-z
-x,-y,-z
x,y,-z
1/2-x,1/2+y,1/2+z
1/2+x,1/2-y,1/2+z
loop_
_atom_site_type_symbol
_atom_site_label
_atom_site_fract_x
_atom_site_fract_y
_atom_site_fract_z
Si Si1 0.791696 0.742872 0.090756
Si Si2 0.911502 0.635856 0.307702
Si Si3 0.258186 0.934528 0.085762
Si Si4 0.986422 0.758504 0.821720
Si Si5 0.398491 0.442358 0.709142
Si Si6 0.417833 0.084602 0.588445
Si Si7 0.788155 0.546821 0.820482
Si Si8 0.605987 0.880494 0.913122
O O1 0.788244 0.640959 0.129203
O O2 0.690313 0.802594 0.107327
O O3 0.893208 0.790636 0.124557
O O4 0.800651 0.734278 0.000000
O O5 0.816812 0.643423 0.365332
O O6 0.873665 0.559732 0.245785
O O7 0.934553 0.724530 0.256130
O O8 0.012515 0.616059 0.355561
O O9 0.159276 0.966491 0.131148
O O10 0.335993 0.021265 0.085838
O O11 0.236623 0.906528 0.000000
O O12 0.068008 0.835897 0.801344
O O13 0.038761 0.671234 0.864242
O O14 0.500000 0.500000 0.721073
O O15 0.318157 0.458714 0.776404
O O16 0.402359 0.109043 0.500000
O O17 0.500000 0.000000 0.590483
O O18 0.318952 0.040480 0.628462
O O19 0.570018 0.862755 0.000000
#
# Coordination Sequence:
#
# PCOD9442440 Si02
#       8
#     8   8   8   8   8   8   8   8
#     4  10  19  35  59  87 121 159 205 249 301 369
#     4  10  20  33  56  83 123 148 197 252 305 359
#     4  10  22  37  56  83 117 158 202 248 301 363
#     4  11  23  37  60  93 117 160 202 259 310 365
#     4  11  25  44  61  84 125 168 208 253 309 383
#     4  11  21  38  64  96 125 155 203 264 319 366
#     4  10  22  38  58  90 117 163 206 260 310 361
#     4  10  20  32  54  85 117 159 196 241 299 364
#
# _framework density 19.276599999999998
#
# number of rings (size 3 to 8) (size 9 to 14) (size 15 to 20)
#    0.000    1.625    2.500    3.000    5.250    2.250 
#    6.750    0.000    0.000    1.500    0.000    0.000 
#    0.000    0.000    0.000    0.000    0.000    0.000 
#
# Total GULP energy -357421.962916 kJ/mol
# GULP energy per Si atom -5584.718171 kJ/mol
# Density = 1.923273 g / cm^3
# Si number density = 19.276600 Si / 1000 Ang^3
#
#
#
# Elastic Constant Matrix: (Units=GPa)
#
#
# Indices 1 2 3 4 5 6 
#
# 1 124.7635 34.4647 62.7490 0.0000 0.0000 0.0000
# 2 34.4647 61.7270 31.3877 0.0000 0.0000 0.0000
# 3 62.7490 31.3877 102.3335 0.0000 0.0000 0.0000
# 4 0.0000 0.0000 0.0000 11.2132 0.0000 0.0000
# 5 0.0000 0.0000 0.0000 0.0000 15.0097 0.0000
# 6 0.0000 0.0000 0.0000 0.0000 0.0000 27.3359
#
#
#
# Elastic Compliance Matrix: (Units=1/GPa)
#
#
# Indices 1 2 3 4 5 6 
#
# 1 0.012219 -0.003569 -0.006398 0.000000 0.000000 0.000000
# 2 -0.003569 0.020236 -0.004018 0.000000 0.000000 0.000000
# 3 -0.006398 -0.004018 0.014927 0.000000 0.000000 0.000000
# 4 0.000000 0.000000 0.000000 0.089181 0.000000 0.000000
# 5 0.000000 0.000000 0.000000 0.000000 0.066624 0.000000
# 6 0.000000 0.000000 0.000000 0.000000 0.000000 0.036582
#
#
# Mechanical properties :
#
#
# Convention : Reuss Voigt Hill
#
# Bulk Modulus (GPa) = 51.51353 60.66964 56.09159
# Shear Modulus (GPa) = 18.23421 21.39326 19.81374
#
# Velocity S-wave (km/s) = 3.07893 3.33499 3.20951
# Velocity P-wave (km/s) = 6.27862 6.80963 6.54951
#
# Compressibility (1/GPa) = 0.01941237
#
# Stress axis : x y z
#
# Youngs Moduli (GPa) = 81.84166 49.41579 66.99099
#
# Poissons Ratio (x) = 0.17637 0.42858
# Poissons Ratio (y) = 0.29210 0.26920
# Poissons Ratio (z) = 0.52359 0.19857
#
# Static dielectric constant tensor:
#      x y z
#    x 1.672860 0.000000 0.000000 
#    y 0.000000 1.679380 0.000000 
#    z 0.000000 0.000000 1.685110 
# 
# From -- ./inp_files/26400.got.cif
#   From: 2010.05.17/outbox.cif.g08.bks.cpg/sg58_14_cif.got.tgz:26400.got - 2010.06.03 14:20:14.
