data_PCOD9442270
_publ_section_title
;
Structure prediction by ZEFSAII (Michael W. Deem and Ramdas Pophale) SiO2 
 PCOD9442270
Probable space group: P N N M
;
_chemical_formula_sum "Si O2"
_cell_formula_units_Z 56
_cell_length_a 6.676129
_cell_length_b 21.001221
_cell_length_c 15.383196
_cell_angle_alpha 90.000000
_cell_angle_beta 90.000000
_cell_angle_gamma 90.000000
_cell_volume 2156.829616
_symmetry_space_group_name_H-M "P N N M"
_symmetry_group_IT_number 58
_symmetry_cell_setting 'orthorhombic'
loop_
_space_group_symop_operation_xyz
x,y,z
-x,-y,z
1/2+x,1/2-y,1/2-z
1/2-x,1/2+y,1/2-z
-x,-y,-z
x,y,-z
1/2-x,1/2+y,1/2+z
1/2+x,1/2-y,1/2+z
loop_
_atom_site_type_symbol
_atom_site_label
_atom_site_fract_x
_atom_site_fract_y
_atom_site_fract_z
Si Si1 0.669604 0.763094 0.662565
Si Si2 0.283156 0.217401 0.136743
Si Si3 0.759806 0.993768 0.737910
Si Si4 0.618767 0.647635 0.903388
Si Si5 0.323897 0.583393 0.404731
Si Si6 0.087405 0.603303 0.903453
Si Si7 0.188566 0.874274 0.208514
O O1 0.670619 0.787121 0.761450
O O2 0.449942 0.739706 0.632856
O O3 0.703727 0.828725 0.609635
O O4 0.775682 0.693221 0.674681
O O5 0.396339 0.275856 0.093885
O O6 0.296701 0.149266 0.094408
O O7 0.738976 0.959369 0.829371
O O8 0.667127 0.950897 0.661762
O O9 0.684132 0.065038 0.760965
O O10 0.000000 0.000000 0.718451
O O11 0.565367 0.637701 0.799676
O O12 0.852603 0.623508 0.899151
O O13 0.552270 0.622900 0.000000
O O14 0.329209 0.555040 0.500000
O O15 0.543836 0.601208 0.367715
O O16 0.120170 0.578496 0.000000
#
# Coordination Sequence:
#
# PCOD9442270 Si02
#       7
#     8   8   8   8   8   8   8
#     4   9  17  32  54  79 113 144 190 231 278 327
#     4   9  16  30  55  83 109 142 186 235 278 334
#     4  10  21  36  53  81 116 147 188 229 288 334
#     4   9  18  33  54  83 111 143 186 225 274 337
#     4  10  19  34  58  81 105 143 192 237 280 336
#     4  10  20  35  58  84 113 153 194 228 276 347
#     4   9  20  33  52  82 112 142 181 236 282 327
#
# _framework density 25.964033000000001
#
# number of rings (size 3 to 8) (size 9 to 14) (size 15 to 20)
#    0.000    2.571    1.429    0.429    0.000    7.429 
#    0.000    3.571    0.000    1.714    0.000    5.000 
#    0.000    0.000    0.000    0.000    0.000    0.000 
#
# Total GULP energy -312293.693671 kJ/mol
# GULP energy per Si atom -5576.673101 kJ/mol
# Density = 2.590494 g / cm^3
# Si number density = 25.964033 Si / 1000 Ang^3
#
#
#
# Elastic Constant Matrix: (Units=GPa)
#
#
# Indices 1 2 3 4 5 6 
#
# 1 63.5015 -5.1001 -5.0867 0.0000 0.0000 0.0000
# 2 -5.1001 132.4951 43.7960 0.0000 0.0000 0.0000
# 3 -5.0867 43.7960 188.7238 0.0000 0.0000 0.0000
# 4 0.0000 0.0000 0.0000 -1.9500 0.0000 0.0000
# 5 0.0000 0.0000 0.0000 0.0000 10.6563 0.0000
# 6 0.0000 0.0000 0.0000 0.0000 0.0000 24.0105
#
#
#
# Elastic Compliance Matrix: (Units=1/GPa)
#
#
# Indices 1 2 3 4 5 6 
#
# 1 0.015813 0.000507 0.000309 0.000000 0.000000 0.000000
# 2 0.000507 0.008191 -0.001887 0.000000 0.000000 0.000000
# 3 0.000309 -0.001887 0.005745 0.000000 0.000000 0.000000
# 4 0.000000 0.000000 0.000000 -0.512814 0.000000 0.000000
# 5 0.000000 0.000000 0.000000 0.000000 0.093842 0.000000
# 6 0.000000 0.000000 0.000000 0.000000 0.000000 0.041649
#
#
# Mechanical properties :
#
#
# Convention : Reuss Voigt Hill
#
# Bulk Modulus (GPa) = 36.22508 50.21541 43.22024
# Shear Modulus (GPa) = -14.87079 29.95075 7.53998
#
# Velocity S-wave (km/s) = -2.39581 3.40008 1.70596
# Velocity P-wave (km/s) = 2.51578 5.89885 4.53462
#
# Compressibility (1/GPa) = 0.02760519
#
# Stress axis : x y z
#
# Youngs Moduli (GPa) = 63.23877 122.08919 174.06437
#
# Poissons Ratio (x) = -0.06186 -0.05372
# Poissons Ratio (y) = -0.03204 0.32848
# Poissons Ratio (z) = -0.01952 0.23040
#
# Static dielectric constant tensor:
#      x y z
#    x 2.220800 0.000000 0.000000 
#    y 0.000000 2.099360 0.000000 
#    z 0.000000 0.000000 1.987230 
# 
# From -- ./inp_files/14562.got.cif
#   From: 2010.05.17/outbox.cif.g08.bks.cpg/sg58_8_cif.got.tgz:14562.got - 2010.06.03 14:20:14.
