data_PCOD9442664
_publ_section_title
;
Structure prediction by ZEFSAII (Michael W. Deem and Ramdas Pophale) SiO2 
 PCOD9442664
Probable space group: P N N M
;
_chemical_formula_sum "Si O2"
_cell_formula_units_Z 48
_cell_length_a 27.933806
_cell_length_b 9.773891
_cell_length_c 7.876418
_cell_angle_alpha 90.000000
_cell_angle_beta 90.000000
_cell_angle_gamma 90.000000
_cell_volume 2150.435199
_symmetry_space_group_name_H-M "P N N M"
_symmetry_group_IT_number 58
_symmetry_cell_setting 'orthorhombic'
loop_
_space_group_symop_operation_xyz
x,y,z
-x,-y,z
1/2+x,1/2-y,1/2-z
1/2-x,1/2+y,1/2-z
-x,-y,-z
x,y,-z
1/2-x,1/2+y,1/2+z
1/2+x,1/2-y,1/2+z
loop_
_atom_site_type_symbol
_atom_site_label
_atom_site_fract_x
_atom_site_fract_y
_atom_site_fract_z
Si Si1 0.213947 0.876270 0.206343
Si Si2 0.046435 0.573744 0.806731
Si Si3 0.390674 0.317537 0.293351
Si Si4 0.802714 0.811052 0.800858
Si Si5 0.899661 0.667139 0.310684
Si Si6 0.548855 0.425981 0.295688
O O1 0.164165 0.804323 0.259977
O O2 0.258747 0.792273 0.274744
O O3 0.210825 0.035883 0.260528
O O4 0.216673 0.874468 0.000000
O O5 0.071030 0.707288 0.728633
O O6 0.087798 0.459056 0.809108
O O7 0.000000 0.500000 0.727641
O O8 0.031913 0.611739 0.000000
O O9 0.391178 0.306699 0.500000
O O10 0.408849 0.469008 0.252234
O O11 0.849702 0.743239 0.720433
O O12 0.813831 0.825751 0.000000
O O13 0.900542 0.611397 0.500000
O O14 0.940488 0.781221 0.285578
O O15 0.500000 0.500000 0.246023
O O16 0.548037 0.407659 0.500000
#
# Coordination Sequence:
#
# PCOD9442664 Si02
#       6
#     8   8   8   8   8   8
#     4  10  22  41  63  91 123 154 202 258 313 369
#     4  10  21  39  64  93 123 163 212 254 304 366
#     4   9  18  36  61  89 120 154 197 254 305 360
#     4  11  24  43  66  90 121 160 206 253 306 373
#     4  12  25  40  60  90 130 166 203 252 306 364
#     4  10  19  37  66  93 118 155 204 253 303 363
#
# _framework density 22.321064
#
# number of rings (size 3 to 8) (size 9 to 14) (size 15 to 20)
#    0.000    1.667    1.667    3.000    2.333    4.667 
#    0.000    0.833    0.000    0.000    0.000    0.000 
#    0.000    0.000    0.000    0.000    0.000    0.000 
#
# Total GULP energy -268268.266355 kJ/mol
# GULP energy per Si atom -5588.922216 kJ/mol
# Density = 2.227026 g / cm^3
# Si number density = 22.321064 Si / 1000 Ang^3
#
#
#
# Elastic Constant Matrix: (Units=GPa)
#
#
# Indices 1 2 3 4 5 6 
#
# 1 84.9834 11.5323 -1.5268 0.0000 0.0000 0.0000
# 2 11.5323 91.5190 -3.7143 0.0000 0.0000 0.0000
# 3 -1.5268 -3.7143 38.9876 0.0000 0.0000 0.0000
# 4 0.0000 0.0000 0.0000 6.4871 0.0000 0.0000
# 5 0.0000 0.0000 0.0000 0.0000 20.9264 0.0000
# 6 0.0000 0.0000 0.0000 0.0000 0.0000 41.9238
#
#
#
# Elastic Compliance Matrix: (Units=1/GPa)
#
#
# Indices 1 2 3 4 5 6 
#
# 1 0.011976 -0.001496 0.000326 0.000000 0.000000 0.000000
# 2 -0.001496 0.011156 0.001004 0.000000 0.000000 0.000000
# 3 0.000326 0.001004 0.025758 0.000000 0.000000 0.000000
# 4 0.000000 0.000000 0.000000 0.154152 0.000000 0.000000
# 5 0.000000 0.000000 0.000000 0.000000 0.047786 0.000000
# 6 0.000000 0.000000 0.000000 0.000000 0.000000 0.023853
#
#
# Mechanical properties :
#
#
# Convention : Reuss Voigt Hill
#
# Bulk Modulus (GPa) = 20.59342 25.34138 22.96740
# Shear Modulus (GPa) = 17.17048 27.81404 22.49226
#
# Velocity S-wave (km/s) = 2.77654 3.53383 3.17783
# Velocity P-wave (km/s) = 4.41871 5.29418 4.87613
#
# Compressibility (1/GPa) = 0.04855921
#
# Stress axis : x y z
#
# Youngs Moduli (GPa) = 83.50132 89.63835 38.82344
#
# Poissons Ratio (x) = 0.13408 -0.01268
# Poissons Ratio (y) = 0.12490 -0.03899
# Poissons Ratio (z) = -0.02726 -0.09002
#
# Static dielectric constant tensor:
#      x y z
#    x 1.820250 0.000000 0.000000 
#    y 0.000000 1.791900 0.000000 
#    z 0.000000 0.000000 1.860390 
# 
# From -- ./inp_files/10731.got.cif
#   From: 2010.05.17/outbox.cif.g08.bks.cpg/sg58_6_cif.got.tgz:10731.got - 2010.06.03 14:20:14.
