data_PCOD9442221
_publ_section_title
;
Structure prediction by ZEFSAII (Michael W. Deem and Ramdas Pophale) SiO2 
 PCOD9442221
Probable space group: P N N M
;
_chemical_formula_sum "Si O2"
_cell_formula_units_Z 64
_cell_length_a 9.277758
_cell_length_b 18.320023
_cell_length_c 19.742453
_cell_angle_alpha 90.000000
_cell_angle_beta 90.000000
_cell_angle_gamma 90.000000
_cell_volume 3355.599860
_symmetry_space_group_name_H-M "P N N M"
_symmetry_group_IT_number 58
_symmetry_cell_setting 'orthorhombic'
loop_
_space_group_symop_operation_xyz
x,y,z
-x,-y,z
1/2+x,1/2-y,1/2-z
1/2-x,1/2+y,1/2-z
-x,-y,-z
x,y,-z
1/2-x,1/2+y,1/2+z
1/2+x,1/2-y,1/2+z
loop_
_atom_site_type_symbol
_atom_site_label
_atom_site_fract_x
_atom_site_fract_y
_atom_site_fract_z
Si Si1 0.284399 0.743629 0.926862
Si Si2 0.156547 0.128549 0.688016
Si Si3 0.242585 0.926553 0.833917
Si Si4 0.683206 0.653506 0.796522
Si Si5 0.171714 0.489117 0.198042
Si Si6 0.474386 0.360575 0.577828
Si Si7 0.003157 0.376903 0.422639
Si Si8 0.251744 0.681153 0.335649
O O1 0.296263 0.688563 0.865969
O O2 0.148594 0.798017 0.923684
O O3 0.421390 0.797368 0.926034
O O4 0.280155 0.705495 0.000000
O O5 0.217127 0.151267 0.761106
O O6 0.982820 0.128984 0.694719
O O7 0.231892 0.052908 0.667034
O O8 0.226669 0.855149 0.783557
O O9 0.273295 0.985934 0.776594
O O10 0.099616 0.925496 0.878996
O O11 0.376201 0.924619 0.884938
O O12 0.784064 0.590917 0.829288
O O13 0.707754 0.734013 0.825113
O O14 0.000000 0.500000 0.195035
O O15 0.507165 0.380450 0.500000
O O16 0.608164 0.328262 0.617991
O O17 0.972269 0.400019 0.500000
O O18 0.868714 0.365714 0.374096
#
# Coordination Sequence:
#
# PCOD9442221 Si02
#       8
#     8   8   8   8   8   8   8   8
#     4   9  20  35  56  83 114 154 189 228 298 359
#     4  12  22  37  62  83 125 153 195 256 296 356
#     4   9  19  37  55  81 113 155 204 233 295 353
#     4  10  23  35  55  88 116 153 195 246 301 345
#     4  10  23  38  58  86 114 155 199 250 299 348
#     4  10  20  35  56  85 121 156 189 241 297 354
#     4  10  19  34  56  85 122 155 190 243 295 355
#     4  12  21  32  58  92 120 146 198 253 302 350
#
# _framework density 19.072596999999998
#
# number of rings (size 3 to 8) (size 9 to 14) (size 15 to 20)
#    0.750    1.000    2.500    4.125    1.750    0.000 
#    0.000    0.000    0.000   12.375    0.000    0.000 
#    0.000    0.000    0.000    0.000    0.000    0.000 
#
# Total GULP energy -356753.412498 kJ/mol
# GULP energy per Si atom -5574.272070 kJ/mol
# Density = 1.902919 g / cm^3
# Si number density = 19.072597 Si / 1000 Ang^3
#
#
#
# Elastic Constant Matrix: (Units=GPa)
#
#
# Indices 1 2 3 4 5 6 
#
# 1 87.2258 16.7087 30.5319 0.0000 0.0000 0.0000
# 2 16.7087 40.0669 -17.4894 0.0000 0.0000 0.0000
# 3 30.5319 -17.4894 58.2508 0.0000 0.0000 0.0000
# 4 0.0000 0.0000 0.0000 19.9886 0.0000 0.0000
# 5 0.0000 0.0000 0.0000 0.0000 -24.0856 0.0000
# 6 0.0000 0.0000 0.0000 0.0000 0.0000 15.3453
#
#
#
# Elastic Compliance Matrix: (Units=1/GPa)
#
#
# Indices 1 2 3 4 5 6 
#
# 1 0.019234 -0.014295 -0.014373 0.000000 0.000000 0.000000
# 2 -0.014295 0.039347 0.019306 0.000000 0.000000 0.000000
# 3 -0.014373 0.019306 0.030497 0.000000 0.000000 0.000000
# 4 0.000000 0.000000 0.000000 0.050029 0.000000 0.000000
# 5 0.000000 0.000000 0.000000 0.000000 -0.041519 0.000000
# 6 0.000000 0.000000 0.000000 0.000000 0.000000 0.065166
#
#
# Mechanical properties :
#
#
# Convention : Reuss Voigt Hill
#
# Bulk Modulus (GPa) = 14.21382 27.22733 20.72057
# Shear Modulus (GPa) = 24.39854 12.63581 18.51718
#
# Velocity S-wave (km/s) = 3.58053 2.57672 3.11927
# Velocity P-wave (km/s) = 4.95604 4.81241 4.88475
#
# Compressibility (1/GPa) = 0.07035408
#
# Stress axis : x y z
#
# Youngs Moduli (GPa) = 51.99130 25.41500 32.78958
#
# Poissons Ratio (x) = 0.36331 0.47130
# Poissons Ratio (y) = 0.74322 -0.63305
# Poissons Ratio (z) = 0.74729 -0.49067
#
# Static dielectric constant tensor:
#      x y z
#    x 1.683840 0.000000 0.000000 
#    y 0.000000 1.681990 0.000000 
#    z 0.000000 0.000000 1.662670 
# 
# From -- ./inp_files/25730.got.cif
#   From: 2010.05.17/outbox.cif.g08.bks.cpg/sg58_13_cif.got.tgz:25730.got - 2010.06.03 14:20:14.
