data_PCOD9442167
_publ_section_title
;
Structure prediction by ZEFSAII (Michael W. Deem and Ramdas Pophale) SiO2 
 PCOD9442167
Probable space group: P N N M
;
_chemical_formula_sum "Si O2"
_cell_formula_units_Z 58
_cell_length_a 13.051367
_cell_length_b 11.633086
_cell_length_c 19.818356
_cell_angle_alpha 90.000000
_cell_angle_beta 90.000000
_cell_angle_gamma 90.000000
_cell_volume 3008.974908
_symmetry_space_group_name_H-M "P N N M"
_symmetry_group_IT_number 58
_symmetry_cell_setting 'orthorhombic'
loop_
_space_group_symop_operation_xyz
x,y,z
-x,-y,z
1/2+x,1/2-y,1/2-z
1/2-x,1/2+y,1/2-z
-x,-y,-z
x,y,-z
1/2-x,1/2+y,1/2+z
1/2+x,1/2-y,1/2+z
loop_
_atom_site_type_symbol
_atom_site_label
_atom_site_fract_x
_atom_site_fract_y
_atom_site_fract_z
Si Si1 0.229415 0.928936 0.828236
Si Si2 0.500000 0.000000 0.000000
Si Si3 0.850380 0.263205 0.922780
Si Si4 0.702001 0.582790 0.172576
Si Si5 0.102177 0.562484 0.819890
Si Si6 0.167803 0.655429 0.681580
Si Si7 0.443876 0.846042 0.874156
Si Si8 0.372357 0.609599 0.922465
O O1 0.166021 0.854526 0.881528
O O2 0.182927 0.927620 0.753189
O O3 0.344403 0.873002 0.828560
O O4 0.253286 0.061028 0.846148
O O5 0.441489 0.923082 0.941206
O O6 0.920926 0.350684 0.880859
O O7 0.740124 0.329044 0.922530
O O8 0.880617 0.244783 0.000000
O O9 0.816400 0.535120 0.160539
O O10 0.693907 0.717232 0.158607
O O11 0.632535 0.500324 0.126315
O O12 0.160735 0.636888 0.762416
O O13 0.000000 0.500000 0.795887
O O14 0.052455 0.629092 0.659145
O O15 0.442566 0.711805 0.894408
O O16 0.396368 0.580150 0.000000
#
# Coordination Sequence:
#
# PCOD9442167 Si02
#       8
#     8   2   8   8   8   8   8   8
#     4  10  19  34  54  81 112 149 190 236 278 334
#     4  12  20  36  52  94 120 152 196 232 282 350
#     4   9  18  33  58  84 108 141 187 239 289 337
#     4  10  21  36  55  79 114 153 189 234 286 340
#     4  10  20  37  59  83 108 140 191 245 286 335
#     4  11  20  34  54  82 114 150 191 234 279 340
#     4  11  21  34  57  84 118 151 197 234 281 343
#     4   9  19  36  54  79 119 155 187 231 285 344
#
# _framework density 19.275668
#
# number of rings (size 3 to 8) (size 9 to 14) (size 15 to 20)
#    0.000    1.931    3.448    1.655    2.897    0.828 
#    1.241    0.690    0.000    0.828    0.000    0.966 
#    0.000    0.000    0.000    0.000    0.000    0.000 
#
# Total GULP energy -322897.332511 kJ/mol
# GULP energy per Si atom -5567.195388 kJ/mol
# Density = 1.923180 g / cm^3
# Si number density = 19.275668 Si / 1000 Ang^3
#
#
#
# Elastic Constant Matrix: (Units=GPa)
#
#
# Indices 1 2 3 4 5 6 
#
# 1 14.9263 12.6465 1.8443 0.0000 0.0000 0.0000
# 2 12.6465 153.6057 61.6115 0.0000 0.0000 0.0000
# 3 1.8443 61.6115 116.6380 0.0000 0.0000 0.0000
# 4 0.0000 0.0000 0.0000 29.7019 0.0000 0.0000
# 5 0.0000 0.0000 0.0000 0.0000 5.4178 0.0000
# 6 0.0000 0.0000 0.0000 0.0000 0.0000 21.5104
#
#
#
# Elastic Compliance Matrix: (Units=1/GPa)
#
#
# Indices 1 2 3 4 5 6 
#
# 1 0.072613 -0.007001 0.002550 0.000000 0.000000 0.000000
# 2 -0.007001 0.008935 -0.004609 0.000000 0.000000 0.000000
# 3 0.002550 -0.004609 0.010968 0.000000 0.000000 0.000000
# 4 0.000000 0.000000 0.000000 0.033668 0.000000 0.000000
# 5 0.000000 0.000000 0.000000 0.000000 0.184576 0.000000
# 6 0.000000 0.000000 0.000000 0.000000 0.000000 0.046489
#
#
# Mechanical properties :
#
#
# Convention : Reuss Voigt Hill
#
# Bulk Modulus (GPa) = 13.44171 48.59717 31.01944
# Shear Modulus (GPa) = 12.49475 25.26387 18.87931
#
# Velocity S-wave (km/s) = 2.54877 3.62423 3.13299
# Velocity P-wave (km/s) = 3.95603 6.54063 5.40509
#
# Compressibility (1/GPa) = 0.07439529
#
# Stress axis : x y z
#
# Youngs Moduli (GPa) = 13.77173 111.91521 91.17497
#
# Poissons Ratio (x) = 0.78353 -0.23250
# Poissons Ratio (y) = 0.09642 0.42024
# Poissons Ratio (z) = -0.03512 0.51584
#
# Static dielectric constant tensor:
#      x y z
#    x 1.666170 0.000000 0.000000 
#    y 0.000000 1.702360 0.000000 
#    z 0.000000 0.000000 1.695410 
# 
# From -- ./inp_files/26982.got.cif
#   From: 2010.05.17/outbox.cif.g08.bks.cpg/sg58_14_cif.got.tgz:26982.got - 2010.06.03 14:20:14.
