data_PCOD9442159
_publ_section_title
;
Structure prediction by ZEFSAII (Michael W. Deem and Ramdas Pophale) SiO2 
 PCOD9442159
Probable space group: P N N M
;
_chemical_formula_sum "Si O2"
_cell_formula_units_Z 64
_cell_length_a 20.579784
_cell_length_b 20.622514
_cell_length_c 8.471334
_cell_angle_alpha 90.000000
_cell_angle_beta 90.000000
_cell_angle_gamma 90.000000
_cell_volume 3595.292463
_symmetry_space_group_name_H-M "P N N M"
_symmetry_group_IT_number 58
_symmetry_cell_setting 'orthorhombic'
loop_
_space_group_symop_operation_xyz
x,y,z
-x,-y,z
1/2+x,1/2-y,1/2-z
1/2-x,1/2+y,1/2-z
-x,-y,-z
x,y,-z
1/2-x,1/2+y,1/2+z
1/2+x,1/2-y,1/2+z
loop_
_atom_site_type_symbol
_atom_site_label
_atom_site_fract_x
_atom_site_fract_y
_atom_site_fract_z
Si Si1 0.824435 0.923512 0.310986
Si Si2 0.431222 0.324235 0.191437
Si Si3 0.679200 0.926400 0.810688
Si Si4 0.322564 0.930672 0.311151
Si Si5 0.825806 0.071491 0.691917
Si Si6 0.428377 0.176130 0.808030
Si Si7 0.923406 0.674258 0.311109
Si Si8 0.575117 0.318260 0.687173
O O1 0.829753 0.920227 0.500000
O O2 0.749780 0.912175 0.262142
O O3 0.872343 0.871512 0.236147
O O4 0.840707 0.997474 0.260465
O O5 0.378193 0.376176 0.246909
O O6 0.414157 0.250398 0.239147
O O7 0.503470 0.338053 0.252965
O O8 0.433356 0.325683 0.000000
O O9 0.625075 0.875269 0.754727
O O10 0.660896 0.999629 0.763101
O O11 0.684159 0.922358 0.000000
O O12 0.322160 0.937908 0.500000
O O13 0.248510 0.914020 0.260549
O O14 0.372740 0.875621 0.261939
O O15 0.827013 0.072779 0.500000
O O16 0.502203 0.160478 0.758527
O O17 0.428183 0.174978 0.000000
O O18 0.921033 0.668881 0.500000
O O19 0.909385 0.748394 0.263396
O O20 0.573947 0.310682 0.500000
#
# Coordination Sequence:
#
# PCOD9442159 Si02
#       8
#     8   8   8   8   8   8   8   8
#     4  10  20  36  54  77 107 141 178 219 263 315
#     4   9  17  35  57  76  99 135 176 215 257 311
#     4  10  19  34  54  78 106 141 180 221 264 313
#     4  10  20  35  53  79 110 142 177 218 263 313
#     4   8  17  33  55  77 103 139 178 213 256 312
#     4   8  17  32  53  77 103 134 174 217 264 318
#     4  10  20  37  57  78 103 137 176 218 262 313
#     4  11  22  36  53  78 107 137 171 215 265 317
#
# _framework density 17.801055000000002
#
# number of rings (size 3 to 8) (size 9 to 14) (size 15 to 20)
#    0.000    2.500    0.000    4.125    0.000    2.000 
#    0.000   17.500    0.000    0.000    0.000    0.000 
#    0.000    0.000    0.000    0.000    0.000    0.000 
#
# Total GULP energy -357050.849341 kJ/mol
# GULP energy per Si atom -5578.919521 kJ/mol
# Density = 1.776054 g / cm^3
# Si number density = 17.801055 Si / 1000 Ang^3
#
#
#
# Elastic Constant Matrix: (Units=GPa)
#
#
# Indices 1 2 3 4 5 6 
#
# 1 92.7797 82.5456 -10.7759 0.0000 0.0000 0.0000
# 2 82.5456 93.6148 -12.1161 0.0000 0.0000 0.0000
# 3 -10.7759 -12.1161 18.0733 0.0000 0.0000 0.0000
# 4 0.0000 0.0000 0.0000 26.5207 0.0000 0.0000
# 5 0.0000 0.0000 0.0000 0.0000 28.1140 0.0000
# 6 0.0000 0.0000 0.0000 0.0000 0.0000 43.7403
#
#
#
# Elastic Compliance Matrix: (Units=1/GPa)
#
#
# Indices 1 2 3 4 5 6 
#
# 1 0.050015 -0.044065 0.000280 0.000000 0.000000 0.000000
# 2 -0.044065 0.050520 0.007594 0.000000 0.000000 0.000000
# 3 0.000280 0.007594 0.060589 0.000000 0.000000 0.000000
# 4 0.000000 0.000000 0.000000 0.037706 0.000000 0.000000
# 5 0.000000 0.000000 0.000000 0.000000 0.035570 0.000000
# 6 0.000000 0.000000 0.000000 0.000000 0.000000 0.022862
#
#
# Mechanical properties :
#
#
# Convention : Reuss Voigt Hill
#
# Bulk Modulus (GPa) = 11.26846 35.97498 23.62172
# Shear Modulus (GPa) = 13.91894 29.32925 21.62410
#
# Velocity S-wave (km/s) = 2.79931 4.06348 3.48913
# Velocity P-wave (km/s) = 4.09782 6.50148 5.43421
#
# Compressibility (1/GPa) = 0.08874326
#
# Stress axis : x y z
#
# Youngs Moduli (GPa) = 19.99397 19.79432 16.50471
#
# Poissons Ratio (x) = 0.87223 -0.00463
# Poissons Ratio (y) = 0.88103 -0.12534
# Poissons Ratio (z) = -0.00560 -0.15033
#
# Static dielectric constant tensor:
#      x y z
#    x 1.590500 0.000000 0.000000 
#    y 0.000000 1.589310 0.000000 
#    z 0.000000 0.000000 1.611720 
# 
# From -- ./inp_files/8392.got.cif
#   From: 2010.05.17/outbox.cif.g08.bks.cpg/sg58_5_cif.got.tgz:8392.got - 2010.06.03 14:20:14.
