data_PCOD9442088
_publ_section_title
;
Structure prediction by ZEFSAII (Michael W. Deem and Ramdas Pophale) SiO2 
 PCOD9442088
Probable space group: P N N M
;
_chemical_formula_sum "Si O2"
_cell_formula_units_Z 64
_cell_length_a 25.506752
_cell_length_b 14.483756
_cell_length_c 9.227527
_cell_angle_alpha 90.000000
_cell_angle_beta 90.000000
_cell_angle_gamma 90.000000
_cell_volume 3408.958263
_symmetry_space_group_name_H-M "P N N M"
_symmetry_group_IT_number 58
_symmetry_cell_setting 'orthorhombic'
loop_
_space_group_symop_operation_xyz
x,y,z
-x,-y,z
1/2+x,1/2-y,1/2-z
1/2-x,1/2+y,1/2-z
-x,-y,-z
x,y,-z
1/2-x,1/2+y,1/2+z
1/2+x,1/2-y,1/2+z
loop_
_atom_site_type_symbol
_atom_site_label
_atom_site_fract_x
_atom_site_fract_y
_atom_site_fract_z
Si Si1 0.899069 0.035030 0.673214
Si Si2 0.450698 0.291296 0.327097
Si Si3 0.943355 0.838666 0.673000
Si Si4 0.174645 0.472710 0.329961
Si Si5 0.227017 0.737622 0.667961
Si Si6 0.780087 0.039177 0.332809
Si Si7 0.167390 0.253147 0.671020
Si Si8 0.368346 0.137041 0.327323
O O1 0.900468 0.054078 0.500000
O O2 0.917669 0.124346 0.759034
O O3 0.838757 0.009370 0.707686
O O4 0.935902 0.947526 0.702723
O O5 0.453039 0.301685 0.500000
O O6 0.508050 0.297113 0.258251
O O7 0.419997 0.196659 0.293976
O O8 0.951696 0.828331 0.500000
O O9 0.888180 0.790870 0.709820
O O10 0.172262 0.492386 0.500000
O O11 0.232799 0.493189 0.267899
O O12 0.164969 0.363806 0.308773
O O13 0.134290 0.536422 0.243624
O O14 0.224435 0.709620 0.500000
O O15 0.219864 0.848878 0.673181
O O16 0.283518 0.717118 0.737445
O O17 0.180712 0.691779 0.758753
O O18 0.769840 0.011751 0.500000
O O19 0.176961 0.234882 0.500000
O O20 0.362550 0.131328 0.500000
#
# Coordination Sequence:
#
# PCOD9442088 Si02
#       8
#     8   8   8   8   8   8   8   8
#     4  10  20  36  58  85 117 155 192 227 277 349
#     4  11  24  40  58  83 115 151 194 246 293 333
#     4  10  22  39  61  84 111 154 196 232 284 348
#     4  10  21  36  57  85 117 150 191 240 289 342
#     4  10  19  33  56  85 115 150 188 232 283 336
#     4   9  18  33  54  83 119 153 185 223 277 344
#     4   9  20  39  59  84 118 153 189 234 289 346
#     4  11  23  38  57  81 113 154 196 238 293 346
#
# _framework density 18.774063000000002
#
# number of rings (size 3 to 8) (size 9 to 14) (size 15 to 20)
#    0.000    2.000    1.250    1.875    1.750    5.500 
#    0.000    0.625    0.000    3.750    0.000    0.000 
#    0.000    0.000    0.000    0.000    0.000    0.000 
#
# Total GULP energy -357627.935859 kJ/mol
# GULP energy per Si atom -5587.936498 kJ/mol
# Density = 1.873133 g / cm^3
# Si number density = 18.774063 Si / 1000 Ang^3
#
#
#
# Elastic Constant Matrix: (Units=GPa)
#
#
# Indices 1 2 3 4 5 6 
#
# 1 73.3462 11.6509 24.4962 0.0000 0.0000 0.0000
# 2 11.6509 33.3120 16.6345 0.0000 0.0000 0.0000
# 3 24.4962 16.6345 47.2524 0.0000 0.0000 0.0000
# 4 0.0000 0.0000 0.0000 22.4305 0.0000 0.0000
# 5 0.0000 0.0000 0.0000 0.0000 31.5899 0.0000
# 6 0.0000 0.0000 0.0000 0.0000 0.0000 26.5972
#
#
#
# Elastic Compliance Matrix: (Units=1/GPa)
#
#
# Indices 1 2 3 4 5 6 
#
# 1 0.016580 -0.001828 -0.007952 0.000000 0.000000 0.000000
# 2 -0.001828 0.036623 -0.011945 0.000000 0.000000 0.000000
# 3 -0.007952 -0.011945 0.029490 0.000000 0.000000 0.000000
# 4 0.000000 0.000000 0.000000 0.044582 0.000000 0.000000
# 5 0.000000 0.000000 0.000000 0.000000 0.031656 0.000000
# 6 0.000000 0.000000 0.000000 0.000000 0.000000 0.037598
#
#
# Mechanical properties :
#
#
# Convention : Reuss Voigt Hill
#
# Bulk Modulus (GPa) = 25.48161 28.83044 27.15603
# Shear Modulus (GPa) = 19.75809 22.86543 21.31176
#
# Velocity S-wave (km/s) = 3.24761 3.49367 3.37288
# Velocity P-wave (km/s) = 5.25974 5.62709 5.44651
#
# Compressibility (1/GPa) = 0.03924398
#
# Stress axis : x y z
#
# Youngs Moduli (GPa) = 60.31324 27.30490 33.90948
#
# Poissons Ratio (x) = 0.04992 0.26964
# Poissons Ratio (y) = 0.11026 0.40505
# Poissons Ratio (z) = 0.47959 0.32616
#
# Static dielectric constant tensor:
#      x y z
#    x 1.627360 0.000000 0.000000 
#    y 0.000000 1.675060 0.000000 
#    z 0.000000 0.000000 1.623600 
# 
# From -- ./inp_files/6912.got.cif
#   From: 2010.05.17/outbox.cif.g08.bks.cpg/sg58_4_cif.got.tgz:6912.got - 2010.06.03 14:20:14.
