data_PCOD9442889
_publ_section_title
;
Structure prediction by ZEFSAII (Michael W. Deem and Ramdas Pophale) SiO2 
 PCOD9442889
Probable space group: P N N M
;
_chemical_formula_sum "Si O2"
_cell_formula_units_Z 56
_cell_length_a 13.108804
_cell_length_b 25.131526
_cell_length_c 7.246546
_cell_angle_alpha 90.000000
_cell_angle_beta 90.000000
_cell_angle_gamma 90.000000
_cell_volume 2387.332902
_symmetry_space_group_name_H-M "P N N M"
_symmetry_group_IT_number 58
_symmetry_cell_setting 'orthorhombic'
loop_
_space_group_symop_operation_xyz
x,y,z
-x,-y,z
1/2+x,1/2-y,1/2-z
1/2-x,1/2+y,1/2-z
-x,-y,-z
x,y,-z
1/2-x,1/2+y,1/2+z
1/2+x,1/2-y,1/2+z
loop_
_atom_site_type_symbol
_atom_site_label
_atom_site_fract_x
_atom_site_fract_y
_atom_site_fract_z
Si Si1 0.179158 0.835611 0.211175
Si Si2 0.403958 0.534565 0.724145
Si Si3 0.550500 0.344625 0.724738
Si Si4 0.908525 0.371296 0.724503
Si Si5 0.626994 0.101621 0.225258
Si Si6 0.252970 0.717840 0.723383
Si Si7 0.176113 0.514223 0.275728
O O1 0.267109 0.873147 0.290944
O O2 0.223074 0.776229 0.212943
O O3 0.065039 0.835587 0.289478
O O4 0.166096 0.854331 0.000000
O O5 0.500000 0.500000 0.786422
O O6 0.404991 0.533658 0.500000
O O7 0.414923 0.596067 0.777751
O O8 0.294555 0.512043 0.780176
O O9 0.550783 0.342570 0.500000
O O10 0.635763 0.302429 0.783951
O O11 0.905879 0.370953 0.500000
O O12 0.831976 0.325073 0.783484
O O13 0.869713 0.429521 0.783376
O O14 0.026154 0.366475 0.781825
O O15 0.620474 0.039848 0.280185
O O16 0.628353 0.103003 0.000000
O O17 0.252413 0.718742 0.500000
O O18 0.172938 0.514994 0.500000
#
# Coordination Sequence:
#
# PCOD9442889 Si02
#       7
#     8   8   8   8   8   8   8
#     4  10  21  34  49  71  99 128 161 203 243 278
#     4   9  14  21  38  62  92 126 153 182 232 294
#     4   9  17  31  46  66  97 128 158 195 240 286
#     4   9  16  27  43  65  93 125 157 192 237 289
#     4   9  17  27  42  67  98 125 152 193 244 286
#     4  10  20  34  51  69  94 130 167 198 234 284
#     4   9  14  23  39  64  95 124 152 187 238 293
#
# _framework density 23.457136999999999
#
# number of rings (size 3 to 8) (size 9 to 14) (size 15 to 20)
#    0.000    2.714    1.429    1.286    2.000    5.143 
#    0.000    0.000    0.000    0.000    0.000    1.000 
#    0.000    4.571    0.000    0.000    0.000    0.000 
#
# Total GULP energy -313066.783551 kJ/mol
# GULP energy per Si atom -5590.478278 kJ/mol
# Density = 2.340375 g / cm^3
# Si number density = 23.457137 Si / 1000 Ang^3
#
#
#
# Elastic Constant Matrix: (Units=GPa)
#
#
# Indices 1 2 3 4 5 6 
#
# 1 101.5558 -4.1645 -2.0204 0.0000 0.0000 0.0000
# 2 -4.1645 62.2193 -12.5674 0.0000 0.0000 0.0000
# 3 -2.0204 -12.5674 107.2390 0.0000 0.0000 0.0000
# 4 0.0000 0.0000 0.0000 1.0561 0.0000 0.0000
# 5 0.0000 0.0000 0.0000 0.0000 -21.5688 0.0000
# 6 0.0000 0.0000 0.0000 0.0000 0.0000 32.8376
#
#
#
# Elastic Compliance Matrix: (Units=1/GPa)
#
#
# Indices 1 2 3 4 5 6 
#
# 1 0.009882 0.000716 0.000270 0.000000 0.000000 0.000000
# 2 0.000716 0.016514 0.001949 0.000000 0.000000 0.000000
# 3 0.000270 0.001949 0.009558 0.000000 0.000000 0.000000
# 4 0.000000 0.000000 0.000000 0.946879 0.000000 0.000000
# 5 0.000000 0.000000 0.000000 0.000000 -0.046363 0.000000
# 6 0.000000 0.000000 0.000000 0.000000 0.000000 0.030453
#
#
# Mechanical properties :
#
#
# Convention : Reuss Voigt Hill
#
# Bulk Modulus (GPa) = 23.91015 25.94548 24.92781
# Shear Modulus (GPa) = 5.12824 21.78272 13.45548
#
# Velocity S-wave (km/s) = 1.48019 3.05063 2.39763
# Velocity P-wave (km/s) = 3.62444 4.84699 4.27959
#
# Compressibility (1/GPa) = 0.04182325
#
# Stress axis : x y z
#
# Youngs Moduli (GPa) = 101.19880 60.55565 104.61966
#
# Poissons Ratio (x) = -0.04335 -0.02825
# Poissons Ratio (y) = -0.07245 -0.20388
# Poissons Ratio (z) = -0.02733 -0.11801
#
# Static dielectric constant tensor:
#      x y z
#    x 1.854260 0.000000 0.000000 
#    y 0.000000 1.797670 0.000000 
#    z 0.000000 0.000000 1.994820 
# 
# From -- ./inp_files/14727.got.cif
#   From: 2010.05.17/outbox.cif.g08.bks.cpg/sg58_8_cif.got.tgz:14727.got - 2010.06.03 14:20:14.
