data_PCOD9442717
_publ_section_title
;
Structure prediction by ZEFSAII (Michael W. Deem and Ramdas Pophale) SiO2 
 PCOD9442717
Probable space group: P N N M
;
_chemical_formula_sum "Si O2"
_cell_formula_units_Z 48
_cell_length_a 15.303654
_cell_length_b 9.953082
_cell_length_c 16.928131
_cell_angle_alpha 90.000000
_cell_angle_beta 90.000000
_cell_angle_gamma 90.000000
_cell_volume 2578.467914
_symmetry_space_group_name_H-M "P N N M"
_symmetry_group_IT_number 58
_symmetry_cell_setting 'orthorhombic'
loop_
_space_group_symop_operation_xyz
x,y,z
-x,-y,z
1/2+x,1/2-y,1/2-z
1/2-x,1/2+y,1/2-z
-x,-y,-z
x,y,-z
1/2-x,1/2+y,1/2+z
1/2+x,1/2-y,1/2+z
loop_
_atom_site_type_symbol
_atom_site_label
_atom_site_fract_x
_atom_site_fract_y
_atom_site_fract_z
Si Si1 0.540420 0.642847 0.409557
Si Si2 0.249175 0.992418 0.668125
Si Si3 0.661157 0.741797 0.732290
Si Si4 0.075992 0.102718 0.406651
Si Si5 0.511994 0.148662 0.188738
Si Si6 0.929221 0.612116 0.132205
O O1 0.500000 0.500000 0.385857
O O2 0.572257 0.635119 0.500000
O O3 0.613955 0.690517 0.347978
O O4 0.461731 0.750081 0.404730
O O5 0.283106 0.125618 0.712970
O O6 0.167962 0.037267 0.615377
O O7 0.216112 0.876646 0.727610
O O8 0.331259 0.935839 0.618539
O O9 0.582054 0.788503 0.789183
O O10 0.067650 0.120906 0.500000
O O11 0.062917 0.244484 0.363514
O O12 0.000000 0.000000 0.379601
O O13 0.560485 0.127394 0.272737
O O14 0.500000 0.000000 0.153339
O O15 0.000000 0.500000 0.107937
#
# Coordination Sequence:
#
# PCOD9442717 Si02
#       6
#     8   8   8   8   8   8
#     4  10  23  41  62  91 131 168 199 250 320 379
#     4  12  23  40  66  96 119 162 211 265 303 363
#     4  11  24  38  67  94 122 161 210 260 305 365
#     4  11  25  42  61  90 126 168 208 247 307 369
#     4  10  19  41  64  90 124 159 205 257 306 363
#     4  10  20  40  63  93 122 158 209 256 309 365
#
# _framework density 18.615705999999999
#
# number of rings (size 3 to 8) (size 9 to 14) (size 15 to 20)
#    0.000    1.333    6.667    1.000    7.000    2.000 
#    0.000    0.000    0.000    0.000    0.000    0.000 
#    0.000    0.000    0.000    0.000    0.000    0.000 
#
# Total GULP energy -268101.372987 kJ/mol
# GULP energy per Si atom -5585.445271 kJ/mol
# Density = 1.857334 g / cm^3
# Si number density = 18.615706 Si / 1000 Ang^3
#
#
#
# Elastic Constant Matrix: (Units=GPa)
#
#
# Indices 1 2 3 4 5 6 
#
# 1 121.0645 46.0176 15.4590 0.0000 0.0000 0.0000
# 2 46.0176 146.2023 25.2446 0.0000 0.0000 0.0000
# 3 15.4590 25.2446 23.5051 0.0000 0.0000 0.0000
# 4 0.0000 0.0000 0.0000 70.7027 0.0000 0.0000
# 5 0.0000 0.0000 0.0000 0.0000 -2.9180 0.0000
# 6 0.0000 0.0000 0.0000 0.0000 0.0000 42.4304
#
#
#
# Elastic Compliance Matrix: (Units=1/GPa)
#
#
# Indices 1 2 3 4 5 6 
#
# 1 0.009650 -0.002383 -0.003787 0.000000 0.000000 0.000000
# 2 -0.002383 0.008986 -0.008083 0.000000 0.000000 0.000000
# 3 -0.003787 -0.008083 0.053716 0.000000 0.000000 0.000000
# 4 0.000000 0.000000 0.000000 0.014144 0.000000 0.000000
# 5 0.000000 0.000000 0.000000 0.000000 -0.342697 0.000000
# 6 0.000000 0.000000 0.000000 0.000000 0.000000 0.023568
#
#
# Mechanical properties :
#
#
# Convention : Reuss Voigt Hill
#
# Bulk Modulus (GPa) = 22.80782 51.57936 37.19359
# Shear Modulus (GPa) = -26.38348 35.64638 4.63145
#
# Velocity S-wave (km/s) = -3.76875 4.38065 1.57903
# Velocity P-wave (km/s) = 2.58059 7.30441 4.83192
#
# Compressibility (1/GPa) = 0.04384461
#
# Stress axis : x y z
#
# Youngs Moduli (GPa) = 103.63201 111.28746 18.61651
#
# Poissons Ratio (x) = 0.26524 0.07049
# Poissons Ratio (y) = 0.24699 0.15048
# Poissons Ratio (z) = 0.39241 0.89956
#
# Static dielectric constant tensor:
#      x y z
#    x 1.644880 0.000000 0.000000 
#    y 0.000000 1.645020 0.000000 
#    z 0.000000 0.000000 1.624340 
# 
# From -- ./inp_files/26802.got.cif
#   From: 2010.05.17/outbox.cif.g08.bks.cpg/sg58_14_cif.got.tgz:26802.got - 2010.06.03 14:20:14.
