data_PCOD9442151
_publ_section_title
;
Structure prediction by ZEFSAII (Michael W. Deem and Ramdas Pophale) SiO2 
 PCOD9442151
Probable space group: P N N M
;
_chemical_formula_sum "Si O2"
_cell_formula_units_Z 52
_cell_length_a 8.677428
_cell_length_b 12.949498
_cell_length_c 25.795395
_cell_angle_alpha 90.000000
_cell_angle_beta 90.000000
_cell_angle_gamma 90.000000
_cell_volume 2898.585626
_symmetry_space_group_name_H-M "P N N M"
_symmetry_group_IT_number 58
_symmetry_cell_setting 'orthorhombic'
loop_
_space_group_symop_operation_xyz
x,y,z
-x,-y,z
1/2+x,1/2-y,1/2-z
1/2-x,1/2+y,1/2-z
-x,-y,-z
x,y,-z
1/2-x,1/2+y,1/2+z
1/2+x,1/2-y,1/2+z
loop_
_atom_site_type_symbol
_atom_site_label
_atom_site_fract_x
_atom_site_fract_y
_atom_site_fract_z
Si Si1 0.930669 0.885721 0.057145
Si Si2 0.058083 0.608451 0.559429
Si Si3 0.550695 0.723450 0.139990
Si Si4 0.886799 0.814431 0.164586
Si Si5 0.000000 0.000000 0.669487
Si Si6 0.545255 0.168686 0.758563
Si Si7 0.756010 0.975846 0.759983
O O1 0.744159 0.893290 0.059302
O O2 0.975560 0.828568 0.110391
O O3 0.970465 0.840876 0.000000
O O4 0.000000 0.000000 0.058773
O O5 0.004201 0.613549 0.500000
O O6 0.000000 0.500000 0.582802
O O7 0.001979 0.706420 0.591674
O O8 0.726684 0.757137 0.150798
O O9 0.535216 0.601297 0.136050
O O10 0.460724 0.760938 0.190767
O O11 0.957108 0.742504 0.208866
O O12 0.847664 0.925100 0.191555
O O13 0.140241 0.024725 0.708729
O O14 0.393430 0.097537 0.755979
O O15 0.690823 0.092007 0.764032
#
# Coordination Sequence:
#
# PCOD9442151 Si02
#       7
#     8   8   8   8   4   8   8
#     4   9  19  34  52  78 104 133 171 215 263 311
#     4   9  19  37  57  77 104 138 174 216 268 317
#     4  10  21  32  53  78 107 138 177 218 261 310
#     4  10  19  34  53  77 104 143 174 210 268 321
#     4  12  20  36  49  76 111 138 178 216 252 318
#     4  10  20  36  50  76 107 141 178 215 263 321
#     4  10  22  33  51  74 109 140 175 218 264 313
#
# _framework density 17.939784
#
# number of rings (size 3 to 8) (size 9 to 14) (size 15 to 20)
#    0.000    2.154    3.077    0.000    7.538    0.000 
#    2.769    0.385    0.000    0.000    0.000    3.231 
#    0.000    0.000    0.000    0.000    0.000    0.000 
#
# Total GULP energy -289924.752724 kJ/mol
# GULP energy per Si atom -5575.476014 kJ/mol
# Density = 1.789895 g / cm^3
# Si number density = 17.939784 Si / 1000 Ang^3
#
#
#
# Elastic Constant Matrix: (Units=GPa)
#
#
# Indices 1 2 3 4 5 6 
#
# 1 13.3550 19.0231 6.1384 0.0000 0.0000 0.0000
# 2 19.0231 128.0891 69.3073 0.0000 0.0000 0.0000
# 3 6.1384 69.3073 120.4140 0.0000 0.0000 0.0000
# 4 0.0000 0.0000 0.0000 29.7243 0.0000 0.0000
# 5 0.0000 0.0000 0.0000 0.0000 15.0335 0.0000
# 6 0.0000 0.0000 0.0000 0.0000 0.0000 13.7108
#
#
#
# Elastic Compliance Matrix: (Units=1/GPa)
#
#
# Indices 1 2 3 4 5 6 
#
# 1 0.096885 -0.017016 0.004855 0.000000 0.000000 0.000000
# 2 -0.017016 0.014327 -0.007379 0.000000 0.000000 0.000000
# 3 0.004855 -0.007379 0.012304 0.000000 0.000000 0.000000
# 4 0.000000 0.000000 0.000000 0.033643 0.000000 0.000000
# 5 0.000000 0.000000 0.000000 0.000000 0.066518 0.000000
# 6 0.000000 0.000000 0.000000 0.000000 0.000000 0.072935
#
#
# Mechanical properties :
#
#
# Convention : Reuss Voigt Hill
#
# Bulk Modulus (GPa) = 11.84322 50.08843 30.96582
# Shear Modulus (GPa) = 13.74246 22.85299 18.29773
#
# Velocity S-wave (km/s) = 2.77073 3.57301 3.19713
# Velocity P-wave (km/s) = 4.10511 6.70841 5.56124
#
# Compressibility (1/GPa) = 0.08443650
#
# Stress axis : x y z
#
# Youngs Moduli (GPa) = 10.32155 69.80008 81.27340
#
# Poissons Ratio (x) = 1.18770 -0.39457
# Poissons Ratio (y) = 0.17563 0.59969
# Poissons Ratio (z) = -0.05011 0.51503
#
# Static dielectric constant tensor:
#      x y z
#    x 1.652360 0.000000 0.000000 
#    y 0.000000 1.621680 0.000000 
#    z 0.000000 0.000000 1.640690 
# 
# From -- ./inp_files/33278.got.cif
#   From: 2010.05.17/outbox.cif.g08.bks.cpg/sg58_17_cif.got.tgz:33278.got - 2010.06.03 14:20:14.
