data_PCOD9442212
_publ_section_title
;
Structure prediction by ZEFSAII (Michael W. Deem and Ramdas Pophale) SiO2 
 PCOD9442212
Probable space group: P N N M
;
_chemical_formula_sum "Si O2"
_cell_formula_units_Z 40
_cell_length_a 7.135188
_cell_length_b 13.163939
_cell_length_c 18.975953
_cell_angle_alpha 90.000000
_cell_angle_beta 90.000000
_cell_angle_gamma 90.000000
_cell_volume 1782.357745
_symmetry_space_group_name_H-M "P N N M"
_symmetry_group_IT_number 58
_symmetry_cell_setting 'orthorhombic'
loop_
_space_group_symop_operation_xyz
x,y,z
-x,-y,z
1/2+x,1/2-y,1/2-z
1/2-x,1/2+y,1/2-z
-x,-y,-z
x,y,-z
1/2-x,1/2+y,1/2+z
1/2+x,1/2-y,1/2+z
loop_
_atom_site_type_symbol
_atom_site_label
_atom_site_fract_x
_atom_site_fract_y
_atom_site_fract_z
Si Si1 0.172149 0.348226 0.500000
Si Si2 0.725122 0.472428 0.797389
Si Si3 0.132391 0.098296 0.154394
Si Si4 0.854889 0.761470 0.351276
Si Si5 0.751884 0.430568 0.500000
Si Si6 0.219557 0.307071 0.199280
O O1 0.187068 0.287206 0.426964
O O2 0.297191 0.449352 0.500000
O O3 0.968623 0.398920 0.500000
O O4 0.500000 0.500000 0.796114
O O5 0.773652 0.435923 0.717680
O O6 0.737242 0.372883 0.844836
O O7 0.823174 0.576458 0.819833
O O8 0.086811 0.213587 0.177666
O O9 0.188161 0.111645 0.074243
O O10 0.000000 0.000000 0.153207
O O11 0.787574 0.695174 0.284441
O O12 0.078281 0.778951 0.335374
#
# Coordination Sequence:
#
# PCOD9442212 Si02
#       6
#     4   8   8   8   4   8
#     4  11  22  34  54  82 121 152 192 254 308 356
#     4   8  17  33  55  80 108 147 196 239 289 353
#     4  10  19  34  56  82 114 154 197 244 297 361
#     4  10  20  37  58  84 118 155 199 250 303 359
#     4  11  21  34  51  83 119 150 196 242 311 360
#     4  10  19  36  59  84 116 153 200 249 295 364
#
# _framework density 22.442184999999998
#
# number of rings (size 3 to 8) (size 9 to 14) (size 15 to 20)
#    0.000    2.200    2.000    2.700    0.000    0.000 
#    0.000    5.500    0.000    0.000    0.000    2.800 
#    0.000    0.000    0.000    0.000    0.000    0.000 
#
# Total GULP energy -222982.782341 kJ/mol
# GULP energy per Si atom -5574.569559 kJ/mol
# Density = 2.239111 g / cm^3
# Si number density = 22.442185 Si / 1000 Ang^3
#
#
#
# Elastic Constant Matrix: (Units=GPa)
#
#
# Indices 1 2 3 4 5 6 
#
# 1 54.4465 24.2344 13.3503 0.0000 0.0000 0.0000
# 2 24.2344 203.1730 70.0187 0.0000 0.0000 0.0000
# 3 13.3503 70.0187 184.7617 0.0000 0.0000 0.0000
# 4 0.0000 0.0000 0.0000 26.3821 0.0000 0.0000
# 5 0.0000 0.0000 0.0000 0.0000 27.4170 0.0000
# 6 0.0000 0.0000 0.0000 0.0000 0.0000 31.3613
#
#
#
# Elastic Compliance Matrix: (Units=1/GPa)
#
#
# Indices 1 2 3 4 5 6 
#
# 1 0.019455 -0.002112 -0.000605 0.000000 0.000000 0.000000
# 2 -0.002112 0.005891 -0.002080 0.000000 0.000000 0.000000
# 3 -0.000605 -0.002080 0.006244 0.000000 0.000000 0.000000
# 4 0.000000 0.000000 0.000000 0.037904 0.000000 0.000000
# 5 0.000000 0.000000 0.000000 0.000000 0.036474 0.000000
# 6 0.000000 0.000000 0.000000 0.000000 0.000000 0.031886
#
#
# Mechanical properties :
#
#
# Convention : Reuss Voigt Hill
#
# Bulk Modulus (GPa) = 45.46327 73.06535 59.26431
# Shear Modulus (GPa) = 32.30377 39.35060 35.82719
#
# Velocity S-wave (km/s) = 3.79809 4.19193 3.99986
# Velocity P-wave (km/s) = 6.28776 7.48716 6.91352
#
# Compressibility (1/GPa) = 0.02199578
#
# Stress axis : x y z
#
# Youngs Moduli (GPa) = 51.40030 169.76329 160.14680
#
# Poissons Ratio (x) = 0.35853 0.09695
# Poissons Ratio (y) = 0.10856 0.33306
# Poissons Ratio (z) = 0.03112 0.35306
#
# Static dielectric constant tensor:
#      x y z
#    x 2.004320 0.000000 0.000000 
#    y 0.000000 1.834480 0.000000 
#    z 0.000000 0.000000 1.770490 
# 
# From -- ./inp_files/28806.got.cif
#   From: 2010.05.17/outbox.cif.g08.bks.cpg/sg58_15_cif.got.tgz:28806.got - 2010.06.03 14:20:14.
