data_PCOD9442990
_publ_section_title
;
Structure prediction by ZEFSAII (Michael W. Deem and Ramdas Pophale) SiO2 
 PCOD9442990
Probable space group: P N N M
;
_chemical_formula_sum "Si O2"
_cell_formula_units_Z 64
_cell_length_a 7.662332
_cell_length_b 22.599358
_cell_length_c 16.999195
_cell_angle_alpha 90.000000
_cell_angle_beta 90.000000
_cell_angle_gamma 90.000000
_cell_volume 2943.644931
_symmetry_space_group_name_H-M "P N N M"
_symmetry_group_IT_number 58
_symmetry_cell_setting 'orthorhombic'
loop_
_space_group_symop_operation_xyz
x,y,z
-x,-y,z
1/2+x,1/2-y,1/2-z
1/2-x,1/2+y,1/2-z
-x,-y,-z
x,y,-z
1/2-x,1/2+y,1/2+z
1/2+x,1/2-y,1/2+z
loop_
_atom_site_type_symbol
_atom_site_label
_atom_site_fract_x
_atom_site_fract_y
_atom_site_fract_z
Si Si1 0.794130 0.514672 0.415529
Si Si2 0.292872 0.677387 0.411241
Si Si3 0.908630 0.856249 0.263923
Si Si4 0.110425 0.305390 0.912772
Si Si5 0.194056 0.018694 0.745119
Si Si6 0.912467 0.641142 0.616473
Si Si7 0.689901 0.104622 0.281810
Si Si8 0.704840 0.274390 0.090024
O O1 0.726508 0.494084 0.500000
O O2 0.704098 0.486640 0.340070
O O3 0.795503 0.586160 0.412126
O O4 0.000000 0.500000 0.410112
O O5 0.374071 0.670488 0.500000
O O6 0.381173 0.661526 0.327729
O O7 0.265482 0.748348 0.401267
O O8 0.110458 0.642348 0.413533
O O9 0.785988 0.913649 0.279233
O O10 0.873519 0.809183 0.334005
O O11 0.108556 0.877420 0.267313
O O12 0.135069 0.359913 0.856923
O O13 0.913451 0.281778 0.904886
O O14 0.140003 0.326823 0.000000
O O15 0.318804 0.966282 0.715836
O O16 0.000000 0.000000 0.719738
O O17 0.918487 0.630221 0.709317
O O18 0.836366 0.705021 0.597382
O O19 0.652162 0.293591 0.000000
#
# Coordination Sequence:
#
# PCOD9442990 Si02
#       8
#     8   8   8   8   8   8   8   8
#     4  10  20  34  54  82 115 150 190 235 282 336
#     4  11  22  36  57  85 117 152 189 229 279 340
#     4  11  22  39  61  84 115 152 192 239 289 344
#     4  10  22  39  58  84 115 147 188 239 292 347
#     4   9  21  38  55  78 107 145 190 233 281 340
#     4  11  21  36  58  85 118 154 192 233 284 344
#     4  10  21  39  60  82 112 151 192 236 289 344
#     4  11  23  39  60  86 116 149 191 241 292 349
#
# _framework density 21.741752999999999
#
# number of rings (size 3 to 8) (size 9 to 14) (size 15 to 20)
#    0.000    1.625    0.000    4.875    0.000    4.250 
#    0.000    7.500    0.000    3.750    0.000    0.000 
#    0.000    0.000    0.000    0.000    0.000    0.000 
#
# Total GULP energy -357420.294561 kJ/mol
# GULP energy per Si atom -5584.692103 kJ/mol
# Density = 2.169227 g / cm^3
# Si number density = 21.741753 Si / 1000 Ang^3
#
#
#
# Elastic Constant Matrix: (Units=GPa)
#
#
# Indices 1 2 3 4 5 6 
#
# 1 42.4861 13.1519 21.4264 0.0000 0.0000 0.0000
# 2 13.1519 116.0258 68.0086 0.0000 0.0000 0.0000
# 3 21.4264 68.0086 104.6174 0.0000 0.0000 0.0000
# 4 0.0000 0.0000 0.0000 18.5167 0.0000 0.0000
# 5 0.0000 0.0000 0.0000 0.0000 26.6028 0.0000
# 6 0.0000 0.0000 0.0000 0.0000 0.0000 23.2930
#
#
#
# Elastic Compliance Matrix: (Units=1/GPa)
#
#
# Indices 1 2 3 4 5 6 
#
# 1 0.026254 0.000284 -0.005562 0.000000 0.000000 0.000000
# 2 0.000284 0.013928 -0.009112 0.000000 0.000000 0.000000
# 3 -0.005562 -0.009112 0.016621 0.000000 0.000000 0.000000
# 4 0.000000 0.000000 0.000000 0.054005 0.000000 0.000000
# 5 0.000000 0.000000 0.000000 0.000000 0.037590 0.000000
# 6 0.000000 0.000000 0.000000 0.000000 0.000000 0.042931
#
#
# Mechanical properties :
#
#
# Convention : Reuss Voigt Hill
#
# Bulk Modulus (GPa) = 35.68454 52.03369 43.85912
# Shear Modulus (GPa) = 21.79124 24.38534 23.08829
#
# Velocity S-wave (km/s) = 3.16931 3.35265 3.26227
# Velocity P-wave (km/s) = 5.46271 6.24272 5.86570
#
# Compressibility (1/GPa) = 0.02802334
#
# Stress axis : x y z
#
# Youngs Moduli (GPa) = 38.08948 71.79967 60.16423
#
# Poissons Ratio (x) = -0.02039 0.33461
# Poissons Ratio (y) = -0.01082 0.54822
# Poissons Ratio (z) = 0.21184 0.65424
#
# Static dielectric constant tensor:
#      x y z
#    x 1.826740 0.000000 0.000000 
#    y 0.000000 1.814350 0.000000 
#    z 0.000000 0.000000 1.824450 
# 
# From -- ./inp_files/20325.got.cif
#   From: 2010.05.17/outbox.cif.g08.bks.cpg/sg58_11_cif.got.tgz:20325.got - 2010.06.03 14:20:14.
