data_PCOD9442882
_publ_section_title
;
Structure prediction by ZEFSAII (Michael W. Deem and Ramdas Pophale) SiO2 
 PCOD9442882
Probable space group: P N N M
;
_chemical_formula_sum "Si O2"
_cell_formula_units_Z 44
_cell_length_a 29.006006
_cell_length_b 5.167556
_cell_length_c 13.168488
_cell_angle_alpha 90.000000
_cell_angle_beta 90.000000
_cell_angle_gamma 90.000000
_cell_volume 1973.826778
_symmetry_space_group_name_H-M "P N N M"
_symmetry_group_IT_number 58
_symmetry_cell_setting 'orthorhombic'
loop_
_space_group_symop_operation_xyz
x,y,z
-x,-y,z
1/2+x,1/2-y,1/2-z
1/2-x,1/2+y,1/2-z
-x,-y,-z
x,y,-z
1/2-x,1/2+y,1/2+z
1/2+x,1/2-y,1/2+z
loop_
_atom_site_type_symbol
_atom_site_label
_atom_site_fract_x
_atom_site_fract_y
_atom_site_fract_z
Si Si1 0.900518 0.350689 0.237811
Si Si2 0.258185 0.070623 0.110007
Si Si3 0.549436 0.356216 0.770693
Si Si4 0.183208 0.322625 0.778343
Si Si5 0.153161 0.931471 0.611568
Si Si6 0.033181 0.243965 0.500000
O O1 0.938691 0.573707 0.226036
O O2 0.852305 0.452018 0.191176
O O3 0.883745 0.285969 0.354134
O O4 0.920809 0.072265 0.210616
O O5 0.207401 0.178097 0.129709
O O6 0.296876 0.294861 0.108936
O O7 0.274111 0.908166 0.206886
O O8 0.261219 0.936383 0.000000
O O9 0.500000 0.500000 0.769496
O O10 0.558422 0.293637 0.891230
O O11 0.155435 0.141856 0.700051
O O12 0.144183 0.034583 0.500000
O O13 0.000000 0.500000 0.500000
O O14 0.000000 0.000000 0.500000
#
# Coordination Sequence:
#
# PCOD9442882 Si02
#       6
#     8   8   8   8   8   4
#     4  11  23  35  54  80 112 154 196 254 299 348
#     4  10  21  36  60  85 117 162 204 244 308 360
#     4  11  22  37  53  75 109 153 201 246 303 360
#     4  11  20  38  58  84 124 154 203 256 294 359
#     4  10  21  36  54  82 113 158 201 242 293 356
#     4  10  20  34  50  72 102 146 196 244 290 346
#
# _framework density 22.291720999999999
#
# number of rings (size 3 to 8) (size 9 to 14) (size 15 to 20)
#    0.000    1.455    3.636    3.273    2.545    0.727 
#    0.000    0.000    0.000    0.000    0.000    0.000 
#    0.000    4.364    0.000    0.000    0.000    0.000 
#
# Total GULP energy -245044.576394 kJ/mol
# GULP energy per Si atom -5569.194918 kJ/mol
# Density = 2.224098 g / cm^3
# Si number density = 22.291721 Si / 1000 Ang^3
#
#
#
# Elastic Constant Matrix: (Units=GPa)
#
#
# Indices 1 2 3 4 5 6 
#
# 1 67.4411 26.1644 7.0857 0.0000 0.0000 0.0000
# 2 26.1644 126.2774 3.3978 0.0000 0.0000 0.0000
# 3 7.0857 3.3978 15.5006 0.0000 0.0000 0.0000
# 4 0.0000 0.0000 0.0000 12.8715 0.0000 0.0000
# 5 0.0000 0.0000 0.0000 0.0000 -3.3705 0.0000
# 6 0.0000 0.0000 0.0000 0.0000 0.0000 52.9625
#
#
#
# Elastic Compliance Matrix: (Units=1/GPa)
#
#
# Indices 1 2 3 4 5 6 
#
# 1 0.016842 -0.003302 -0.006975 0.000000 0.000000 0.000000
# 2 -0.003302 0.008613 -0.000379 0.000000 0.000000 0.000000
# 3 -0.006975 -0.000379 0.067785 0.000000 0.000000 0.000000
# 4 0.000000 0.000000 0.000000 0.077691 0.000000 0.000000
# 5 0.000000 0.000000 0.000000 0.000000 -0.296688 0.000000
# 6 0.000000 0.000000 0.000000 0.000000 0.000000 0.018881
#
#
# Mechanical properties :
#
#
# Convention : Reuss Voigt Hill
#
# Bulk Modulus (GPa) = 13.90263 31.39055 22.64659
# Shear Modulus (GPa) = -81.18305 23.99746 -28.59280
#
# Velocity S-wave (km/s) = -6.04132 3.28459 -3.58532
# Velocity P-wave (km/s) = 6.51254 5.33826 2.63782
#
# Compressibility (1/GPa) = 0.07192886
#
# Stress axis : x y z
#
# Youngs Moduli (GPa) = 59.37691 116.09817 14.75256
#
# Poissons Ratio (x) = 0.38334 0.10290
# Poissons Ratio (y) = 0.19605 0.00559
# Poissons Ratio (z) = 0.41415 0.04397
#
# Static dielectric constant tensor:
#      x y z
#    x 1.937390 0.000000 0.000000 
#    y 0.000000 1.898310 0.000000 
#    z 0.000000 0.000000 1.787240 
# 
# From -- ./inp_files/23626.got.cif
#   From: 2010.05.17/outbox.cif.g08.bks.cpg/sg58_12_cif.got.tgz:23626.got - 2010.06.03 14:20:14.
