data_PCOD9442085
_publ_section_title
;
Structure prediction by ZEFSAII (Michael W. Deem and Ramdas Pophale) SiO2 
 PCOD9442085
Probable space group: P N N M
;
_chemical_formula_sum "Si O2"
_cell_formula_units_Z 58
_cell_length_a 10.179625
_cell_length_b 29.628077
_cell_length_c 7.530821
_cell_angle_alpha 90.000000
_cell_angle_beta 90.000000
_cell_angle_gamma 90.000000
_cell_volume 2271.316047
_symmetry_space_group_name_H-M "P N N M"
_symmetry_group_IT_number 58
_symmetry_cell_setting 'orthorhombic'
loop_
_space_group_symop_operation_xyz
x,y,z
-x,-y,z
1/2+x,1/2-y,1/2-z
1/2-x,1/2+y,1/2-z
-x,-y,-z
x,y,-z
1/2-x,1/2+y,1/2+z
1/2+x,1/2-y,1/2+z
loop_
_atom_site_type_symbol
_atom_site_label
_atom_site_fract_x
_atom_site_fract_y
_atom_site_fract_z
Si Si1 0.336972 0.959893 0.787418
Si Si2 0.336831 0.715235 0.789608
Si Si3 0.500000 0.000000 0.500000
Si Si4 0.990364 0.283526 0.715135
Si Si5 0.176893 0.787473 0.288475
Si Si6 0.448847 0.116085 0.783926
Si Si7 0.616492 0.608456 0.712605
Si Si8 0.331913 0.613560 0.300386
O O1 0.442719 0.920468 0.746372
O O2 0.204007 0.934049 0.736285
O O3 0.385432 0.998324 0.657651
O O4 0.338717 0.970343 0.000000
O O5 0.505954 0.724542 0.746837
O O6 0.341710 0.773914 0.759210
O O7 0.327532 0.668116 0.687071
O O8 0.343446 0.706104 0.000000
O O9 0.985841 0.286983 0.500000
O O10 0.828494 0.270381 0.766119
O O11 0.986929 0.334730 0.787116
O O12 0.182161 0.785926 0.500000
O O13 0.172971 0.840878 0.241450
O O14 0.306309 0.102155 0.715111
O O15 0.440315 0.119105 0.000000
O O16 0.607156 0.606305 0.500000
O O17 0.470449 0.604184 0.788438
O O18 0.332982 0.594044 0.500000
#
# Coordination Sequence:
#
# PCOD9442085 Si02
#       8
#     8   8   2   8   8   8   8   8
#     4  10  23  45  73 101 130 166 203 266 343 409
#     4  11  20  31  44  70 108 163 220 269 312 351
#     4  12  26  48  80 108 128 152 218 278 344 426
#     4   9  17  29  46  70 111 165 213 254 300 351
#     4  11  20  31  49  73 114 167 221 262 302 351
#     4   9  17  35  60  85 121 170 215 259 320 386
#     4  10  21  37  59  90 125 164 213 263 319 384
#     4  10  19  33  56  84 119 163 213 256 305 373
#
# _framework density 25.535857
#
# number of rings (size 3 to 8) (size 9 to 14) (size 15 to 20)
#    0.000    1.931    2.759    1.862    0.966    2.207 
#    1.241    0.000    0.000    1.655    0.000    4.828 
#    0.000    0.000    0.000    0.000    0.000    0.000 
#
# Total GULP energy -323013.973349 kJ/mol
# GULP energy per Si atom -5569.206437 kJ/mol
# Density = 2.547774 g / cm^3
# Si number density = 25.535857 Si / 1000 Ang^3
#
#
#
# Elastic Constant Matrix: (Units=GPa)
#
#
# Indices 1 2 3 4 5 6 
#
# 1 179.2935 15.5532 16.0898 0.0000 0.0000 0.0000
# 2 15.5532 51.6040 8.2032 0.0000 0.0000 0.0000
# 3 16.0898 8.2032 85.3902 0.0000 0.0000 0.0000
# 4 0.0000 0.0000 0.0000 6.3542 0.0000 0.0000
# 5 0.0000 0.0000 0.0000 0.0000 19.5602 0.0000
# 6 0.0000 0.0000 0.0000 0.0000 0.0000 39.8872
#
#
#
# Elastic Compliance Matrix: (Units=1/GPa)
#
#
# Indices 1 2 3 4 5 6 
#
# 1 0.005800 -0.001599 -0.000939 0.000000 0.000000 0.000000
# 2 -0.001599 0.020120 -0.001632 0.000000 0.000000 0.000000
# 3 -0.000939 -0.001632 0.012045 0.000000 0.000000 0.000000
# 4 0.000000 0.000000 0.000000 0.157376 0.000000 0.000000
# 5 0.000000 0.000000 0.000000 0.000000 0.051124 0.000000
# 6 0.000000 0.000000 0.000000 0.000000 0.000000 0.025071
#
#
# Mechanical properties :
#
#
# Convention : Reuss Voigt Hill
#
# Bulk Modulus (GPa) = 33.75517 43.99781 38.87649
# Shear Modulus (GPa) = 17.25624 31.58974 24.42299
#
# Velocity S-wave (km/s) = 2.60237 3.52102 3.09596
# Velocity P-wave (km/s) = 4.71987 5.81355 5.29502
#
# Compressibility (1/GPa) = 0.02962509
#
# Stress axis : x y z
#
# Youngs Moduli (GPa) = 172.40054 49.70272 83.02417
#
# Poissons Ratio (x) = 0.07947 0.07799
# Poissons Ratio (y) = 0.27565 0.13546
# Poissons Ratio (z) = 0.16195 0.08109
#
# Static dielectric constant tensor:
#      x y z
#    x 2.317350 0.000000 0.000000 
#    y 0.000000 2.033420 0.000000 
#    z 0.000000 0.000000 1.895770 
# 
# From -- ./inp_files/4560.got.cif
#   From: 2010.05.17/outbox.cif.g08.bks.cpg/sg58_3_cif.got.tgz:4560.got - 2010.06.03 14:20:14.
