data_PCOD9442240
_publ_section_title
;
Structure prediction by ZEFSAII (Michael W. Deem and Ramdas Pophale) SiO2 
 PCOD9442240
Probable space group: P N N M
;
_chemical_formula_sum "Si O2"
_cell_formula_units_Z 40
_cell_length_a 23.769505
_cell_length_b 7.927921
_cell_length_c 9.438999
_cell_angle_alpha 90.000000
_cell_angle_beta 90.000000
_cell_angle_gamma 90.000000
_cell_volume 1778.711003
_symmetry_space_group_name_H-M "P N N M"
_symmetry_group_IT_number 58
_symmetry_cell_setting 'orthorhombic'
loop_
_space_group_symop_operation_xyz
x,y,z
-x,-y,z
1/2+x,1/2-y,1/2-z
1/2-x,1/2+y,1/2-z
-x,-y,-z
x,y,-z
1/2-x,1/2+y,1/2+z
1/2+x,1/2-y,1/2+z
loop_
_atom_site_type_symbol
_atom_site_label
_atom_site_fract_x
_atom_site_fract_y
_atom_site_fract_z
Si Si1 0.932407 0.342690 0.835357
Si Si2 0.470295 0.685501 0.838760
Si Si3 0.834521 0.499074 0.332720
Si Si4 0.270359 0.719388 0.338223
Si Si5 0.621638 0.471468 0.341689
O O1 0.892462 0.468652 0.749527
O O2 0.991396 0.304160 0.758924
O O3 0.899498 0.162317 0.829461
O O4 0.938783 0.389007 0.000000
O O5 0.500000 0.500000 0.839993
O O6 0.410158 0.643311 0.772029
O O7 0.467619 0.746520 0.000000
O O8 0.843808 0.519207 0.500000
O O9 0.792989 0.338323 0.312088
O O10 0.798397 0.650255 0.267603
O O11 0.273831 0.785821 0.500000
O O12 0.311898 0.557097 0.331599
O O13 0.604231 0.413663 0.500000
#
# Coordination Sequence:
#
# PCOD9442240 Si02
#       5
#     8   8   8   8   8
#     4  10  19  34  57  82 111 147 183 221 268 321
#     4   9  17  30  51  81 113 143 179 223 268 315
#     4  11  23  38  57  82 110 141 181 226 270 320
#     4  10  22  39  57  79 109 143 179 221 270 324
#     4   9  18  34  56  81 109 144 184 221 264 322
#
# _framework density 22.488195999999999
#
# number of rings (size 3 to 8) (size 9 to 14) (size 15 to 20)
#    0.000    2.200    0.000    3.000    0.000    7.200 
#    0.000    1.000    0.000    6.000    0.000    0.000 
#    0.000    0.000    0.000    0.000    0.000    0.000 
#
# Total GULP energy -223685.639340 kJ/mol
# GULP energy per Si atom -5592.140983 kJ/mol
# Density = 2.243701 g / cm^3
# Si number density = 22.488196 Si / 1000 Ang^3
#
#
#
# Elastic Constant Matrix: (Units=GPa)
#
#
# Indices 1 2 3 4 5 6 
#
# 1 99.2191 3.0173 44.9772 0.0000 0.0000 0.0000
# 2 3.0173 58.2051 33.5944 0.0000 0.0000 0.0000
# 3 44.9772 33.5944 118.0492 0.0000 0.0000 0.0000
# 4 0.0000 0.0000 0.0000 24.3113 0.0000 0.0000
# 5 0.0000 0.0000 0.0000 0.0000 25.0060 0.0000
# 6 0.0000 0.0000 0.0000 0.0000 0.0000 35.5117
#
#
#
# Elastic Compliance Matrix: (Units=1/GPa)
#
#
# Indices 1 2 3 4 5 6 
#
# 1 0.012482 0.002510 -0.005470 0.000000 0.000000 0.000000
# 2 0.002510 0.021062 -0.006950 0.000000 0.000000 0.000000
# 3 -0.005470 -0.006950 0.012533 0.000000 0.000000 0.000000
# 4 0.000000 0.000000 0.000000 0.041133 0.000000 0.000000
# 5 0.000000 0.000000 0.000000 0.000000 0.039990 0.000000
# 6 0.000000 0.000000 0.000000 0.000000 0.000000 0.028160
#
#
# Mechanical properties :
#
#
# Convention : Reuss Voigt Hill
#
# Bulk Modulus (GPa) = 38.08538 48.73901 43.41220
# Shear Modulus (GPa) = 27.18388 29.89145 28.53767
#
# Velocity S-wave (km/s) = 3.48056 3.64978 3.56618
# Velocity P-wave (km/s) = 5.75542 6.28343 6.02521
#
# Compressibility (1/GPa) = 0.02625680
#
# Stress axis : x y z
#
# Youngs Moduli (GPa) = 80.11547 47.47904 79.78937
#
# Poissons Ratio (x) = -0.11918 0.43645
# Poissons Ratio (y) = -0.20110 0.55455
# Poissons Ratio (z) = 0.43823 0.32999
#
# Static dielectric constant tensor:
#      x y z
#    x 1.792460 0.000000 0.000000 
#    y 0.000000 1.860060 0.000000 
#    z 0.000000 0.000000 1.781380 
# 
# From -- ./inp_files/2407.got.cif
#   From: 2010.05.17/outbox.cif.g08.bks.cpg/sg58_2_cif.got.tgz:2407.got - 2010.06.03 14:20:14.
