data_PCOD9442138
_publ_section_title
;
Structure prediction by ZEFSAII (Michael W. Deem and Ramdas Pophale) SiO2 
 PCOD9442138
Probable space group: P N N M
;
_chemical_formula_sum "Si O2"
_cell_formula_units_Z 48
_cell_length_a 8.319079
_cell_length_b 12.734203
_cell_length_c 19.359872
_cell_angle_alpha 90.000000
_cell_angle_beta 90.000000
_cell_angle_gamma 90.000000
_cell_volume 2050.923677
_symmetry_space_group_name_H-M "P N N M"
_symmetry_group_IT_number 58
_symmetry_cell_setting 'orthorhombic'
loop_
_space_group_symop_operation_xyz
x,y,z
-x,-y,z
1/2+x,1/2-y,1/2-z
1/2-x,1/2+y,1/2-z
-x,-y,-z
x,y,-z
1/2-x,1/2+y,1/2+z
1/2+x,1/2-y,1/2+z
loop_
_atom_site_type_symbol
_atom_site_label
_atom_site_fract_x
_atom_site_fract_y
_atom_site_fract_z
Si Si1 0.851122 0.652142 0.578949
Si Si2 0.364142 0.779544 0.660521
Si Si3 0.872270 0.362126 0.922123
Si Si4 0.521253 0.749605 0.796362
Si Si5 0.176540 0.047103 0.694734
Si Si6 0.315466 0.534140 0.346746
O O1 0.911815 0.650556 0.500000
O O2 0.721580 0.748386 0.582885
O O3 0.772806 0.540869 0.599408
O O4 0.981071 0.677042 0.638574
O O5 0.443671 0.838164 0.596806
O O6 0.499953 0.796677 0.720140
O O7 0.189396 0.809554 0.690004
O O8 0.331748 0.658096 0.640746
O O9 0.792979 0.445213 0.869861
O O10 0.852821 0.398522 0.000000
O O11 0.376453 0.667302 0.792094
O O12 0.248683 0.013335 0.768643
O O13 0.000000 0.000000 0.679296
O O14 0.500000 0.500000 0.342932
#
# Coordination Sequence:
#
# PCOD9442138 Si02
#       6
#     8   8   8   8   8   8
#     4  10  21  38  60  91 128 163 200 248 313 379
#     4  11  21  37  59  88 119 165 209 256 306 362
#     4  10  21  39  61  89 124 161 204 251 313 376
#     4  10  22  37  61  87 123 161 209 256 306 369
#     4   9  20  37  63  90 116 160 209 257 300 365
#     4  10  19  33  60  88 123 159 208 245 297 367
#
# _framework density 23.40409
#
# number of rings (size 3 to 8) (size 9 to 14) (size 15 to 20)
#    0.000    2.000    1.667    3.000    4.667    2.667 
#    0.000    1.667    0.000    1.000    0.000    0.000 
#    0.000    0.000    0.000    0.000    0.000    0.000 
#
# Total GULP energy -267963.045232 kJ/mol
# GULP energy per Si atom -5582.563442 kJ/mol
# Density = 2.335082 g / cm^3
# Si number density = 23.404090 Si / 1000 Ang^3
#
#
#
# Elastic Constant Matrix: (Units=GPa)
#
#
# Indices 1 2 3 4 5 6 
#
# 1 79.5255 -1.7206 8.5216 0.0000 0.0000 0.0000
# 2 -1.7206 61.2996 10.8066 0.0000 0.0000 0.0000
# 3 8.5216 10.8066 100.2747 0.0000 0.0000 0.0000
# 4 0.0000 0.0000 0.0000 26.9683 0.0000 0.0000
# 5 0.0000 0.0000 0.0000 0.0000 23.1642 0.0000
# 6 0.0000 0.0000 0.0000 0.0000 0.0000 33.9478
#
#
#
# Elastic Compliance Matrix: (Units=1/GPa)
#
#
# Indices 1 2 3 4 5 6 
#
# 1 0.012709 0.000558 -0.001140 0.000000 0.000000 0.000000
# 2 0.000558 0.016654 -0.001842 0.000000 0.000000 0.000000
# 3 -0.001140 -0.001842 0.010268 0.000000 0.000000 0.000000
# 4 0.000000 0.000000 0.000000 0.037081 0.000000 0.000000
# 5 0.000000 0.000000 0.000000 0.000000 0.043170 0.000000
# 6 0.000000 0.000000 0.000000 0.000000 0.000000 0.029457
#
#
# Mechanical properties :
#
#
# Convention : Reuss Voigt Hill
#
# Bulk Modulus (GPa) = 28.75098 30.70164 29.72631
# Shear Modulus (GPa) = 30.16026 31.71556 30.93791
#
# Velocity S-wave (km/s) = 3.59371 3.68520 3.63974
# Velocity P-wave (km/s) = 5.43423 5.59054 5.51294
#
# Compressibility (1/GPa) = 0.03478143
#
# Stress axis : x y z
#
# Youngs Moduli (GPa) = 78.68546 60.04663 97.38967
#
# Poissons Ratio (x) = -0.03349 0.11104
# Poissons Ratio (y) = -0.04388 0.17941
# Poissons Ratio (z) = 0.08971 0.11062
#
# Static dielectric constant tensor:
#      x y z
#    x 1.878660 0.000000 0.000000 
#    y 0.000000 1.972890 0.000000 
#    z 0.000000 0.000000 1.890450 
# 
# From -- ./inp_files/25308.got.cif
#   From: 2010.05.17/outbox.cif.g08.bks.cpg/sg58_13_cif.got.tgz:25308.got - 2010.06.03 14:20:14.
