data_PCOD9442174
_publ_section_title
;
Structure prediction by ZEFSAII (Michael W. Deem and Ramdas Pophale) SiO2 
 PCOD9442174
Probable space group: P N N M
;
_chemical_formula_sum "Si O2"
_cell_formula_units_Z 64
_cell_length_a 8.402396
_cell_length_b 23.978646
_cell_length_c 15.552911
_cell_angle_alpha 90.000000
_cell_angle_beta 90.000000
_cell_angle_gamma 90.000000
_cell_volume 3133.570635
_symmetry_space_group_name_H-M "P N N M"
_symmetry_group_IT_number 58
_symmetry_cell_setting 'orthorhombic'
loop_
_space_group_symop_operation_xyz
x,y,z
-x,-y,z
1/2+x,1/2-y,1/2-z
1/2-x,1/2+y,1/2-z
-x,-y,-z
x,y,-z
1/2-x,1/2+y,1/2+z
1/2+x,1/2-y,1/2+z
loop_
_atom_site_type_symbol
_atom_site_label
_atom_site_fract_x
_atom_site_fract_y
_atom_site_fract_z
Si Si1 0.132134 0.084108 0.257940
Si Si2 0.859281 0.456467 0.096441
Si Si3 0.688956 0.483699 0.402228
Si Si4 0.678423 0.702362 0.598884
Si Si5 0.772146 0.296605 0.228303
Si Si6 0.778742 0.088088 0.795944
Si Si7 0.184313 0.248587 0.092345
Si Si8 0.436756 0.858663 0.345930
O O1 0.224158 0.049216 0.331100
O O2 0.203512 0.067220 0.164575
O O3 0.158423 0.149563 0.275751
O O4 0.945837 0.072466 0.249198
O O5 0.000000 0.500000 0.116927
O O6 0.949117 0.397062 0.097689
O O7 0.799099 0.468644 0.000000
O O8 0.500000 0.500000 0.406342
O O9 0.740628 0.472942 0.500000
O O10 0.770198 0.536915 0.356988
O O11 0.733962 0.700728 0.500000
O O12 0.762696 0.749239 0.657659
O O13 0.693683 0.642755 0.645113
O O14 0.492568 0.721121 0.595986
O O15 0.770504 0.271606 0.322889
O O16 0.946692 0.319891 0.209406
O O17 0.659192 0.103567 0.720361
O O18 0.167135 0.315384 0.100460
O O19 0.255399 0.233535 0.000000
#
# Coordination Sequence:
#
# PCOD9442174 Si02
#       8
#     8   8   8   8   8   8   8   8
#     4  10  21  36  61  87 118 155 202 247 302 347
#     4  10  21  40  63  87 116 157 208 247 294 362
#     4   9  19  34  56  88 117 148 190 238 292 357
#     4  10  20  34  59  85 112 154 200 245 299 364
#     4  10  20  36  55  81 115 153 200 248 293 357
#     4  11  19  35  60  86 123 153 193 248 303 364
#     4  10  19  34  55  79 110 155 204 242 295 360
#     4  10  21  35  59  81 120 155 192 244 307 359
#
# _framework density 20.423985999999999
#
# number of rings (size 3 to 8) (size 9 to 14) (size 15 to 20)
#    0.000    2.000    2.500    1.500    0.000    4.000 
#    0.000    2.500    0.000   12.750    0.000    0.000 
#    0.000    0.000    0.000    0.000    0.000    0.000 
#
# Total GULP energy -357203.053868 kJ/mol
# GULP energy per Si atom -5581.297717 kJ/mol
# Density = 2.037750 g / cm^3
# Si number density = 20.423986 Si / 1000 Ang^3
#
#
#
# Elastic Constant Matrix: (Units=GPa)
#
#
# Indices 1 2 3 4 5 6 
#
# 1 16.4597 0.1139 29.7656 0.0000 0.0000 0.0000
# 2 0.1139 66.0080 20.7207 0.0000 0.0000 0.0000
# 3 29.7656 20.7207 148.3430 0.0000 0.0000 0.0000
# 4 0.0000 0.0000 0.0000 20.6295 0.0000 0.0000
# 5 0.0000 0.0000 0.0000 0.0000 13.9520 0.0000
# 6 0.0000 0.0000 0.0000 0.0000 0.0000 27.5124
#
#
#
# Elastic Compliance Matrix: (Units=1/GPa)
#
#
# Indices 1 2 3 4 5 6 
#
# 1 0.097771 0.006264 -0.020493 0.000000 0.000000 0.000000
# 2 0.006264 0.016246 -0.003526 0.000000 0.000000 0.000000
# 3 -0.020493 -0.003526 0.011346 0.000000 0.000000 0.000000
# 4 0.000000 0.000000 0.000000 0.048474 0.000000 0.000000
# 5 0.000000 0.000000 0.000000 0.000000 0.071674 0.000000
# 6 0.000000 0.000000 0.000000 0.000000 0.000000 0.036347
#
#
# Mechanical properties :
#
#
# Convention : Reuss Voigt Hill
#
# Bulk Modulus (GPa) = 11.12934 36.89012 24.00973
# Shear Modulus (GPa) = 14.39597 24.43280 19.41438
#
# Velocity S-wave (km/s) = 2.65779 3.46248 3.08647
# Velocity P-wave (km/s) = 3.85739 5.83835 4.94802
#
# Compressibility (1/GPa) = 0.08985258
#
# Stress axis : x y z
#
# Youngs Moduli (GPa) = 10.22798 61.55437 88.13903
#
# Poissons Ratio (x) = -0.38560 1.80625
# Poissons Ratio (y) = -0.06407 0.31080
# Poissons Ratio (z) = 0.20960 0.21705
#
# Static dielectric constant tensor:
#      x y z
#    x 1.738920 0.000000 0.000000 
#    y 0.000000 1.770200 0.000000 
#    z 0.000000 0.000000 1.725390 
# 
# From -- ./inp_files/20308.got.cif
#   From: 2010.05.17/outbox.cif.g08.bks.cpg/sg58_11_cif.got.tgz:20308.got - 2010.06.03 14:20:14.
