data_PCOD9442501
_publ_section_title
;
Structure prediction by ZEFSAII (Michael W. Deem and Ramdas Pophale) SiO2 
 PCOD9442501
Probable space group: P N N M
;
_chemical_formula_sum "Si O2"
_cell_formula_units_Z 64
_cell_length_a 34.194855
_cell_length_b 10.936687
_cell_length_c 8.893666
_cell_angle_alpha 90.000000
_cell_angle_beta 90.000000
_cell_angle_gamma 90.000000
_cell_volume 3326.039213
_symmetry_space_group_name_H-M "P N N M"
_symmetry_group_IT_number 58
_symmetry_cell_setting 'orthorhombic'
loop_
_space_group_symop_operation_xyz
x,y,z
-x,-y,z
1/2+x,1/2-y,1/2-z
1/2-x,1/2+y,1/2-z
-x,-y,-z
x,y,-z
1/2-x,1/2+y,1/2+z
1/2+x,1/2-y,1/2+z
loop_
_atom_site_type_symbol
_atom_site_label
_atom_site_fract_x
_atom_site_fract_y
_atom_site_fract_z
Si Si1 0.663289 0.269424 0.183115
Si Si2 0.663740 0.746264 0.180823
Si Si3 0.419804 0.255776 0.325183
Si Si4 0.575480 0.247785 0.177312
Si Si5 0.499639 0.356184 0.330708
Si Si6 0.786281 0.007524 0.317723
Si Si7 0.300201 0.992387 0.817766
Si Si8 0.546203 0.013964 0.326905
O O1 0.618409 0.285063 0.234203
O O2 0.689774 0.385247 0.228202
O O3 0.679283 0.135490 0.229766
O O4 0.662992 0.268429 0.000000
O O5 0.620359 0.722593 0.240828
O O6 0.691608 0.633214 0.226618
O O7 0.678451 0.881271 0.230315
O O8 0.663101 0.747414 0.000000
O O9 0.415176 0.293947 0.500000
O O10 0.458387 0.319637 0.258415
O O11 0.431713 0.114041 0.321058
O O12 0.538626 0.314207 0.250082
O O13 0.567653 0.106949 0.217523
O O14 0.574726 0.267270 0.000000
O O15 0.500000 0.500000 0.341735
O O16 0.499344 0.301768 0.500000
O O17 0.783402 0.006441 0.500000
O O18 0.743476 0.005506 0.246520
O O19 0.299167 0.992485 0.000000
O O20 0.548098 0.058171 0.500000
O O21 0.500000 0.000000 0.289687
#
# Coordination Sequence:
#
# PCOD9442501 Si02
#       8
#     8   8   8   8   8   8   8   8
#     4   9  20  37  56  80 116 152 179 223 286 340
#     4  10  22  37  57  85 117 147 183 237 289 333
#     4  10  21  37  58  83 111 150 194 232 280 340
#     4  11  22  36  58  86 114 148 194 236 282 344
#     4  10  22  40  58  78 113 157 195 237 287 334
#     4  10  21  38  59  83 112 148 184 226 284 342
#     4  10  20  38  60  83 112 146 183 228 281 337
#     4  10  19  36  57  77 110 148 185 234 287 333
#
# _framework density 19.242107000000001
#
# number of rings (size 3 to 8) (size 9 to 14) (size 15 to 20)
#    0.000    2.000    1.250    1.875    1.750    3.500 
#    0.000    2.500    0.000    0.000    0.000    0.000 
#    0.000    0.000    0.000    0.000    0.000    0.000 
#
# Total GULP energy -357133.683159 kJ/mol
# GULP energy per Si atom -5580.213799 kJ/mol
# Density = 1.919831 g / cm^3
# Si number density = 19.242107 Si / 1000 Ang^3
#
#
#
# Elastic Constant Matrix: (Units=GPa)
#
#
# Indices 1 2 3 4 5 6 
#
# 1 170.7805 59.6632 28.7398 0.0000 0.0000 0.0000
# 2 59.6632 111.5891 15.2878 0.0000 0.0000 0.0000
# 3 28.7398 15.2878 11.2488 0.0000 0.0000 0.0000
# 4 0.0000 0.0000 0.0000 -18.5722 0.0000 0.0000
# 5 0.0000 0.0000 0.0000 0.0000 38.5701 0.0000
# 6 0.0000 0.0000 0.0000 0.0000 0.0000 -19.7370
#
#
#
# Elastic Compliance Matrix: (Units=1/GPa)
#
#
# Indices 1 2 3 4 5 6 
#
# 1 0.010790 -0.002448 -0.024241 0.000000 0.000000 0.000000
# 2 -0.002448 0.011567 -0.009466 0.000000 0.000000 0.000000
# 3 -0.024241 -0.009466 0.163696 0.000000 0.000000 0.000000
# 4 0.000000 0.000000 0.000000 -0.053844 0.000000 0.000000
# 5 0.000000 0.000000 0.000000 0.000000 0.025927 0.000000
# 6 0.000000 0.000000 0.000000 0.000000 0.000000 -0.050666
#
#
# Mechanical properties :
#
#
# Convention : Reuss Voigt Hill
#
# Bulk Modulus (GPa) = 8.79165 55.66665 32.22915
# Shear Modulus (GPa) = 22.96802 12.71402 17.84102
#
# Velocity S-wave (km/s) = 3.45865 2.57327 3.04828
# Velocity P-wave (km/s) = 4.53084 6.14991 5.40139
#
# Compressibility (1/GPa) = 0.11374431
#
# Stress axis : x y z
#
# Youngs Moduli (GPa) = 92.67758 86.45144 6.10888
#
# Poissons Ratio (x) = 0.21164 0.14808
# Poissons Ratio (y) = 0.22689 0.05782
# Poissons Ratio (z) = 2.24657 0.81832
#
# Static dielectric constant tensor:
#      x y z
#    x 1.636910 0.000000 0.000000 
#    y 0.000000 1.607190 0.000000 
#    z 0.000000 0.000000 1.660890 
# 
# From -- ./inp_files/11028.got.cif
#   From: 2010.05.17/outbox.cif.g08.bks.cpg/sg58_6_cif.got.tgz:11028.got - 2010.06.03 14:20:14.
