data_PCOD9442000
_publ_section_title
;
Structure prediction by ZEFSAII (Michael W. Deem and Ramdas Pophale) SiO2 
 PCOD9442000
Probable space group: P N N M
;
_chemical_formula_sum "Si O2"
_cell_formula_units_Z 64
_cell_length_a 14.900200
_cell_length_b 25.735800
_cell_length_c 7.560318
_cell_angle_alpha 90.000000
_cell_angle_beta 90.000000
_cell_angle_gamma 90.000000
_cell_volume 2899.144311
_symmetry_space_group_name_H-M "P N N M"
_symmetry_group_IT_number 58
_symmetry_cell_setting 'orthorhombic'
loop_
_space_group_symop_operation_xyz
x,y,z
-x,-y,z
1/2+x,1/2-y,1/2-z
1/2-x,1/2+y,1/2-z
-x,-y,-z
x,y,-z
1/2-x,1/2+y,1/2+z
1/2+x,1/2-y,1/2+z
loop_
_atom_site_type_symbol
_atom_site_label
_atom_site_fract_x
_atom_site_fract_y
_atom_site_fract_z
Si Si1 0.004865 0.666506 0.210855
Si Si2 0.369758 0.740155 0.786208
Si Si3 0.458296 0.947668 0.703902
Si Si4 0.757546 0.562436 0.293418
Si Si5 0.624288 0.646463 0.714347
Si Si6 0.099638 0.017681 0.285026
Si Si7 0.570922 0.371175 0.204183
Si Si8 0.336975 0.238144 0.284197
O O1 0.096953 0.692786 0.278549
O O2 0.925607 0.708729 0.236409
O O3 0.983759 0.608926 0.281656
O O4 0.014594 0.661583 0.000000
O O5 0.412003 0.685877 0.718645
O O6 0.266317 0.738241 0.728403
O O7 0.371182 0.740203 0.000000
O O8 0.490064 0.946561 0.500000
O O9 0.350706 0.951566 0.704673
O O10 0.500000 0.000000 0.785537
O O11 0.778049 0.568746 0.500000
O O12 0.713181 0.616153 0.227898
O O13 0.678990 0.520134 0.272882
O O14 0.620958 0.643880 0.500000
O O15 0.535603 0.619591 0.787340
O O16 0.623880 0.706131 0.769691
O O17 0.098739 0.017904 0.500000
O O18 0.115080 0.076859 0.221024
O O19 0.000000 0.000000 0.226624
O O20 0.599872 0.368053 0.000000
O O21 0.336900 0.236834 0.500000
#
# Coordination Sequence:
#
# PCOD9442000 Si02
#       8
#     8   8   8   8   8   8   8   8
#     4  10  20  37  61  85 111 148 192 237 284 340
#     4  10  20  35  56  84 117 149 187 234 285 344
#     4  10  23  42  63  86 112 150 198 246 291 341
#     4  11  23  37  59  88 115 154 197 239 294 349
#     4  10  19  33  54  78 110 149 187 229 282 344
#     4  10  20  35  55  81 117 155 190 235 286 339
#     4  10  20  33  53  81 111 148 188 233 287 334
#     4   9  18  33  54  79 109 147 184 224 282 341
#
# _framework density 22.075479000000001
#
# number of rings (size 3 to 8) (size 9 to 14) (size 15 to 20)
#    0.000    2.000    2.500    1.125    0.000    4.000 
#    0.000    5.000    0.000    0.000    0.000    0.000 
#    0.000    0.000    0.000    0.000    0.000    0.000 
#
# Total GULP energy -357359.084675 kJ/mol
# GULP energy per Si atom -5583.735698 kJ/mol
# Density = 2.202523 g / cm^3
# Si number density = 22.075479 Si / 1000 Ang^3
#
#
#
# Elastic Constant Matrix: (Units=GPa)
#
#
# Indices 1 2 3 4 5 6 
#
# 1 91.5253 62.8571 -10.5745 0.0000 0.0000 0.0000
# 2 62.8571 186.7909 6.3269 0.0000 0.0000 0.0000
# 3 -10.5745 6.3269 53.0982 0.0000 0.0000 0.0000
# 4 0.0000 0.0000 0.0000 10.0439 0.0000 0.0000
# 5 0.0000 0.0000 0.0000 0.0000 12.2630 0.0000
# 6 0.0000 0.0000 0.0000 0.0000 0.0000 34.5841
#
#
#
# Elastic Compliance Matrix: (Units=1/GPa)
#
#
# Indices 1 2 3 4 5 6 
#
# 1 0.014854 -0.005119 0.003568 0.000000 0.000000 0.000000
# 2 -0.005119 0.007140 -0.001870 0.000000 0.000000 0.000000
# 3 0.003568 -0.001870 0.019766 0.000000 0.000000 0.000000
# 4 0.000000 0.000000 0.000000 0.099563 0.000000 0.000000
# 5 0.000000 0.000000 0.000000 0.000000 0.081546 0.000000
# 6 0.000000 0.000000 0.000000 0.000000 0.000000 0.028915
#
#
# Mechanical properties :
#
#
# Convention : Reuss Voigt Hill
#
# Bulk Modulus (GPa) = 28.63914 49.84815 39.24365
# Shear Modulus (GPa) = 18.50027 29.56519 24.03273
#
# Velocity S-wave (km/s) = 2.89804 3.66358 3.30307
# Velocity P-wave (km/s) = 4.91931 6.36597 5.68882
#
# Compressibility (1/GPa) = 0.03491725
#
# Stress axis : x y z
#
# Youngs Moduli (GPa) = 67.32169 140.06267 50.59070
#
# Poissons Ratio (x) = 0.71704 -0.18052
# Poissons Ratio (y) = 0.34465 0.09462
# Poissons Ratio (z) = -0.24022 0.26195
#
# Static dielectric constant tensor:
#      x y z
#    x 1.787810 0.000000 0.000000 
#    y 0.000000 1.840670 0.000000 
#    z 0.000000 0.000000 1.837400 
# 
# From -- ./inp_files/6782.got.cif
#   From: 2010.05.17/outbox.cif.g08.bks.cpg/sg58_4_cif.got.tgz:6782.got - 2010.06.03 14:20:14.
