data_PCOD9442003
_publ_section_title
;
Structure prediction by ZEFSAII (Michael W. Deem and Ramdas Pophale) SiO2 
 PCOD9442003
Probable space group: P N N M
;
_chemical_formula_sum "Si O2"
_cell_formula_units_Z 40
_cell_length_a 10.079444
_cell_length_b 21.063648
_cell_length_c 7.877881
_cell_angle_alpha 90.000000
_cell_angle_beta 90.000000
_cell_angle_gamma 90.000000
_cell_volume 1672.551816
_symmetry_space_group_name_H-M "P N N M"
_symmetry_group_IT_number 58
_symmetry_cell_setting 'orthorhombic'
loop_
_space_group_symop_operation_xyz
x,y,z
-x,-y,z
1/2+x,1/2-y,1/2-z
1/2-x,1/2+y,1/2-z
-x,-y,-z
x,y,-z
1/2-x,1/2+y,1/2+z
1/2+x,1/2-y,1/2+z
loop_
_atom_site_type_symbol
_atom_site_label
_atom_site_fract_x
_atom_site_fract_y
_atom_site_fract_z
Si Si1 0.837256 0.613144 0.305476
Si Si2 0.431380 0.341010 0.196386
Si Si3 0.929875 0.298915 0.701700
Si Si4 0.610120 0.449382 0.209060
Si Si5 0.608731 0.934282 0.304809
O O1 0.799886 0.606480 0.500000
O O2 0.702685 0.617079 0.201845
O O3 0.915421 0.680255 0.280875
O O4 0.958364 0.564611 0.266083
O O5 0.407342 0.271246 0.270890
O O6 0.551045 0.382181 0.268845
O O7 0.464214 0.328745 0.000000
O O8 0.897946 0.303195 0.500000
O O9 0.860094 0.358101 0.792418
O O10 0.500000 0.500000 0.259506
O O11 0.758177 0.463906 0.272492
O O12 0.614509 0.449016 0.000000
O O13 0.601874 0.952290 0.500000
#
# Coordination Sequence:
#
# PCOD9442003 Si02
#       5
#     8   8   8   8   8
#     4   9  19  34  50  75 109 137 169 215 268 315
#     4  10  19  33  54  79 106 138 179 221 264 320
#     4   8  18  31  48  76 110 137 166 214 268 316
#     4   9  19  35  55  80 108 139 180 227 267 308
#     4   9  17  31  55  79 103 139 177 214 264 320
#
# _framework density 23.915551000000001
#
# number of rings (size 3 to 8) (size 9 to 14) (size 15 to 20)
#    1.200    1.800    0.000    0.600    2.800    0.800 
#    0.000    3.000    0.000   11.400    0.000    0.000 
#    0.000    0.000    0.000    0.000    0.000    0.000 
#
# Total GULP energy -222878.775898 kJ/mol
# GULP energy per Si atom -5571.969397 kJ/mol
# Density = 2.386112 g / cm^3
# Si number density = 23.915551 Si / 1000 Ang^3
#
#
#
# Elastic Constant Matrix: (Units=GPa)
#
#
# Indices 1 2 3 4 5 6 
#
# 1 144.2734 47.3047 5.6132 0.0000 0.0000 0.0000
# 2 47.3047 76.5179 -6.0599 0.0000 0.0000 0.0000
# 3 5.6132 -6.0599 29.5465 0.0000 0.0000 0.0000
# 4 0.0000 0.0000 0.0000 10.4345 0.0000 0.0000
# 5 0.0000 0.0000 0.0000 0.0000 7.8311 0.0000
# 6 0.0000 0.0000 0.0000 0.0000 0.0000 28.2520
#
#
#
# Elastic Compliance Matrix: (Units=1/GPa)
#
#
# Indices 1 2 3 4 5 6 
#
# 1 0.008927 -0.005747 -0.002875 0.000000 0.000000 0.000000
# 2 -0.005747 0.016984 0.004575 0.000000 0.000000 0.000000
# 3 -0.002875 0.004575 0.035329 0.000000 0.000000 0.000000
# 4 0.000000 0.000000 0.000000 0.095836 0.000000 0.000000
# 5 0.000000 0.000000 0.000000 0.000000 0.127697 0.000000
# 6 0.000000 0.000000 0.000000 0.000000 0.000000 0.035396
#
#
# Mechanical properties :
#
#
# Convention : Reuss Voigt Hill
#
# Bulk Modulus (GPa) = 18.81534 38.22821 28.52177
# Shear Modulus (GPa) = 14.45181 22.86883 18.66032
#
# Velocity S-wave (km/s) = 2.46089 3.09566 2.79634
# Velocity P-wave (km/s) = 3.99489 5.36627 4.73054
#
# Compressibility (1/GPa) = 0.05314814
#
# Stress axis : x y z
#
# Youngs Moduli (GPa) = 112.01490 58.87929 28.30500
#
# Poissons Ratio (x) = 0.33836 0.08137
# Poissons Ratio (y) = 0.64372 -0.12950
# Poissons Ratio (z) = 0.32200 -0.26938
#
# Static dielectric constant tensor:
#      x y z
#    x 1.933700 0.000000 0.000000 
#    y 0.000000 2.048440 0.000000 
#    z 0.000000 0.000000 1.833670 
# 
# From -- ./inp_files/2617.got.cif
#   From: 2010.05.17/outbox.cif.g08.bks.cpg/sg58_2_cif.got.tgz:2617.got - 2010.06.03 14:20:14.
