data_PCOD9442175
_publ_section_title
;
Structure prediction by ZEFSAII (Michael W. Deem and Ramdas Pophale) SiO2 
 PCOD9442175
Probable space group: P N N M
;
_chemical_formula_sum "Si O2"
_cell_formula_units_Z 52
_cell_length_a 14.805257
_cell_length_b 19.613397
_cell_length_c 9.654371
_cell_angle_alpha 90.000000
_cell_angle_beta 90.000000
_cell_angle_gamma 90.000000
_cell_volume 2803.449605
_symmetry_space_group_name_H-M "P N N M"
_symmetry_group_IT_number 58
_symmetry_cell_setting 'orthorhombic'
loop_
_space_group_symop_operation_xyz
x,y,z
-x,-y,z
1/2+x,1/2-y,1/2-z
1/2-x,1/2+y,1/2-z
-x,-y,-z
x,y,-z
1/2-x,1/2+y,1/2+z
1/2+x,1/2-y,1/2+z
loop_
_atom_site_type_symbol
_atom_site_label
_atom_site_fract_x
_atom_site_fract_y
_atom_site_fract_z
Si Si1 0.096901 0.238731 0.166682
Si Si2 0.415076 0.330815 0.332370
Si Si3 0.281372 0.442534 0.661916
Si Si4 0.591343 0.133867 0.846292
Si Si5 0.221027 0.709758 0.833772
Si Si6 0.500000 0.000000 0.750435
Si Si7 0.689021 0.946637 0.656649
O O1 0.068900 0.312729 0.226527
O O2 0.188880 0.221119 0.245608
O O3 0.017746 0.185592 0.204925
O O4 0.106701 0.240621 0.000000
O O5 0.412167 0.333789 0.500000
O O6 0.367261 0.400181 0.283754
O O7 0.352669 0.266401 0.293395
O O8 0.294009 0.459126 0.500000
O O9 0.195015 0.391391 0.669686
O O10 0.252985 0.509580 0.743945
O O11 0.531260 0.065998 0.835966
O O12 0.581619 0.164455 0.000000
O O13 0.186697 0.633158 0.808381
O O14 0.237742 0.717001 0.000000
O O15 0.411469 0.022417 0.667059
O O16 0.722014 0.953463 0.500000
#
# Coordination Sequence:
#
# PCOD9442175 Si02
#       7
#     8   8   8   8   8   4   8
#     4  11  22  35  57  86 112 143 193 246 284 331
#     4   9  18  36  58  78 105 148 191 226 278 340
#     4   9  18  35  57  75 103 146 184 222 271 337
#     4  10  19  34  55  79 111 150 185 223 279 345
#     4  10  20  39  59  79 114 155 187 226 288 350
#     4  10  20  34  56  86 118 146 192 232 284 354
#     4  10  21  35  56  83 115 149 183 235 293 340
#
# _framework density 18.548576000000001
#
# number of rings (size 3 to 8) (size 9 to 14) (size 15 to 20)
#    0.000    2.154    1.538    1.846    0.000    5.538 
#    0.000    5.385    0.000    4.615    0.000    0.000 
#    0.000    0.000    0.000    0.000    0.000    0.000 
#
# Total GULP energy -290042.027939 kJ/mol
# GULP energy per Si atom -5577.731307 kJ/mol
# Density = 1.850636 g / cm^3
# Si number density = 18.548576 Si / 1000 Ang^3
#
#
#
# Elastic Constant Matrix: (Units=GPa)
#
#
# Indices 1 2 3 4 5 6 
#
# 1 54.0375 -0.6457 9.8950 0.0000 0.0000 0.0000
# 2 -0.6457 59.4111 17.6178 0.0000 0.0000 0.0000
# 3 9.8950 17.6178 47.0203 0.0000 0.0000 0.0000
# 4 0.0000 0.0000 0.0000 18.2895 0.0000 0.0000
# 5 0.0000 0.0000 0.0000 0.0000 17.1492 0.0000
# 6 0.0000 0.0000 0.0000 0.0000 0.0000 28.1973
#
#
#
# Elastic Compliance Matrix: (Units=1/GPa)
#
#
# Indices 1 2 3 4 5 6 
#
# 1 0.019381 0.001598 -0.004677 0.000000 0.000000 0.000000
# 2 0.001598 0.019068 -0.007481 0.000000 0.000000 0.000000
# 3 -0.004677 -0.007481 0.025055 0.000000 0.000000 0.000000
# 4 0.000000 0.000000 0.000000 0.054676 0.000000 0.000000
# 5 0.000000 0.000000 0.000000 0.000000 0.058312 0.000000
# 6 0.000000 0.000000 0.000000 0.000000 0.000000 0.035464
#
#
# Mechanical properties :
#
#
# Convention : Reuss Voigt Hill
#
# Bulk Modulus (GPa) = 23.59434 23.80034 23.69734
# Shear Modulus (GPa) = 20.22627 21.63400 20.93013
#
# Velocity S-wave (km/s) = 3.30578 3.41888 3.36280
# Velocity P-wave (km/s) = 5.22674 5.33331 5.28029
#
# Compressibility (1/GPa) = 0.04238305
#
# Stress axis : x y z
#
# Youngs Moduli (GPa) = 51.59636 52.44525 39.91293
#
# Poissons Ratio (x) = -0.08379 0.18668
# Poissons Ratio (y) = -0.08243 0.29857
# Poissons Ratio (z) = 0.24133 0.39232
#
# Static dielectric constant tensor:
#      x y z
#    x 1.644460 0.000000 0.000000 
#    y 0.000000 1.651880 0.000000 
#    z 0.000000 0.000000 1.625950 
# 
# From -- ./inp_files/6186.got.cif
#   From: 2010.05.17/outbox.cif.g08.bks.cpg/sg58_4_cif.got.tgz:6186.got - 2010.06.03 14:20:14.
