data_PCOD9442514
_publ_section_title
;
Structure prediction by ZEFSAII (Michael W. Deem and Ramdas Pophale) SiO2 
 PCOD9442514
Probable space group: P N N M
;
_chemical_formula_sum "Si O2"
_cell_formula_units_Z 64
_cell_length_a 14.419980
_cell_length_b 25.549739
_cell_length_c 7.415591
_cell_angle_alpha 90.000000
_cell_angle_beta 90.000000
_cell_angle_gamma 90.000000
_cell_volume 2732.101909
_symmetry_space_group_name_H-M "P N N M"
_symmetry_group_IT_number 58
_symmetry_cell_setting 'orthorhombic'
loop_
_space_group_symop_operation_xyz
x,y,z
-x,-y,z
1/2+x,1/2-y,1/2-z
1/2-x,1/2+y,1/2-z
-x,-y,-z
x,y,-z
1/2-x,1/2+y,1/2+z
1/2+x,1/2-y,1/2+z
loop_
_atom_site_type_symbol
_atom_site_label
_atom_site_fract_x
_atom_site_fract_y
_atom_site_fract_z
Si Si1 0.704820 0.197493 0.278628
Si Si2 0.787720 0.529126 0.282474
Si Si3 0.985572 0.556713 0.206856
Si Si4 0.644758 0.613657 0.792537
Si Si5 0.969110 0.941845 0.718684
Si Si6 0.255858 0.583700 0.288949
Si Si7 0.502627 0.830634 0.282516
Si Si8 0.798490 0.303322 0.712725
O O1 0.703909 0.195597 0.500000
O O2 0.780898 0.154719 0.215875
O O3 0.599105 0.186852 0.220438
O O4 0.740830 0.254154 0.218373
O O5 0.788057 0.530314 0.500000
O O6 0.874343 0.561741 0.210242
O O7 0.695793 0.557485 0.215413
O O8 0.792558 0.469125 0.217851
O O9 0.000000 0.500000 0.294959
O O10 0.023152 0.610309 0.286888
O O11 0.017359 0.553319 0.000000
O O12 0.543494 0.601408 0.715570
O O13 0.631227 0.629598 0.000000
O O14 0.972396 0.942263 0.500000
O O15 0.865315 0.927347 0.772996
O O16 0.000000 0.000000 0.779484
O O17 0.231841 0.585053 0.500000
O O18 0.228985 0.639874 0.209765
O O19 0.498539 0.833828 0.500000
O O20 0.591151 0.795925 0.235024
O O21 0.778344 0.305360 0.500000
#
# Coordination Sequence:
#
# PCOD9442514 Si02
#       8
#     8   8   8   8   8   8   8   8
#     4   9  19  38  62  81 107 148 189 229 279 332
#     4  11  21  32  51  80 112 146 182 226 280 334
#     4  10  20  34  55  82 111 147 186 227 282 339
#     4  10  19  36  58  80 108 144 187 234 281 331
#     4  10  20  33  55  84 111 146 191 235 279 328
#     4  10  22  37  53  78 117 155 184 223 282 342
#     4  10  20  37  60  85 111 144 186 233 280 327
#     4  10  22  40  59  82 113 152 189 226 279 336
#
# _framework density 23.425187000000001
#
# number of rings (size 3 to 8) (size 9 to 14) (size 15 to 20)
#    0.000    2.000    2.500    1.125    0.000    3.500 
#    0.000    1.250    0.000    0.000    0.000    0.000 
#    0.000    0.000    0.000    0.000    0.000    0.000 
#
# Total GULP energy -357601.673908 kJ/mol
# GULP energy per Si atom -5587.526155 kJ/mol
# Density = 2.337187 g / cm^3
# Si number density = 23.425187 Si / 1000 Ang^3
#
#
#
# Elastic Constant Matrix: (Units=GPa)
#
#
# Indices 1 2 3 4 5 6 
#
# 1 111.5633 42.2605 -7.9267 0.0000 0.0000 0.0000
# 2 42.2605 130.3984 1.2863 0.0000 0.0000 0.0000
# 3 -7.9267 1.2863 82.9841 0.0000 0.0000 0.0000
# 4 0.0000 0.0000 0.0000 4.0847 0.0000 0.0000
# 5 0.0000 0.0000 0.0000 0.0000 29.1476 0.0000
# 6 0.0000 0.0000 0.0000 0.0000 0.0000 39.8932
#
#
#
# Elastic Compliance Matrix: (Units=1/GPa)
#
#
# Indices 1 2 3 4 5 6 
#
# 1 0.010306 -0.003350 0.001036 0.000000 0.000000 0.000000
# 2 -0.003350 0.008759 -0.000456 0.000000 0.000000 0.000000
# 3 0.001036 -0.000456 0.012157 0.000000 0.000000 0.000000
# 4 0.000000 0.000000 0.000000 0.244817 0.000000 0.000000
# 5 0.000000 0.000000 0.000000 0.000000 0.034308 0.000000
# 6 0.000000 0.000000 0.000000 0.000000 0.000000 0.025067
#
#
# Mechanical properties :
#
#
# Convention : Reuss Voigt Hill
#
# Bulk Modulus (GPa) = 38.93712 44.02067 41.47889
# Shear Modulus (GPa) = 14.30557 33.91348 24.10953
#
# Velocity S-wave (km/s) = 2.47390 3.80904 3.21162
# Velocity P-wave (km/s) = 4.98179 6.17882 5.61231
#
# Compressibility (1/GPa) = 0.02568244
#
# Stress axis : x y z
#
# Youngs Moduli (GPa) = 97.02820 114.16684 82.26005
#
# Poissons Ratio (x) = 0.38250 -0.08525
# Poissons Ratio (y) = 0.32508 0.03749
# Poissons Ratio (z) = -0.10056 0.05204
#
# Static dielectric constant tensor:
#      x y z
#    x 1.872220 0.000000 0.000000 
#    y 0.000000 1.897340 0.000000 
#    z 0.000000 0.000000 1.879570 
# 
# From -- ./inp_files/6966.got.cif
#   From: 2010.05.17/outbox.cif.g08.bks.cpg/sg58_4_cif.got.tgz:6966.got - 2010.06.03 14:20:14.
