data_PCOD9442101
_publ_section_title
;
Structure prediction by ZEFSAII (Michael W. Deem and Ramdas Pophale) SiO2 
 PCOD9442101
Probable space group: P N N M
;
_chemical_formula_sum "Si O2"
_cell_formula_units_Z 52
_cell_length_a 10.693140
_cell_length_b 13.515163
_cell_length_c 17.920877
_cell_angle_alpha 90.000000
_cell_angle_beta 90.000000
_cell_angle_gamma 90.000000
_cell_volume 2589.916723
_symmetry_space_group_name_H-M "P N N M"
_symmetry_group_IT_number 58
_symmetry_cell_setting 'orthorhombic'
loop_
_space_group_symop_operation_xyz
x,y,z
-x,-y,z
1/2+x,1/2-y,1/2-z
1/2-x,1/2+y,1/2-z
-x,-y,-z
x,y,-z
1/2-x,1/2+y,1/2+z
1/2+x,1/2-y,1/2+z
loop_
_atom_site_type_symbol
_atom_site_label
_atom_site_fract_x
_atom_site_fract_y
_atom_site_fract_z
Si Si1 0.411001 0.415907 0.162935
Si Si2 0.885634 0.755387 0.708156
Si Si3 0.000000 0.500000 0.836340
Si Si4 0.248198 0.630116 0.580354
Si Si5 0.245773 0.557389 0.254158
Si Si6 0.533925 0.114559 0.916036
Si Si7 0.848777 0.671720 0.126724
O O1 0.500000 0.500000 0.125192
O O2 0.492461 0.323945 0.192530
O O3 0.348305 0.477377 0.230124
O O4 0.288926 0.377545 0.119468
O O5 0.777726 0.837598 0.714963
O O6 0.884278 0.672530 0.644000
O O7 0.878713 0.700934 0.787211
O O8 0.886067 0.472658 0.781058
O O9 0.952628 0.589705 0.888020
O O10 0.266084 0.579049 0.500000
O O11 0.257247 0.570480 0.657240
O O12 0.338883 0.724192 0.585452
O O13 0.103262 0.664538 0.581946
O O14 0.500000 0.000000 0.898827
O O15 0.586013 0.117996 0.000000
#
# Coordination Sequence:
#
# PCOD9442101 Si02
#       7
#     8   8   4   8   8   8   8
#     4   9  18  34  53  79 110 136 183 234 278 321
#     4  10  19  33  57  81 113 145 192 231 283 331
#     4  10  20  34  56  88 116 136 194 240 286 330
#     4  10  20  35  53  81 116 149 183 223 288 341
#     4   9  20  34  57  86 110 150 183 240 280 335
#     4  10  21  34  54  84 119 148 179 234 293 344
#     4  10  20  32  56  80 109 149 186 237 273 326
#
# _framework density 20.077867999999999
#
# number of rings (size 3 to 8) (size 9 to 14) (size 15 to 20)
#    0.000    2.308    1.538    0.923    8.615    0.000 
#    0.000    0.385    0.000   25.385    0.000    0.000 
#    0.000    0.000    0.000    0.000    0.000    0.000 
#
# Total GULP energy -289650.636905 kJ/mol
# GULP energy per Si atom -5570.204556 kJ/mol
# Density = 2.003217 g / cm^3
# Si number density = 20.077868 Si / 1000 Ang^3
#
#
#
# Elastic Constant Matrix: (Units=GPa)
#
#
# Indices 1 2 3 4 5 6 
#
# 1 55.0016 27.5752 -0.1203 0.0000 0.0000 0.0000
# 2 27.5752 90.9696 24.8073 0.0000 0.0000 0.0000
# 3 -0.1203 24.8073 81.1089 0.0000 0.0000 0.0000
# 4 0.0000 0.0000 0.0000 -0.2903 0.0000 0.0000
# 5 0.0000 0.0000 0.0000 0.0000 11.9191 0.0000
# 6 0.0000 0.0000 0.0000 0.0000 0.0000 35.0375
#
#
#
# Elastic Compliance Matrix: (Units=1/GPa)
#
#
# Indices 1 2 3 4 5 6 
#
# 1 0.021807 -0.007221 0.002241 0.000000 0.000000 0.000000
# 2 -0.007221 0.014384 -0.004410 0.000000 0.000000 0.000000
# 3 0.002241 -0.004410 0.013681 0.000000 0.000000 0.000000
# 4 0.000000 0.000000 0.000000 -3.445050 0.000000 0.000000
# 5 0.000000 0.000000 0.000000 0.000000 0.083899 0.000000
# 6 0.000000 0.000000 0.000000 0.000000 0.000000 0.028541
#
#
# Mechanical properties :
#
#
# Convention : Reuss Voigt Hill
#
# Bulk Modulus (GPa) = 32.16336 36.84492 34.50414
# Shear Modulus (GPa) = -1.53676 20.98780 9.72552
#
# Velocity S-wave (km/s) = -0.87582 3.23665 2.20327
# Velocity P-wave (km/s) = 3.87703 5.68847 4.86775
#
# Compressibility (1/GPa) = 0.03109128
#
# Stress axis : x y z
#
# Youngs Moduli (GPa) = 45.85779 69.52048 73.09256
#
# Poissons Ratio (x) = 0.50202 -0.16380
# Poissons Ratio (y) = 0.33115 0.32235
# Poissons Ratio (z) = -0.10277 0.30660
#
# Static dielectric constant tensor:
#      x y z
#    x 1.733340 0.000000 0.000000 
#    y 0.000000 1.785070 0.000000 
#    z 0.000000 0.000000 1.707110 
# 
# From -- ./inp_files/26284.got.cif
#   From: 2010.05.17/outbox.cif.g08.bks.cpg/sg58_14_cif.got.tgz:26284.got - 2010.06.03 14:20:14.
