data_PCOD9442819
_publ_section_title
;
Structure prediction by ZEFSAII (Michael W. Deem and Ramdas Pophale) SiO2 
 PCOD9442819
Probable space group: P N N M
;
_chemical_formula_sum "Si O2"
_cell_formula_units_Z 56
_cell_length_a 14.296872
_cell_length_b 20.097382
_cell_length_c 7.319014
_cell_angle_alpha 90.000000
_cell_angle_beta 90.000000
_cell_angle_gamma 90.000000
_cell_volume 2102.970082
_symmetry_space_group_name_H-M "P N N M"
_symmetry_group_IT_number 58
_symmetry_cell_setting 'orthorhombic'
loop_
_space_group_symop_operation_xyz
x,y,z
-x,-y,z
1/2+x,1/2-y,1/2-z
1/2-x,1/2+y,1/2-z
-x,-y,-z
x,y,-z
1/2-x,1/2+y,1/2+z
1/2+x,1/2-y,1/2+z
loop_
_atom_site_type_symbol
_atom_site_label
_atom_site_fract_x
_atom_site_fract_y
_atom_site_fract_z
Si Si1 0.730418 0.292272 0.777411
Si Si2 0.048836 0.568791 0.277244
Si Si3 0.722956 0.004386 0.217818
Si Si4 0.048531 0.710731 0.290404
Si Si5 0.210571 0.353191 0.292480
Si Si6 0.609796 0.418575 0.782517
Si Si7 0.928424 0.144074 0.277127
O O1 0.838037 0.295585 0.714351
O O2 0.690631 0.220077 0.716756
O O3 0.670516 0.355365 0.715508
O O4 0.731780 0.291022 0.000000
O O5 0.044868 0.572371 0.500000
O O6 0.155761 0.554939 0.218583
O O7 0.013716 0.640549 0.211444
O O8 0.000000 0.500000 0.225314
O O9 0.829485 0.984213 0.250912
O O10 0.688475 0.075203 0.292731
O O11 0.711505 0.008539 0.000000
O O12 0.017383 0.713887 0.500000
O O13 0.029780 0.784149 0.217652
O O14 0.174504 0.353735 0.500000
O O15 0.324087 0.358413 0.297281
O O16 0.503462 0.410964 0.719000
O O17 0.604168 0.411291 0.000000
O O18 0.918912 0.143849 0.500000
#
# Coordination Sequence:
#
# PCOD9442819 Si02
#       7
#     8   8   8   8   8   8   8
#     4   9  17  31  51  71  95 130 167 204 249 298
#     4   9  17  29  49  77 103 127 159 205 256 300
#     4  10  20  34  52  75 103 134 169 207 253 304
#     4   9  16  30  51  72  96 125 162 205 249 295
#     4   9  19  34  51  73 102 134 167 208 254 299
#     4  10  20  33  51  75 102 134 171 207 251 302
#     4   9  19  33  50  74 100 131 170 211 249 293
#
# _framework density 26.629003000000001
#
# number of rings (size 3 to 8) (size 9 to 14) (size 15 to 20)
#    0.000    2.714    1.429    0.000    0.000    2.857 
#    0.000    8.571    0.000    1.714    0.000    4.000 
#    0.000    0.000    0.000    0.000    0.000    0.000 
#
# Total GULP energy -312999.540471 kJ/mol
# GULP energy per Si atom -5589.277508 kJ/mol
# Density = 2.656839 g / cm^3
# Si number density = 26.629003 Si / 1000 Ang^3
#
#
#
# Elastic Constant Matrix: (Units=GPa)
#
#
# Indices 1 2 3 4 5 6 
#
# 1 82.9557 7.7106 -3.4402 0.0000 0.0000 0.0000
# 2 7.7106 119.0141 -4.7846 0.0000 0.0000 0.0000
# 3 -3.4402 -4.7846 116.5052 0.0000 0.0000 0.0000
# 4 0.0000 0.0000 0.0000 3.2865 0.0000 0.0000
# 5 0.0000 0.0000 0.0000 0.0000 3.5290 0.0000
# 6 0.0000 0.0000 0.0000 0.0000 0.0000 51.6581
#
#
#
# Elastic Compliance Matrix: (Units=1/GPa)
#
#
# Indices 1 2 3 4 5 6 
#
# 1 0.012140 -0.000773 0.000327 0.000000 0.000000 0.000000
# 2 -0.000773 0.008466 0.000325 0.000000 0.000000 0.000000
# 3 0.000327 0.000325 0.008606 0.000000 0.000000 0.000000
# 4 0.000000 0.000000 0.000000 0.304274 0.000000 0.000000
# 5 0.000000 0.000000 0.000000 0.000000 0.283364 0.000000
# 6 0.000000 0.000000 0.000000 0.000000 0.000000 0.019358
#
#
# Mechanical properties :
#
#
# Convention : Reuss Voigt Hill
#
# Bulk Modulus (GPa) = 34.52064 35.27185 34.89624
# Shear Modulus (GPa) = 7.73865 32.96068 20.34967
#
# Velocity S-wave (km/s) = 1.70658 3.52202 2.76740
# Velocity P-wave (km/s) = 4.10791 5.46021 4.83160
#
# Compressibility (1/GPa) = 0.02896818
#
# Stress axis : x y z
#
# Youngs Moduli (GPa) = 82.37189 118.12610 116.19403
#
# Poissons Ratio (x) = 0.09136 -0.03796
# Poissons Ratio (y) = 0.06371 -0.03774
# Poissons Ratio (z) = -0.02691 -0.03837
#
# Static dielectric constant tensor:
#      x y z
#    x 2.103620 0.000000 0.000000 
#    y 0.000000 2.080010 0.000000 
#    z 0.000000 0.000000 2.098080 
# 
# From -- ./inp_files/6275.got.cif
#   From: 2010.05.17/outbox.cif.g08.bks.cpg/sg58_4_cif.got.tgz:6275.got - 2010.06.03 14:20:14.
