data_PCOD9442625
_publ_section_title
;
Structure prediction by ZEFSAII (Michael W. Deem and Ramdas Pophale) SiO2 
 PCOD9442625
Probable space group: P N N M
;
_chemical_formula_sum "Si O2"
_cell_formula_units_Z 48
_cell_length_a 8.720222
_cell_length_b 10.396157
_cell_length_c 27.569000
_cell_angle_alpha 90.000000
_cell_angle_beta 90.000000
_cell_angle_gamma 90.000000
_cell_volume 2499.317236
_symmetry_space_group_name_H-M "P N N M"
_symmetry_group_IT_number 58
_symmetry_cell_setting 'orthorhombic'
loop_
_space_group_symop_operation_xyz
x,y,z
-x,-y,z
1/2+x,1/2-y,1/2-z
1/2-x,1/2+y,1/2-z
-x,-y,-z
x,y,-z
1/2-x,1/2+y,1/2+z
1/2+x,1/2-y,1/2+z
loop_
_atom_site_type_symbol
_atom_site_label
_atom_site_fract_x
_atom_site_fract_y
_atom_site_fract_z
Si Si1 0.138810 0.226221 0.388875
Si Si2 0.684407 0.026509 0.055489
Si Si3 0.274848 0.420930 0.777471
Si Si4 0.609218 0.304204 0.773625
Si Si5 0.687183 0.745274 0.942452
Si Si6 0.323527 0.972638 0.385650
O O1 0.214995 0.356510 0.408838
O O2 0.124788 0.225403 0.330856
O O3 0.972033 0.220501 0.414105
O O4 0.236170 0.100963 0.402069
O O5 0.500000 0.000000 0.055831
O O6 0.749641 0.887692 0.069613
O O7 0.726500 0.058749 0.000000
O O8 0.437743 0.355588 0.765088
O O9 0.282885 0.571295 0.761705
O O10 0.150110 0.325237 0.754930
O O11 0.253732 0.426452 0.835431
O O12 0.802667 0.636493 0.925605
O O13 0.657340 0.743577 0.000000
O O14 0.500000 0.000000 0.375550
#
# Coordination Sequence:
#
# PCOD9442625 Si02
#       6
#     8   8   8   8   8   8
#     4  10  19  37  61  87 115 157 199 246 298 358
#     4   8  16  32  57  88 115 141 189 250 292 336
#     4  10  23  41  60  86 120 154 200 249 298 359
#     4  10  22  39  61  89 118 155 199 245 298 359
#     4  10  20  38  63  90 119 154 202 256 300 357
#     4  11  24  39  57  84 125 161 198 249 302 359
#
# _framework density 19.205244
#
# number of rings (size 3 to 8) (size 9 to 14) (size 15 to 20)
#    0.000    2.167    1.667    2.000    4.667    3.667 
#    3.000    0.833    0.000    2.000    0.000    0.000 
#    0.000    0.000    0.000    0.000    0.000    0.000 
#
# Total GULP energy -267803.990206 kJ/mol
# GULP energy per Si atom -5579.249796 kJ/mol
# Density = 1.916153 g / cm^3
# Si number density = 19.205244 Si / 1000 Ang^3
#
#
#
# Elastic Constant Matrix: (Units=GPa)
#
#
# Indices 1 2 3 4 5 6 
#
# 1 35.2265 24.3099 5.7194 0.0000 0.0000 0.0000
# 2 24.3099 115.7925 54.3026 0.0000 0.0000 0.0000
# 3 5.7194 54.3026 47.7959 0.0000 0.0000 0.0000
# 4 0.0000 0.0000 0.0000 41.1757 0.0000 0.0000
# 5 0.0000 0.0000 0.0000 0.0000 33.3571 0.0000
# 6 0.0000 0.0000 0.0000 0.0000 0.0000 25.3183
#
#
#
# Elastic Compliance Matrix: (Units=1/GPa)
#
#
# Indices 1 2 3 4 5 6 
#
# 1 0.034871 -0.011481 0.008872 0.000000 0.000000 0.000000
# 2 -0.011481 0.022265 -0.023923 0.000000 0.000000 0.000000
# 3 0.008872 -0.023923 0.047040 0.000000 0.000000 0.000000
# 4 0.000000 0.000000 0.000000 0.024286 0.000000 0.000000
# 5 0.000000 0.000000 0.000000 0.000000 0.029979 0.000000
# 6 0.000000 0.000000 0.000000 0.000000 0.000000 0.039497
#
#
# Mechanical properties :
#
#
# Convention : Reuss Voigt Hill
#
# Bulk Modulus (GPa) = 19.56514 40.83098 30.19806
# Shear Modulus (GPa) = 18.65394 27.60243 23.12818
#
# Velocity S-wave (km/s) = 3.11994 3.79520 3.47402
# Velocity P-wave (km/s) = 4.81541 6.36484 5.64355
#
# Compressibility (1/GPa) = 0.05111131
#
# Stress axis : x y z
#
# Youngs Moduli (GPa) = 28.67748 44.91267 21.25847
#
# Poissons Ratio (x) = 0.51566 -0.18860
# Poissons Ratio (y) = 0.32926 0.50856
# Poissons Ratio (z) = -0.25441 1.07443
#
# Static dielectric constant tensor:
#      x y z
#    x 1.684550 0.000000 0.000000 
#    y 0.000000 1.697290 0.000000 
#    z 0.000000 0.000000 1.634210 
# 
# From -- ./inp_files/34553.got.cif
#   From: 2010.05.17/outbox.cif.g08.bks.cpg/sg58_18_cif.got.tgz:34553.got - 2010.06.03 14:20:14.
