data_PCOD9442217
_publ_section_title
;
Structure prediction by ZEFSAII (Michael W. Deem and Ramdas Pophale) SiO2 
 PCOD9442217
Probable space group: P N N M
;
_chemical_formula_sum "Si O2"
_cell_formula_units_Z 64
_cell_length_a 14.565598
_cell_length_b 11.329330
_cell_length_c 17.577732
_cell_angle_alpha 90.000000
_cell_angle_beta 90.000000
_cell_angle_gamma 90.000000
_cell_volume 2900.650377
_symmetry_space_group_name_H-M "P N N M"
_symmetry_group_IT_number 58
_symmetry_cell_setting 'orthorhombic'
loop_
_space_group_symop_operation_xyz
x,y,z
-x,-y,z
1/2+x,1/2-y,1/2-z
1/2-x,1/2+y,1/2-z
-x,-y,-z
x,y,-z
1/2-x,1/2+y,1/2+z
1/2+x,1/2-y,1/2+z
loop_
_atom_site_type_symbol
_atom_site_label
_atom_site_fract_x
_atom_site_fract_y
_atom_site_fract_z
Si Si1 0.855067 0.103390 0.410794
Si Si2 0.660307 0.222553 0.584958
Si Si3 0.207958 0.147186 0.586453
Si Si4 0.690750 0.489280 0.591774
Si Si5 0.521751 0.257491 0.862401
Si Si6 0.382521 0.870860 0.735262
Si Si7 0.685077 0.701551 0.702304
Si Si8 0.875072 0.398114 0.325684
O O1 0.876624 0.087411 0.500000
O O2 0.770559 0.195996 0.407913
O O3 0.950594 0.136524 0.372224
O O4 0.816830 0.980470 0.380206
O O5 0.635382 0.189409 0.500000
O O6 0.641870 0.361447 0.596835
O O7 0.608691 0.144980 0.646346
O O8 0.238276 0.133543 0.500000
O O9 0.282864 0.208440 0.637416
O O10 0.113374 0.221793 0.589645
O O11 0.693976 0.521449 0.500000
O O12 0.651320 0.588815 0.650541
O O13 0.791713 0.453524 0.625126
O O14 0.560131 0.229394 0.778875
O O15 0.456723 0.145896 0.880533
O O16 0.276689 0.845900 0.756539
O O17 0.403062 0.997113 0.769635
O O18 0.642036 0.785327 0.768564
#
# Coordination Sequence:
#
# PCOD9442217 Si02
#       8
#     8   8   8   8   8   8   8   8
#     4  10  19  34  56  84 115 149 192 235 281 339
#     4  10  19  37  63  85 109 147 197 247 291 340
#     4  10  21  35  54  84 118 151 191 238 286 343
#     4  10  20  35  58  86 115 146 190 244 295 344
#     4  11  21  34  52  82 119 154 181 228 284 350
#     4  10  21  36  53  85 112 143 192 236 284 339
#     4  10  20  35  56  81 114 150 192 240 287 340
#     4  11  21  37  58  81 117 156 193 234 288 352
#
# _framework density 22.064018000000001
#
# number of rings (size 3 to 8) (size 9 to 14) (size 15 to 20)
#    0.000    1.750    2.500    2.250    0.000    2.500 
#    2.250    1.250    0.000    8.250    0.000    1.750 
#    0.000    0.000    0.000    0.000    0.000    0.000 
#
# Total GULP energy -356631.874007 kJ/mol
# GULP energy per Si atom -5572.373031 kJ/mol
# Density = 2.201380 g / cm^3
# Si number density = 22.064018 Si / 1000 Ang^3
#
#
#
# Elastic Constant Matrix: (Units=GPa)
#
#
# Indices 1 2 3 4 5 6 
#
# 1 8.4549 7.2168 -6.7943 0.0000 0.0000 0.0000
# 2 7.2168 84.8104 27.5048 0.0000 0.0000 0.0000
# 3 -6.7943 27.5048 72.8289 0.0000 0.0000 0.0000
# 4 0.0000 0.0000 0.0000 21.7831 0.0000 0.0000
# 5 0.0000 0.0000 0.0000 0.0000 7.3529 0.0000
# 6 0.0000 0.0000 0.0000 0.0000 0.0000 19.3589
#
#
#
# Elastic Compliance Matrix: (Units=1/GPa)
#
#
# Indices 1 2 3 4 5 6 
#
# 1 0.153019 -0.020114 0.021872 0.000000 0.000000 0.000000
# 2 -0.020114 0.016081 -0.007950 0.000000 0.000000 0.000000
# 3 0.021872 -0.007950 0.018773 0.000000 0.000000 0.000000
# 4 0.000000 0.000000 0.000000 0.045907 0.000000 0.000000
# 5 0.000000 0.000000 0.000000 0.000000 0.136001 0.000000
# 6 0.000000 0.000000 0.000000 0.000000 0.000000 0.051656
#
#
# Mechanical properties :
#
#
# Convention : Reuss Voigt Hill
#
# Bulk Modulus (GPa) = 5.69834 24.66097 15.17966
# Shear Modulus (GPa) = 10.15604 18.91009 14.53307
#
# Velocity S-wave (km/s) = 2.14778 2.93073 2.56926
# Velocity P-wave (km/s) = 2.95616 4.75957 3.96184
#
# Compressibility (1/GPa) = 0.17548955
#
# Stress axis : x y z
#
# Youngs Moduli (GPa) = 6.53512 62.18644 53.26668
#
# Poissons Ratio (x) = 1.25082 -1.16503
# Poissons Ratio (y) = 0.13145 0.42344
# Poissons Ratio (z) = -0.14293 0.49435
#
# Static dielectric constant tensor:
#      x y z
#    x 1.849080 0.000000 0.000000 
#    y 0.000000 1.877730 0.000000 
#    z 0.000000 0.000000 1.830800 
# 
# From -- ./inp_files/27020.got.cif
#   From: 2010.05.17/outbox.cif.g08.bks.cpg/sg58_14_cif.got.tgz:27020.got - 2010.06.03 14:20:14.
