data_PCOD9442535
_publ_section_title
;
Structure prediction by ZEFSAII (Michael W. Deem and Ramdas Pophale) SiO2 
 PCOD9442535
Probable space group: P N N M
;
_chemical_formula_sum "Si O2"
_cell_formula_units_Z 56
_cell_length_a 15.216368
_cell_length_b 21.771704
_cell_length_c 8.530271
_cell_angle_alpha 90.000000
_cell_angle_beta 90.000000
_cell_angle_gamma 90.000000
_cell_volume 2825.961577
_symmetry_space_group_name_H-M "P N N M"
_symmetry_group_IT_number 58
_symmetry_cell_setting 'orthorhombic'
loop_
_space_group_symop_operation_xyz
x,y,z
-x,-y,z
1/2+x,1/2-y,1/2-z
1/2-x,1/2+y,1/2-z
-x,-y,-z
x,y,-z
1/2-x,1/2+y,1/2+z
1/2+x,1/2-y,1/2+z
loop_
_atom_site_type_symbol
_atom_site_label
_atom_site_fract_x
_atom_site_fract_y
_atom_site_fract_z
Si Si1 0.483075 0.069782 0.308539
Si Si2 0.637537 0.489779 0.683181
Si Si3 0.581816 0.186265 0.315962
Si Si4 0.518359 0.588474 0.181604
Si Si5 0.928579 0.215885 0.184727
Si Si6 0.259067 0.733885 0.188379
Si Si7 0.782752 0.402733 0.810237
O O1 0.485667 0.070907 0.500000
O O2 0.556128 0.118795 0.254154
O O3 0.384928 0.091368 0.264788
O O4 0.500000 0.000000 0.258152
O O5 0.642029 0.503832 0.500000
O O6 0.559795 0.440599 0.716354
O O7 0.605665 0.549894 0.776318
O O8 0.726123 0.458521 0.743010
O O9 0.603688 0.180832 0.500000
O O10 0.493158 0.226361 0.303045
O O11 0.659182 0.224944 0.238217
O O12 0.533120 0.658938 0.221084
O O13 0.495510 0.579692 0.000000
O O14 0.831934 0.234801 0.239888
O O15 0.924193 0.198837 0.000000
O O16 0.257728 0.662806 0.242549
O O17 0.256716 0.731234 0.000000
O O18 0.778353 0.404886 0.000000
#
# Coordination Sequence:
#
# PCOD9442535 Si02
#       7
#     8   8   8   8   8   8   8
#     4   9  18  35  60  86 113 150 196 245 296 348
#     4  11  22  37  57  83 116 154 190 233 292 354
#     4  10  20  36  58  85 116 152 196 248 299 355
#     4  11  22  37  57  84 114 148 193 244 292 344
#     4  10  20  37  57  80 116 156 191 236 298 357
#     4  10  21  36  57  83 115 157 196 240 300 356
#     4  10  19  36  59  84 115 154 200 244 292 353
#
# _framework density 19.816264
#
# number of rings (size 3 to 8) (size 9 to 14) (size 15 to 20)
#    0.000    1.857    1.429    4.286    0.000    5.143 
#    0.000    2.143    0.000    0.857    0.000    0.000 
#    0.000    0.000    0.000    0.000    0.000    0.000 
#
# Total GULP energy -312770.421705 kJ/mol
# GULP energy per Si atom -5585.186102 kJ/mol
# Density = 1.977116 g / cm^3
# Si number density = 19.816264 Si / 1000 Ang^3
#
#
#
# Elastic Constant Matrix: (Units=GPa)
#
#
# Indices 1 2 3 4 5 6 
#
# 1 60.7138 -0.1268 3.8169 0.0000 0.0000 0.0000
# 2 -0.1268 84.8630 7.0949 0.0000 0.0000 0.0000
# 3 3.8169 7.0949 17.2320 0.0000 0.0000 0.0000
# 4 0.0000 0.0000 0.0000 22.9312 0.0000 0.0000
# 5 0.0000 0.0000 0.0000 0.0000 19.5042 0.0000
# 6 0.0000 0.0000 0.0000 0.0000 0.0000 26.6857
#
#
#
# Elastic Compliance Matrix: (Units=1/GPa)
#
#
# Indices 1 2 3 4 5 6 
#
# 1 0.016713 0.000346 -0.003845 0.000000 0.000000 0.000000
# 2 0.000346 0.012211 -0.005104 0.000000 0.000000 0.000000
# 3 -0.003845 -0.005104 0.060985 0.000000 0.000000 0.000000
# 4 0.000000 0.000000 0.000000 0.043609 0.000000 0.000000
# 5 0.000000 0.000000 0.000000 0.000000 0.051271 0.000000
# 6 0.000000 0.000000 0.000000 0.000000 0.000000 0.037473
#
#
# Mechanical properties :
#
#
# Convention : Reuss Voigt Hill
#
# Bulk Modulus (GPa) = 13.75443 20.48653 17.12048
# Shear Modulus (GPa) = 18.96083 23.95913 21.45998
#
# Velocity S-wave (km/s) = 3.09663 3.48093 3.29439
# Velocity P-wave (km/s) = 4.44314 5.14942 4.80926
#
# Compressibility (1/GPa) = 0.07270384
#
# Stress axis : x y z
#
# Youngs Moduli (GPa) = 59.83317 81.89367 16.39754
#
# Poissons Ratio (x) = -0.02837 0.06304
# Poissons Ratio (y) = -0.02073 0.08370
# Poissons Ratio (z) = 0.23003 0.41801
#
# Static dielectric constant tensor:
#      x y z
#    x 1.688120 0.000000 0.000000 
#    y 0.000000 1.699150 0.000000 
#    z 0.000000 0.000000 1.688770 
# 
# From -- ./inp_files/6276.got.cif
#   From: 2010.05.17/outbox.cif.g08.bks.cpg/sg58_4_cif.got.tgz:6276.got - 2010.06.03 14:20:14.
