data_PCOD9442398
_publ_section_title
;
Structure prediction by ZEFSAII (Michael W. Deem and Ramdas Pophale) SiO2 
 PCOD9442398
Probable space group: P N N M
;
_chemical_formula_sum "Si O2"
_cell_formula_units_Z 64
_cell_length_a 17.588479
_cell_length_b 15.967835
_cell_length_c 12.782271
_cell_angle_alpha 90.000000
_cell_angle_beta 90.000000
_cell_angle_gamma 90.000000
_cell_volume 3589.899923
_symmetry_space_group_name_H-M "P N N M"
_symmetry_group_IT_number 58
_symmetry_cell_setting 'orthorhombic'
loop_
_space_group_symop_operation_xyz
x,y,z
-x,-y,z
1/2+x,1/2-y,1/2-z
1/2-x,1/2+y,1/2-z
-x,-y,-z
x,y,-z
1/2-x,1/2+y,1/2+z
1/2+x,1/2-y,1/2+z
loop_
_atom_site_type_symbol
_atom_site_label
_atom_site_fract_x
_atom_site_fract_y
_atom_site_fract_z
Si Si1 0.750215 0.761110 0.620813
Si Si2 0.516536 0.796600 0.875359
Si Si3 0.645789 0.936112 0.879889
Si Si4 0.362098 0.876284 0.807437
Si Si5 0.372748 0.317417 0.753592
Si Si6 0.254796 0.911550 0.377213
Si Si7 0.910033 0.016242 0.877115
Si Si8 0.792387 0.920231 0.737810
O O1 0.738767 0.780718 0.500000
O O2 0.794587 0.673258 0.633605
O O3 0.670721 0.749830 0.681219
O O4 0.799309 0.833633 0.676051
O O5 0.575304 0.874072 0.864363
O O6 0.437640 0.822986 0.822988
O O7 0.555938 0.720261 0.814626
O O8 0.506126 0.780727 0.000000
O O9 0.717490 0.913290 0.809252
O O10 0.624930 0.032043 0.855243
O O11 0.669239 0.929555 0.000000
O O12 0.329604 0.889519 0.690617
O O13 0.310910 0.348238 0.838799
O O14 0.392380 0.395619 0.679229
O O15 0.267241 0.907323 0.500000
O O16 0.225680 0.003226 0.341266
O O17 0.861965 0.947900 0.811636
O O18 0.887786 0.017481 0.000000
O O19 0.000000 0.000000 0.871266
#
# Coordination Sequence:
#
# PCOD9442398 Si02
#       8
#     8   8   8   8   8   8   8   8
#     4  11  21  36  57  84 114 150 193 239 288 338
#     4  11  21  35  57  86 120 148 184 237 290 340
#     4  10  19  35  58  82 110 147 189 231 281 334
#     4  10  22  35  56  83 113 146 187 235 285 343
#     4  10  21  37  59  83 116 151 194 240 287 344
#     4   9  19  38  58  76 106 149 192 234 284 342
#     4  10  22  40  61  86 120 158 197 242 291 344
#     4  10  20  35  58  84 111 149 193 238 279 343
#
# _framework density 17.827794999999998
#
# number of rings (size 3 to 8) (size 9 to 14) (size 15 to 20)
#    0.000    1.875    1.250    3.750    1.750    1.000 
#    0.000    1.875    0.000    3.750    0.000    0.000 
#    0.000    0.000    0.000    0.000    0.000    0.000 
#
# Total GULP energy -357213.034372 kJ/mol
# GULP energy per Si atom -5581.453662 kJ/mol
# Density = 1.778722 g / cm^3
# Si number density = 17.827795 Si / 1000 Ang^3
#
#
#
# Elastic Constant Matrix: (Units=GPa)
#
#
# Indices 1 2 3 4 5 6 
#
# 1 49.9526 4.4751 28.5825 0.0000 0.0000 0.0000
# 2 4.4751 52.7178 37.3073 0.0000 0.0000 0.0000
# 3 28.5825 37.3073 122.1723 0.0000 0.0000 0.0000
# 4 0.0000 0.0000 0.0000 16.0029 0.0000 0.0000
# 5 0.0000 0.0000 0.0000 0.0000 16.2201 0.0000
# 6 0.0000 0.0000 0.0000 0.0000 0.0000 18.7150
#
#
#
# Elastic Compliance Matrix: (Units=1/GPa)
#
#
# Indices 1 2 3 4 5 6 
#
# 1 0.023349 0.002403 -0.006196 0.000000 0.000000 0.000000
# 2 0.002403 0.024446 -0.008027 0.000000 0.000000 0.000000
# 3 -0.006196 -0.008027 0.012086 0.000000 0.000000 0.000000
# 4 0.000000 0.000000 0.000000 0.062489 0.000000 0.000000
# 5 0.000000 0.000000 0.000000 0.000000 0.061652 0.000000
# 6 0.000000 0.000000 0.000000 0.000000 0.000000 0.053433
#
#
# Mechanical properties :
#
#
# Convention : Reuss Voigt Hill
#
# Bulk Modulus (GPa) = 27.59387 40.61916 34.10652
# Shear Modulus (GPa) = 18.30328 20.48613 19.39470
#
# Velocity S-wave (km/s) = 3.20765 3.39353 3.30190
# Velocity P-wave (km/s) = 5.40650 6.17968 5.80597
#
# Compressibility (1/GPa) = 0.03623993
#
# Stress axis : x y z
#
# Youngs Moduli (GPa) = 42.82795 40.90729 82.74023
#
# Poissons Ratio (x) = -0.09830 0.51269
# Poissons Ratio (y) = -0.10292 0.66416
# Poissons Ratio (z) = 0.26538 0.32836
#
# Static dielectric constant tensor:
#      x y z
#    x 1.596680 0.000000 0.000000 
#    y 0.000000 1.631430 0.000000 
#    z 0.000000 0.000000 1.589420 
# 
# From -- ./inp_files/15910.got.cif
#   From: 2010.05.17/outbox.cif.g08.bks.cpg/sg58_8_cif.got.tgz:15910.got - 2010.06.03 14:20:14.
