data_PCOD9442452
_publ_section_title
;
Structure prediction by ZEFSAII (Michael W. Deem and Ramdas Pophale) SiO2 
 PCOD9442452
Probable space group: P N N M
;
_chemical_formula_sum "Si O2"
_cell_formula_units_Z 40
_cell_length_a 17.762857
_cell_length_b 9.043802
_cell_length_c 13.794810
_cell_angle_alpha 90.000000
_cell_angle_beta 90.000000
_cell_angle_gamma 90.000000
_cell_volume 2216.050170
_symmetry_space_group_name_H-M "P N N M"
_symmetry_group_IT_number 58
_symmetry_cell_setting 'orthorhombic'
loop_
_space_group_symop_operation_xyz
x,y,z
-x,-y,z
1/2+x,1/2-y,1/2-z
1/2-x,1/2+y,1/2-z
-x,-y,-z
x,y,-z
1/2-x,1/2+y,1/2+z
1/2+x,1/2-y,1/2+z
loop_
_atom_site_type_symbol
_atom_site_label
_atom_site_fract_x
_atom_site_fract_y
_atom_site_fract_z
Si Si1 0.324436 0.281329 0.385791
Si Si2 0.074149 0.586910 0.252718
Si Si3 0.918682 0.922192 0.893343
Si Si4 0.344241 0.849334 0.888693
Si Si5 0.967832 0.835895 0.690410
O O1 0.327776 0.245969 0.500000
O O2 0.373155 0.163096 0.326844
O O3 0.360786 0.444558 0.374358
O O4 0.237575 0.293790 0.355432
O O5 0.121512 0.477405 0.320956
O O6 0.000000 0.500000 0.213962
O O7 0.036599 0.721319 0.312580
O O8 0.928517 0.824531 0.797582
O O9 0.902603 0.854598 0.000000
O O10 0.000000 0.000000 0.900902
O O11 0.403907 0.715949 0.882631
O O12 0.336753 0.900564 0.000000
O O13 0.000000 0.000000 0.678502
#
# Coordination Sequence:
#
# PCOD9442452 Si02
#       5
#     8   8   8   8   8
#     4  10  20  36  58  83 114 148 185 233 289 342
#     4  10  21  36  58  86 116 151 186 232 290 340
#     4   9  16  30  55  83 110 141 179 224 281 342
#     4  10  24  40  56  81 116 156 191 234 288 333
#     4  10  19  35  60  87 109 150 196 234 274 335
#
# _framework density 18.050134
#
# number of rings (size 3 to 8) (size 9 to 14) (size 15 to 20)
#    0.000    2.200    4.000    0.000    2.800    4.400 
#    0.000    3.000    0.000    1.200    0.000    0.000 
#    0.000    0.000    0.000    0.000    0.000    0.000 
#
# Total GULP energy -222816.091500 kJ/mol
# GULP energy per Si atom -5570.402288 kJ/mol
# Density = 1.800905 g / cm^3
# Si number density = 18.050134 Si / 1000 Ang^3
#
#
#
# Elastic Constant Matrix: (Units=GPa)
#
#
# Indices 1 2 3 4 5 6 
#
# 1 147.6153 54.2664 34.4434 0.0000 0.0000 0.0000
# 2 54.2664 74.2973 9.4114 0.0000 0.0000 0.0000
# 3 34.4434 9.4114 56.8303 0.0000 0.0000 0.0000
# 4 0.0000 0.0000 0.0000 29.0002 0.0000 0.0000
# 5 0.0000 0.0000 0.0000 0.0000 27.6258 0.0000
# 6 0.0000 0.0000 0.0000 0.0000 0.0000 23.9462
#
#
#
# Elastic Compliance Matrix: (Units=1/GPa)
#
#
# Indices 1 2 3 4 5 6 
#
# 1 0.010602 -0.007078 -0.005254 0.000000 0.000000 0.000000
# 2 -0.007078 0.018474 0.001231 0.000000 0.000000 0.000000
# 3 -0.005254 0.001231 0.020577 0.000000 0.000000 0.000000
# 4 0.000000 0.000000 0.000000 0.034482 0.000000 0.000000
# 5 0.000000 0.000000 0.000000 0.000000 0.036198 0.000000
# 6 0.000000 0.000000 0.000000 0.000000 0.000000 0.041760
#
#
# Mechanical properties :
#
#
# Convention : Reuss Voigt Hill
#
# Bulk Modulus (GPa) = 36.43003 52.77615 44.60309
# Shear Modulus (GPa) = 25.84701 28.15588 27.00145
#
# Velocity S-wave (km/s) = 3.78823 3.95381 3.87190
# Velocity P-wave (km/s) = 6.27381 7.08135 6.68978
#
# Compressibility (1/GPa) = 0.02744988
#
# Stress axis : x y z
#
# Youngs Moduli (GPa) = 94.31838 54.13131 48.59905
#
# Poissons Ratio (x) = 0.38317 0.25532
# Poissons Ratio (y) = 0.66763 -0.05981
# Poissons Ratio (z) = 0.49551 -0.06662
#
# Static dielectric constant tensor:
#      x y z
#    x 1.619240 0.000000 0.000000 
#    y 0.000000 1.615080 0.000000 
#    z 0.000000 0.000000 1.654100 
# 
# From -- ./inp_files/19649.got.cif
#   From: 2010.05.17/outbox.cif.g08.bks.cpg/sg58_10_cif.got.tgz:19649.got - 2010.06.03 14:20:14.
