data_PCOD9442448
_publ_section_title
;
Structure prediction by ZEFSAII (Michael W. Deem and Ramdas Pophale) SiO2 
 PCOD9442448
Probable space group: P N N M
;
_chemical_formula_sum "Si O2"
_cell_formula_units_Z 64
_cell_length_a 15.802982
_cell_length_b 24.665914
_cell_length_c 7.726661
_cell_angle_alpha 90.000000
_cell_angle_beta 90.000000
_cell_angle_gamma 90.000000
_cell_volume 3011.813786
_symmetry_space_group_name_H-M "P N N M"
_symmetry_group_IT_number 58
_symmetry_cell_setting 'orthorhombic'
loop_
_space_group_symop_operation_xyz
x,y,z
-x,-y,z
1/2+x,1/2-y,1/2-z
1/2-x,1/2+y,1/2-z
-x,-y,-z
x,y,-z
1/2-x,1/2+y,1/2+z
1/2+x,1/2-y,1/2+z
loop_
_atom_site_type_symbol
_atom_site_label
_atom_site_fract_x
_atom_site_fract_y
_atom_site_fract_z
Si Si1 0.763410 0.554003 0.296031
Si Si2 0.589202 0.261678 0.709535
Si Si3 0.601968 0.742757 0.300621
Si Si4 0.154870 0.121336 0.795141
Si Si5 0.911067 0.474546 0.288036
Si Si6 0.236580 0.323077 0.291707
Si Si7 0.406707 0.505577 0.198667
Si Si8 0.647442 0.861238 0.795341
O O1 0.782101 0.558346 0.500000
O O2 0.832830 0.511528 0.226092
O O3 0.769860 0.615200 0.225314
O O4 0.669953 0.528747 0.278527
O O5 0.588396 0.261441 0.500000
O O6 0.492752 0.257267 0.774803
O O7 0.623373 0.320279 0.767222
O O8 0.654295 0.214013 0.758088
O O9 0.592465 0.724785 0.500000
O O10 0.677942 0.706493 0.223903
O O11 0.632058 0.804686 0.295633
O O12 0.116836 0.068790 0.706576
O O13 0.255576 0.121072 0.777639
O O14 0.134986 0.116891 0.000000
O O15 0.906532 0.472560 0.500000
O O16 0.905420 0.412366 0.230472
O O17 0.000000 0.500000 0.238982
O O18 0.244736 0.325610 0.500000
O O19 0.500000 0.500000 0.278767
O O20 0.411985 0.487103 0.000000
O O21 0.630832 0.852315 0.000000
#
# Coordination Sequence:
#
# PCOD9442448 Si02
#       8
#     8   8   8   8   8   8   8   8
#     4  10  21  39  61  85 114 154 197 236 283 343
#     4  10  22  39  59  84 117 154 193 238 291 346
#     4  10  22  38  55  83 119 152 187 235 290 341
#     4  10  20  38  63  86 109 148 200 244 283 339
#     4   9  18  33  55  84 114 141 181 237 283 327
#     4  10  22  38  59  86 116 151 195 240 285 339
#     4  11  25  41  58  86 120 153 190 239 297 347
#     4  10  19  35  60  86 109 145 193 235 284 340
#
# _framework density 21.249654
#
# number of rings (size 3 to 8) (size 9 to 14) (size 15 to 20)
#    0.000    2.000    2.500    0.375    3.500    3.000 
#    0.000    0.000    0.000    0.750    0.000    0.000 
#    0.000    0.000    0.000    0.000    0.000    0.000 
#
# Total GULP energy -357309.325929 kJ/mol
# GULP energy per Si atom -5582.958218 kJ/mol
# Density = 2.120129 g / cm^3
# Si number density = 21.249654 Si / 1000 Ang^3
#
#
#
# Elastic Constant Matrix: (Units=GPa)
#
#
# Indices 1 2 3 4 5 6 
#
# 1 56.4860 -0.8514 6.4553 0.0000 0.0000 0.0000
# 2 -0.8514 86.1683 -3.6972 0.0000 0.0000 0.0000
# 3 6.4553 -3.6972 24.3661 0.0000 0.0000 0.0000
# 4 0.0000 0.0000 0.0000 24.8322 0.0000 0.0000
# 5 0.0000 0.0000 0.0000 0.0000 9.0586 0.0000
# 6 0.0000 0.0000 0.0000 0.0000 0.0000 32.8747
#
#
#
# Elastic Compliance Matrix: (Units=1/GPa)
#
#
# Indices 1 2 3 4 5 6 
#
# 1 0.018256 -0.000027 -0.004841 0.000000 0.000000 0.000000
# 2 -0.000027 0.011681 0.001780 0.000000 0.000000 0.000000
# 3 -0.004841 0.001780 0.042593 0.000000 0.000000 0.000000
# 4 0.000000 0.000000 0.000000 0.040270 0.000000 0.000000
# 5 0.000000 0.000000 0.000000 0.000000 0.110392 0.000000
# 6 0.000000 0.000000 0.000000 0.000000 0.000000 0.030418
#
#
# Mechanical properties :
#
#
# Convention : Reuss Voigt Hill
#
# Bulk Modulus (GPa) = 15.07070 18.98154 17.02612
# Shear Modulus (GPa) = 17.73637 24.36069 21.04853
#
# Velocity S-wave (km/s) = 2.89219 3.38953 3.15069
# Velocity P-wave (km/s) = 4.27325 4.92652 4.61147
#
# Compressibility (1/GPa) = 0.06635393
#
# Stress axis : x y z
#
# Youngs Moduli (GPa) = 54.77564 85.60705 23.47797
#
# Poissons Ratio (x) = 0.00234 0.11365
# Poissons Ratio (y) = 0.00150 -0.04178
# Poissons Ratio (z) = 0.26516 -0.15236
#
# Static dielectric constant tensor:
#      x y z
#    x 1.757120 0.000000 0.000000 
#    y 0.000000 1.751290 0.000000 
#    z 0.000000 0.000000 1.822740 
# 
# From -- ./inp_files/6845.got.cif
#   From: 2010.05.17/outbox.cif.g08.bks.cpg/sg58_4_cif.got.tgz:6845.got - 2010.06.03 14:20:14.
