data_PCOD9442014
_publ_section_title
;
Structure prediction by ZEFSAII (Michael W. Deem and Ramdas Pophale) SiO2 
 PCOD9442014
Probable space group: P N N M
;
_chemical_formula_sum "Si O2"
_cell_formula_units_Z 64
_cell_length_a 13.257944
_cell_length_b 24.251999
_cell_length_c 10.009286
_cell_angle_alpha 90.000000
_cell_angle_beta 90.000000
_cell_angle_gamma 90.000000
_cell_volume 3218.302189
_symmetry_space_group_name_H-M "P N N M"
_symmetry_group_IT_number 58
_symmetry_cell_setting 'orthorhombic'
loop_
_space_group_symop_operation_xyz
x,y,z
-x,-y,z
1/2+x,1/2-y,1/2-z
1/2-x,1/2+y,1/2-z
-x,-y,-z
x,y,-z
1/2-x,1/2+y,1/2+z
1/2+x,1/2-y,1/2+z
loop_
_atom_site_type_symbol
_atom_site_label
_atom_site_fract_x
_atom_site_fract_y
_atom_site_fract_z
Si Si1 0.894382 0.032819 0.344040
Si Si2 0.046805 0.559818 0.353212
Si Si3 0.273995 0.772436 0.154302
Si Si4 0.060991 0.646014 0.853324
Si Si5 0.289885 0.550078 0.653913
Si Si6 0.378637 0.337874 0.844464
Si Si7 0.505723 0.767833 0.851287
Si Si8 0.705337 0.355996 0.149930
O O1 0.861917 0.026535 0.500000
O O2 0.901188 0.098227 0.315193
O O3 0.820364 0.003170 0.239932
O O4 0.000000 0.000000 0.332000
O O5 0.018190 0.581731 0.500000
O O6 0.010063 0.599802 0.237110
O O7 0.168292 0.555101 0.351428
O O8 0.000000 0.500000 0.337761
O O9 0.205309 0.809432 0.250001
O O10 0.391434 0.788764 0.154022
O O11 0.286535 0.707795 0.191415
O O12 0.236561 0.773894 0.000000
O O13 0.176997 0.628231 0.866397
O O14 0.060785 0.701627 0.768147
O O15 0.016965 0.653216 0.000000
O O16 0.325544 0.548244 0.500000
O O17 0.333168 0.602402 0.737404
O O18 0.476296 0.297633 0.834261
O O19 0.345731 0.335286 0.000000
O O20 0.546577 0.781003 0.000000
O O21 0.658629 0.360701 0.000000
#
# Coordination Sequence:
#
# PCOD9442014 Si02
#       8
#     8   8   8   8   8   8   8   8
#     4  10  23  42  64  85 114 161 208 249 297 353
#     4   9  19  36  57  81 113 154 193 231 285 352
#     4  10  21  37  60  87 116 156 195 236 295 359
#     4  10  19  33  54  81 113 146 185 236 288 337
#     4  10  21  36  57  85 114 147 191 245 297 344
#     4  10  22  40  61  88 120 154 197 251 296 343
#     4  10  21  36  57  84 116 154 196 236 289 359
#     4   9  18  34  57  81 109 145 189 235 287 350
#
# _framework density 19.886264000000001
#
# number of rings (size 3 to 8) (size 9 to 14) (size 15 to 20)
#    0.000    2.250    1.250    0.750    1.750    4.000 
#    0.000    3.750    0.000    0.000    0.000    0.000 
#    0.000    0.000    0.000    0.000    0.000    0.000 
#
# Total GULP energy -356641.569869 kJ/mol
# GULP energy per Si atom -5572.524529 kJ/mol
# Density = 1.984100 g / cm^3
# Si number density = 19.886264 Si / 1000 Ang^3
#
#
#
# Elastic Constant Matrix: (Units=GPa)
#
#
# Indices 1 2 3 4 5 6 
#
# 1 31.6357 18.5407 33.9446 0.0000 0.0000 0.0000
# 2 18.5407 137.5240 97.0671 0.0000 0.0000 0.0000
# 3 33.9446 97.0671 150.8963 0.0000 0.0000 0.0000
# 4 0.0000 0.0000 0.0000 27.7593 0.0000 0.0000
# 5 0.0000 0.0000 0.0000 0.0000 6.3047 0.0000
# 6 0.0000 0.0000 0.0000 0.0000 0.0000 24.4034
#
#
#
# Elastic Compliance Matrix: (Units=1/GPa)
#
#
# Indices 1 2 3 4 5 6 
#
# 1 0.041920 0.001840 -0.010613 0.000000 0.000000 0.000000
# 2 0.001840 0.013399 -0.009033 0.000000 0.000000 0.000000
# 3 -0.010613 -0.009033 0.014825 0.000000 0.000000 0.000000
# 4 0.000000 0.000000 0.000000 0.036024 0.000000 0.000000
# 5 0.000000 0.000000 0.000000 0.000000 0.158611 0.000000
# 6 0.000000 0.000000 0.000000 0.000000 0.000000 0.040978
#
#
# Mechanical properties :
#
#
# Convention : Reuss Voigt Hill
#
# Bulk Modulus (GPa) = 28.95998 68.79564 48.87781
# Shear Modulus (GPa) = 14.16907 23.06040 18.61474
#
# Velocity S-wave (km/s) = 2.67218 3.40901 3.06283
# Velocity P-wave (km/s) = 4.91071 7.08271 6.09425
#
# Compressibility (1/GPa) = 0.03453041
#
# Stress axis : x y z
#
# Youngs Moduli (GPa) = 23.85517 74.63137 67.45231
#
# Poissons Ratio (x) = -0.13729 0.71589
# Poissons Ratio (y) = -0.04388 0.60930
# Poissons Ratio (z) = 0.25318 0.67415
#
# Static dielectric constant tensor:
#      x y z
#    x 1.735100 0.000000 0.000000 
#    y 0.000000 1.711350 0.000000 
#    z 0.000000 0.000000 1.731170 
# 
# From -- ./inp_files/6772.got.cif
#   From: 2010.05.17/outbox.cif.g08.bks.cpg/sg58_4_cif.got.tgz:6772.got - 2010.06.03 14:20:14.
