data_PCOD9442385
_publ_section_title
;
Structure prediction by ZEFSAII (Michael W. Deem and Ramdas Pophale) SiO2 
 PCOD9442385
Probable space group: P N N M
;
_chemical_formula_sum "Si O2"
_cell_formula_units_Z 64
_cell_length_a 15.216090
_cell_length_b 25.245222
_cell_length_c 7.575813
_cell_angle_alpha 90.000000
_cell_angle_beta 90.000000
_cell_angle_gamma 90.000000
_cell_volume 2910.124094
_symmetry_space_group_name_H-M "P N N M"
_symmetry_group_IT_number 58
_symmetry_cell_setting 'orthorhombic'
loop_
_space_group_symop_operation_xyz
x,y,z
-x,-y,z
1/2+x,1/2-y,1/2-z
1/2-x,1/2+y,1/2-z
-x,-y,-z
x,y,-z
1/2-x,1/2+y,1/2+z
1/2+x,1/2-y,1/2+z
loop_
_atom_site_type_symbol
_atom_site_label
_atom_site_fract_x
_atom_site_fract_y
_atom_site_fract_z
Si Si1 0.068644 0.375155 0.713743
Si Si2 0.659149 0.733624 0.787282
Si Si3 0.365613 0.761112 0.208855
Si Si4 0.748877 0.432331 0.295833
Si Si5 0.059238 0.047592 0.209309
Si Si6 0.621178 0.849969 0.784559
Si Si7 0.098305 0.489839 0.205209
Si Si8 0.004872 0.167151 0.713963
O O1 0.073039 0.375498 0.500000
O O2 0.101163 0.318009 0.778066
O O3 0.117242 0.427376 0.778207
O O4 0.966957 0.379686 0.769365
O O5 0.760623 0.737323 0.732205
O O6 0.616854 0.789344 0.731686
O O7 0.591441 0.688265 0.727675
O O8 0.660046 0.731451 0.000000
O O9 0.419741 0.709522 0.275302
O O10 0.384450 0.761761 0.000000
O O11 0.730011 0.419333 0.500000
O O12 0.657991 0.451184 0.214934
O O13 0.792644 0.379616 0.217328
O O14 0.825150 0.476001 0.291301
O O15 0.022064 0.106940 0.230291
O O16 0.066685 0.036774 0.000000
O O17 0.000000 0.000000 0.283359
O O18 0.622686 0.850894 0.000000
O O19 0.000000 0.500000 0.279734
O O20 0.096800 0.504795 0.000000
O O21 0.006306 0.167459 0.500000
#
# Coordination Sequence:
#
# PCOD9442385 Si02
#       8
#     8   8   8   8   8   8   8   8
#     4  10  19  35  58  79 108 151 192 229 272 335
#     4  10  20  36  59  87 119 155 191 230 281 345
#     4  10  21  37  57  86 118 148 187 236 284 332
#     4  10  20  36  61  85 107 151 203 237 277 341
#     4  10  23  42  62  86 115 147 193 249 292 332
#     4   9  16  31  57  82 105 143 195 232 263 325
#     4  11  23  36  52  82 120 148 179 234 295 340
#     4  10  21  39  62  87 118 154 192 234 288 349
#
# _framework density 21.992189
#
# number of rings (size 3 to 8) (size 9 to 14) (size 15 to 20)
#    0.000    2.000    2.500    1.125    0.000    4.750 
#    0.000    5.000    0.000    0.000    0.000    0.000 
#    0.000    0.000    0.000    0.000    0.000    0.000 
#
# Total GULP energy -357255.659749 kJ/mol
# GULP energy per Si atom -5582.119684 kJ/mol
# Density = 2.194213 g / cm^3
# Si number density = 21.992189 Si / 1000 Ang^3
#
#
#
# Elastic Constant Matrix: (Units=GPa)
#
#
# Indices 1 2 3 4 5 6 
#
# 1 93.4942 43.8967 -14.6732 0.0000 0.0000 0.0000
# 2 43.8967 120.7645 -19.4915 0.0000 0.0000 0.0000
# 3 -14.6732 -19.4915 46.4783 0.0000 0.0000 0.0000
# 4 0.0000 0.0000 0.0000 175.6756 0.0000 0.0000
# 5 0.0000 0.0000 0.0000 0.0000 15.0101 0.0000
# 6 0.0000 0.0000 0.0000 0.0000 0.0000 29.4058
#
#
#
# Elastic Compliance Matrix: (Units=1/GPa)
#
#
# Indices 1 2 3 4 5 6 
#
# 1 0.013122 -0.004399 0.002298 0.000000 0.000000 0.000000
# 2 -0.004399 0.010356 0.002954 0.000000 0.000000 0.000000
# 3 0.002298 0.002954 0.023480 0.000000 0.000000 0.000000
# 4 0.000000 0.000000 0.000000 0.005692 0.000000 0.000000
# 5 0.000000 0.000000 0.000000 0.000000 0.066622 0.000000
# 6 0.000000 0.000000 0.000000 0.000000 0.000000 0.034007
#
#
# Mechanical properties :
#
#
# Convention : Reuss Voigt Hill
#
# Bulk Modulus (GPa) = 20.54867 31.13345 25.84106
# Shear Modulus (GPa) = 29.79850 60.75197 45.27523
#
# Velocity S-wave (km/s) = 3.68497 5.26159 4.54221
# Velocity P-wave (km/s) = 5.24111 7.14841 6.26773
#
# Compressibility (1/GPa) = 0.04866494
#
# Stress axis : x y z
#
# Youngs Moduli (GPa) = 76.20933 96.55924 42.58973
#
# Poissons Ratio (x) = 0.42474 -0.09786
# Poissons Ratio (y) = 0.33523 -0.12583
# Poissons Ratio (z) = -0.17512 -0.28528
#
# Static dielectric constant tensor:
#      x y z
#    x 1.839860 0.000000 0.000000 
#    y 0.000000 1.800970 0.000000 
#    z 0.000000 0.000000 1.832610 
# 
# From -- ./inp_files/6737.got.cif
#   From: 2010.05.17/outbox.cif.g08.bks.cpg/sg58_4_cif.got.tgz:6737.got - 2010.06.03 14:20:14.
