data_PCOD9442622
_publ_section_title
;
Structure prediction by ZEFSAII (Michael W. Deem and Ramdas Pophale) SiO2 
 PCOD9442622
Probable space group: P N N M
;
_chemical_formula_sum "Si O2"
_cell_formula_units_Z 56
_cell_length_a 14.843186
_cell_length_b 20.888231
_cell_length_c 7.514152
_cell_angle_alpha 90.000000
_cell_angle_beta 90.000000
_cell_angle_gamma 90.000000
_cell_volume 2329.747032
_symmetry_space_group_name_H-M "P N N M"
_symmetry_group_IT_number 58
_symmetry_cell_setting 'orthorhombic'
loop_
_space_group_symop_operation_xyz
x,y,z
-x,-y,z
1/2+x,1/2-y,1/2-z
1/2-x,1/2+y,1/2-z
-x,-y,-z
x,y,-z
1/2-x,1/2+y,1/2+z
1/2+x,1/2-y,1/2+z
loop_
_atom_site_type_symbol
_atom_site_label
_atom_site_fract_x
_atom_site_fract_y
_atom_site_fract_z
Si Si1 0.426624 0.398064 0.791252
Si Si2 0.880511 0.869369 0.201703
Si Si3 0.712847 0.491311 0.716837
Si Si4 0.410815 0.162386 0.711626
Si Si5 0.404527 0.016875 0.203479
Si Si6 0.098611 0.274520 0.782401
Si Si7 0.201832 0.786380 0.286814
O O1 0.522544 0.403596 0.699287
O O2 0.362735 0.458782 0.770834
O O3 0.371272 0.337071 0.718888
O O4 0.445531 0.388566 0.000000
O O5 0.813026 0.920480 0.284111
O O6 0.898221 0.799422 0.279169
O O7 0.848687 0.857496 0.000000
O O8 0.714254 0.488959 0.500000
O O9 0.812135 0.510265 0.781701
O O10 0.416505 0.152658 0.500000
O O11 0.394387 0.093515 0.796319
O O12 0.507369 0.190634 0.775960
O O13 0.333771 0.215241 0.745650
O O14 0.500000 0.000000 0.289259
O O15 0.408567 0.992781 0.000000
O O16 0.196359 0.300837 0.726151
O O17 0.094879 0.275206 0.000000
O O18 0.203054 0.792675 0.500000
#
# Coordination Sequence:
#
# PCOD9442622 Si02
#       7
#     8   8   8   8   8   8   8
#     4  11  23  36  57  88 121 152 190 247 302 345
#     4  10  19  37  61  83 113 154 197 237 284 354
#     4  10  22  39  61  84 112 159 203 237 286 350
#     4  11  22  38  63  92 119 151 194 247 296 345
#     4  10  23  43  64  87 119 159 201 242 291 352
#     4   9  19  36  60  85 113 153 196 235 286 353
#     4  10  21  39  60  84 119 161 198 238 295 355
#
# _framework density 24.036946
#
# number of rings (size 3 to 8) (size 9 to 14) (size 15 to 20)
#    0.000    1.857    1.429    2.143    2.000    6.000 
#    0.000    3.571    0.000    0.000    0.000    0.000 
#    0.000    0.000    0.000    0.000    0.000    0.000 
#
# Total GULP energy -313156.251780 kJ/mol
# GULP energy per Si atom -5592.075925 kJ/mol
# Density = 2.398224 g / cm^3
# Si number density = 24.036946 Si / 1000 Ang^3
#
#
#
# Elastic Constant Matrix: (Units=GPa)
#
#
# Indices 1 2 3 4 5 6 
#
# 1 122.0488 -9.4913 -4.2704 0.0000 0.0000 0.0000
# 2 -9.4913 42.5275 -14.7008 0.0000 0.0000 0.0000
# 3 -4.2704 -14.7008 77.5000 0.0000 0.0000 0.0000
# 4 0.0000 0.0000 0.0000 0.3059 0.0000 0.0000
# 5 0.0000 0.0000 0.0000 0.0000 2.1370 0.0000
# 6 0.0000 0.0000 0.0000 0.0000 0.0000 32.4957
#
#
#
# Elastic Compliance Matrix: (Units=1/GPa)
#
#
# Indices 1 2 3 4 5 6 
#
# 1 0.008393 0.002176 0.000875 0.000000 0.000000 0.000000
# 2 0.002176 0.025728 0.005000 0.000000 0.000000 0.000000
# 3 0.000875 0.005000 0.013900 0.000000 0.000000 0.000000
# 4 0.000000 0.000000 0.000000 3.269575 0.000000 0.000000
# 5 0.000000 0.000000 0.000000 0.000000 0.467950 0.000000
# 6 0.000000 0.000000 0.000000 0.000000 0.000000 0.030773
#
#
# Mechanical properties :
#
#
# Convention : Reuss Voigt Hill
#
# Bulk Modulus (GPa) = 15.59484 20.57236 18.08360
# Shear Modulus (GPa) = 1.30836 25.02362 13.16599
#
# Velocity S-wave (km/s) = 0.73857 3.23003 2.34292
# Velocity P-wave (km/s) = 2.68873 4.74215 3.85469
#
# Compressibility (1/GPa) = 0.06412379
#
# Stress axis : x y z
#
# Youngs Moduli (GPa) = 119.14307 38.86779 71.94281
#
# Poissons Ratio (x) = -0.08457 -0.06296
# Poissons Ratio (y) = -0.25923 -0.35973
# Poissons Ratio (z) = -0.10427 -0.19435
#
# Static dielectric constant tensor:
#      x y z
#    x 1.922120 0.000000 0.000000 
#    y 0.000000 1.888730 0.000000 
#    z 0.000000 0.000000 1.912400 
# 
# From -- ./inp_files/6457.got.cif
#   From: 2010.05.17/outbox.cif.g08.bks.cpg/sg58_4_cif.got.tgz:6457.got - 2010.06.03 14:20:14.
