data_PCOD9442316
_publ_section_title
;
Structure prediction by ZEFSAII (Michael W. Deem and Ramdas Pophale) SiO2 
 PCOD9442316
Probable space group: P N N M
;
_chemical_formula_sum "Si O2"
_cell_formula_units_Z 64
_cell_length_a 10.097471
_cell_length_b 31.601247
_cell_length_c 9.203115
_cell_angle_alpha 90.000000
_cell_angle_beta 90.000000
_cell_angle_gamma 90.000000
_cell_volume 2936.646585
_symmetry_space_group_name_H-M "P N N M"
_symmetry_group_IT_number 58
_symmetry_cell_setting 'orthorhombic'
loop_
_space_group_symop_operation_xyz
x,y,z
-x,-y,z
1/2+x,1/2-y,1/2-z
1/2-x,1/2+y,1/2-z
-x,-y,-z
x,y,-z
1/2-x,1/2+y,1/2+z
1/2+x,1/2-y,1/2+z
loop_
_atom_site_type_symbol
_atom_site_label
_atom_site_fract_x
_atom_site_fract_y
_atom_site_fract_z
Si Si1 0.625831 0.530387 0.335578
Si Si2 0.432427 0.797627 0.674726
Si Si3 0.249380 0.087133 0.838145
Si Si4 0.500754 0.894958 0.333567
Si Si5 0.143274 0.478804 0.841083
Si Si6 0.498122 0.396954 0.170390
Si Si7 0.283170 0.244669 0.325789
Si Si8 0.381843 0.674192 0.663167
O O1 0.635434 0.545633 0.500000
O O2 0.635603 0.420079 0.218832
O O3 0.758486 0.507265 0.284541
O O4 0.606913 0.570174 0.230626
O O5 0.415846 0.793946 0.500000
O O6 0.464549 0.846931 0.706032
O O7 0.564247 0.768917 0.713852
O O8 0.295297 0.783886 0.752333
O O9 0.393489 0.084037 0.773531
O O10 0.228372 0.137892 0.854237
O O11 0.224170 0.069198 0.000000
O O12 0.554655 0.893475 0.500000
O O13 0.382633 0.928531 0.334595
O O14 0.000000 0.500000 0.832334
O O15 0.199798 0.489664 0.000000
O O16 0.500000 0.500000 0.325185
O O17 0.502061 0.352555 0.258390
O O18 0.491079 0.390017 0.000000
O O19 0.279634 0.247867 0.500000
O O20 0.185805 0.207758 0.267357
O O21 0.417038 0.689494 0.500000
#
# Coordination Sequence:
#
# PCOD9442316 Si02
#       8
#     8   8   8   8   8   8   8   8
#     4  11  25  44  64  91 130 171 212 263 324 387
#     4  10  22  40  61  88 126 169 212 267 324 381
#     4   9  18  31  56  90 120 156 203 254 307 369
#     4  10  20  39  65  90 126 169 213 265 324 389
#     4  10  24  44  67  99 130 165 216 270 328 394
#     4  10  19  34  59  89 121 159 206 255 308 369
#     4  11  22  38  62  91 123 166 217 264 319 379
#     4   9  18  33  56  87 122 158 202 255 308 372
#
# _framework density 21.793565000000001
#
# number of rings (size 3 to 8) (size 9 to 14) (size 15 to 20)
#    0.750    1.250    1.250    2.250    1.750    3.250 
#    2.250    0.000    0.000    0.000    0.000    0.000 
#    0.000    0.000    0.000    0.000    0.000    0.000 
#
# Total GULP energy -356673.626465 kJ/mol
# GULP energy per Si atom -5573.025414 kJ/mol
# Density = 2.174396 g / cm^3
# Si number density = 21.793565 Si / 1000 Ang^3
#
#
#
# Elastic Constant Matrix: (Units=GPa)
#
#
# Indices 1 2 3 4 5 6 
#
# 1 81.3593 23.7317 49.7362 0.0000 0.0000 0.0000
# 2 23.7317 52.0695 15.0053 0.0000 0.0000 0.0000
# 3 49.7362 15.0053 93.0113 0.0000 0.0000 0.0000
# 4 0.0000 0.0000 0.0000 24.1574 0.0000 0.0000
# 5 0.0000 0.0000 0.0000 0.0000 21.5323 0.0000
# 6 0.0000 0.0000 0.0000 0.0000 0.0000 28.3752
#
#
#
# Elastic Compliance Matrix: (Units=1/GPa)
#
#
# Indices 1 2 3 4 5 6 
#
# 1 0.020083 -0.006354 -0.009714 0.000000 0.000000 0.000000
# 2 -0.006354 0.022152 -0.000176 0.000000 0.000000 0.000000
# 3 -0.009714 -0.000176 0.015974 0.000000 0.000000 0.000000
# 4 0.000000 0.000000 0.000000 0.041395 0.000000 0.000000
# 5 0.000000 0.000000 0.000000 0.000000 0.046442 0.000000
# 6 0.000000 0.000000 0.000000 0.000000 0.000000 0.035242
#
#
# Mechanical properties :
#
#
# Convention : Reuss Voigt Hill
#
# Bulk Modulus (GPa) = 38.87862 44.82072 41.84967
# Shear Modulus (GPa) = 22.48720 24.01079 23.24899
#
# Velocity S-wave (km/s) = 3.21569 3.32284 3.26971
# Velocity P-wave (km/s) = 5.62724 5.94411 5.78784
#
# Compressibility (1/GPa) = 0.02572108
#
# Stress axis : x y z
#
# Youngs Moduli (GPa) = 49.79408 45.14321 62.60133
#
# Poissons Ratio (x) = 0.28683 0.60810
# Poissons Ratio (y) = 0.31638 0.01102
# Poissons Ratio (z) = 0.48369 0.00795
#
# Static dielectric constant tensor:
#      x y z
#    x 1.844370 0.000000 0.000000 
#    y 0.000000 1.895000 0.000000 
#    z 0.000000 0.000000 1.782230 
# 
# From -- ./inp_files/4629.got.cif
#   From: 2010.05.17/outbox.cif.g08.bks.cpg/sg58_3_cif.got.tgz:4629.got - 2010.06.03 14:20:14.
