data_PCOD9442235
_publ_section_title
;
Structure prediction by ZEFSAII (Michael W. Deem and Ramdas Pophale) SiO2 
 PCOD9442235
Probable space group: P N N M
;
_chemical_formula_sum "Si O2"
_cell_formula_units_Z 64
_cell_length_a 29.704081
_cell_length_b 12.873083
_cell_length_c 7.576202
_cell_angle_alpha 90.000000
_cell_angle_beta 90.000000
_cell_angle_gamma 90.000000
_cell_volume 2897.011608
_symmetry_space_group_name_H-M "P N N M"
_symmetry_group_IT_number 58
_symmetry_cell_setting 'orthorhombic'
loop_
_space_group_symop_operation_xyz
x,y,z
-x,-y,z
1/2+x,1/2-y,1/2-z
1/2-x,1/2+y,1/2-z
-x,-y,-z
x,y,-z
1/2-x,1/2+y,1/2+z
1/2+x,1/2-y,1/2+z
loop_
_atom_site_type_symbol
_atom_site_label
_atom_site_fract_x
_atom_site_fract_y
_atom_site_fract_z
Si Si1 0.204022 0.928916 0.213246
Si Si2 0.548984 0.505414 0.703120
Si Si3 0.199749 0.497550 0.290112
Si Si4 0.620252 0.159418 0.287091
Si Si5 0.480847 0.889751 0.712040
Si Si6 0.339865 0.206901 0.790346
Si Si7 0.863419 0.890694 0.216377
Si Si8 0.936842 0.239114 0.710643
O O1 0.255060 0.943048 0.279005
O O2 0.181330 0.820238 0.264358
O O3 0.174835 0.028441 0.272875
O O4 0.203474 0.929332 0.000000
O O5 0.500000 0.500000 0.788651
O O6 0.543952 0.468956 0.500000
O O7 0.588773 0.436419 0.778607
O O8 0.562880 0.625157 0.706477
O O9 0.207194 0.506772 0.500000
O O10 0.155375 0.429349 0.262189
O O11 0.190099 0.612852 0.217814
O O12 0.618025 0.163407 0.500000
O O13 0.569365 0.137210 0.222751
O O14 0.638940 0.271410 0.227227
O O15 0.477507 0.897666 0.500000
O O16 0.517823 0.801887 0.750775
O O17 0.500000 0.000000 0.778963
O O18 0.391421 0.204314 0.724646
O O19 0.342750 0.189787 0.000000
O O20 0.862964 0.892386 0.000000
O O21 0.933580 0.225462 0.500000
#
# Coordination Sequence:
#
# PCOD9442235 Si02
#       8
#     8   8   8   8   8   8   8   8
#     4  10  21  38  60  84 109 147 195 242 292 345
#     4  10  19  34  57  81 109 150 194 237 286 339
#     4  10  23  40  59  85 117 151 190 238 296 353
#     4  10  21  38  61  88 116 153 199 238 287 349
#     4  10  21  37  58  85 117 155 201 246 286 341
#     4  10  22  40  60  84 118 155 193 239 294 353
#     4   9  18  34  56  82 111 145 189 239 286 340
#     4  11  22  35  55  85 117 152 192 238 295 354
#
# _framework density 22.091730999999999
#
# number of rings (size 3 to 8) (size 9 to 14) (size 15 to 20)
#    0.000    2.000    1.250    1.875    1.750    4.500 
#    0.000    1.250    0.000    0.000    0.000    0.000 
#    0.000    0.000    0.000    0.000    0.000    0.000 
#
# Total GULP energy -357576.550560 kJ/mol
# GULP energy per Si atom -5587.133602 kJ/mol
# Density = 2.204145 g / cm^3
# Si number density = 22.091731 Si / 1000 Ang^3
#
#
#
# Elastic Constant Matrix: (Units=GPa)
#
#
# Indices 1 2 3 4 5 6 
#
# 1 134.1465 25.2528 -7.9311 0.0000 0.0000 0.0000
# 2 25.2528 95.3563 -17.4575 0.0000 0.0000 0.0000
# 3 -7.9311 -17.4575 43.6777 0.0000 0.0000 0.0000
# 4 0.0000 0.0000 0.0000 18.3460 0.0000 0.0000
# 5 0.0000 0.0000 0.0000 0.0000 23.6607 0.0000
# 6 0.0000 0.0000 0.0000 0.0000 0.0000 33.6980
#
#
#
# Elastic Compliance Matrix: (Units=1/GPa)
#
#
# Indices 1 2 3 4 5 6 
#
# 1 0.007862 -0.001965 0.000642 0.000000 0.000000 0.000000
# 2 -0.001965 0.011806 0.004362 0.000000 0.000000 0.000000
# 3 0.000642 0.004362 0.024755 0.000000 0.000000 0.000000
# 4 0.000000 0.000000 0.000000 0.054508 0.000000 0.000000
# 5 0.000000 0.000000 0.000000 0.000000 0.042264 0.000000
# 6 0.000000 0.000000 0.000000 0.000000 0.000000 0.029675
#
#
# Mechanical properties :
#
#
# Convention : Reuss Voigt Hill
#
# Bulk Modulus (GPa) = 19.80082 30.32320 25.06201
# Shear Modulus (GPa) = 27.52924 33.36202 30.44563
#
# Velocity S-wave (km/s) = 3.53389 3.89029 3.71637
# Velocity P-wave (km/s) = 5.06297 5.82538 5.45750
#
# Compressibility (1/GPa) = 0.05050295
#
# Stress axis : x y z
#
# Youngs Moduli (GPa) = 127.18862 84.70406 40.39575
#
# Poissons Ratio (x) = 0.16640 -0.02595
# Poissons Ratio (y) = 0.24987 -0.17620
# Poissons Ratio (z) = -0.08171 -0.36947
#
# Static dielectric constant tensor:
#      x y z
#    x 1.806760 0.000000 0.000000 
#    y 0.000000 1.783780 0.000000 
#    z 0.000000 0.000000 1.845450 
# 
# From -- ./inp_files/11057.got.cif
#   From: 2010.05.17/outbox.cif.g08.bks.cpg/sg58_6_cif.got.tgz:11057.got - 2010.06.03 14:20:14.
