data_PCOD9442729
_publ_section_title
;
Structure prediction by ZEFSAII (Michael W. Deem and Ramdas Pophale) SiO2 
 PCOD9442729
Probable space group: P N N M
;
_chemical_formula_sum "Si O2"
_cell_formula_units_Z 36
_cell_length_a 21.348995
_cell_length_b 5.324382
_cell_length_c 18.322241
_cell_angle_alpha 90.000000
_cell_angle_beta 90.000000
_cell_angle_gamma 90.000000
_cell_volume 2082.692885
_symmetry_space_group_name_H-M "P N N M"
_symmetry_group_IT_number 58
_symmetry_cell_setting 'orthorhombic'
loop_
_space_group_symop_operation_xyz
x,y,z
-x,-y,z
1/2+x,1/2-y,1/2-z
1/2-x,1/2+y,1/2-z
-x,-y,-z
x,y,-z
1/2-x,1/2+y,1/2+z
1/2+x,1/2-y,1/2+z
loop_
_atom_site_type_symbol
_atom_site_label
_atom_site_fract_x
_atom_site_fract_y
_atom_site_fract_z
Si Si1 0.183645 0.378108 0.500000
Si Si2 0.000000 0.000000 0.623581
Si Si3 0.667570 0.715317 0.229048
Si Si4 0.021605 0.756063 0.237125
Si Si5 0.099021 0.883232 0.500000
Si Si6 0.778228 0.712500 0.658543
O O1 0.144621 0.641058 0.500000
O O2 0.223757 0.338298 0.572807
O O3 0.135266 0.146206 0.500000
O O4 0.014582 0.215232 0.683861
O O5 0.945830 0.103608 0.571144
O O6 0.594713 0.718541 0.247452
O O7 0.711504 0.706852 0.300752
O O8 0.688062 0.475366 0.179981
O O9 0.683249 0.977231 0.190165
O O10 0.000000 0.500000 0.202831
O O11 0.000000 0.000000 0.193696
#
# Coordination Sequence:
#
# PCOD9442729 Si02
#       6
#     4   4   8   8   4   8
#     4  12  22  35  50  78  98 141 166 213 253 304
#     4   9  22  32  44  70 100 141 172 192 242 289
#     4  10  20  37  52  76  98 137 172 219 250 302
#     4  10  20  30  51  70  98 129 171 211 246 295
#     4  11  24  30  48  66 110 137 172 195 239 304
#     4  10  21  34  56  72 102 132 177 213 260 293
#
# _framework density 17.285312000000001
#
# number of rings (size 3 to 8) (size 9 to 14) (size 15 to 20)
#    0.667    1.111    0.000    5.333    6.222    0.889 
#    0.000    0.000    0.000    0.000    0.000    1.556 
#    0.000    0.000    0.000    0.000    0.000    0.000 
#
# Total GULP energy -200579.328365 kJ/mol
# GULP energy per Si atom -5571.648010 kJ/mol
# Density = 1.724597 g / cm^3
# Si number density = 17.285312 Si / 1000 Ang^3
#
#
#
# Elastic Constant Matrix: (Units=GPa)
#
#
# Indices 1 2 3 4 5 6 
#
# 1 73.3607 24.0415 13.3106 0.0000 0.0000 0.0000
# 2 24.0415 122.5682 -2.7287 0.0000 0.0000 0.0000
# 3 13.3106 -2.7287 44.7634 0.0000 0.0000 0.0000
# 4 0.0000 0.0000 0.0000 5.0333 0.0000 0.0000
# 5 0.0000 0.0000 0.0000 0.0000 11.5031 0.0000
# 6 0.0000 0.0000 0.0000 0.0000 0.0000 16.9911
#
#
#
# Elastic Compliance Matrix: (Units=1/GPa)
#
#
# Indices 1 2 3 4 5 6 
#
# 1 0.015538 -0.003155 -0.004813 0.000000 0.000000 0.000000
# 2 -0.003155 0.008810 0.001475 0.000000 0.000000 0.000000
# 3 -0.004813 0.001475 0.023861 0.000000 0.000000 0.000000
# 4 0.000000 0.000000 0.000000 0.198677 0.000000 0.000000
# 5 0.000000 0.000000 0.000000 0.000000 0.086933 0.000000
# 6 0.000000 0.000000 0.000000 0.000000 0.000000 0.058854
#
#
# Mechanical properties :
#
#
# Convention : Reuss Voigt Hill
#
# Bulk Modulus (GPa) = 28.38930 34.43766 31.41348
# Shear Modulus (GPa) = 11.97892 20.44345 16.21118
#
# Velocity S-wave (km/s) = 2.63537 3.44278 3.06577
# Velocity P-wave (km/s) = 5.07147 5.98080 5.54481
#
# Compressibility (1/GPa) = 0.03522454
#
# Stress axis : x y z
#
# Youngs Moduli (GPa) = 64.35651 113.50215 41.90993
#
# Poissons Ratio (x) = 0.35810 0.20170
# Poissons Ratio (y) = 0.20304 -0.06183
# Poissons Ratio (z) = 0.30973 -0.16744
#
# Static dielectric constant tensor:
#      x y z
#    x 1.590420 0.000000 0.000000 
#    y 0.000000 1.656990 0.000000 
#    z 0.000000 0.000000 1.592740 
# 
# From -- ./inp_files/27422.got.cif
#   From: 2010.05.17/outbox.cif.g08.bks.cpg/sg58_14_cif.got.tgz:27422.got - 2010.06.03 14:20:14.
