data_PCOD9442017
_publ_section_title
;
Structure prediction by ZEFSAII (Michael W. Deem and Ramdas Pophale) SiO2 
 PCOD9442017
Probable space group: P N N M
;
_chemical_formula_sum "Si O2"
_cell_formula_units_Z 64
_cell_length_a 21.527070
_cell_length_b 17.141650
_cell_length_c 8.941058
_cell_angle_alpha 90.000000
_cell_angle_beta 90.000000
_cell_angle_gamma 90.000000
_cell_volume 3299.335337
_symmetry_space_group_name_H-M "P N N M"
_symmetry_group_IT_number 58
_symmetry_cell_setting 'orthorhombic'
loop_
_space_group_symop_operation_xyz
x,y,z
-x,-y,z
1/2+x,1/2-y,1/2-z
1/2-x,1/2+y,1/2-z
-x,-y,-z
x,y,-z
1/2-x,1/2+y,1/2+z
1/2+x,1/2-y,1/2+z
loop_
_atom_site_type_symbol
_atom_site_label
_atom_site_fract_x
_atom_site_fract_y
_atom_site_fract_z
Si Si1 0.899190 0.354725 0.677807
Si Si2 0.750369 0.081110 0.820197
Si Si3 0.075489 0.175810 0.321079
Si Si4 0.031041 0.330106 0.822353
Si Si5 0.110632 0.462117 0.679274
Si Si6 0.436690 0.382608 0.824260
Si Si7 0.832868 0.222116 0.177378
Si Si8 0.146752 0.027957 0.677786
O O1 0.903003 0.344944 0.500000
O O2 0.893712 0.446205 0.711750
O O3 0.842392 0.303993 0.740974
O O4 0.962684 0.324164 0.751165
O O5 0.679352 0.067057 0.779257
O O6 0.776184 0.166196 0.774517
O O7 0.795598 0.014969 0.754317
O O8 0.755028 0.077231 0.000000
O O9 0.081845 0.188635 0.500000
O O10 0.071909 0.258170 0.238928
O O11 0.008656 0.134084 0.296924
O O12 0.128025 0.114497 0.271485
O O13 0.060699 0.410528 0.765092
O O14 0.027024 0.327664 0.000000
O O15 0.101675 0.451773 0.500000
O O16 0.393213 0.329035 0.722014
O O17 0.412661 0.470595 0.800938
O O18 0.424574 0.363744 0.000000
O O19 0.830111 0.234050 0.000000
O O20 0.158216 0.031229 0.500000
#
# Coordination Sequence:
#
# PCOD9442017 Si02
#       8
#     8   8   8   8   8   8   8   8
#     4  11  22  39  64  89 113 151 197 239 288 353
#     4   9  20  40  61  83 117 156 192 237 289 342
#     4  10  19  33  54  81 119 158 192 233 285 348
#     4  12  25  39  59  89 121 149 187 247 303 346
#     4  10  23  44  65  83 112 156 199 237 290 353
#     4   9  16  29  52  80 114 153 193 233 279 339
#     4  10  19  33  57  88 119 151 188 237 290 337
#     4   9  18  32  54  85 115 152 197 238 279 336
#
# _framework density 19.397846000000001
#
# number of rings (size 3 to 8) (size 9 to 14) (size 15 to 20)
#    0.000    2.000    1.250    2.625    0.000    5.500 
#    2.250    0.000    0.000    3.750    0.000    0.000 
#    0.000    0.000    0.000    0.000    0.000    0.000 
#
# Total GULP energy -357396.124293 kJ/mol
# GULP energy per Si atom -5584.314442 kJ/mol
# Density = 1.935370 g / cm^3
# Si number density = 19.397846 Si / 1000 Ang^3
#
#
#
# Elastic Constant Matrix: (Units=GPa)
#
#
# Indices 1 2 3 4 5 6 
#
# 1 36.1091 19.7841 12.6817 0.0000 0.0000 0.0000
# 2 19.7841 109.7861 38.0734 0.0000 0.0000 0.0000
# 3 12.6817 38.0734 35.6370 0.0000 0.0000 0.0000
# 4 0.0000 0.0000 0.0000 35.4268 0.0000 0.0000
# 5 0.0000 0.0000 0.0000 0.0000 7.1242 0.0000
# 6 0.0000 0.0000 0.0000 0.0000 0.0000 11.1552
#
#
#
# Elastic Compliance Matrix: (Units=1/GPa)
#
#
# Indices 1 2 3 4 5 6 
#
# 1 0.032223 -0.002907 -0.008361 0.000000 0.000000 0.000000
# 2 -0.002907 0.014732 -0.014705 0.000000 0.000000 0.000000
# 3 -0.008361 -0.014705 0.046746 0.000000 0.000000 0.000000
# 4 0.000000 0.000000 0.000000 0.028227 0.000000 0.000000
# 5 0.000000 0.000000 0.000000 0.000000 0.140367 0.000000
# 6 0.000000 0.000000 0.000000 0.000000 0.000000 0.089645
#
#
# Mechanical properties :
#
#
# Convention : Reuss Voigt Hill
#
# Bulk Modulus (GPa) = 23.94887 35.84561 29.89724
# Shear Modulus (GPa) = 11.96734 18.14077 15.05406
#
# Velocity S-wave (km/s) = 2.48653 3.06141 2.78882
# Velocity P-wave (km/s) = 4.54056 5.56917 5.08096
#
# Compressibility (1/GPa) = 0.04175563
#
# Stress axis : x y z
#
# Youngs Moduli (GPa) = 31.03370 67.87918 21.39228
#
# Poissons Ratio (x) = 0.19735 0.17885
# Poissons Ratio (y) = 0.09022 0.31457
# Poissons Ratio (z) = 0.25946 0.99814
#
# Static dielectric constant tensor:
#      x y z
#    x 1.660280 0.000000 0.000000 
#    y 0.000000 1.700520 0.000000 
#    z 0.000000 0.000000 1.647330 
# 
# From -- ./inp_files/9261.got.cif
#   From: 2010.05.17/outbox.cif.g08.bks.cpg/sg58_5_cif.got.tgz:9261.got - 2010.06.03 14:20:14.
