data_PCOD9442859
_publ_section_title
;
Structure prediction by ZEFSAII (Michael W. Deem and Ramdas Pophale) SiO2 
 PCOD9442859
Probable space group: P N N M
;
_chemical_formula_sum "Si O2"
_cell_formula_units_Z 64
_cell_length_a 13.128049
_cell_length_b 28.507730
_cell_length_c 9.169938
_cell_angle_alpha 90.000000
_cell_angle_beta 90.000000
_cell_angle_gamma 90.000000
_cell_volume 3431.857332
_symmetry_space_group_name_H-M "P N N M"
_symmetry_group_IT_number 58
_symmetry_cell_setting 'orthorhombic'
loop_
_space_group_symop_operation_xyz
x,y,z
-x,-y,z
1/2+x,1/2-y,1/2-z
1/2-x,1/2+y,1/2-z
-x,-y,-z
x,y,-z
1/2-x,1/2+y,1/2+z
1/2+x,1/2-y,1/2+z
loop_
_atom_site_type_symbol
_atom_site_label
_atom_site_fract_x
_atom_site_fract_y
_atom_site_fract_z
Si Si1 0.158400 0.410656 0.159406
Si Si2 0.651426 0.616042 0.325969
Si Si3 0.529576 0.946419 0.838081
Si Si4 0.254877 0.091293 0.823782
Si Si5 0.036950 0.052345 0.821925
Si Si6 0.730053 0.720906 0.324967
Si Si7 0.861758 0.312081 0.675973
Si Si8 0.924103 0.692655 0.164749
O O1 0.257368 0.414707 0.258778
O O2 0.136964 0.355522 0.146236
O O3 0.055376 0.427825 0.231334
O O4 0.174997 0.431414 0.000000
O O5 0.657551 0.612623 0.500000
O O6 0.545436 0.592263 0.279686
O O7 0.673044 0.671030 0.291819
O O8 0.644616 0.938752 0.785565
O O9 0.500000 0.000000 0.853762
O O10 0.521656 0.923569 0.000000
O O11 0.149095 0.068918 0.770217
O O12 0.285906 0.144760 0.784197
O O13 0.247366 0.090717 0.000000
O O14 0.039509 0.051158 0.000000
O O15 0.000000 0.000000 0.776270
O O16 0.727380 0.726868 0.500000
O O17 0.677411 0.763166 0.239876
O O18 0.846545 0.721093 0.266801
O O19 0.870631 0.310846 0.500000
O O20 0.971219 0.318628 0.752603
O O21 0.941450 0.712149 0.000000
#
# Coordination Sequence:
#
# PCOD9442859 Si02
#       8
#     8   8   8   8   8   8   8   8
#     4  10  20  34  55  80 111 146 183 231 289 346
#     4   9  19  35  57  83 112 148 191 241 290 341
#     4  10  20  33  55  84 114 145 186 235 287 349
#     4   9  19  34  52  84 120 149 185 236 293 345
#     4   9  18  33  57  86 114 146 191 242 290 342
#     4  10  21  36  55  83 116 151 196 242 293 354
#     4  11  21  35  57  83 118 155 189 235 293 354
#     4  10  20  36  56  79 109 146 189 237 291 348
#
# _framework density 18.648793000000001
#
# number of rings (size 3 to 8) (size 9 to 14) (size 15 to 20)
#    0.000    2.250    1.250    1.500    1.750    2.750 
#    0.000    2.500    0.000    2.625    0.000    0.000 
#    0.000    0.000    0.000    0.000    0.000    0.000 
#
# Total GULP energy -356357.160826 kJ/mol
# GULP energy per Si atom -5568.080638 kJ/mol
# Density = 1.860635 g / cm^3
# Si number density = 18.648793 Si / 1000 Ang^3
#
#
#
# Elastic Constant Matrix: (Units=GPa)
#
#
# Indices 1 2 3 4 5 6 
#
# 1 148.6998 69.9496 33.0038 0.0000 0.0000 0.0000
# 2 69.9496 85.5659 39.7937 0.0000 0.0000 0.0000
# 3 33.0038 39.7937 50.4315 0.0000 0.0000 0.0000
# 4 0.0000 0.0000 0.0000 16.9552 0.0000 0.0000
# 5 0.0000 0.0000 0.0000 0.0000 -5.0368 0.0000
# 6 0.0000 0.0000 0.0000 0.0000 0.0000 15.6346
#
#
#
# Elastic Compliance Matrix: (Units=1/GPa)
#
#
# Indices 1 2 3 4 5 6 
#
# 1 0.010928 -0.008858 -0.000162 0.000000 0.000000 0.000000
# 2 -0.008858 0.025642 -0.014436 0.000000 0.000000 0.000000
# 3 -0.000162 -0.014436 0.031326 0.000000 0.000000 0.000000
# 4 0.000000 0.000000 0.000000 0.058979 0.000000 0.000000
# 5 0.000000 0.000000 0.000000 0.000000 -0.198539 0.000000
# 6 0.000000 0.000000 0.000000 0.000000 0.000000 0.063961
#
#
# Mechanical properties :
#
#
# Convention : Reuss Voigt Hill
#
# Bulk Modulus (GPa) = 47.65674 63.35460 55.50567
# Shear Modulus (GPa) = 108.21562 14.97395 61.59479
#
# Velocity S-wave (km/s) = 7.62589 2.83670 5.75331
# Velocity P-wave (km/s) = 10.15624 6.69144 8.60014
#
# Compressibility (1/GPa) = 0.02098339
#
# Stress axis : x y z
#
# Youngs Moduli (GPa) = 91.50952 38.99813 31.92237
#
# Poissons Ratio (x) = 0.34545 0.00516
# Poissons Ratio (y) = 0.81061 0.46084
# Poissons Ratio (z) = 0.01481 0.56299
#
# Static dielectric constant tensor:
#      x y z
#    x 1.689270 0.000000 0.000000 
#    y 0.000000 1.615880 0.000000 
#    z 0.000000 0.000000 1.676960 
# 
# From -- ./inp_files/4761.got.cif
#   From: 2010.05.17/outbox.cif.g08.bks.cpg/sg58_3_cif.got.tgz:4761.got - 2010.06.03 14:20:14.
