data_PCOD9442256
_publ_section_title
;
Structure prediction by ZEFSAII (Michael W. Deem and Ramdas Pophale) SiO2 
 PCOD9442256
Probable space group: P N N M
;
_chemical_formula_sum "Si O2"
_cell_formula_units_Z 64
_cell_length_a 20.584602
_cell_length_b 20.314162
_cell_length_c 8.706347
_cell_angle_alpha 90.000000
_cell_angle_beta 90.000000
_cell_angle_gamma 90.000000
_cell_volume 3640.636830
_symmetry_space_group_name_H-M "P N N M"
_symmetry_group_IT_number 58
_symmetry_cell_setting 'orthorhombic'
loop_
_space_group_symop_operation_xyz
x,y,z
-x,-y,z
1/2+x,1/2-y,1/2-z
1/2-x,1/2+y,1/2-z
-x,-y,-z
x,y,-z
1/2-x,1/2+y,1/2+z
1/2+x,1/2-y,1/2+z
loop_
_atom_site_type_symbol
_atom_site_label
_atom_site_fract_x
_atom_site_fract_y
_atom_site_fract_z
Si Si1 0.339140 0.554001 0.684694
Si Si2 0.334112 0.941849 0.816110
Si Si3 0.802462 0.407173 0.316107
Si Si4 0.916468 0.323909 0.184742
Si Si5 0.022557 0.074253 0.315878
Si Si6 0.415444 0.326970 0.315284
Si Si7 0.301898 0.411248 0.183430
Si Si8 0.526031 0.072719 0.314359
O O1 0.342397 0.549361 0.500000
O O2 0.273659 0.593808 0.725936
O O3 0.405146 0.583269 0.750931
O O4 0.329132 0.480683 0.751781
O O5 0.272213 0.906720 0.740402
O O6 0.403226 0.917171 0.757223
O O7 0.327628 0.019486 0.773942
O O8 0.329143 0.937113 0.000000
O O9 0.807017 0.401396 0.500000
O O10 0.848432 0.353611 0.240703
O O11 0.925567 0.248596 0.233305
O O12 0.974105 0.372586 0.236730
O O13 0.916816 0.325296 0.000000
O O14 0.022537 0.079039 0.500000
O O15 0.972298 0.126164 0.246823
O O16 0.000000 0.000000 0.274507
O O17 0.414239 0.330293 0.500000
O O18 0.347944 0.354790 0.249747
O O19 0.304990 0.412274 0.000000
O O20 0.531208 0.074589 0.500000
O O21 0.500000 0.000000 0.271660
#
# Coordination Sequence:
#
# PCOD9442256 Si02
#       8
#     8   8   8   8   8   8   8   8
#     4  10  20  35  57  86 115 145 183 231 284 333
#     4  10  20  34  55  85 115 145 186 233 282 333
#     4   9  19  34  54  82 113 145 184 228 277 333
#     4  10  22  38  57  83 114 152 192 231 283 343
#     4  11  22  36  57  87 115 145 191 238 283 336
#     4  11  23  39  58  81 114 153 191 232 284 345
#     4  11  21  35  56  83 112 145 186 233 282 335
#     4  10  19  34  57  85 116 150 190 236 284 332
#
# _framework density 17.579340999999999
#
# number of rings (size 3 to 8) (size 9 to 14) (size 15 to 20)
#    0.000    1.750    2.500    3.375    0.000    4.750 
#    0.000    1.250    0.000    1.500    0.000    0.000 
#    0.000    0.000    0.000    0.000    0.000    0.000 
#
# Total GULP energy -357408.477070 kJ/mol
# GULP energy per Si atom -5584.507454 kJ/mol
# Density = 1.753933 g / cm^3
# Si number density = 17.579341 Si / 1000 Ang^3
#
#
#
# Elastic Constant Matrix: (Units=GPa)
#
#
# Indices 1 2 3 4 5 6 
#
# 1 165.9098 86.6453 46.8892 0.0000 0.0000 0.0000
# 2 86.6453 127.2040 43.9506 0.0000 0.0000 0.0000
# 3 46.8892 43.9506 52.2585 0.0000 0.0000 0.0000
# 4 0.0000 0.0000 0.0000 -24.4745 0.0000 0.0000
# 5 0.0000 0.0000 0.0000 0.0000 36.1525 0.0000
# 6 0.0000 0.0000 0.0000 0.0000 0.0000 24.7868
#
#
#
# Elastic Compliance Matrix: (Units=1/GPa)
#
#
# Indices 1 2 3 4 5 6 
#
# 1 0.010087 -0.005277 -0.004612 0.000000 0.000000 0.000000
# 2 -0.005277 0.013842 -0.006907 0.000000 0.000000 0.000000
# 3 -0.004612 -0.006907 0.029083 0.000000 0.000000 0.000000
# 4 0.000000 0.000000 0.000000 -0.040859 0.000000 0.000000
# 5 0.000000 0.000000 0.000000 0.000000 0.027661 0.000000
# 6 0.000000 0.000000 0.000000 0.000000 0.000000 0.040344
#
#
# Mechanical properties :
#
#
# Convention : Reuss Voigt Hill
#
# Bulk Modulus (GPa) = 51.49445 77.81583 64.65514
# Shear Modulus (GPa) = 41.58932 18.48544 30.03738
#
# Velocity S-wave (km/s) = 4.86923 3.24627 4.13810
# Velocity P-wave (km/s) = 7.80825 7.64281 7.72597
#
# Compressibility (1/GPa) = 0.01941957
#
# Stress axis : x y z
#
# Youngs Moduli (GPa) = 99.13962 72.24269 34.38454
#
# Poissons Ratio (x) = 0.38123 0.15859
# Poissons Ratio (y) = 0.52316 0.23749
# Poissons Ratio (z) = 0.45726 0.49897
#
# Static dielectric constant tensor:
#      x y z
#    x 1.591630 0.000000 0.000000 
#    y 0.000000 1.583170 0.000000 
#    z 0.000000 0.000000 1.589120 
# 
# From -- ./inp_files/8413.got.cif
#   From: 2010.05.17/outbox.cif.g08.bks.cpg/sg58_5_cif.got.tgz:8413.got - 2010.06.03 14:20:14.
