data_PCOD9442104
_publ_section_title
;
Structure prediction by ZEFSAII (Michael W. Deem and Ramdas Pophale) SiO2 
 PCOD9442104
Probable space group: P N N M
;
_chemical_formula_sum "Si O2"
_cell_formula_units_Z 64
_cell_length_a 29.526364
_cell_length_b 13.439447
_cell_length_c 7.723743
_cell_angle_alpha 90.000000
_cell_angle_beta 90.000000
_cell_angle_gamma 90.000000
_cell_volume 3064.920281
_symmetry_space_group_name_H-M "P N N M"
_symmetry_group_IT_number 58
_symmetry_cell_setting 'orthorhombic'
loop_
_space_group_symop_operation_xyz
x,y,z
-x,-y,z
1/2+x,1/2-y,1/2-z
1/2-x,1/2+y,1/2-z
-x,-y,-z
x,y,-z
1/2-x,1/2+y,1/2+z
1/2+x,1/2-y,1/2+z
loop_
_atom_site_type_symbol
_atom_site_label
_atom_site_fract_x
_atom_site_fract_y
_atom_site_fract_z
Si Si1 0.852640 0.485113 0.203962
Si Si2 0.696124 0.266389 0.301660
Si Si3 0.751241 0.958462 0.290505
Si Si4 0.372573 0.233427 0.208349
Si Si5 0.441149 0.405223 0.789134
Si Si6 0.217513 0.835211 0.290599
Si Si7 0.046094 0.125683 0.711882
Si Si8 0.604572 0.196541 0.193509
O O1 0.800530 0.476728 0.271869
O O2 0.878495 0.382996 0.251900
O O3 0.878882 0.587502 0.245921
O O4 0.847461 0.485479 0.000000
O O5 0.684326 0.239596 0.500000
O O6 0.725381 0.365287 0.296246
O O7 0.732594 0.190403 0.225877
O O8 0.650159 0.262833 0.197969
O O9 0.749789 0.944664 0.500000
O O10 0.785675 0.048922 0.256462
O O11 0.408356 0.316309 0.270982
O O12 0.323101 0.267953 0.275112
O O13 0.371933 0.241397 0.000000
O O14 0.493108 0.381263 0.742964
O O15 0.431743 0.519663 0.733239
O O16 0.438843 0.406145 0.000000
O O17 0.219499 0.821896 0.500000
O O18 0.049004 0.127184 0.500000
O O19 0.068489 0.227939 0.778783
O O20 0.587923 0.178957 0.000000
#
# Coordination Sequence:
#
# PCOD9442104 Si02
#       8
#     8   8   8   8   8   8   8   8
#     4  11  22  37  54  74 110 151 186 227 271 316
#     4  11  21  35  51  75 110 144 179 222 267 315
#     4  10  20  35  51  71 103 144 183 222 266 313
#     4  10  19  33  57  83 106 140 183 226 275 329
#     4   8  15  31  57  85 111 135 169 224 283 326
#     4   9  18  32  50  73 104 138 178 221 263 312
#     4   8  16  32  55  85 112 135 171 225 279 326
#     4  11  22  35  56  82 109 143 186 225 269 329
#
# _framework density 20.881454999999999
#
# number of rings (size 3 to 8) (size 9 to 14) (size 15 to 20)
#    0.000    2.250    2.500    1.875    1.750    0.500 
#    0.000    1.250    0.000    5.250    0.000    4.375 
#    0.000    0.000    0.000    0.000    0.000    0.000 
#
# Total GULP energy -356576.453532 kJ/mol
# GULP energy per Si atom -5571.507086 kJ/mol
# Density = 2.083393 g / cm^3
# Si number density = 20.881455 Si / 1000 Ang^3
#
#
#
# Elastic Constant Matrix: (Units=GPa)
#
#
# Indices 1 2 3 4 5 6 
#
# 1 35.4304 23.1048 -2.8062 0.0000 0.0000 0.0000
# 2 23.1048 114.1423 5.5932 0.0000 0.0000 0.0000
# 3 -2.8062 5.5932 32.2443 0.0000 0.0000 0.0000
# 4 0.0000 0.0000 0.0000 13.2802 0.0000 0.0000
# 5 0.0000 0.0000 0.0000 0.0000 3.4237 0.0000
# 6 0.0000 0.0000 0.0000 0.0000 0.0000 36.2139
#
#
#
# Elastic Compliance Matrix: (Units=1/GPa)
#
#
# Indices 1 2 3 4 5 6 
#
# 1 0.033038 -0.006887 0.004070 0.000000 0.000000 0.000000
# 2 -0.006887 0.010272 -0.002381 0.000000 0.000000 0.000000
# 3 0.004070 -0.002381 0.031780 0.000000 0.000000 0.000000
# 4 0.000000 0.000000 0.000000 0.075300 0.000000 0.000000
# 5 0.000000 0.000000 0.000000 0.000000 0.292082 0.000000
# 6 0.000000 0.000000 0.000000 0.000000 0.000000 0.027614
#
#
# Mechanical properties :
#
#
# Convention : Reuss Voigt Hill
#
# Bulk Modulus (GPa) = 15.45747 25.95562 20.70655
# Shear Modulus (GPa) = 9.95923 20.97856 15.46889
#
# Velocity S-wave (km/s) = 2.18627 3.17306 2.72471
# Velocity P-wave (km/s) = 3.71370 5.08738 4.45382
#
# Compressibility (1/GPa) = 0.06469362
#
# Stress axis : x y z
#
# Youngs Moduli (GPa) = 30.26831 97.35450 31.46587
#
# Poissons Ratio (x) = 0.67048 -0.12806
# Poissons Ratio (y) = 0.20846 0.07492
# Poissons Ratio (z) = -0.12319 0.23181
#
# Static dielectric constant tensor:
#      x y z
#    x 1.730280 0.000000 0.000000 
#    y 0.000000 1.835770 0.000000 
#    z 0.000000 0.000000 1.766280 
# 
# From -- ./inp_files/10984.got.cif
#   From: 2010.05.17/outbox.cif.g08.bks.cpg/sg58_6_cif.got.tgz:10984.got - 2010.06.03 14:20:14.
