data_PCOD9442560
_publ_section_title
;
Structure prediction by ZEFSAII (Michael W. Deem and Ramdas Pophale) SiO2 
 PCOD9442560
Probable space group: P N N M
;
_chemical_formula_sum "Si O2"
_cell_formula_units_Z 64
_cell_length_a 16.916280
_cell_length_b 19.661922
_cell_length_c 7.692034
_cell_angle_alpha 90.000000
_cell_angle_beta 90.000000
_cell_angle_gamma 90.000000
_cell_volume 2558.421106
_symmetry_space_group_name_H-M "P N N M"
_symmetry_group_IT_number 58
_symmetry_cell_setting 'orthorhombic'
loop_
_space_group_symop_operation_xyz
x,y,z
-x,-y,z
1/2+x,1/2-y,1/2-z
1/2-x,1/2+y,1/2-z
-x,-y,-z
x,y,-z
1/2-x,1/2+y,1/2+z
1/2+x,1/2-y,1/2+z
loop_
_atom_site_type_symbol
_atom_site_label
_atom_site_fract_x
_atom_site_fract_y
_atom_site_fract_z
Si Si1 0.345384 0.948303 0.302916
Si Si2 0.672827 0.203363 0.710238
Si Si3 0.405780 0.085686 0.286540
Si Si4 0.751018 0.836323 0.706138
Si Si5 0.499000 0.211131 0.290949
Si Si6 0.074030 0.846838 0.704763
Si Si7 0.090421 0.091994 0.707891
Si Si8 0.322451 0.463688 0.697522
O O1 0.374761 0.936570 0.500000
O O2 0.331164 0.874087 0.223417
O O3 0.255995 0.977566 0.307520
O O4 0.398763 0.008067 0.225256
O O5 0.677654 0.200643 0.500000
O O6 0.739626 0.255747 0.766612
O O7 0.586757 0.231803 0.765986
O O8 0.405915 0.082353 0.500000
O O9 0.327659 0.127165 0.228407
O O10 0.477637 0.134590 0.235033
O O11 0.750498 0.847985 0.500000
O O12 0.831360 0.870138 0.778278
O O13 0.498176 0.211572 0.500000
O O14 0.435964 0.266715 0.231758
O O15 0.080128 0.860310 0.500000
O O16 0.146855 0.886833 0.785806
O O17 0.992148 0.879252 0.776276
O O18 0.087947 0.101937 0.500000
O O19 0.106869 0.013010 0.744241
O O20 0.301806 0.478650 0.500000
#
# Coordination Sequence:
#
# PCOD9442560 Si02
#       8
#     8   8   8   8   8   8   8   8
#     4  10  21  41  62  84 116 158 202 240 290 354
#     4  10  22  37  59  89 121 153 192 249 296 339
#     4   9  19  37  62  85 114 154 196 242 290 347
#     4  10  19  36  61  85 114 156 198 236 287 353
#     4  10  21  38  59  90 122 151 195 248 299 340
#     4  11  23  39  59  85 119 161 199 235 287 358
#     4  10  20  38  62  85 114 158 199 232 283 359
#     4  12  25  38  57  88 121 153 192 248 301 344
#
# _framework density 25.015428
#
# number of rings (size 3 to 8) (size 9 to 14) (size 15 to 20)
#    0.000    1.750    2.500    1.875    1.750    4.000 
#    0.000    3.125    0.000    0.000    0.000    2.625 
#    0.000    0.000    0.000    0.000    0.000    0.000 
#
# Total GULP energy -357922.985528 kJ/mol
# GULP energy per Si atom -5592.546649 kJ/mol
# Density = 2.495849 g / cm^3
# Si number density = 25.015428 Si / 1000 Ang^3
#
#
#
# Elastic Constant Matrix: (Units=GPa)
#
#
# Indices 1 2 3 4 5 6 
#
# 1 58.0499 3.7821 1.0960 0.0000 0.0000 0.0000
# 2 3.7821 122.4329 -15.6275 0.0000 0.0000 0.0000
# 3 1.0960 -15.6275 52.4266 0.0000 0.0000 0.0000
# 4 0.0000 0.0000 0.0000 12.8188 0.0000 0.0000
# 5 0.0000 0.0000 0.0000 0.0000 6.8623 0.0000
# 6 0.0000 0.0000 0.0000 0.0000 0.0000 42.5283
#
#
#
# Elastic Compliance Matrix: (Units=1/GPa)
#
#
# Indices 1 2 3 4 5 6 
#
# 1 0.017276 -0.000603 -0.000541 0.000000 0.000000 0.000000
# 2 -0.000603 0.008512 0.002550 0.000000 0.000000 0.000000
# 3 -0.000541 0.002550 0.019846 0.000000 0.000000 0.000000
# 4 0.000000 0.000000 0.000000 0.078010 0.000000 0.000000
# 5 0.000000 0.000000 0.000000 0.000000 0.145723 0.000000
# 6 0.000000 0.000000 0.000000 0.000000 0.000000 0.023514
#
#
# Mechanical properties :
#
#
# Convention : Reuss Voigt Hill
#
# Bulk Modulus (GPa) = 20.64150 23.49007 22.06579
# Shear Modulus (GPa) = 16.32832 28.68581 22.50707
#
# Velocity S-wave (km/s) = 2.55763 3.39001 3.00280
# Velocity P-wave (km/s) = 4.12206 4.97328 4.56754
#
# Compressibility (1/GPa) = 0.04844609
#
# Stress axis : x y z
#
# Youngs Moduli (GPa) = 57.88365 117.48361 50.38889
#
# Poissons Ratio (x) = 0.07081 0.02725
# Poissons Ratio (y) = 0.03489 -0.12848
# Poissons Ratio (z) = 0.03131 -0.29956
#
# Static dielectric constant tensor:
#      x y z
#    x 1.980710 0.000000 0.000000 
#    y 0.000000 2.016070 0.000000 
#    z 0.000000 0.000000 1.936960 
# 
# From -- ./inp_files/8354.got.cif
#   From: 2010.05.17/outbox.cif.g08.bks.cpg/sg58_5_cif.got.tgz:8354.got - 2010.06.03 14:20:14.
