data_PCOD9442817
_publ_section_title
;
Structure prediction by ZEFSAII (Michael W. Deem and Ramdas Pophale) SiO2 
 PCOD9442817
Probable space group: P N N M
;
_chemical_formula_sum "Si O2"
_cell_formula_units_Z 40
_cell_length_a 24.379555
_cell_length_b 8.129973
_cell_length_c 7.335848
_cell_angle_alpha 90.000000
_cell_angle_beta 90.000000
_cell_angle_gamma 90.000000
_cell_volume 1454.002662
_symmetry_space_group_name_H-M "P N N M"
_symmetry_group_IT_number 58
_symmetry_cell_setting 'orthorhombic'
loop_
_space_group_symop_operation_xyz
x,y,z
-x,-y,z
1/2+x,1/2-y,1/2-z
1/2-x,1/2+y,1/2-z
-x,-y,-z
x,y,-z
1/2-x,1/2+y,1/2+z
1/2+x,1/2-y,1/2+z
loop_
_atom_site_type_symbol
_atom_site_label
_atom_site_fract_x
_atom_site_fract_y
_atom_site_fract_z
Si Si1 0.235448 0.033214 0.721499
Si Si2 0.836812 0.643708 0.209904
Si Si3 0.966788 0.342007 0.722815
Si Si4 0.935041 0.860812 0.708155
Si Si5 0.135751 0.831060 0.721703
O O1 0.236759 0.034429 0.500000
O O2 0.297506 0.000216 0.786269
O O3 0.196605 0.879693 0.781714
O O4 0.203584 0.196244 0.780513
O O5 0.893619 0.703976 0.295174
O O6 0.848300 0.611286 0.000000
O O7 0.967060 0.343698 0.500000
O O8 0.006609 0.193336 0.783015
O O9 0.000000 0.500000 0.785239
O O10 0.903851 0.317657 0.779147
O O11 0.944787 0.908787 0.500000
O O12 0.900030 0.010190 0.784701
O O13 0.137917 0.828980 0.500000
#
# Coordination Sequence:
#
# PCOD9442817 Si02
#       5
#     8   8   8   8   8
#     4   9  19  34  51  72  98 129 164 202 244 289
#     4  10  20  33  51  75 101 130 164 201 243 293
#     4   9  16  25  43  72  96 116 154 206 248 280
#     4   9  17  30  48  68  94 128 160 194 240 291
#     4   8  14  27  45  64  89 121 156 193 235 281
#
# _framework density 27.510265
#
# number of rings (size 3 to 8) (size 9 to 14) (size 15 to 20)
#    0.000    3.000    0.000    2.400    0.000    5.600 
#    0.000    4.000    0.000   10.200    0.000    0.000 
#    0.000    0.000    0.000    0.000    0.000    0.000 
#
# Total GULP energy -223648.471645 kJ/mol
# GULP energy per Si atom -5591.211791 kJ/mol
# Density = 2.744765 g / cm^3
# Si number density = 27.510265 Si / 1000 Ang^3
#
#
#
# Elastic Constant Matrix: (Units=GPa)
#
#
# Indices 1 2 3 4 5 6 
#
# 1 191.4486 9.2078 6.4726 0.0000 0.0000 0.0000
# 2 9.2078 65.4087 -0.4101 0.0000 0.0000 0.0000
# 3 6.4726 -0.4101 125.6199 0.0000 0.0000 0.0000
# 4 0.0000 0.0000 0.0000 9.5305 0.0000 0.0000
# 5 0.0000 0.0000 0.0000 0.0000 9.6373 0.0000
# 6 0.0000 0.0000 0.0000 0.0000 0.0000 64.3479
#
#
#
# Elastic Compliance Matrix: (Units=1/GPa)
#
#
# Indices 1 2 3 4 5 6 
#
# 1 0.005268 -0.000743 -0.000274 0.000000 0.000000 0.000000
# 2 -0.000743 0.015394 0.000089 0.000000 0.000000 0.000000
# 3 -0.000274 0.000089 0.007975 0.000000 0.000000 0.000000
# 4 0.000000 0.000000 0.000000 0.104926 0.000000 0.000000
# 5 0.000000 0.000000 0.000000 0.000000 0.103764 0.000000
# 6 0.000000 0.000000 0.000000 0.000000 0.000000 0.015541
#
#
# Mechanical properties :
#
#
# Convention : Reuss Voigt Hill
#
# Bulk Modulus (GPa) = 37.34186 45.89086 41.61636
# Shear Modulus (GPa) = 18.96443 41.18359 30.07401
#
# Velocity S-wave (km/s) = 2.62841 3.87334 3.30993
# Velocity P-wave (km/s) = 4.77647 6.05981 5.45600
#
# Compressibility (1/GPa) = 0.02677960
#
# Stress axis : x y z
#
# Youngs Moduli (GPa) = 189.81287 64.96170 125.39307
#
# Poissons Ratio (x) = 0.04829 0.03434
# Poissons Ratio (y) = 0.14110 -0.01110
# Poissons Ratio (z) = 0.05199 -0.00575
#
# Static dielectric constant tensor:
#      x y z
#    x 2.084110 0.000000 0.000000 
#    y 0.000000 2.277700 0.000000 
#    z 0.000000 0.000000 2.029190 
# 
# From -- ./inp_files/2422.got.cif
#   From: 2010.05.17/outbox.cif.g08.bks.cpg/sg58_2_cif.got.tgz:2422.got - 2010.06.03 14:20:14.
