data_PCOD9442866
_publ_section_title
;
Structure prediction by ZEFSAII (Michael W. Deem and Ramdas Pophale) SiO2 
 PCOD9442866
Probable space group: P N N M
;
_chemical_formula_sum "Si O2"
_cell_formula_units_Z 52
_cell_length_a 16.038050
_cell_length_b 7.475089
_cell_length_c 22.034294
_cell_angle_alpha 90.000000
_cell_angle_beta 90.000000
_cell_angle_gamma 90.000000
_cell_volume 2641.600090
_symmetry_space_group_name_H-M "P N N M"
_symmetry_group_IT_number 58
_symmetry_cell_setting 'orthorhombic'
loop_
_space_group_symop_operation_xyz
x,y,z
-x,-y,z
1/2+x,1/2-y,1/2-z
1/2-x,1/2+y,1/2-z
-x,-y,-z
x,y,-z
1/2-x,1/2+y,1/2+z
1/2+x,1/2-y,1/2+z
loop_
_atom_site_type_symbol
_atom_site_label
_atom_site_fract_x
_atom_site_fract_y
_atom_site_fract_z
Si Si1 0.043871 0.763758 0.066736
Si Si2 0.462730 0.804793 0.305694
Si Si3 0.801555 0.507417 0.932897
Si Si4 0.177194 0.063823 0.066374
Si Si5 0.500000 0.500000 0.212110
Si Si6 0.280701 0.640766 0.306322
Si Si7 0.317204 0.469962 0.821845
O O1 0.115907 0.612230 0.073564
O O2 0.989798 0.745925 0.126398
O O3 0.908673 0.046369 0.065387
O O4 0.004442 0.734312 0.000000
O O5 0.502478 0.668679 0.257540
O O6 0.363041 0.770664 0.303499
O O7 0.500000 0.000000 0.293695
O O8 0.822005 0.719867 0.932294
O O9 0.736914 0.467944 0.879206
O O10 0.766947 0.467336 0.000000
O O11 0.212298 0.018129 0.133467
O O12 0.216562 0.016389 0.000000
O O13 0.585194 0.488862 0.174762
O O14 0.283153 0.545261 0.241962
O O15 0.199336 0.758797 0.316180
#
# Coordination Sequence:
#
# PCOD9442866 Si02
#       7
#     8   8   8   8   4   8   8
#     4  10  20  33  56  83 116 155 182 220 272 335
#     4  11  22  36  53  78 116 148 184 227 272 338
#     4   9  19  36  57  84 112 147 194 233 276 339
#     4   9  18  34  52  78 112 147 184 222 266 323
#     4  10  24  40  54  82 112 138 192 240 288 330
#     4  10  22  34  55  83 104 151 188 227 280 330
#     4  10  21  37  58  80 110 144 186 240 282 333
#
# _framework density 19.685037999999999
#
# number of rings (size 3 to 8) (size 9 to 14) (size 15 to 20)
#    0.000    2.154    0.000    3.692    6.462    0.923 
#    0.000    2.308    0.000    0.000    0.000    0.000 
#    0.000   13.231    0.000    0.000    0.000    0.000 
#
# Total GULP energy -290211.842810 kJ/mol
# GULP energy per Si atom -5580.996977 kJ/mol
# Density = 1.964023 g / cm^3
# Si number density = 19.685038 Si / 1000 Ang^3
#
#
#
# Elastic Constant Matrix: (Units=GPa)
#
#
# Indices 1 2 3 4 5 6 
#
# 1 55.8722 10.8396 54.5644 0.0000 0.0000 0.0000
# 2 10.8396 73.6115 20.4345 0.0000 0.0000 0.0000
# 3 54.5644 20.4345 149.1516 0.0000 0.0000 0.0000
# 4 0.0000 0.0000 0.0000 24.3434 0.0000 0.0000
# 5 0.0000 0.0000 0.0000 0.0000 37.3881 0.0000
# 6 0.0000 0.0000 0.0000 0.0000 0.0000 25.2820
#
#
#
# Elastic Compliance Matrix: (Units=1/GPa)
#
#
# Indices 1 2 3 4 5 6 
#
# 1 0.027971 -0.001329 -0.010051 0.000000 0.000000 0.000000
# 2 -0.001329 0.014185 -0.001457 0.000000 0.000000 0.000000
# 3 -0.010051 -0.001457 0.010581 0.000000 0.000000 0.000000
# 4 0.000000 0.000000 0.000000 0.041079 0.000000 0.000000
# 5 0.000000 0.000000 0.000000 0.000000 0.026746 0.000000
# 6 0.000000 0.000000 0.000000 0.000000 0.000000 0.039554
#
#
# Mechanical properties :
#
#
# Convention : Reuss Voigt Hill
#
# Bulk Modulus (GPa) = 36.94980 50.03471 43.49225
# Shear Modulus (GPa) = 25.66581 30.25581 27.96081
#
# Velocity S-wave (km/s) = 3.61477 3.92471 3.77292
# Velocity P-wave (km/s) = 6.01941 6.78311 6.41264
#
# Compressibility (1/GPa) = 0.02706375
#
# Stress axis : x y z
#
# Youngs Moduli (GPa) = 35.75096 70.49677 94.50795
#
# Poissons Ratio (x) = 0.09368 0.94987
# Poissons Ratio (y) = 0.04751 0.13773
# Poissons Ratio (z) = 0.35932 0.10273
#
# Static dielectric constant tensor:
#      x y z
#    x 1.705740 0.000000 0.000000 
#    y 0.000000 1.758670 0.000000 
#    z 0.000000 0.000000 1.734660 
# 
# From -- ./inp_files/29972.got.cif
#   From: 2010.05.17/outbox.cif.g08.bks.cpg/sg58_15_cif.got.tgz:29972.got - 2010.06.03 14:20:14.
