data_PCOD9442542
_publ_section_title
;
Structure prediction by ZEFSAII (Michael W. Deem and Ramdas Pophale) SiO2 
 PCOD9442542
Probable space group: P N N M
;
_chemical_formula_sum "Si O2"
_cell_formula_units_Z 64
_cell_length_a 15.802304
_cell_length_b 24.902846
_cell_length_c 7.478010
_cell_angle_alpha 90.000000
_cell_angle_beta 90.000000
_cell_angle_gamma 90.000000
_cell_volume 2942.764016
_symmetry_space_group_name_H-M "P N N M"
_symmetry_group_IT_number 58
_symmetry_cell_setting 'orthorhombic'
loop_
_space_group_symop_operation_xyz
x,y,z
-x,-y,z
1/2+x,1/2-y,1/2-z
1/2-x,1/2+y,1/2-z
-x,-y,-z
x,y,-z
1/2-x,1/2+y,1/2+z
1/2+x,1/2-y,1/2+z
loop_
_atom_site_type_symbol
_atom_site_label
_atom_site_fract_x
_atom_site_fract_y
_atom_site_fract_z
Si Si1 0.752437 0.575077 0.286490
Si Si2 0.585847 0.277635 0.789616
Si Si3 0.599856 0.763610 0.284104
Si Si4 0.147971 0.111413 0.714780
Si Si5 0.903944 0.492410 0.215600
Si Si6 0.233872 0.302003 0.281035
Si Si7 0.593748 0.506494 0.295170
Si Si8 0.657373 0.877314 0.716054
O O1 0.741722 0.578413 0.500000
O O2 0.834980 0.538074 0.257057
O O3 0.766228 0.635941 0.220660
O O4 0.666883 0.545368 0.217067
O O5 0.490863 0.258180 0.768793
O O6 0.593484 0.338332 0.718735
O O7 0.654212 0.234333 0.720157
O O8 0.606286 0.282668 0.000000
O O9 0.603499 0.764522 0.500000
O O10 0.679218 0.727346 0.226388
O O11 0.610345 0.824547 0.218368
O O12 0.138046 0.104354 0.500000
O O13 0.130283 0.053598 0.795556
O O14 0.243790 0.128473 0.751815
O O15 0.872722 0.434722 0.283334
O O16 0.000000 0.500000 0.279186
O O17 0.906871 0.490361 0.000000
O O18 0.231571 0.302985 0.500000
O O19 0.500000 0.500000 0.212020
O O20 0.579956 0.525138 0.500000
O O21 0.647867 0.878495 0.500000
#
# Coordination Sequence:
#
# PCOD9442542 Si02
#       8
#     8   8   8   8   8   8   8   8
#     4  10  21  37  55  78 110 146 182 220 268 326
#     4  10  21  37  56  82 111 141 181 227 271 318
#     4  10  20  36  60  83 105 143 187 221 267 328
#     4  10  19  36  60  80 105 143 186 226 269 326
#     4  10  21  36  56  81 111 143 179 226 274 319
#     4   9  19  37  57  76 108 150 181 213 269 335
#     4  10  22  37  55  82 113 143 182 230 273 318
#     4   9  17  34  57  79 104 139 182 222 266 323
#
# _framework density 21.748262
#
# number of rings (size 3 to 8) (size 9 to 14) (size 15 to 20)
#    0.000    2.250    2.500    0.000    3.500    1.000 
#    0.000    2.500    0.000    0.000    0.000    0.000 
#    0.000    0.000    0.000    0.000    0.000    0.000 
#
# Total GULP energy -357308.867117 kJ/mol
# GULP energy per Si atom -5582.951049 kJ/mol
# Density = 2.169876 g / cm^3
# Si number density = 21.748262 Si / 1000 Ang^3
#
#
#
# Elastic Constant Matrix: (Units=GPa)
#
#
# Indices 1 2 3 4 5 6 
#
# 1 75.6801 7.8673 -6.6368 0.0000 0.0000 0.0000
# 2 7.8673 112.8175 -6.3310 0.0000 0.0000 0.0000
# 3 -6.6368 -6.3310 57.8532 0.0000 0.0000 0.0000
# 4 0.0000 0.0000 0.0000 -65.8863 0.0000 0.0000
# 5 0.0000 0.0000 0.0000 0.0000 3.1205 0.0000
# 6 0.0000 0.0000 0.0000 0.0000 0.0000 41.8147
#
#
#
# Elastic Compliance Matrix: (Units=1/GPa)
#
#
# Indices 1 2 3 4 5 6 
#
# 1 0.013429 -0.000855 0.001447 0.000000 0.000000 0.000000
# 2 -0.000855 0.008973 0.000884 0.000000 0.000000 0.000000
# 3 0.001447 0.000884 0.017548 0.000000 0.000000 0.000000
# 4 0.000000 0.000000 0.000000 -0.015178 0.000000 0.000000
# 5 0.000000 0.000000 0.000000 0.000000 0.320458 0.000000
# 6 0.000000 0.000000 0.000000 0.000000 0.000000 0.023915
#
#
# Mechanical properties :
#
#
# Convention : Reuss Voigt Hill
#
# Bulk Modulus (GPa) = 23.30930 26.23887 24.77409
# Shear Modulus (GPa) = 13.14078 12.57320 12.85699
#
# Velocity S-wave (km/s) = 2.46076 2.40703 2.43404
# Velocity P-wave (km/s) = 4.33761 4.45152 4.39493
#
# Compressibility (1/GPa) = 0.04290133
#
# Stress axis : x y z
#
# Youngs Moduli (GPa) = 74.46391 111.44407 56.98706
#
# Poissons Ratio (x) = 0.09532 -0.08246
# Poissons Ratio (y) = 0.06369 -0.05037
# Poissons Ratio (z) = -0.10775 -0.09850
#
# Static dielectric constant tensor:
#      x y z
#    x 1.767600 0.000000 0.000000 
#    y 0.000000 1.817030 0.000000 
#    z 0.000000 0.000000 1.862860 
# 
# From -- ./inp_files/6846.got.cif
#   From: 2010.05.17/outbox.cif.g08.bks.cpg/sg58_4_cif.got.tgz:6846.got - 2010.06.03 14:20:14.
