data_PCOD9442771
_publ_section_title
;
Structure prediction by ZEFSAII (Michael W. Deem and Ramdas Pophale) SiO2 
 PCOD9442771
Probable space group: P N N M
;
_chemical_formula_sum "Si O2"
_cell_formula_units_Z 58
_cell_length_a 15.000790
_cell_length_b 24.826587
_cell_length_c 9.052019
_cell_angle_alpha 90.000000
_cell_angle_beta 90.000000
_cell_angle_gamma 90.000000
_cell_volume 3371.138596
_symmetry_space_group_name_H-M "P N N M"
_symmetry_group_IT_number 58
_symmetry_cell_setting 'orthorhombic'
loop_
_space_group_symop_operation_xyz
x,y,z
-x,-y,z
1/2+x,1/2-y,1/2-z
1/2-x,1/2+y,1/2-z
-x,-y,-z
x,y,-z
1/2-x,1/2+y,1/2+z
1/2+x,1/2-y,1/2+z
loop_
_atom_site_type_symbol
_atom_site_label
_atom_site_fract_x
_atom_site_fract_y
_atom_site_fract_z
Si Si1 0.185347 0.499435 0.162825
Si Si2 0.389736 0.203668 0.174586
Si Si3 0.239878 0.617710 0.177993
Si Si4 0.105309 0.817430 0.823416
Si Si5 0.603287 0.320113 0.675893
Si Si6 0.268148 0.889947 0.822979
Si Si7 0.000000 0.500000 0.000000
Si Si8 0.600978 0.206219 0.824470
O O1 0.216523 0.556835 0.224548
O O2 0.210559 0.447523 0.255729
O O3 0.079934 0.501375 0.126388
O O4 0.228847 0.493435 0.000000
O O5 0.333619 0.158641 0.258299
O O6 0.369192 0.262633 0.239781
O O7 0.495857 0.195277 0.196436
O O8 0.370842 0.202021 0.000000
O O9 0.333628 0.638002 0.241484
O O10 0.238361 0.620011 0.000000
O O11 0.172005 0.865302 0.782279
O O12 0.001596 0.829330 0.793383
O O13 0.114163 0.807868 0.000000
O O14 0.617441 0.322386 0.500000
O O15 0.624592 0.260244 0.736170
O O16 0.340801 0.844889 0.777484
O O17 0.271902 0.893804 0.000000
O O18 0.616172 0.215724 0.000000
#
# Coordination Sequence:
#
# PCOD9442771 Si02
#       8
#     8   8   8   8   8   8   2   8
#     4   9  22  38  58  77 105 140 179 219 266 320
#     4  10  20  32  52  83 114 142 181 219 266 326
#     4  11  22  36  54  76 105 144 181 225 278 321
#     4   9  19  36  55  80 112 146 178 220 273 325
#     4  10  20  35  55  80 108 144 184 224 268 321
#     4  10  20  35  56  80 108 140 180 221 268 319
#     4   8  20  44  58  76 110 136 186 220 264 322
#     4   9  19  33  52  82 116 145 172 216 273 328
#
# _framework density 17.20487
#
# number of rings (size 3 to 8) (size 9 to 14) (size 15 to 20)
#    0.414    1.931    0.000    2.069    1.931    4.414 
#    0.000    1.034    0.000    4.138    0.000    0.000 
#    0.000    0.000    0.000    0.000    0.000    0.000 
#
# Total GULP energy -322942.190534 kJ/mol
# GULP energy per Si atom -5567.968802 kJ/mol
# Density = 1.716571 g / cm^3
# Si number density = 17.204870 Si / 1000 Ang^3
#
#
#
# Elastic Constant Matrix: (Units=GPa)
#
#
# Indices 1 2 3 4 5 6 
#
# 1 95.2814 96.4578 49.1942 0.0000 0.0000 0.0000
# 2 96.4578 164.6803 60.6961 0.0000 0.0000 0.0000
# 3 49.1942 60.6961 48.6245 0.0000 0.0000 0.0000
# 4 0.0000 0.0000 0.0000 28.5328 0.0000 0.0000
# 5 0.0000 0.0000 0.0000 0.0000 13.0664 0.0000
# 6 0.0000 0.0000 0.0000 0.0000 0.0000 3.3002
#
#
#
# Elastic Compliance Matrix: (Units=1/GPa)
#
#
# Indices 1 2 3 4 5 6 
#
# 1 0.031552 -0.012438 -0.016396 0.000000 0.000000 0.000000
# 2 -0.012438 0.016150 -0.007575 0.000000 0.000000 0.000000
# 3 -0.016396 -0.007575 0.046610 0.000000 0.000000 0.000000
# 4 0.000000 0.000000 0.000000 0.035047 0.000000 0.000000
# 5 0.000000 0.000000 0.000000 0.000000 0.076532 0.000000
# 6 0.000000 0.000000 0.000000 0.000000 0.000000 0.303014
#
#
# Mechanical properties :
#
#
# Convention : Reuss Voigt Hill
#
# Bulk Modulus (GPa) = 46.52654 80.14248 63.33451
# Shear Modulus (GPa) = 8.49058 15.79574 12.14316
#
# Velocity S-wave (km/s) = 2.22389 3.03330 2.65957
# Velocity P-wave (km/s) = 5.80479 7.67791 6.80610
#
# Compressibility (1/GPa) = 0.02149311
#
# Stress axis : x y z
#
# Youngs Moduli (GPa) = 31.69383 61.92112 21.45464
#
# Poissons Ratio (x) = 0.77016 0.35177
# Poissons Ratio (y) = 0.39420 0.16253
# Poissons Ratio (z) = 0.51965 0.46908
#
# Static dielectric constant tensor:
#      x y z
#    x 1.592540 0.000000 0.000000 
#    y 0.000000 1.554160 0.000000 
#    z 0.000000 0.000000 1.581440 
# 
# From -- ./inp_files/6675.got.cif
#   From: 2010.05.17/outbox.cif.g08.bks.cpg/sg58_4_cif.got.tgz:6675.got - 2010.06.03 14:20:14.
