data_PCOD9442988
_publ_section_title
;
Structure prediction by ZEFSAII (Michael W. Deem and Ramdas Pophale) SiO2 
 PCOD9442988
Probable space group: P N N M
;
_chemical_formula_sum "Si O2"
_cell_formula_units_Z 56
_cell_length_a 14.786682
_cell_length_b 21.875755
_cell_length_c 9.135931
_cell_angle_alpha 90.000000
_cell_angle_beta 90.000000
_cell_angle_gamma 90.000000
_cell_volume 2955.198072
_symmetry_space_group_name_H-M "P N N M"
_symmetry_group_IT_number 58
_symmetry_cell_setting 'orthorhombic'
loop_
_space_group_symop_operation_xyz
x,y,z
-x,-y,z
1/2+x,1/2-y,1/2-z
1/2-x,1/2+y,1/2-z
-x,-y,-z
x,y,-z
1/2-x,1/2+y,1/2+z
1/2+x,1/2-y,1/2+z
loop_
_atom_site_type_symbol
_atom_site_label
_atom_site_fract_x
_atom_site_fract_y
_atom_site_fract_z
Si Si1 0.675909 0.272556 0.674784
Si Si2 0.647401 0.464272 0.169397
Si Si3 0.520083 0.345328 0.169220
Si Si4 0.497747 0.070684 0.178026
Si Si5 0.799352 0.387342 0.323938
Si Si6 0.869338 0.088332 0.829510
Si Si7 0.325215 0.855671 0.827665
O O1 0.667779 0.271114 0.500000
O O2 0.583660 0.297999 0.746283
O O3 0.755191 0.321492 0.711734
O O4 0.692319 0.205989 0.739330
O O5 0.575207 0.409340 0.173847
O O6 0.736999 0.437660 0.245880
O O7 0.613497 0.523439 0.254377
O O8 0.663916 0.479828 0.000000
O O9 0.426255 0.359364 0.248406
O O10 0.508058 0.327537 0.000000
O O11 0.403431 0.102935 0.218854
O O12 0.585662 0.108575 0.225178
O O13 0.500000 0.000000 0.227363
O O14 0.500770 0.069282 0.000000
O O15 0.792462 0.395461 0.500000
O O16 0.762952 0.102033 0.817146
O O17 0.894706 0.086833 0.000000
O O18 0.337629 0.840385 0.000000
#
# Coordination Sequence:
#
# PCOD9442988 Si02
#       7
#     8   8   8   8   8   8   8
#     4  10  21  37  56  81 111 143 184 228 273 332
#     4  10  20  34  54  82 113 143 177 220 273 330
#     4  10  21  37  57  80 109 145 183 226 277 331
#     4   9  17  33  58  84 108 139 183 231 280 335
#     4   9  18  34  57  81 106 141 182 223 271 329
#     4  11  22  35  54  81 112 146 183 224 272 326
#     4  10  22  38  56  80 111 146 184 229 278 329
#
# _framework density 18.949660000000002
#
# number of rings (size 3 to 8) (size 9 to 14) (size 15 to 20)
#    0.000    2.143    0.000    3.000    0.000    8.571 
#    0.000    2.143    0.000    1.714    0.000    0.000 
#    0.000    0.000    0.000    0.000    0.000    0.000 
#
# Total GULP energy -312706.985653 kJ/mol
# GULP energy per Si atom -5584.053315 kJ/mol
# Density = 1.890653 g / cm^3
# Si number density = 18.949660 Si / 1000 Ang^3
#
#
#
# Elastic Constant Matrix: (Units=GPa)
#
#
# Indices 1 2 3 4 5 6 
#
# 1 89.0438 2.7165 25.2103 0.0000 0.0000 0.0000
# 2 2.7165 64.9667 26.0687 0.0000 0.0000 0.0000
# 3 25.2103 26.0687 62.9492 0.0000 0.0000 0.0000
# 4 0.0000 0.0000 0.0000 24.7541 0.0000 0.0000
# 5 0.0000 0.0000 0.0000 0.0000 -19.4521 0.0000
# 6 0.0000 0.0000 0.0000 0.0000 0.0000 14.3240
#
#
#
# Elastic Compliance Matrix: (Units=1/GPa)
#
#
# Indices 1 2 3 4 5 6 
#
# 1 0.012846 0.001832 -0.005903 0.000000 0.000000 0.000000
# 2 0.001832 0.018721 -0.008486 0.000000 0.000000 0.000000
# 3 -0.005903 -0.008486 0.021764 0.000000 0.000000 0.000000
# 4 0.000000 0.000000 0.000000 0.040397 0.000000 0.000000
# 5 0.000000 0.000000 0.000000 0.000000 -0.051408 0.000000
# 6 0.000000 0.000000 0.000000 0.000000 0.000000 0.069813
#
#
# Mechanical properties :
#
#
# Convention : Reuss Voigt Hill
#
# Bulk Modulus (GPa) = 35.44145 36.10563 35.77354
# Shear Modulus (GPa) = 34.09376 14.78947 24.44161
#
# Velocity S-wave (km/s) = 4.24627 2.79670 3.59530
# Velocity P-wave (km/s) = 6.54100 5.43356 6.01283
#
# Compressibility (1/GPa) = 0.02821555
#
# Stress axis : x y z
#
# Youngs Moduli (GPa) = 77.84617 53.41543 45.94674
#
# Poissons Ratio (x) = -0.09783 0.27123
# Poissons Ratio (y) = -0.14258 0.38992
# Poissons Ratio (z) = 0.45953 0.45330
#
# Static dielectric constant tensor:
#      x y z
#    x 1.661310 0.000000 0.000000 
#    y 0.000000 1.641440 0.000000 
#    z 0.000000 0.000000 1.638690 
# 
# From -- ./inp_files/6444.got.cif
#   From: 2010.05.17/outbox.cif.g08.bks.cpg/sg58_4_cif.got.tgz:6444.got - 2010.06.03 14:20:14.
