data_PCOD9442096
_publ_section_title
;
Structure prediction by ZEFSAII (Michael W. Deem and Ramdas Pophale) SiO2 
 PCOD9442096
Probable space group: P N N M
;
_chemical_formula_sum "Si O2"
_cell_formula_units_Z 64
_cell_length_a 25.484855
_cell_length_b 14.477991
_cell_length_c 8.382047
_cell_angle_alpha 90.000000
_cell_angle_beta 90.000000
_cell_angle_gamma 90.000000
_cell_volume 3092.719702
_symmetry_space_group_name_H-M "P N N M"
_symmetry_group_IT_number 58
_symmetry_cell_setting 'orthorhombic'
loop_
_space_group_symop_operation_xyz
x,y,z
-x,-y,z
1/2+x,1/2-y,1/2-z
1/2-x,1/2+y,1/2-z
-x,-y,-z
x,y,-z
1/2-x,1/2+y,1/2+z
1/2+x,1/2-y,1/2+z
loop_
_atom_site_type_symbol
_atom_site_label
_atom_site_fract_x
_atom_site_fract_y
_atom_site_fract_z
Si Si1 0.058369 0.031020 0.192710
Si Si2 0.409780 0.736228 0.690511
Si Si3 0.104072 0.850827 0.691935
Si Si4 0.671284 0.988525 0.191893
Si Si5 0.200633 0.319167 0.191844
Si Si6 0.515938 0.778581 0.183421
Si Si7 0.943892 0.477365 0.685416
Si Si8 0.196441 0.716960 0.810304
O O1 0.075355 0.133047 0.248511
O O2 0.100589 0.955334 0.248731
O O3 0.056964 0.032068 0.000000
O O4 0.000000 0.000000 0.249297
O O5 0.405336 0.731479 0.500000
O O6 0.355181 0.777699 0.750868
O O7 0.460847 0.796263 0.732963
O O8 0.102826 0.848370 0.500000
O O9 0.050226 0.803539 0.755471
O O10 0.152209 0.788181 0.747927
O O11 0.003172 0.742474 0.500000
O O12 0.611670 0.005778 0.254914
O O13 0.688611 0.886760 0.244723
O O14 0.704980 0.074676 0.252177
O O15 0.247870 0.257856 0.256944
O O16 0.201519 0.317028 0.000000
O O17 0.554159 0.866393 0.182571
O O18 0.554101 0.011582 0.000000
O O19 0.830560 0.489391 0.500000
O O20 0.000000 0.500000 0.761699
O O21 0.192843 0.713233 0.000000
#
# Coordination Sequence:
#
# PCOD9442096 Si02
#       8
#     8   8   8   8   8   8   8   8
#     4  10  20  36  59  88 127 173 218 262 316 385
#     4  10  22  39  60  89 127 169 210 263 321 377
#     4  11  22  38  61  91 125 164 211 266 322 378
#     4  11  22  42  69  96 130 167 209 262 320 383
#     4  11  25  45  66  93 129 167 215 269 324 384
#     4  10  19  33  56  87 123 162 205 254 312 378
#     4   9  17  31  55  88 124 163 204 248 304 373
#     4  12  26  45  69  94 125 169 219 269 323 381
#
# _framework density 20.693760000000001
#
# number of rings (size 3 to 8) (size 9 to 14) (size 15 to 20)
#    0.000    1.500    2.500    3.000    0.000    4.250 
#    0.000    3.750    0.000    2.625    0.000    0.000 
#    0.000    0.000    0.000    0.000    0.000    0.000 
#
# Total GULP energy -357406.196707 kJ/mol
# GULP energy per Si atom -5584.471824 kJ/mol
# Density = 2.064666 g / cm^3
# Si number density = 20.693760 Si / 1000 Ang^3
#
#
#
# Elastic Constant Matrix: (Units=GPa)
#
#
# Indices 1 2 3 4 5 6 
#
# 1 104.5898 36.2874 5.2817 0.0000 0.0000 0.0000
# 2 36.2874 95.9617 12.4815 0.0000 0.0000 0.0000
# 3 5.2817 12.4815 35.9679 0.0000 0.0000 0.0000
# 4 0.0000 0.0000 0.0000 21.2090 0.0000 0.0000
# 5 0.0000 0.0000 0.0000 0.0000 24.5153 0.0000
# 6 0.0000 0.0000 0.0000 0.0000 0.0000 32.6894
#
#
#
# Elastic Compliance Matrix: (Units=1/GPa)
#
#
# Indices 1 2 3 4 5 6 
#
# 1 0.011006 -0.004138 -0.000180 0.000000 0.000000 0.000000
# 2 -0.004138 0.012470 -0.003719 0.000000 0.000000 0.000000
# 3 -0.000180 -0.003719 0.029120 0.000000 0.000000 0.000000
# 4 0.000000 0.000000 0.000000 0.047150 0.000000 0.000000
# 5 0.000000 0.000000 0.000000 0.000000 0.040791 0.000000
# 6 0.000000 0.000000 0.000000 0.000000 0.000000 0.030591
#
#
# Mechanical properties :
#
#
# Convention : Reuss Voigt Hill
#
# Bulk Modulus (GPa) = 27.38273 38.29118 32.83696
# Shear Modulus (GPa) = 25.07825 27.84732 26.46279
#
# Velocity S-wave (km/s) = 3.48498 3.67234 3.57988
# Velocity P-wave (km/s) = 5.42720 6.04362 5.74369
#
# Compressibility (1/GPa) = 0.03651937
#
# Stress axis : x y z
#
# Youngs Moduli (GPa) = 90.85873 80.19545 34.34104
#
# Poissons Ratio (x) = 0.33189 0.00618
# Poissons Ratio (y) = 0.37602 0.12773
# Poissons Ratio (z) = 0.01636 0.29828
#
# Static dielectric constant tensor:
#      x y z
#    x 1.747390 0.000000 0.000000 
#    y 0.000000 1.756140 0.000000 
#    z 0.000000 0.000000 1.715590 
# 
# From -- ./inp_files/9958.got.cif
#   From: 2010.05.17/outbox.cif.g08.bks.cpg/sg58_5_cif.got.tgz:9958.got - 2010.06.03 14:20:14.
