data_PCOD9442213
_publ_section_title
;
Structure prediction by ZEFSAII (Michael W. Deem and Ramdas Pophale) SiO2 
 PCOD9442213
Probable space group: P N N M
;
_chemical_formula_sum "Si O2"
_cell_formula_units_Z 64
_cell_length_a 14.032331
_cell_length_b 24.460797
_cell_length_c 9.167113
_cell_angle_alpha 90.000000
_cell_angle_beta 90.000000
_cell_angle_gamma 90.000000
_cell_volume 3146.538201
_symmetry_space_group_name_H-M "P N N M"
_symmetry_group_IT_number 58
_symmetry_cell_setting 'orthorhombic'
loop_
_space_group_symop_operation_xyz
x,y,z
-x,-y,z
1/2+x,1/2-y,1/2-z
1/2-x,1/2+y,1/2-z
-x,-y,-z
x,y,-z
1/2-x,1/2+y,1/2+z
1/2+x,1/2-y,1/2+z
loop_
_atom_site_type_symbol
_atom_site_label
_atom_site_fract_x
_atom_site_fract_y
_atom_site_fract_z
Si Si1 0.714584 0.960342 0.669031
Si Si2 0.941912 0.944803 0.661021
Si Si3 0.585641 0.161616 0.676750
Si Si4 0.585884 0.043116 0.825845
Si Si5 0.774434 0.229927 0.324988
Si Si6 0.209247 0.646177 0.664288
Si Si7 0.017274 0.757012 0.671869
Si Si8 0.431716 0.651839 0.658247
O O1 0.685760 0.965820 0.500000
O O2 0.829529 0.957553 0.673694
O O3 0.674370 0.903547 0.736714
O O4 0.676926 0.010741 0.763193
O O5 0.955094 0.919440 0.500000
O O6 0.978700 0.902317 0.779741
O O7 0.000000 0.000000 0.668633
O O8 0.581579 0.159690 0.500000
O O9 0.577611 0.101319 0.744932
O O10 0.686841 0.191531 0.721348
O O11 0.503384 0.201011 0.741808
O O12 0.500000 0.000000 0.797188
O O13 0.591206 0.051626 0.000000
O O14 0.759790 0.236198 0.500000
O O15 0.787134 0.292638 0.271761
O O16 0.882845 0.211192 0.299302
O O17 0.165689 0.645677 0.500000
O O18 0.321663 0.635942 0.645779
O O19 0.011505 0.746522 0.500000
O O20 0.939275 0.799067 0.729318
O O21 0.466903 0.669971 0.500000
#
# Coordination Sequence:
#
# PCOD9442213 Si02
#       8
#     8   8   8   8   8   8   8   8
#     4  10  21  37  59  89 117 150 200 256 304 351
#     4   9  19  36  58  85 119 158 198 242 300 369
#     4  11  23  44  67  92 127 163 207 262 311 360
#     4  11  26  46  65  87 121 169 214 255 312 376
#     4   9  20  38  61  87 120 162 197 237 307 375
#     4   9  17  35  59  81 112 154 195 238 300 368
#     4  11  22  37  60  90 122 161 204 243 303 377
#     4  10  19  34  56  82 116 154 195 245 297 348
#
# _framework density 20.339814000000001
#
# number of rings (size 3 to 8) (size 9 to 14) (size 15 to 20)
#    0.000    2.000    1.250    1.875    1.750    3.250 
#    0.000    8.125    0.000    0.000    0.000    0.000 
#    0.000    0.000    0.000    0.000    0.000    0.000 
#
# Total GULP energy -356625.175929 kJ/mol
# GULP energy per Si atom -5572.268374 kJ/mol
# Density = 2.029352 g / cm^3
# Si number density = 20.339814 Si / 1000 Ang^3
#
#
#
# Elastic Constant Matrix: (Units=GPa)
#
#
# Indices 1 2 3 4 5 6 
#
# 1 49.5944 31.1412 37.8509 0.0000 0.0000 0.0000
# 2 31.1412 111.3533 50.0396 0.0000 0.0000 0.0000
# 3 37.8509 50.0396 88.5303 0.0000 0.0000 0.0000
# 4 0.0000 0.0000 0.0000 34.6847 0.0000 0.0000
# 5 0.0000 0.0000 0.0000 0.0000 12.3047 0.0000
# 6 0.0000 0.0000 0.0000 0.0000 0.0000 24.7847
#
#
#
# Elastic Compliance Matrix: (Units=1/GPa)
#
#
# Indices 1 2 3 4 5 6 
#
# 1 0.030991 -0.003636 -0.011195 0.000000 0.000000 0.000000
# 2 -0.003636 0.012465 -0.005491 0.000000 0.000000 0.000000
# 3 -0.011195 -0.005491 0.019185 0.000000 0.000000 0.000000
# 4 0.000000 0.000000 0.000000 0.028831 0.000000 0.000000
# 5 0.000000 0.000000 0.000000 0.000000 0.081269 0.000000
# 6 0.000000 0.000000 0.000000 0.000000 0.000000 0.040347
#
#
# Mechanical properties :
#
#
# Convention : Reuss Voigt Hill
#
# Bulk Modulus (GPa) = 45.45986 54.17127 49.81556
# Shear Modulus (GPa) = 19.15234 23.05126 21.10180
#
# Velocity S-wave (km/s) = 3.07191 3.37011 3.22446
# Velocity P-wave (km/s) = 5.91446 6.46796 6.19739
#
# Compressibility (1/GPa) = 0.02199743
#
# Stress axis : x y z
#
# Youngs Moduli (GPa) = 32.26775 80.22626 52.12321
#
# Poissons Ratio (x) = 0.29173 0.58350
# Poissons Ratio (y) = 0.11733 0.28619
# Poissons Ratio (z) = 0.36123 0.44050
#
# Static dielectric constant tensor:
#      x y z
#    x 1.796510 0.000000 0.000000 
#    y 0.000000 1.724850 0.000000 
#    z 0.000000 0.000000 1.747100 
# 
# From -- ./inp_files/6883.got.cif
#   From: 2010.05.17/outbox.cif.g08.bks.cpg/sg58_4_cif.got.tgz:6883.got - 2010.06.03 14:20:14.
