data_PCOD9442930
_publ_section_title
;
Structure prediction by ZEFSAII (Michael W. Deem and Ramdas Pophale) SiO2 
 PCOD9442930
Probable space group: P N N M
;
_chemical_formula_sum "Si O2"
_cell_formula_units_Z 32
_cell_length_a 7.153100
_cell_length_b 18.686560
_cell_length_c 10.174387
_cell_angle_alpha 90.000000
_cell_angle_beta 90.000000
_cell_angle_gamma 90.000000
_cell_volume 1359.978081
_symmetry_space_group_name_H-M "P N N M"
_symmetry_group_IT_number 58
_symmetry_cell_setting 'orthorhombic'
loop_
_space_group_symop_operation_xyz
x,y,z
-x,-y,z
1/2+x,1/2-y,1/2-z
1/2-x,1/2+y,1/2-z
-x,-y,-z
x,y,-z
1/2-x,1/2+y,1/2+z
1/2+x,1/2-y,1/2+z
loop_
_atom_site_type_symbol
_atom_site_label
_atom_site_fract_x
_atom_site_fract_y
_atom_site_fract_z
Si Si1 0.204651 0.441230 0.855521
Si Si2 0.537574 0.289413 0.643534
Si Si3 0.401251 0.566808 0.246191
Si Si4 0.104921 0.332497 0.647876
O O1 0.422865 0.414173 0.847961
O O2 0.238906 0.525558 0.830505
O O3 0.100753 0.403945 0.735214
O O4 0.130403 0.426437 0.000000
O O5 0.595281 0.260537 0.500000
O O6 0.652162 0.361405 0.679828
O O7 0.325964 0.316650 0.632950
O O8 0.538095 0.231904 0.759253
O O9 0.500000 0.500000 0.326548
O O10 0.027695 0.336362 0.500000
#
# Coordination Sequence:
#
# PCOD9442930 Si02
#       4
#     8   8   8   8
#     4   8  14  27  47  71  97 128 162 203 251 298
#     4  10  20  34  52  77 105 138 171 209 258 306
#     4   7  15  27  48  78  99 123 167 216 254 292
#     4  10  21  33  49  75 106 137 172 212 254 303
#
# _framework density 23.529789999999998
#
# number of rings (size 3 to 8) (size 9 to 14) (size 15 to 20)
#    1.500    1.500    0.000    2.250    0.000    7.500 
#    0.000    0.000    0.000    1.500    0.000    8.750 
#    0.000    0.000    0.000    0.000    0.000    0.000 
#
# Total GULP energy -178154.323672 kJ/mol
# GULP energy per Si atom -5567.322615 kJ/mol
# Density = 2.347624 g / cm^3
# Si number density = 23.529790 Si / 1000 Ang^3
#
#
#
# Elastic Constant Matrix: (Units=GPa)
#
#
# Indices 1 2 3 4 5 6 
#
# 1 33.3450 29.4449 39.7388 0.0000 0.0000 0.0000
# 2 29.4449 67.8065 65.5460 0.0000 0.0000 0.0000
# 3 39.7388 65.5460 217.8341 0.0000 0.0000 0.0000
# 4 0.0000 0.0000 0.0000 15.3503 0.0000 0.0000
# 5 0.0000 0.0000 0.0000 0.0000 26.3274 0.0000
# 6 0.0000 0.0000 0.0000 0.0000 0.0000 36.9690
#
#
#
# Elastic Compliance Matrix: (Units=1/GPa)
#
#
# Indices 1 2 3 4 5 6 
#
# 1 0.050670 -0.018428 -0.003699 0.000000 0.000000 0.000000
# 2 -0.018428 0.027499 -0.004913 0.000000 0.000000 0.000000
# 3 -0.003699 -0.004913 0.006744 0.000000 0.000000 0.000000
# 4 0.000000 0.000000 0.000000 0.065145 0.000000 0.000000
# 5 0.000000 0.000000 0.000000 0.000000 0.037983 0.000000
# 6 0.000000 0.000000 0.000000 0.000000 0.000000 0.027050
#
#
# Mechanical properties :
#
#
# Convention : Reuss Voigt Hill
#
# Bulk Modulus (GPa) = 32.43171 65.38277 48.90724
# Shear Modulus (GPa) = 17.89244 28.01306 22.95275
#
# Velocity S-wave (km/s) = 2.76056 3.45416 3.12665
# Velocity P-wave (km/s) = 4.89633 6.61482 5.81936
#
# Compressibility (1/GPa) = 0.03083402
#
# Stress axis : x y z
#
# Youngs Moduli (GPa) = 19.73556 36.36484 148.28897
#
# Poissons Ratio (x) = 0.67013 0.54846
# Poissons Ratio (y) = 0.36369 0.72850
# Poissons Ratio (z) = 0.07299 0.17865
#
# Static dielectric constant tensor:
#      x y z
#    x 1.976150 0.000000 0.000000 
#    y 0.000000 1.957590 0.000000 
#    z 0.000000 0.000000 1.855620 
# 
# From -- ./inp_files/2368.got.cif
#   From: 2010.05.17/outbox.cif.g08.bks.cpg/sg58_2_cif.got.tgz:2368.got - 2010.06.03 14:20:14.
