data_PCOD9442153
_publ_section_title
;
Structure prediction by ZEFSAII (Michael W. Deem and Ramdas Pophale) SiO2 
 PCOD9442153
Probable space group: P N N M
;
_chemical_formula_sum "Si O2"
_cell_formula_units_Z 64
_cell_length_a 24.420847
_cell_length_b 15.551038
_cell_length_c 7.652735
_cell_angle_alpha 90.000000
_cell_angle_beta 90.000000
_cell_angle_gamma 90.000000
_cell_volume 2906.275495
_symmetry_space_group_name_H-M "P N N M"
_symmetry_group_IT_number 58
_symmetry_cell_setting 'orthorhombic'
loop_
_space_group_symop_operation_xyz
x,y,z
-x,-y,z
1/2+x,1/2-y,1/2-z
1/2-x,1/2+y,1/2-z
-x,-y,-z
x,y,-z
1/2-x,1/2+y,1/2+z
1/2+x,1/2-y,1/2+z
loop_
_atom_site_type_symbol
_atom_site_label
_atom_site_fract_x
_atom_site_fract_y
_atom_site_fract_z
Si Si1 0.740167 0.231744 0.302123
Si Si2 0.037980 0.421089 0.213514
Si Si3 0.252513 0.069074 0.292392
Si Si4 0.664481 0.075050 0.714699
Si Si5 0.528964 0.754481 0.714214
Si Si6 0.531843 0.416017 0.289423
Si Si7 0.641176 0.689585 0.299809
Si Si8 0.638268 0.502723 0.793458
O O1 0.721446 0.243665 0.500000
O O2 0.748237 0.328557 0.232754
O O3 0.698701 0.159918 0.225598
O O4 0.801143 0.192185 0.296360
O O5 0.101187 0.423964 0.270459
O O6 0.000000 0.500000 0.269013
O O7 0.005932 0.335875 0.268583
O O8 0.039368 0.421656 0.000000
O O9 0.252028 0.056365 0.500000
O O10 0.304025 0.012427 0.228874
O O11 0.197077 0.025631 0.223102
O O12 0.664898 0.076319 0.500000
O O13 0.531034 0.753628 0.500000
O O14 0.497159 0.669662 0.773264
O O15 0.592269 0.748739 0.770616
O O16 0.500000 0.500000 0.224194
O O17 0.529438 0.415678 0.500000
O O18 0.594533 0.428118 0.237366
O O19 0.652611 0.714491 0.500000
O O20 0.619883 0.591573 0.294542
O O21 0.641581 0.519415 0.000000
#
# Coordination Sequence:
#
# PCOD9442153 Si02
#       8
#     8   8   8   8   8   8   8   8
#     4  11  23  39  59  89 120 153 196 243 295 353
#     4   9  18  32  54  82 110 145 190 238 291 341
#     4  10  22  40  59  82 116 156 193 238 299 358
#     4   9  19  37  57  83 121 151 183 244 300 342
#     4   9  19  33  52  83 116 148 192 241 285 345
#     4  10  19  34  53  80 118 154 191 234 284 349
#     4  11  21  37  60  85 117 154 193 241 299 353
#     4  11  22  37  56  83 120 154 194 242 292 355
#
# _framework density 22.021314
#
# number of rings (size 3 to 8) (size 9 to 14) (size 15 to 20)
#    0.000    2.000    2.500    1.125    3.500    1.250 
#    0.000    0.000    0.000    0.000    0.000    0.875 
#    0.000    0.000    0.000    0.000    0.000    0.000 
#
# Total GULP energy -357351.028439 kJ/mol
# GULP energy per Si atom -5583.609819 kJ/mol
# Density = 2.197119 g / cm^3
# Si number density = 22.021314 Si / 1000 Ang^3
#
#
#
# Elastic Constant Matrix: (Units=GPa)
#
#
# Indices 1 2 3 4 5 6 
#
# 1 180.4460 87.4450 1.6257 0.0000 0.0000 0.0000
# 2 87.4450 157.0927 2.6723 0.0000 0.0000 0.0000
# 3 1.6257 2.6723 42.5190 0.0000 0.0000 0.0000
# 4 0.0000 0.0000 0.0000 13.8924 0.0000 0.0000
# 5 0.0000 0.0000 0.0000 0.0000 16.4179 0.0000
# 6 0.0000 0.0000 0.0000 0.0000 0.0000 32.1286
#
#
#
# Elastic Compliance Matrix: (Units=1/GPa)
#
#
# Indices 1 2 3 4 5 6 
#
# 1 0.007589 -0.004224 -0.000025 0.000000 0.000000 0.000000
# 2 -0.004224 0.008723 -0.000387 0.000000 0.000000 0.000000
# 3 -0.000025 -0.000387 0.023544 0.000000 0.000000 0.000000
# 4 0.000000 0.000000 0.000000 0.071982 0.000000 0.000000
# 5 0.000000 0.000000 0.000000 0.000000 0.060909 0.000000
# 6 0.000000 0.000000 0.000000 0.000000 0.000000 0.031125
#
#
# Mechanical properties :
#
#
# Convention : Reuss Voigt Hill
#
# Bulk Modulus (GPa) = 32.69493 62.61599 47.65546
# Shear Modulus (GPa) = 22.38751 31.70874 27.04813
#
# Velocity S-wave (km/s) = 3.19192 3.79873 3.50847
# Velocity P-wave (km/s) = 5.33513 6.90916 6.17253
#
# Compressibility (1/GPa) = 0.03058578
#
# Stress axis : x y z
#
# Youngs Moduli (GPa) = 131.76970 114.63295 42.47342
#
# Poissons Ratio (x) = 0.48421 0.00105
# Poissons Ratio (y) = 0.55659 0.01643
# Poissons Ratio (z) = 0.00325 0.04434
#
# Static dielectric constant tensor:
#      x y z
#    x 1.801600 0.000000 0.000000 
#    y 0.000000 1.806650 0.000000 
#    z 0.000000 0.000000 1.850200 
# 
# From -- ./inp_files/9968.got.cif
#   From: 2010.05.17/outbox.cif.g08.bks.cpg/sg58_5_cif.got.tgz:9968.got - 2010.06.03 14:20:14.
