data_PCOD9442842
_publ_section_title
;
Structure prediction by ZEFSAII (Michael W. Deem and Ramdas Pophale) SiO2 
 PCOD9442842
Probable space group: P N N M
;
_chemical_formula_sum "Si O2"
_cell_formula_units_Z 40
_cell_length_a 14.079016
_cell_length_b 18.328515
_cell_length_c 7.743312
_cell_angle_alpha 90.000000
_cell_angle_beta 90.000000
_cell_angle_gamma 90.000000
_cell_volume 1998.141962
_symmetry_space_group_name_H-M "P N N M"
_symmetry_group_IT_number 58
_symmetry_cell_setting 'orthorhombic'
loop_
_space_group_symop_operation_xyz
x,y,z
-x,-y,z
1/2+x,1/2-y,1/2-z
1/2-x,1/2+y,1/2-z
-x,-y,-z
x,y,-z
1/2-x,1/2+y,1/2+z
1/2+x,1/2-y,1/2+z
loop_
_atom_site_type_symbol
_atom_site_label
_atom_site_fract_x
_atom_site_fract_y
_atom_site_fract_z
Si Si1 0.898129 0.028292 0.210907
Si Si2 0.315280 0.316747 0.709609
Si Si3 0.580401 0.826871 0.700286
Si Si4 0.381423 0.883556 0.296286
Si Si5 0.702710 0.962263 0.799049
O O1 0.874809 0.111361 0.260855
O O2 0.808625 0.979436 0.268081
O O3 0.897550 0.026508 0.000000
O O4 0.000000 0.000000 0.269852
O O5 0.310736 0.315489 0.500000
O O6 0.365319 0.243306 0.773831
O O7 0.208097 0.330210 0.771956
O O8 0.561515 0.808139 0.500000
O O9 0.478451 0.849511 0.775972
O O10 0.647594 0.897328 0.708301
O O11 0.394474 0.897898 0.500000
O O12 0.353512 0.961244 0.215096
O O13 0.709569 0.942244 0.000000
#
# Coordination Sequence:
#
# PCOD9442842 Si02
#       5
#     8   8   8   8   8
#     4   8  15  30  52  74  97 129 168 209 252 300
#     4   9  19  35  52  74 104 134 168 213 260 303
#     4  10  21  35  52  75 105 139 171 210 261 311
#     4  10  20  35  54  75 103 138 172 208 257 312
#     4  10  20  33  53  79 103 133 176 218 254 301
#
# _framework density 20.018595999999999
#
# number of rings (size 3 to 8) (size 9 to 14) (size 15 to 20)
#    0.000    2.600    0.000    3.000    0.000    6.400 
#    0.000    4.000    0.000   17.400    0.000    0.000 
#    0.000    0.000    0.000    0.000    0.000    0.000 
#
# Total GULP energy -223211.214129 kJ/mol
# GULP energy per Si atom -5580.280353 kJ/mol
# Density = 1.997303 g / cm^3
# Si number density = 20.018596 Si / 1000 Ang^3
#
#
#
# Elastic Constant Matrix: (Units=GPa)
#
#
# Indices 1 2 3 4 5 6 
#
# 1 171.2459 102.2944 -10.1077 0.0000 0.0000 0.0000
# 2 102.2944 101.8563 -13.3084 0.0000 0.0000 0.0000
# 3 -10.1077 -13.3084 31.4448 0.0000 0.0000 0.0000
# 4 0.0000 0.0000 0.0000 19.7168 0.0000 0.0000
# 5 0.0000 0.0000 0.0000 0.0000 12.3778 0.0000
# 6 0.0000 0.0000 0.0000 0.0000 0.0000 21.7844
#
#
#
# Elastic Compliance Matrix: (Units=1/GPa)
#
#
# Indices 1 2 3 4 5 6 
#
# 1 0.014673 -0.014946 -0.001609 0.000000 0.000000 0.000000
# 2 -0.014946 0.025617 0.006038 0.000000 0.000000 0.000000
# 3 -0.001609 0.006038 0.033840 0.000000 0.000000 0.000000
# 4 0.000000 0.000000 0.000000 0.050718 0.000000 0.000000
# 5 0.000000 0.000000 0.000000 0.000000 0.080790 0.000000
# 6 0.000000 0.000000 0.000000 0.000000 0.000000 0.045904
#
#
# Mechanical properties :
#
#
# Convention : Reuss Voigt Hill
#
# Bulk Modulus (GPa) = 18.83451 51.36707 35.10079
# Shear Modulus (GPa) = 17.22506 25.82038 21.52272
#
# Velocity S-wave (km/s) = 2.93653 3.59530 3.28248
# Velocity P-wave (km/s) = 4.57455 6.55365 5.65141
#
# Compressibility (1/GPa) = 0.05309403
#
# Stress axis : x y z
#
# Youngs Moduli (GPa) = 68.15417 39.03678 29.55103
#
# Poissons Ratio (x) = 0.58344 0.04755
# Poissons Ratio (y) = 1.01863 -0.17842
# Poissons Ratio (z) = 0.10967 -0.23569
#
# Static dielectric constant tensor:
#      x y z
#    x 1.704320 0.000000 0.000000 
#    y 0.000000 1.671010 0.000000 
#    z 0.000000 0.000000 1.729830 
# 
# From -- ./inp_files/3783.got.cif
#   From: 2010.05.17/outbox.cif.g08.bks.cpg/sg58_2_cif.got.tgz:3783.got - 2010.06.03 14:20:14.
