data_PCOD9442808
_publ_section_title
;
Structure prediction by ZEFSAII (Michael W. Deem and Ramdas Pophale) SiO2 
 PCOD9442808
Probable space group: P N N M
;
_chemical_formula_sum "Si O2"
_cell_formula_units_Z 58
_cell_length_a 18.358985
_cell_length_b 9.524799
_cell_length_c 18.291029
_cell_angle_alpha 90.000000
_cell_angle_beta 90.000000
_cell_angle_gamma 90.000000
_cell_volume 3198.472528
_symmetry_space_group_name_H-M "P N N M"
_symmetry_group_IT_number 58
_symmetry_cell_setting 'orthorhombic'
loop_
_space_group_symop_operation_xyz
x,y,z
-x,-y,z
1/2+x,1/2-y,1/2-z
1/2-x,1/2+y,1/2-z
-x,-y,-z
x,y,-z
1/2-x,1/2+y,1/2+z
1/2+x,1/2-y,1/2+z
loop_
_atom_site_type_symbol
_atom_site_label
_atom_site_fract_x
_atom_site_fract_y
_atom_site_fract_z
Si Si1 0.800414 0.269743 0.186936
Si Si2 0.084610 0.489470 0.210343
Si Si3 0.556290 0.390839 0.083497
Si Si4 0.710061 0.221688 0.662861
Si Si5 0.000000 0.500000 0.500000
Si Si6 0.224161 0.978473 0.087842
Si Si7 0.281737 0.523944 0.918926
Si Si8 0.894233 0.578946 0.622191
O O1 0.870934 0.367128 0.196649
O O2 0.758862 0.229259 0.262457
O O3 0.817791 0.138640 0.135124
O O4 0.745035 0.367100 0.141353
O O5 0.133917 0.360409 0.178561
O O6 0.088771 0.469430 0.296995
O O7 0.000000 0.500000 0.186715
O O8 0.500000 0.500000 0.118670
O O9 0.631807 0.472968 0.079895
O O10 0.576155 0.239061 0.115201
O O11 0.530390 0.359158 0.000000
O O12 0.705378 0.374026 0.626346
O O13 0.752100 0.125324 0.604806
O O14 0.937599 0.489661 0.563461
O O15 0.308973 0.938062 0.103585
O O16 0.212199 0.977743 0.000000
O O17 0.255671 0.565510 0.000000
#
# Coordination Sequence:
#
# PCOD9442808 Si02
#       8
#     8   8   8   8   2   8   8   8
#     4  11  21  39  65  90 122 168 220 262 313 391
#     4  11  24  42  65  90 129 174 214 260 329 390
#     4  10  20  33  50  80 124 171 208 247 301 380
#     4  11  22  39  61  95 124 162 220 269 309 386
#     4  12  24  32  58  96 148 164 200 254 320 412
#     4  12  22  38  67  96 127 165 220 279 328 368
#     4  10  20  36  57  81 118 161 215 260 313 370
#     4  12  21  37  59  90 129 177 210 249 314 399
#
# _framework density 18.133655999999998
#
# number of rings (size 3 to 8) (size 9 to 14) (size 15 to 20)
#    0.000    0.966    6.207    1.655    0.000    2.207 
#    2.483    0.690    0.000   15.724    0.000    0.000 
#    0.000    0.000    0.000    0.000    0.000    0.000 
#
# Total GULP energy -322946.328628 kJ/mol
# GULP energy per Si atom -5568.040149 kJ/mol
# Density = 1.809238 g / cm^3
# Si number density = 18.133656 Si / 1000 Ang^3
#
#
#
# Elastic Constant Matrix: (Units=GPa)
#
#
# Indices 1 2 3 4 5 6 
#
# 1 96.5742 34.7650 28.8764 0.0000 0.0000 0.0000
# 2 34.7650 102.1014 25.5948 0.0000 0.0000 0.0000
# 3 28.8764 25.5948 75.7139 0.0000 0.0000 0.0000
# 4 0.0000 0.0000 0.0000 135.4311 0.0000 0.0000
# 5 0.0000 0.0000 0.0000 0.0000 120.1367 0.0000
# 6 0.0000 0.0000 0.0000 0.0000 0.0000 22.1865
#
#
#
# Elastic Compliance Matrix: (Units=1/GPa)
#
#
# Indices 1 2 3 4 5 6 
#
# 1 0.012679 -0.003392 -0.003689 0.000000 0.000000 0.000000
# 2 -0.003392 0.011609 -0.002630 0.000000 0.000000 0.000000
# 3 -0.003689 -0.002630 0.015504 0.000000 0.000000 0.000000
# 4 0.000000 0.000000 0.000000 0.007384 0.000000 0.000000
# 5 0.000000 0.000000 0.000000 0.000000 0.008324 0.000000
# 6 0.000000 0.000000 0.000000 0.000000 0.000000 0.045072
#
#
# Mechanical properties :
#
#
# Convention : Reuss Voigt Hill
#
# Bulk Modulus (GPa) = 49.09667 50.31800 49.70733
# Shear Modulus (GPa) = 39.43713 67.89440 53.66577
#
# Velocity S-wave (km/s) = 4.66854 6.12555 5.44599
# Velocity P-wave (km/s) = 7.49627 8.82261 8.18634
#
# Compressibility (1/GPa) = 0.02036798
#
# Stress axis : x y z
#
# Youngs Moduli (GPa) = 78.87114 86.14240 64.50075
#
# Poissons Ratio (x) = 0.29223 0.23793
# Poissons Ratio (y) = 0.26756 0.16967
# Poissons Ratio (z) = 0.29094 0.22659
#
# Static dielectric constant tensor:
#      x y z
#    x 1.655850 0.000000 0.000000 
#    y 0.000000 1.717610 0.000000 
#    z 0.000000 0.000000 1.615650 
# 
# From -- ./inp_files/27302.got.cif
#   From: 2010.05.17/outbox.cif.g08.bks.cpg/sg58_14_cif.got.tgz:27302.got - 2010.06.03 14:20:14.
