data_PCOD9442244
_publ_section_title
;
Structure prediction by ZEFSAII (Michael W. Deem and Ramdas Pophale) SiO2 
 PCOD9442244
Probable space group: P N N M
;
_chemical_formula_sum "Si O2"
_cell_formula_units_Z 56
_cell_length_a 19.921385
_cell_length_b 14.023382
_cell_length_c 7.838229
_cell_angle_alpha 90.000000
_cell_angle_beta 90.000000
_cell_angle_gamma 90.000000
_cell_volume 2189.728348
_symmetry_space_group_name_H-M "P N N M"
_symmetry_group_IT_number 58
_symmetry_cell_setting 'orthorhombic'
loop_
_space_group_symop_operation_xyz
x,y,z
-x,-y,z
1/2+x,1/2-y,1/2-z
1/2-x,1/2+y,1/2-z
-x,-y,-z
x,y,-z
1/2-x,1/2+y,1/2+z
1/2+x,1/2-y,1/2+z
loop_
_atom_site_type_symbol
_atom_site_label
_atom_site_fract_x
_atom_site_fract_y
_atom_site_fract_z
Si Si1 0.145177 0.207714 0.199184
Si Si2 0.288814 0.425226 0.300992
Si Si3 0.929906 0.035038 0.696270
Si Si4 0.360033 0.925858 0.794866
Si Si5 0.574190 0.888321 0.793219
Si Si6 0.209689 0.709495 0.301271
Si Si7 0.999626 0.789097 0.202404
O O1 0.140029 0.323060 0.209330
O O2 0.217552 0.182976 0.276373
O O3 0.073077 0.177763 0.271840
O O4 0.145766 0.180450 0.000000
O O5 0.288432 0.400786 0.500000
O O6 0.356394 0.484905 0.269701
O O7 0.215374 0.467878 0.263664
O O8 0.293486 0.324303 0.205445
O O9 0.929112 0.007131 0.500000
O O10 0.942724 0.148870 0.710345
O O11 0.000000 0.000000 0.779891
O O12 0.415330 0.002497 0.740021
O O13 0.366698 0.911728 0.000000
O O14 0.642106 0.835414 0.729608
O O15 0.513665 0.821824 0.735390
O O16 0.572436 0.888291 0.000000
O O17 0.211742 0.680059 0.500000
O O18 0.002156 0.804732 0.000000
#
# Coordination Sequence:
#
# PCOD9442244 Si02
#       7
#     8   8   8   8   8   8   8
#     4   9  20  37  56  81 114 152 191 236 287 337
#     4  10  19  34  57  83 111 140 183 235 283 332
#     4  11  24  40  58  82 114 152 191 230 286 353
#     4   9  20  36  56  85 115 149 192 238 282 333
#     4  10  20  35  57  83 113 151 193 233 283 344
#     4   9  17  33  57  78 104 147 192 229 279 340
#     4  11  23  38  58  85 116 150 192 239 289 339
#
# _framework density 25.573947
#
# number of rings (size 3 to 8) (size 9 to 14) (size 15 to 20)
#    0.000    2.143    1.429    1.286    0.000    5.143 
#    0.000    5.714    0.000    0.000    0.000    0.000 
#    0.000    0.000    0.000    0.000    0.000    0.000 
#
# Total GULP energy -313034.259825 kJ/mol
# GULP energy per Si atom -5589.897497 kJ/mol
# Density = 2.551574 g / cm^3
# Si number density = 25.573947 Si / 1000 Ang^3
#
#
#
# Elastic Constant Matrix: (Units=GPa)
#
#
# Indices 1 2 3 4 5 6 
#
# 1 134.5442 3.4400 7.7920 0.0000 0.0000 0.0000
# 2 3.4400 64.8099 4.3840 0.0000 0.0000 0.0000
# 3 7.7920 4.3840 55.9860 0.0000 0.0000 0.0000
# 4 0.0000 0.0000 0.0000 3.6867 0.0000 0.0000
# 5 0.0000 0.0000 0.0000 0.0000 20.0810 0.0000
# 6 0.0000 0.0000 0.0000 0.0000 0.0000 50.4691
#
#
#
# Elastic Compliance Matrix: (Units=1/GPa)
#
#
# Indices 1 2 3 4 5 6 
#
# 1 0.007500 -0.000329 -0.001018 0.000000 0.000000 0.000000
# 2 -0.000329 0.015526 -0.001170 0.000000 0.000000 0.000000
# 3 -0.001018 -0.001170 0.018095 0.000000 0.000000 0.000000
# 4 0.000000 0.000000 0.000000 0.271245 0.000000 0.000000
# 5 0.000000 0.000000 0.000000 0.000000 0.049798 0.000000
# 6 0.000000 0.000000 0.000000 0.000000 0.000000 0.019814
#
#
# Mechanical properties :
#
#
# Convention : Reuss Voigt Hill
#
# Bulk Modulus (GPa) = 27.71104 31.84135 29.77619
# Shear Modulus (GPa) = 12.53001 30.82898 21.67949
#
# Velocity S-wave (km/s) = 2.21589 3.47577 2.91472
# Velocity P-wave (km/s) = 4.17206 5.34656 4.79540
#
# Compressibility (1/GPa) = 0.03608669
#
# Stress axis : x y z
#
# Youngs Moduli (GPa) = 133.33556 64.40666 55.26415
#
# Poissons Ratio (x) = 0.02120 0.05626
# Poissons Ratio (y) = 0.04390 0.06466
# Poissons Ratio (z) = 0.13574 0.07535
#
# Static dielectric constant tensor:
#      x y z
#    x 2.065310 0.000000 0.000000 
#    y 0.000000 2.105410 0.000000 
#    z 0.000000 0.000000 1.930790 
# 
# From -- ./inp_files/8988.got.cif
#   From: 2010.05.17/outbox.cif.g08.bks.cpg/sg58_5_cif.got.tgz:8988.got - 2010.06.03 14:20:14.
