data_PCOD9442281
_publ_section_title
;
Structure prediction by ZEFSAII (Michael W. Deem and Ramdas Pophale) SiO2 
 PCOD9442281
Probable space group: P N N M
;
_chemical_formula_sum "Si O2"
_cell_formula_units_Z 64
_cell_length_a 19.672215
_cell_length_b 20.274126
_cell_length_c 8.986169
_cell_angle_alpha 90.000000
_cell_angle_beta 90.000000
_cell_angle_gamma 90.000000
_cell_volume 3584.016376
_symmetry_space_group_name_H-M "P N N M"
_symmetry_group_IT_number 58
_symmetry_cell_setting 'orthorhombic'
loop_
_space_group_symop_operation_xyz
x,y,z
-x,-y,z
1/2+x,1/2-y,1/2-z
1/2-x,1/2+y,1/2-z
-x,-y,-z
x,y,-z
1/2-x,1/2+y,1/2+z
1/2+x,1/2-y,1/2+z
loop_
_atom_site_type_symbol
_atom_site_label
_atom_site_fract_x
_atom_site_fract_y
_atom_site_fract_z
Si Si1 0.066587 0.322978 0.177636
Si Si2 0.093560 0.186556 0.676349
Si Si3 0.315386 0.100906 0.822647
Si Si4 0.208792 0.985761 0.178505
Si Si5 0.749053 0.777281 0.324817
Si Si6 0.070567 0.036159 0.679610
Si Si7 0.721703 0.141665 0.321956
Si Si8 0.970079 0.429864 0.678439
O O1 0.061485 0.248620 0.239293
O O2 0.141673 0.351130 0.219114
O O3 0.010244 0.370511 0.245673
O O4 0.062510 0.321981 0.000000
O O5 0.080291 0.193582 0.500000
O O6 0.174809 0.193719 0.698868
O O7 0.070484 0.113587 0.723426
O O8 0.301849 0.167915 0.735150
O O9 0.390124 0.073609 0.790129
O O10 0.258406 0.046993 0.783908
O O11 0.310590 0.113412 0.000000
O O12 0.242659 0.920435 0.246156
O O13 0.134884 0.000960 0.245377
O O14 0.205280 0.980332 0.000000
O O15 0.740589 0.765196 0.500000
O O16 0.744760 0.709274 0.235535
O O17 0.079213 0.034015 0.500000
O O18 0.000000 0.000000 0.716506
O O19 0.726480 0.136706 0.500000
O O20 0.979331 0.424767 0.500000
O O21 0.000000 0.500000 0.727651
#
# Coordination Sequence:
#
# PCOD9442281 Si02
#       8
#     8   8   8   8   8   8   8   8
#     4  10  21  36  57  86 116 151 193 240 288 334
#     4   9  18  35  59  83 109 148 191 230 279 342
#     4  10  21  36  57  84 114 152 191 233 284 339
#     4  11  22  37  60  88 117 149 191 238 286 337
#     4  10  19  34  58  84 110 142 187 236 281 334
#     4  10  21  39  61  85 114 150 192 235 289 351
#     4  10  21  37  58  84 117 152 188 232 285 342
#     4  10  21  38  58  81 114 154 195 234 280 344
#
# _framework density 17.857061999999999
#
# number of rings (size 3 to 8) (size 9 to 14) (size 15 to 20)
#    0.000    2.000    1.250    2.250    0.000    5.000 
#    2.250    0.000    0.000    0.000    0.000    0.000 
#    0.000    0.000    0.000    0.000    0.000    0.000 
#
# Total GULP energy -357386.773942 kJ/mol
# GULP energy per Si atom -5584.168343 kJ/mol
# Density = 1.781642 g / cm^3
# Si number density = 17.857062 Si / 1000 Ang^3
#
#
#
# Elastic Constant Matrix: (Units=GPa)
#
#
# Indices 1 2 3 4 5 6 
#
# 1 92.2594 54.5358 42.5055 0.0000 0.0000 0.0000
# 2 54.5358 111.4115 39.3017 0.0000 0.0000 0.0000
# 3 42.5055 39.3017 31.3543 0.0000 0.0000 0.0000
# 4 0.0000 0.0000 0.0000 26.8726 0.0000 0.0000
# 5 0.0000 0.0000 0.0000 0.0000 25.6277 0.0000
# 6 0.0000 0.0000 0.0000 0.0000 0.0000 30.7984
#
#
#
# Elastic Compliance Matrix: (Units=1/GPa)
#
#
# Indices 1 2 3 4 5 6 
#
# 1 0.028892 -0.000584 -0.038435 0.000000 0.000000 0.000000
# 2 -0.000584 0.016102 -0.019392 0.000000 0.000000 0.000000
# 3 -0.038435 -0.019392 0.108306 0.000000 0.000000 0.000000
# 4 0.000000 0.000000 0.000000 0.037213 0.000000 0.000000
# 5 0.000000 0.000000 0.000000 0.000000 0.039020 0.000000
# 6 0.000000 0.000000 0.000000 0.000000 0.000000 0.032469
#
#
# Mechanical properties :
#
#
# Convention : Reuss Voigt Hill
#
# Bulk Modulus (GPa) = 27.41439 56.41234 41.91337
# Shear Modulus (GPa) = 12.78824 23.23855 18.01340
#
# Velocity S-wave (km/s) = 2.67899 3.61136 3.17954
# Velocity P-wave (km/s) = 4.99548 7.00349 6.08291
#
# Compressibility (1/GPa) = 0.03647719
#
# Stress axis : x y z
#
# Youngs Moduli (GPa) = 34.61157 62.10245 9.23313
#
# Poissons Ratio (x) = 0.03628 0.35488
# Poissons Ratio (y) = 0.02022 0.17905
# Poissons Ratio (z) = 1.33031 1.20429
#
# Static dielectric constant tensor:
#      x y z
#    x 1.592680 0.000000 0.000000 
#    y 0.000000 1.584110 0.000000 
#    z 0.000000 0.000000 1.591550 
# 
# From -- ./inp_files/9229.got.cif
#   From: 2010.05.17/outbox.cif.g08.bks.cpg/sg58_5_cif.got.tgz:9229.got - 2010.06.03 14:20:14.
