data_PCOD9442423
_publ_section_title
;
Structure prediction by ZEFSAII (Michael W. Deem and Ramdas Pophale) SiO2 
 PCOD9442423
Probable space group: P N N M
;
_chemical_formula_sum "Si O2"
_cell_formula_units_Z 48
_cell_length_a 12.537622
_cell_length_b 22.457009
_cell_length_c 7.428012
_cell_angle_alpha 90.000000
_cell_angle_beta 90.000000
_cell_angle_gamma 90.000000
_cell_volume 2091.412415
_symmetry_space_group_name_H-M "P N N M"
_symmetry_group_IT_number 58
_symmetry_cell_setting 'orthorhombic'
loop_
_space_group_symop_operation_xyz
x,y,z
-x,-y,z
1/2+x,1/2-y,1/2-z
1/2-x,1/2+y,1/2-z
-x,-y,-z
x,y,-z
1/2-x,1/2+y,1/2+z
1/2+x,1/2-y,1/2+z
loop_
_atom_site_type_symbol
_atom_site_label
_atom_site_fract_x
_atom_site_fract_y
_atom_site_fract_z
Si Si1 0.248120 0.890271 0.219423
Si Si2 0.072400 0.299599 0.720605
Si Si3 0.024494 0.934758 0.207557
Si Si4 0.877545 0.492946 0.280998
Si Si5 0.379840 0.670243 0.791868
Si Si6 0.851714 0.360205 0.717367
O O1 0.321881 0.835368 0.279469
O O2 0.126352 0.898303 0.281285
O O3 0.307630 0.951106 0.274252
O O4 0.249075 0.886485 0.000000
O O5 0.073464 0.299015 0.500000
O O6 0.072217 0.231422 0.782616
O O7 0.964872 0.333612 0.776058
O O8 0.924277 0.890510 0.208717
O O9 0.054435 0.947124 0.000000
O O10 0.000000 0.000000 0.287812
O O11 0.876384 0.493209 0.500000
O O12 0.838924 0.428382 0.221287
O O13 0.000000 0.500000 0.225591
O O14 0.252554 0.674807 0.776620
O O15 0.409553 0.666084 0.000000
O O16 0.853250 0.360264 0.500000
#
# Coordination Sequence:
#
# PCOD9442423 Si02
#       6
#     8   8   8   8   8   8
#     4   9  16  29  52  82 114 141 174 230 286 328
#     4   9  19  34  52  80 113 147 185 227 280 339
#     4  10  21  38  61  88 112 142 193 245 284 332
#     4   9  14  25  51  86 111 129 167 228 286 320
#     4  11  24  38  54  80 116 155 189 225 283 347
#     4  10  19  35  59  83 108 141 187 236 277 326
#
# _framework density 22.950997000000001
#
# number of rings (size 3 to 8) (size 9 to 14) (size 15 to 20)
#    0.000    2.333    1.667    1.500    2.333    3.000 
#    0.000    0.833    0.000    1.500    0.000    0.000 
#    0.000    0.000    0.000    0.000    0.000    0.000 
#
# Total GULP energy -268133.417704 kJ/mol
# GULP energy per Si atom -5586.112869 kJ/mol
# Density = 2.289876 g / cm^3
# Si number density = 22.950997 Si / 1000 Ang^3
#
#
#
# Elastic Constant Matrix: (Units=GPa)
#
#
# Indices 1 2 3 4 5 6 
#
# 1 110.6752 28.4507 -5.1104 0.0000 0.0000 0.0000
# 2 28.4507 132.3149 2.2486 0.0000 0.0000 0.0000
# 3 -5.1104 2.2486 69.9907 0.0000 0.0000 0.0000
# 4 0.0000 0.0000 0.0000 -4.7800 0.0000 0.0000
# 5 0.0000 0.0000 0.0000 0.0000 5.6946 0.0000
# 6 0.0000 0.0000 0.0000 0.0000 0.0000 23.6765
#
#
#
# Elastic Compliance Matrix: (Units=1/GPa)
#
#
# Indices 1 2 3 4 5 6 
#
# 1 0.009605 -0.002078 0.000768 0.000000 0.000000 0.000000
# 2 -0.002078 0.008012 -0.000409 0.000000 0.000000 0.000000
# 3 0.000768 -0.000409 0.014357 0.000000 0.000000 0.000000
# 4 0.000000 0.000000 0.000000 -0.209205 0.000000 0.000000
# 5 0.000000 0.000000 0.000000 0.000000 0.175605 0.000000
# 6 0.000000 0.000000 0.000000 0.000000 0.000000 0.042236
#
#
# Mechanical properties :
#
#
# Convention : Reuss Voigt Hill
#
# Bulk Modulus (GPa) = 35.04496 40.46205 37.75351
# Shear Modulus (GPa) = 93.35270 24.07769 58.71520
#
# Velocity S-wave (km/s) = 6.38460 3.24248 5.06344
# Velocity P-wave (km/s) = 8.34586 5.62906 7.11828
#
# Compressibility (1/GPa) = 0.02853477
#
# Stress axis : x y z
#
# Youngs Moduli (GPa) = 104.11034 124.81930 69.65317
#
# Poissons Ratio (x) = 0.25942 -0.05350
# Poissons Ratio (y) = 0.21638 0.02850
# Poissons Ratio (z) = -0.07997 0.05107
#
# Static dielectric constant tensor:
#      x y z
#    x 1.831750 0.000000 0.000000 
#    y 0.000000 1.827800 0.000000 
#    z 0.000000 0.000000 1.893200 
# 
# From -- ./inp_files/4257.got.cif
#   From: 2010.05.17/outbox.cif.g08.bks.cpg/sg58_3_cif.got.tgz:4257.got - 2010.06.03 14:20:14.
