data_PCOD9442713
_publ_section_title
;
Structure prediction by ZEFSAII (Michael W. Deem and Ramdas Pophale) SiO2 
 PCOD9442713
Probable space group: P N N M
;
_chemical_formula_sum "Si O2"
_cell_formula_units_Z 40
_cell_length_a 10.570877
_cell_length_b 9.635972
_cell_length_c 20.826733
_cell_angle_alpha 90.000000
_cell_angle_beta 90.000000
_cell_angle_gamma 90.000000
_cell_volume 2121.425077
_symmetry_space_group_name_H-M "P N N M"
_symmetry_group_IT_number 58
_symmetry_cell_setting 'orthorhombic'
loop_
_space_group_symop_operation_xyz
x,y,z
-x,-y,z
1/2+x,1/2-y,1/2-z
1/2-x,1/2+y,1/2-z
-x,-y,-z
x,y,-z
1/2-x,1/2+y,1/2+z
1/2+x,1/2-y,1/2+z
loop_
_atom_site_type_symbol
_atom_site_label
_atom_site_fract_x
_atom_site_fract_y
_atom_site_fract_z
Si Si1 0.475111 0.162108 0.571984
Si Si2 0.125918 0.087966 0.900604
Si Si3 0.236287 0.739420 0.174015
Si Si4 0.873296 0.587767 0.427744
Si Si5 0.856617 0.994957 0.245564
O O1 0.421933 0.181425 0.500000
O O2 0.600284 0.256324 0.577010
O O3 0.381123 0.218164 0.626096
O O4 0.500000 0.000000 0.581333
O O5 0.134620 0.081608 0.823504
O O6 0.251481 0.014289 0.925751
O O7 0.000000 0.000000 0.919337
O O8 0.346280 0.802287 0.128624
O O9 0.273044 0.596339 0.207206
O O10 0.198780 0.854625 0.227099
O O11 0.882027 0.647218 0.500000
O O12 0.000000 0.500000 0.415553
O O13 0.000000 0.000000 0.270590
#
# Coordination Sequence:
#
# PCOD9442713 Si02
#       5
#     8   8   8   8   8
#     4  11  23  39  64  96 123 156 207 266 316 356
#     4  10  19  40  65  90 116 161 209 255 297 362
#     4  11  23  39  62  89 122 163 198 262 300 368
#     4  10  21  38  62  92 122 159 207 251 306 369
#     4  10  22  39  58  89 122 158 206 243 308 367
#
# _framework density 18.855250000000002
#
# number of rings (size 3 to 8) (size 9 to 14) (size 15 to 20)
#    0.000    1.600    6.000    1.200    2.800    4.000 
#    0.000    0.000    0.000    1.200    0.000    0.000 
#    0.000    0.000    0.000    0.000    0.000    0.000 
#
# Total GULP energy -223259.110842 kJ/mol
# GULP energy per Si atom -5581.477771 kJ/mol
# Density = 1.881233 g / cm^3
# Si number density = 18.855250 Si / 1000 Ang^3
#
#
#
# Elastic Constant Matrix: (Units=GPa)
#
#
# Indices 1 2 3 4 5 6 
#
# 1 82.2681 19.2371 26.7429 0.0000 0.0000 0.0000
# 2 19.2371 97.1306 30.3451 0.0000 0.0000 0.0000
# 3 26.7429 30.3451 56.3815 0.0000 0.0000 0.0000
# 4 0.0000 0.0000 0.0000 37.8559 0.0000 0.0000
# 5 0.0000 0.0000 0.0000 0.0000 5.3853 0.0000
# 6 0.0000 0.0000 0.0000 0.0000 0.0000 21.9768
#
#
#
# Elastic Compliance Matrix: (Units=1/GPa)
#
#
# Indices 1 2 3 4 5 6 
#
# 1 0.014431 -0.000865 -0.006380 0.000000 0.000000 0.000000
# 2 -0.000865 0.012428 -0.006279 0.000000 0.000000 0.000000
# 3 -0.006380 -0.006279 0.024142 0.000000 0.000000 0.000000
# 4 0.000000 0.000000 0.000000 0.026416 0.000000 0.000000
# 5 0.000000 0.000000 0.000000 0.000000 0.185692 0.000000
# 6 0.000000 0.000000 0.000000 0.000000 0.000000 0.045502
#
#
# Mechanical properties :
#
#
# Convention : Reuss Voigt Hill
#
# Bulk Modulus (GPa) = 41.74566 43.15894 42.45230
# Shear Modulus (GPa) = 14.54999 23.67394 19.11196
#
# Velocity S-wave (km/s) = 2.78090 3.54724 3.18719
# Velocity P-wave (km/s) = 5.70082 6.30210 6.00899
#
# Compressibility (1/GPa) = 0.02395459
#
# Stress axis : x y z
#
# Youngs Moduli (GPa) = 69.29300 80.46139 41.42244
#
# Poissons Ratio (x) = 0.06961 0.26425
# Poissons Ratio (y) = 0.05995 0.26008
# Poissons Ratio (z) = 0.44206 0.50519
#
# Static dielectric constant tensor:
#      x y z
#    x 1.652110 0.000000 0.000000 
#    y 0.000000 1.659240 0.000000 
#    z 0.000000 0.000000 1.668180 
# 
# From -- ./inp_files/28715.got.cif
#   From: 2010.05.17/outbox.cif.g08.bks.cpg/sg58_15_cif.got.tgz:28715.got - 2010.06.03 14:20:14.
