data_PCOD9442982
_publ_section_title
;
Structure prediction by ZEFSAII (Michael W. Deem and Ramdas Pophale) SiO2 
 PCOD9442982
Probable space group: P N N M
;
_chemical_formula_sum "Si O2"
_cell_formula_units_Z 58
_cell_length_a 13.664404
_cell_length_b 23.986412
_cell_length_c 9.398423
_cell_angle_alpha 90.000000
_cell_angle_beta 90.000000
_cell_angle_gamma 90.000000
_cell_volume 3080.427349
_symmetry_space_group_name_H-M "P N N M"
_symmetry_group_IT_number 58
_symmetry_cell_setting 'orthorhombic'
loop_
_space_group_symop_operation_xyz
x,y,z
-x,-y,z
1/2+x,1/2-y,1/2-z
1/2-x,1/2+y,1/2-z
-x,-y,-z
x,y,-z
1/2-x,1/2+y,1/2+z
1/2+x,1/2-y,1/2+z
loop_
_atom_site_type_symbol
_atom_site_label
_atom_site_fract_x
_atom_site_fract_y
_atom_site_fract_z
Si Si1 0.777068 0.942628 0.665185
Si Si2 0.554306 0.365366 0.837484
Si Si3 0.000000 0.000000 0.000000
Si Si4 0.616885 0.555903 0.237525
Si Si5 0.759220 0.160181 0.169756
Si Si6 0.554667 0.731116 0.670767
Si Si7 0.033224 0.335501 0.328494
Si Si8 0.446875 0.059027 0.329407
O O1 0.769517 0.927857 0.500000
O O2 0.849564 0.895558 0.725652
O O3 0.666482 0.944681 0.719133
O O4 0.829695 0.002251 0.673935
O O5 0.470698 0.413055 0.844346
O O6 0.515002 0.317105 0.735315
O O7 0.569991 0.344686 0.000000
O O8 0.936215 0.033004 0.877639
O O9 0.697632 0.603707 0.263742
O O10 0.835359 0.209635 0.202127
O O11 0.647865 0.172594 0.208549
O O12 0.762162 0.152048 0.000000
O O13 0.543343 0.736113 0.500000
O O14 0.528846 0.787459 0.752033
O O15 0.022634 0.334015 0.500000
O O16 0.999508 0.393887 0.262258
O O17 0.450566 0.071882 0.500000
O O18 0.500000 0.000000 0.310432
#
# Coordination Sequence:
#
# PCOD9442982 Si02
#       8
#     8   8   2   8   8   8   8   8
#     4  10  20  34  54  80 114 156 192 232 289 343
#     4  10  20  34  55  85 118 151 188 238 288 346
#     4  12  20  28  54  88 126 156 194 252 282 356
#     4  11  19  33  54  86 121 157 196 239 290 344
#     4   9  20  37  59  81 113 153 190 229 292 348
#     4  10  22  40  63  85 112 147 191 237 286 340
#     4  11  23  42  62  86 115 149 189 238 284 346
#     4  10  22  41  61  83 113 151 194 236 279 337
#
# _framework density 18.828558000000001
#
# number of rings (size 3 to 8) (size 9 to 14) (size 15 to 20)
#    0.000    1.793    2.069    2.069    0.966    2.483 
#    1.241   13.103    0.000    0.000    0.000    0.000 
#    0.000    0.000    0.000    0.000    0.000    0.000 
#
# Total GULP energy -323021.700930 kJ/mol
# GULP energy per Si atom -5569.339671 kJ/mol
# Density = 1.878570 g / cm^3
# Si number density = 18.828558 Si / 1000 Ang^3
#
#
#
# Elastic Constant Matrix: (Units=GPa)
#
#
# Indices 1 2 3 4 5 6 
#
# 1 101.7911 55.9256 40.8292 0.0000 0.0000 0.0000
# 2 55.9256 104.6615 53.6329 0.0000 0.0000 0.0000
# 3 40.8292 53.6329 73.9445 0.0000 0.0000 0.0000
# 4 0.0000 0.0000 0.0000 45.5444 0.0000 0.0000
# 5 0.0000 0.0000 0.0000 0.0000 32.2686 0.0000
# 6 0.0000 0.0000 0.0000 0.0000 0.0000 13.7750
#
#
#
# Elastic Compliance Matrix: (Units=1/GPa)
#
#
# Indices 1 2 3 4 5 6 
#
# 1 0.014552 -0.005822 -0.003812 0.000000 0.000000 0.000000
# 2 -0.005822 0.017536 -0.009504 0.000000 0.000000 0.000000
# 3 -0.003812 -0.009504 0.022522 0.000000 0.000000 0.000000
# 4 0.000000 0.000000 0.000000 0.021957 0.000000 0.000000
# 5 0.000000 0.000000 0.000000 0.000000 0.030990 0.000000
# 6 0.000000 0.000000 0.000000 0.000000 0.000000 0.072595
#
#
# Mechanical properties :
#
#
# Convention : Reuss Voigt Hill
#
# Bulk Modulus (GPa) = 61.22621 64.57472 62.90047
# Shear Modulus (GPa) = 22.33402 26.98491 24.65947
#
# Velocity S-wave (km/s) = 3.44783 3.78986 3.62288
# Velocity P-wave (km/s) = 6.95977 7.31583 7.14002
#
# Compressibility (1/GPa) = 0.01633287
#
# Stress axis : x y z
#
# Youngs Moduli (GPa) = 68.71929 57.02483 44.40086
#
# Poissons Ratio (x) = 0.33202 0.16925
# Poissons Ratio (y) = 0.40011 0.42200
# Poissons Ratio (z) = 0.26195 0.54198
#
# Static dielectric constant tensor:
#      x y z
#    x 1.680700 0.000000 0.000000 
#    y 0.000000 1.639330 0.000000 
#    z 0.000000 0.000000 1.650300 
# 
# From -- ./inp_files/6713.got.cif
#   From: 2010.05.17/outbox.cif.g08.bks.cpg/sg58_4_cif.got.tgz:6713.got - 2010.06.03 14:20:14.
