data_PCOD9442321
_publ_section_title
;
Structure prediction by ZEFSAII (Michael W. Deem and Ramdas Pophale) SiO2 
 PCOD9442321
Probable space group: P N N M
;
_chemical_formula_sum "Si O2"
_cell_formula_units_Z 64
_cell_length_a 16.789414
_cell_length_b 9.507892
_cell_length_c 20.194416
_cell_angle_alpha 90.000000
_cell_angle_beta 90.000000
_cell_angle_gamma 90.000000
_cell_volume 3223.673703
_symmetry_space_group_name_H-M "P N N M"
_symmetry_group_IT_number 58
_symmetry_cell_setting 'orthorhombic'
loop_
_space_group_symop_operation_xyz
x,y,z
-x,-y,z
1/2+x,1/2-y,1/2-z
1/2-x,1/2+y,1/2-z
-x,-y,-z
x,y,-z
1/2-x,1/2+y,1/2+z
1/2+x,1/2-y,1/2+z
loop_
_atom_site_type_symbol
_atom_site_label
_atom_site_fract_x
_atom_site_fract_y
_atom_site_fract_z
Si Si1 0.983544 0.159863 0.890548
Si Si2 0.484670 0.339426 0.769070
Si Si3 0.418144 0.915477 0.389387
Si Si4 0.309463 0.342875 0.190940
Si Si5 0.304228 0.335964 0.423714
Si Si6 0.247270 0.531902 0.688953
Si Si7 0.250533 0.033179 0.424791
Si Si8 0.917879 0.584016 0.731489
O O1 0.976604 0.172951 0.810676
O O2 0.897865 0.201065 0.918641
O O3 0.056817 0.258764 0.909735
O O4 0.000000 0.000000 0.908353
O O5 0.500000 0.500000 0.785998
O O6 0.400673 0.295583 0.799911
O O7 0.558856 0.242220 0.787710
O O8 0.341432 0.976801 0.424211
O O9 0.400393 0.922977 0.310391
O O10 0.500000 0.000000 0.400484
O O11 0.290174 0.451582 0.250373
O O12 0.295790 0.430262 0.124208
O O13 0.255454 0.201299 0.193728
O O14 0.284519 0.364158 0.500000
O O15 0.286761 0.468058 0.376790
O O16 0.256758 0.195671 0.401310
O O17 0.156300 0.478583 0.693242
O O18 0.220379 0.031261 0.500000
O O19 0.000000 0.500000 0.721706
#
# Coordination Sequence:
#
# PCOD9442321 Si02
#       8
#     8   8   8   8   8   8   8   8
#     4  10  21  36  57  89 126 165 208 250 303 371
#     4  10  22  37  62  94 126 155 203 259 314 368
#     4  10  19  34  60  85 120 164 206 247 297 371
#     4  12  25  40  65  97 124 165 210 260 310 370
#     4  11  25  43  61  87 129 175 210 255 311 369
#     4  12  25  39  66  94 127 164 209 259 314 371
#     4  11  25  42  61  88 127 172 214 256 310 370
#     4  10  20  37  60  91 122 157 196 259 311 365
#
# _framework density 19.853127000000001
#
# number of rings (size 3 to 8) (size 9 to 14) (size 15 to 20)
#    0.000    1.250    5.000    0.750    5.250    1.500 
#    0.000    0.000    0.000    1.500    0.000    0.000 
#    0.000    0.000    0.000    0.000    0.000    0.000 
#
# Total GULP energy -357714.271551 kJ/mol
# GULP energy per Si atom -5589.285493 kJ/mol
# Density = 1.980794 g / cm^3
# Si number density = 19.853127 Si / 1000 Ang^3
#
#
#
# Elastic Constant Matrix: (Units=GPa)
#
#
# Indices 1 2 3 4 5 6 
#
# 1 40.3560 -13.5006 0.4952 0.0000 0.0000 0.0000
# 2 -13.5006 97.1602 24.4845 0.0000 0.0000 0.0000
# 3 0.4952 24.4845 44.7548 0.0000 0.0000 0.0000
# 4 0.0000 0.0000 0.0000 -30.0141 0.0000 0.0000
# 5 0.0000 0.0000 0.0000 0.0000 13.6697 0.0000
# 6 0.0000 0.0000 0.0000 0.0000 0.0000 33.1699
#
#
#
# Elastic Compliance Matrix: (Units=1/GPa)
#
#
# Indices 1 2 3 4 5 6 
#
# 1 0.026256 0.004317 -0.002652 0.000000 0.000000 0.000000
# 2 0.004317 0.012648 -0.006967 0.000000 0.000000 0.000000
# 3 -0.002652 -0.006967 0.026185 0.000000 0.000000 0.000000
# 4 0.000000 0.000000 0.000000 -0.033318 0.000000 0.000000
# 5 0.000000 0.000000 0.000000 0.000000 0.073154 0.000000
# 6 0.000000 0.000000 0.000000 0.000000 0.000000 0.030148
#
#
# Mechanical properties :
#
#
# Convention : Reuss Voigt Hill
#
# Bulk Modulus (GPa) = 18.35410 22.80323 20.57866
# Shear Modulus (GPa) = 30.51763 14.75123 22.63443
#
# Velocity S-wave (km/s) = 3.92493 2.72879 3.38019
# Velocity P-wave (km/s) = 5.45940 4.63026 5.06184
#
# Compressibility (1/GPa) = 0.05448375
#
# Stress axis : x y z
#
# Youngs Moduli (GPa) = 38.08635 79.06508 38.18999
#
# Poissons Ratio (x) = -0.34130 0.10128
# Poissons Ratio (y) = -0.16441 0.26607
# Poissons Ratio (z) = 0.10101 0.55086
#
# Static dielectric constant tensor:
#      x y z
#    x 1.698080 0.000000 0.000000 
#    y 0.000000 1.757430 0.000000 
#    z 0.000000 0.000000 1.691460 
# 
# From -- ./inp_files/30299.got.cif
#   From: 2010.05.17/outbox.cif.g08.bks.cpg/sg58_16_cif.got.tgz:30299.got - 2010.06.03 14:20:14.
