data_PCOD9442010
_publ_section_title
;
Structure prediction by ZEFSAII (Michael W. Deem and Ramdas Pophale) SiO2 
 PCOD9442010
Probable space group: P N N M
;
_chemical_formula_sum "Si O2"
_cell_formula_units_Z 64
_cell_length_a 14.085745
_cell_length_b 23.783528
_cell_length_c 10.089631
_cell_angle_alpha 90.000000
_cell_angle_beta 90.000000
_cell_angle_gamma 90.000000
_cell_volume 3380.114272
_symmetry_space_group_name_H-M "P N N M"
_symmetry_group_IT_number 58
_symmetry_cell_setting 'orthorhombic'
loop_
_space_group_symop_operation_xyz
x,y,z
-x,-y,z
1/2+x,1/2-y,1/2-z
1/2-x,1/2+y,1/2-z
-x,-y,-z
x,y,-z
1/2-x,1/2+y,1/2+z
1/2+x,1/2-y,1/2+z
loop_
_atom_site_type_symbol
_atom_site_label
_atom_site_fract_x
_atom_site_fract_y
_atom_site_fract_z
Si Si1 0.243793 0.175604 0.153462
Si Si2 0.053323 0.726236 0.342911
Si Si3 0.800651 0.450379 0.647907
Si Si4 0.904005 0.629520 0.654394
Si Si5 0.966586 0.436922 0.146300
Si Si6 0.707300 0.573973 0.348047
Si Si7 0.071627 0.175557 0.342226
Si Si8 0.534060 0.562676 0.843938
O O1 0.348076 0.197461 0.202788
O O2 0.241909 0.107459 0.148232
O O3 0.161124 0.192756 0.253684
O O4 0.229299 0.194567 0.000000
O O5 0.068065 0.729307 0.500000
O O6 0.959002 0.688115 0.324570
O O7 0.020570 0.787898 0.298896
O O8 0.847063 0.452497 0.500000
O O9 0.749129 0.510202 0.664455
O O10 0.872397 0.440388 0.767103
O O11 0.923100 0.613279 0.500000
O O12 0.955165 0.591422 0.762010
O O13 0.792085 0.619077 0.672334
O O14 0.000000 0.500000 0.129317
O O15 0.954827 0.410864 0.000000
O O16 0.673756 0.579660 0.500000
O O17 0.623580 0.579314 0.244144
O O18 0.088209 0.185726 0.500000
O O19 0.046372 0.109954 0.326404
O O20 0.500000 0.500000 0.807709
O O21 0.559369 0.562080 0.000000
#
# Coordination Sequence:
#
# PCOD9442010 Si02
#       8
#     8   8   8   8   8   8   8   8
#     4  10  20  36  60  85 108 144 191 236 282 334
#     4   9  19  37  60  83 111 149 190 232 281 338
#     4  10  19  33  54  80 111 151 191 229 279 332
#     4  10  19  35  56  79 112 152 189 228 280 340
#     4  11  21  30  46  78 117 152 187 230 276 323
#     4  10  21  33  55  87 113 144 189 233 278 331
#     4  10  22  40  60  83 112 148 188 233 288 344
#     4  10  22  40  59  79 110 152 188 227 288 349
#
# _framework density 18.934272
#
# number of rings (size 3 to 8) (size 9 to 14) (size 15 to 20)
#    0.000    2.000    2.500    1.125    0.000    3.750 
#    0.000    1.250    0.000    0.000    0.000    0.000 
#    0.000    0.000    0.000    0.000    0.000    0.000 
#
# Total GULP energy -356390.829233 kJ/mol
# GULP energy per Si atom -5568.606707 kJ/mol
# Density = 1.889118 g / cm^3
# Si number density = 18.934272 Si / 1000 Ang^3
#
#
#
# Elastic Constant Matrix: (Units=GPa)
#
#
# Indices 1 2 3 4 5 6 
#
# 1 97.5110 29.5445 56.3948 0.0000 0.0000 0.0000
# 2 29.5445 62.7905 17.5633 0.0000 0.0000 0.0000
# 3 56.3948 17.5633 93.0380 0.0000 0.0000 0.0000
# 4 0.0000 0.0000 0.0000 14.3828 0.0000 0.0000
# 5 0.0000 0.0000 0.0000 0.0000 17.5472 0.0000
# 6 0.0000 0.0000 0.0000 0.0000 0.0000 13.4137
#
#
#
# Elastic Compliance Matrix: (Units=1/GPa)
#
#
# Indices 1 2 3 4 5 6 
#
# 1 0.017445 -0.005543 -0.009528 0.000000 0.000000 0.000000
# 2 -0.005543 0.018575 -0.000146 0.000000 0.000000 0.000000
# 3 -0.009528 -0.000146 0.016551 0.000000 0.000000 0.000000
# 4 0.000000 0.000000 0.000000 0.069527 0.000000 0.000000
# 5 0.000000 0.000000 0.000000 0.000000 0.056989 0.000000
# 6 0.000000 0.000000 0.000000 0.000000 0.000000 0.074550
#
#
# Mechanical properties :
#
#
# Convention : Reuss Voigt Hill
#
# Bulk Modulus (GPa) = 45.17478 51.14942 48.16210
# Shear Modulus (GPa) = 17.15543 19.05788 18.10665
#
# Velocity S-wave (km/s) = 3.01333 3.17602 3.09575
# Velocity P-wave (km/s) = 6.00145 6.36572 6.18627
#
# Compressibility (1/GPa) = 0.02213625
#
# Stress axis : x y z
#
# Youngs Moduli (GPa) = 57.32218 53.83519 60.41821
#
# Poissons Ratio (x) = 0.29843 0.57566
# Poissons Ratio (y) = 0.31776 0.00885
# Poissons Ratio (z) = 0.54616 0.00788
#
# Static dielectric constant tensor:
#      x y z
#    x 1.653910 0.000000 0.000000 
#    y 0.000000 1.699220 0.000000 
#    z 0.000000 0.000000 1.666550 
# 
# From -- ./inp_files/6978.got.cif
#   From: 2010.05.17/outbox.cif.g08.bks.cpg/sg58_4_cif.got.tgz:6978.got - 2010.06.03 14:20:14.
