data_PCOD9442356
_publ_section_title
;
Structure prediction by ZEFSAII (Michael W. Deem and Ramdas Pophale) SiO2 
 PCOD9442356
Probable space group: P N N M
;
_chemical_formula_sum "Si O2"
_cell_formula_units_Z 64
_cell_length_a 13.468980
_cell_length_b 29.191960
_cell_length_c 7.644497
_cell_angle_alpha 90.000000
_cell_angle_beta 90.000000
_cell_angle_gamma 90.000000
_cell_volume 3005.708627
_symmetry_space_group_name_H-M "P N N M"
_symmetry_group_IT_number 58
_symmetry_cell_setting 'orthorhombic'
loop_
_space_group_symop_operation_xyz
x,y,z
-x,-y,z
1/2+x,1/2-y,1/2-z
1/2-x,1/2+y,1/2-z
-x,-y,-z
x,y,-z
1/2-x,1/2+y,1/2+z
1/2+x,1/2-y,1/2+z
loop_
_atom_site_type_symbol
_atom_site_label
_atom_site_fract_x
_atom_site_fract_y
_atom_site_fract_z
Si Si1 0.372731 0.045408 0.214353
Si Si2 0.488123 0.354631 0.706560
Si Si3 0.323133 0.186301 0.303247
Si Si4 0.409464 0.940388 0.790253
Si Si5 0.288798 0.773477 0.705530
Si Si6 0.483342 0.250403 0.293422
Si Si7 0.727294 0.626683 0.792332
Si Si8 0.192215 0.103740 0.800455
O O1 0.476776 0.069796 0.269801
O O2 0.268897 0.066737 0.278392
O O3 0.383939 0.992327 0.265168
O O4 0.369844 0.047812 0.000000
O O5 0.509175 0.348097 0.500000
O O6 0.473796 0.302405 0.777792
O O7 0.384633 0.381777 0.725132
O O8 0.585846 0.380842 0.778308
O O9 0.340942 0.168389 0.500000
O O10 0.258330 0.232124 0.308732
O O11 0.420880 0.208027 0.218152
O O12 0.260945 0.148951 0.200434
O O13 0.318490 0.907329 0.744084
O O14 0.414703 0.940946 0.000000
O O15 0.259510 0.769825 0.500000
O O16 0.404698 0.765356 0.714722
O O17 0.257457 0.822904 0.773528
O O18 0.454590 0.252612 0.500000
O O19 0.718141 0.629101 0.000000
O O20 0.171306 0.088870 0.000000
#
# Coordination Sequence:
#
# PCOD9442356 Si02
#       8
#     8   8   8   8   8   8   8   8
#     4   8  17  36  62  87 107 135 177 223 269 325
#     4  10  19  35  56  73 103 148 184 219 263 312
#     4  11  21  32  50  76 106 139 178 220 263 315
#     4   9  18  37  62  84 110 138 171 222 277 327
#     4  10  20  36  52  70 103 145 183 221 260 310
#     4   9  18  33  49  68 100 141 178 214 261 308
#     4  11  23  35  54  82 112 143 182 226 270 322
#     4  10  20  36  57  80 106 140 182 222 267 321
#
# _framework density 21.292818
#
# number of rings (size 3 to 8) (size 9 to 14) (size 15 to 20)
#    0.000    2.250    2.500    1.500    1.750    1.000 
#    0.000    3.750    0.000    3.750    0.000    0.000 
#    0.000    0.000    0.000    0.000    0.000    0.000 
#
# Total GULP energy -356701.065283 kJ/mol
# GULP energy per Si atom -5573.454145 kJ/mol
# Density = 2.124435 g / cm^3
# Si number density = 21.292818 Si / 1000 Ang^3
#
#
#
# Elastic Constant Matrix: (Units=GPa)
#
#
# Indices 1 2 3 4 5 6 
#
# 1 87.1695 14.1839 3.6916 0.0000 0.0000 0.0000
# 2 14.1839 45.6822 -4.1767 0.0000 0.0000 0.0000
# 3 3.6916 -4.1767 41.5652 0.0000 0.0000 0.0000
# 4 0.0000 0.0000 0.0000 35.4584 0.0000 0.0000
# 5 0.0000 0.0000 0.0000 0.0000 2.9264 0.0000
# 6 0.0000 0.0000 0.0000 0.0000 0.0000 34.1868
#
#
#
# Elastic Compliance Matrix: (Units=1/GPa)
#
#
# Indices 1 2 3 4 5 6 
#
# 1 0.012171 -0.003914 -0.001474 0.000000 0.000000 0.000000
# 2 -0.003914 0.023352 0.002694 0.000000 0.000000 0.000000
# 3 -0.001474 0.002694 0.024460 0.000000 0.000000 0.000000
# 4 0.000000 0.000000 0.000000 0.028202 0.000000 0.000000
# 5 0.000000 0.000000 0.000000 0.000000 0.341722 0.000000
# 6 0.000000 0.000000 0.000000 0.000000 0.000000 0.029251
#
#
# Mechanical properties :
#
#
# Convention : Reuss Voigt Hill
#
# Bulk Modulus (GPa) = 18.31654 22.42382 20.37018
# Shear Modulus (GPa) = 10.35745 25.22887 17.79316
#
# Velocity S-wave (km/s) = 2.20791 3.44590 2.89388
# Velocity P-wave (km/s) = 3.88853 5.13677 4.55560
#
# Compressibility (1/GPa) = 0.05459547
#
# Stress axis : x y z
#
# Youngs Moduli (GPa) = 82.16133 42.82306 40.88263
#
# Poissons Ratio (x) = 0.16760 0.06027
# Poissons Ratio (y) = 0.32157 -0.11014
# Poissons Ratio (z) = 0.12113 -0.11537
#
# Static dielectric constant tensor:
#      x y z
#    x 1.752670 0.000000 0.000000 
#    y 0.000000 1.761810 0.000000 
#    z 0.000000 0.000000 1.823780 
# 
# From -- ./inp_files/4682.got.cif
#   From: 2010.05.17/outbox.cif.g08.bks.cpg/sg58_3_cif.got.tgz:4682.got - 2010.06.03 14:20:14.
