data_PCOD9442923
_publ_section_title
;
Structure prediction by ZEFSAII (Michael W. Deem and Ramdas Pophale) SiO2 
 PCOD9442923
Probable space group: P N N M
;
_chemical_formula_sum "Si O2"
_cell_formula_units_Z 64
_cell_length_a 30.826403
_cell_length_b 14.640674
_cell_length_c 8.707458
_cell_angle_alpha 90.000000
_cell_angle_beta 90.000000
_cell_angle_gamma 90.000000
_cell_volume 3929.843997
_symmetry_space_group_name_H-M "P N N M"
_symmetry_group_IT_number 58
_symmetry_cell_setting 'orthorhombic'
loop_
_space_group_symop_operation_xyz
x,y,z
-x,-y,z
1/2+x,1/2-y,1/2-z
1/2-x,1/2+y,1/2-z
-x,-y,-z
x,y,-z
1/2-x,1/2+y,1/2+z
1/2+x,1/2-y,1/2+z
loop_
_atom_site_type_symbol
_atom_site_label
_atom_site_fract_x
_atom_site_fract_y
_atom_site_fract_z
Si Si1 0.134380 0.190832 0.182009
Si Si2 0.044473 0.101766 0.183366
Si Si3 0.766226 0.478046 0.680748
Si Si4 0.365377 0.337651 0.680228
Si Si5 0.325451 0.512590 0.822531
Si Si6 0.783414 0.266287 0.682442
Si Si7 0.803139 0.670573 0.318160
Si Si8 0.451544 0.398364 0.183067
O O1 0.083804 0.171372 0.213931
O O2 0.155890 0.285096 0.233520
O O3 0.160061 0.113177 0.274847
O O4 0.141403 0.177615 0.000000
O O5 0.998472 0.130718 0.253247
O O6 0.055041 0.002079 0.254254
O O7 0.040342 0.090669 0.000000
O O8 0.752464 0.482887 0.500000
O O9 0.725274 0.495457 0.788921
O O10 0.782291 0.375356 0.707894
O O11 0.798792 0.561882 0.705580
O O12 0.368718 0.321166 0.500000
O O13 0.349097 0.440360 0.714170
O O14 0.327864 0.275161 0.752421
O O15 0.412569 0.335114 0.757747
O O16 0.335770 0.493380 0.000000
O O17 0.781155 0.249377 0.500000
O O18 0.741251 0.218745 0.758455
O O19 0.806400 0.687866 0.500000
O O20 0.452024 0.401502 0.000000
#
# Coordination Sequence:
#
# PCOD9442923 Si02
#       8
#     8   8   8   8   8   8   8   8
#     4  11  22  35  52  75 107 144 178 216 260 312
#     4  10  20  34  52  74 106 142 173 211 266 314
#     4  10  22  38  53  71 105 142 176 220 267 307
#     4  12  23  36  52  74 107 142 178 216 264 317
#     4  12  22  31  51  76 103 139 181 220 258 308
#     4  11  22  36  54  76 103 138 180 221 263 310
#     4  11  22  35  53  77 105 140 180 219 261 311
#     4  11  21  33  52  77 105 136 176 217 258 310
#
# _framework density 16.285634000000002
#
# number of rings (size 3 to 8) (size 9 to 14) (size 15 to 20)
#    0.000    1.000    3.750    5.625    0.000    2.500 
#    0.000    0.000    0.000    0.000    0.000    0.875 
#    0.000    7.000    0.000    0.000    0.000    0.000 
#
# Total GULP energy -357487.997495 kJ/mol
# GULP energy per Si atom -5585.749961 kJ/mol
# Density = 1.624857 g / cm^3
# Si number density = 16.285634 Si / 1000 Ang^3
#
#
#
# Elastic Constant Matrix: (Units=GPa)
#
#
# Indices 1 2 3 4 5 6 
#
# 1 86.3578 2.5338 27.8228 0.0000 0.0000 0.0000
# 2 2.5338 37.8600 5.2044 0.0000 0.0000 0.0000
# 3 27.8228 5.2044 71.3973 0.0000 0.0000 0.0000
# 4 0.0000 0.0000 0.0000 18.4652 0.0000 0.0000
# 5 0.0000 0.0000 0.0000 0.0000 -8.1971 0.0000
# 6 0.0000 0.0000 0.0000 0.0000 0.0000 22.5800
#
#
#
# Elastic Compliance Matrix: (Units=1/GPa)
#
#
# Indices 1 2 3 4 5 6 
#
# 1 0.013244 -0.000179 -0.005148 0.000000 0.000000 0.000000
# 2 -0.000179 0.026683 -0.001875 0.000000 0.000000 0.000000
# 3 -0.005148 -0.001875 0.016149 0.000000 0.000000 0.000000
# 4 0.000000 0.000000 0.000000 0.054156 0.000000 0.000000
# 5 0.000000 0.000000 0.000000 0.000000 -0.121994 0.000000
# 6 0.000000 0.000000 0.000000 0.000000 0.000000 0.044287
#
#
# Mechanical properties :
#
#
# Convention : Reuss Voigt Hill
#
# Bulk Modulus (GPa) = 23.99723 29.63746 26.81734
# Shear Modulus (GPa) = 82.21225 17.23988 49.72607
#
# Velocity S-wave (km/s) = 7.11274 3.25713 5.53173
# Velocity P-wave (km/s) = 9.06763 5.69063 7.56985
#
# Compressibility (1/GPa) = 0.04167147
#
# Stress axis : x y z
#
# Youngs Moduli (GPa) = 75.50865 37.47722 61.92373
#
# Poissons Ratio (x) = 0.00670 0.31877
# Poissons Ratio (y) = 0.01349 0.11613
# Poissons Ratio (z) = 0.38871 0.07028
#
# Static dielectric constant tensor:
#      x y z
#    x 1.557820 0.000000 0.000000 
#    y 0.000000 1.538730 0.000000 
#    z 0.000000 0.000000 1.547500 
# 
# From -- ./inp_files/11142.got.cif
#   From: 2010.05.17/outbox.cif.g08.bks.cpg/sg58_6_cif.got.tgz:11142.got - 2010.06.03 14:20:14.
