data_PCOD9442642
_publ_section_title
;
Structure prediction by ZEFSAII (Michael W. Deem and Ramdas Pophale) SiO2 
 PCOD9442642
Probable space group: P N N M
;
_chemical_formula_sum "Si O2"
_cell_formula_units_Z 48
_cell_length_a 28.949893
_cell_length_b 9.534811
_cell_length_c 8.847522
_cell_angle_alpha 90.000000
_cell_angle_beta 90.000000
_cell_angle_gamma 90.000000
_cell_volume 2442.197054
_symmetry_space_group_name_H-M "P N N M"
_symmetry_group_IT_number 58
_symmetry_cell_setting 'orthorhombic'
loop_
_space_group_symop_operation_xyz
x,y,z
-x,-y,z
1/2+x,1/2-y,1/2-z
1/2-x,1/2+y,1/2-z
-x,-y,-z
x,y,-z
1/2-x,1/2+y,1/2+z
1/2+x,1/2-y,1/2+z
loop_
_atom_site_type_symbol
_atom_site_label
_atom_site_fract_x
_atom_site_fract_y
_atom_site_fract_z
Si Si1 0.618927 0.829655 0.319593
Si Si2 0.280787 0.689596 0.317421
Si Si3 0.460021 0.616783 0.325393
Si Si4 0.519855 0.844381 0.827278
Si Si5 0.696041 0.008237 0.180906
Si Si6 0.636651 0.516997 0.683748
O O1 0.623569 0.840023 0.500000
O O2 0.565177 0.829558 0.275313
O O3 0.646989 0.955637 0.243417
O O4 0.639215 0.678751 0.267341
O O5 0.282271 0.702785 0.500000
O O6 0.233269 0.611708 0.275745
O O7 0.321713 0.583341 0.269592
O O8 0.288421 0.842024 0.246469
O O9 0.500000 0.500000 0.324614
O O10 0.453501 0.662461 0.500000
O O11 0.479470 0.742182 0.227040
O O12 0.412305 0.549569 0.270257
O O13 0.500000 0.000000 0.819187
O O14 0.533078 0.812317 0.000000
O O15 0.694943 0.017614 0.000000
O O16 0.636545 0.520779 0.500000
#
# Coordination Sequence:
#
# PCOD9442642 Si02
#       6
#     8   8   8   8   8   8
#     4  11  22  41  66  89 118 161 208 250 303 364
#     4  10  22  41  64  90 121 162 201 241 299 364
#     4  10  19  37  62  89 118 156 207 252 294 353
#     4  11  25  41  57  86 128 163 200 252 308 361
#     4  11  24  41  62  92 128 157 199 255 303 355
#     4   9  19  37  62  90 118 153 205 255 292 352
#
# _framework density 19.654433000000001
#
# number of rings (size 3 to 8) (size 9 to 14) (size 15 to 20)
#    0.000    1.667    1.667    2.500    2.333    4.333 
#    0.000    1.667    0.000    0.000    0.000    0.000 
#    0.000    0.000    0.000    0.000    0.000    0.000 
#
# Total GULP energy -268205.186102 kJ/mol
# GULP energy per Si atom -5587.608044 kJ/mol
# Density = 1.960970 g / cm^3
# Si number density = 19.654433 Si / 1000 Ang^3
#
#
#
# Elastic Constant Matrix: (Units=GPa)
#
#
# Indices 1 2 3 4 5 6 
#
# 1 57.1125 1.8224 3.3915 0.0000 0.0000 0.0000
# 2 1.8224 91.5137 29.9374 0.0000 0.0000 0.0000
# 3 3.3915 29.9374 35.7484 0.0000 0.0000 0.0000
# 4 0.0000 0.0000 0.0000 36.5351 0.0000 0.0000
# 5 0.0000 0.0000 0.0000 0.0000 67.4745 0.0000
# 6 0.0000 0.0000 0.0000 0.0000 0.0000 34.1924
#
#
#
# Elastic Compliance Matrix: (Units=1/GPa)
#
#
# Indices 1 2 3 4 5 6 
#
# 1 0.017613 0.000270 -0.001897 0.000000 0.000000 0.000000
# 2 0.000270 0.015055 -0.012633 0.000000 0.000000 0.000000
# 3 -0.001897 -0.012633 0.038733 0.000000 0.000000 0.000000
# 4 0.000000 0.000000 0.000000 0.027371 0.000000 0.000000
# 5 0.000000 0.000000 0.000000 0.000000 0.014820 0.000000
# 6 0.000000 0.000000 0.000000 0.000000 0.000000 0.029246
#
#
# Mechanical properties :
#
#
# Convention : Reuss Voigt Hill
#
# Bulk Modulus (GPa) = 23.32070 28.29746 25.80908
# Shear Modulus (GPa) = 26.93204 37.58860 32.26032
#
# Velocity S-wave (km/s) = 3.70574 4.37793 4.05579
# Velocity P-wave (km/s) = 5.49556 6.32327 5.92389
#
# Compressibility (1/GPa) = 0.04288036
#
# Stress axis : x y z
#
# Youngs Moduli (GPa) = 56.77513 66.42442 25.81791
#
# Poissons Ratio (x) = -0.01792 0.04897
# Poissons Ratio (y) = -0.01532 0.32616
# Poissons Ratio (z) = 0.10770 0.83915
#
# Static dielectric constant tensor:
#      x y z
#    x 1.683300 0.000000 0.000000 
#    y 0.000000 1.722950 0.000000 
#    z 0.000000 0.000000 1.667970 
# 
# From -- ./inp_files/10758.got.cif
#   From: 2010.05.17/outbox.cif.g08.bks.cpg/sg58_6_cif.got.tgz:10758.got - 2010.06.03 14:20:14.
