data_PCOD9442410
_publ_section_title
;
Structure prediction by ZEFSAII (Michael W. Deem and Ramdas Pophale) SiO2 
 PCOD9442410
Probable space group: P N N M
;
_chemical_formula_sum "Si O2"
_cell_formula_units_Z 64
_cell_length_a 23.854914
_cell_length_b 15.755160
_cell_length_c 7.947422
_cell_angle_alpha 90.000000
_cell_angle_beta 90.000000
_cell_angle_gamma 90.000000
_cell_volume 2986.943085
_symmetry_space_group_name_H-M "P N N M"
_symmetry_group_IT_number 58
_symmetry_cell_setting 'orthorhombic'
loop_
_space_group_symop_operation_xyz
x,y,z
-x,-y,z
1/2+x,1/2-y,1/2-z
1/2-x,1/2+y,1/2-z
-x,-y,-z
x,y,-z
1/2-x,1/2+y,1/2+z
1/2+x,1/2-y,1/2+z
loop_
_atom_site_type_symbol
_atom_site_label
_atom_site_fract_x
_atom_site_fract_y
_atom_site_fract_z
Si Si1 0.211386 0.500569 0.194241
Si Si2 0.502078 0.096363 0.204766
Si Si3 0.198494 0.688418 0.304783
Si Si4 0.164576 0.995249 0.191851
Si Si5 0.627098 0.145137 0.796368
Si Si6 0.820670 0.817281 0.305349
Si Si7 0.954850 0.068535 0.697175
Si Si8 0.422261 0.247131 0.793247
O O1 0.193490 0.585650 0.293455
O O2 0.274004 0.469261 0.241364
O O3 0.167191 0.426878 0.224611
O O4 0.213127 0.526055 0.000000
O O5 0.563159 0.130018 0.247592
O O6 0.455597 0.163230 0.262173
O O7 0.500000 0.000000 0.266717
O O8 0.497296 0.093382 0.000000
O O9 0.206913 0.711330 0.500000
O O10 0.255375 0.707249 0.206841
O O11 0.142599 0.735126 0.242901
O O12 0.168170 0.097225 0.204813
O O13 0.108872 0.965375 0.286691
O O14 0.159003 0.967535 0.000000
O O15 0.645161 0.237918 0.740146
O O16 0.632613 0.142079 0.000000
O O17 0.335137 0.665432 0.000000
O O18 0.969339 0.077239 0.500000
O O19 0.951110 0.165203 0.765066
O O20 0.000000 0.000000 0.768151
O O21 0.422344 0.248385 0.000000
#
# Coordination Sequence:
#
# PCOD9442410 Si02
#       8
#     8   8   8   8   8   8   8   8
#     4  11  22  37  59  86 119 155 194 239 298 358
#     4   9  17  32  57  87 117 150 192 240 287 344
#     4  10  19  35  58  84 116 150 193 241 295 350
#     4  11  23  40  61  84 117 155 199 245 301 356
#     4  10  21  35  58  88 118 151 192 241 293 353
#     4  10  21  36  57  86 117 151 193 239 297 358
#     4  10  22  39  62  88 118 156 202 252 301 356
#     4   9  19  34  58  90 118 152 197 246 295 349
#
# _framework density 21.426587999999999
#
# number of rings (size 3 to 8) (size 9 to 14) (size 15 to 20)
#    0.000    2.000    0.000    5.250    3.500    3.250 
#    0.000    0.625    0.000    4.125    0.000    0.000 
#    0.000    0.000    0.000    0.000    0.000    0.000 
#
# Total GULP energy -357456.732759 kJ/mol
# GULP energy per Si atom -5585.261449 kJ/mol
# Density = 2.137782 g / cm^3
# Si number density = 21.426588 Si / 1000 Ang^3
#
#
#
# Elastic Constant Matrix: (Units=GPa)
#
#
# Indices 1 2 3 4 5 6 
#
# 1 66.7786 40.0332 -11.3475 0.0000 0.0000 0.0000
# 2 40.0332 82.1255 -7.4496 0.0000 0.0000 0.0000
# 3 -11.3475 -7.4496 28.2019 0.0000 0.0000 0.0000
# 4 0.0000 0.0000 0.0000 11.1997 0.0000 0.0000
# 5 0.0000 0.0000 0.0000 0.0000 22.6554 0.0000
# 6 0.0000 0.0000 0.0000 0.0000 0.0000 33.2291
#
#
#
# Elastic Compliance Matrix: (Units=1/GPa)
#
#
# Indices 1 2 3 4 5 6 
#
# 1 0.022173 -0.010245 0.006215 0.000000 0.000000 0.000000
# 2 -0.010245 0.017209 0.000424 0.000000 0.000000 0.000000
# 3 0.006215 0.000424 0.038071 0.000000 0.000000 0.000000
# 4 0.000000 0.000000 0.000000 0.089288 0.000000 0.000000
# 5 0.000000 0.000000 0.000000 0.000000 0.044140 0.000000
# 6 0.000000 0.000000 0.000000 0.000000 0.000000 0.030094
#
#
# Mechanical properties :
#
#
# Convention : Reuss Voigt Hill
#
# Bulk Modulus (GPa) = 14.23655 24.39758 19.31706
# Shear Modulus (GPa) = 18.40948 23.80817 21.10883
#
# Velocity S-wave (km/s) = 2.93437 3.33701 3.14215
# Velocity P-wave (km/s) = 4.25905 5.12434 4.71160
#
# Compressibility (1/GPa) = 0.07024174
#
# Stress axis : x y z
#
# Youngs Moduli (GPa) = 45.10090 58.10996 26.26646
#
# Poissons Ratio (x) = 0.59531 -0.16326
# Poissons Ratio (y) = 0.46204 -0.01113
# Poissons Ratio (z) = -0.28032 -0.02462
#
# Static dielectric constant tensor:
#      x y z
#    x 1.746390 0.000000 0.000000 
#    y 0.000000 1.766090 0.000000 
#    z 0.000000 0.000000 1.779230 
# 
# From -- ./inp_files/10115.got.cif
#   From: 2010.05.17/outbox.cif.g08.bks.cpg/sg58_6_cif.got.tgz:10115.got - 2010.06.03 14:20:14.
