data_PCOD9442407
_publ_section_title
;
Structure prediction by ZEFSAII (Michael W. Deem and Ramdas Pophale) SiO2 
 PCOD9442407
Probable space group: P N N M
;
_chemical_formula_sum "Si O2"
_cell_formula_units_Z 40
_cell_length_a 19.264929
_cell_length_b 12.790219
_cell_length_c 7.546944
_cell_angle_alpha 90.000000
_cell_angle_beta 90.000000
_cell_angle_gamma 90.000000
_cell_volume 1859.587083
_symmetry_space_group_name_H-M "P N N M"
_symmetry_group_IT_number 58
_symmetry_cell_setting 'orthorhombic'
loop_
_space_group_symop_operation_xyz
x,y,z
-x,-y,z
1/2+x,1/2-y,1/2-z
1/2-x,1/2+y,1/2-z
-x,-y,-z
x,y,-z
1/2-x,1/2+y,1/2+z
1/2+x,1/2-y,1/2+z
loop_
_atom_site_type_symbol
_atom_site_label
_atom_site_fract_x
_atom_site_fract_y
_atom_site_fract_z
Si Si1 0.605824 0.825694 0.706302
Si Si2 0.188892 0.879464 0.705701
Si Si3 0.950631 0.717077 0.783428
Si Si4 0.926064 0.951395 0.785482
Si Si5 0.162055 0.454716 0.782871
O O1 0.593391 0.849789 0.500000
O O2 0.652759 0.722644 0.714609
O O3 0.529234 0.802071 0.780558
O O4 0.643351 0.928593 0.779476
O O5 0.198613 0.853655 0.500000
O O6 0.263500 0.912898 0.779723
O O7 0.136272 0.976400 0.721539
O O8 0.923965 0.831129 0.727334
O O9 0.898909 0.624835 0.731818
O O10 0.951951 0.719689 0.000000
O O11 0.924209 0.954151 0.000000
O O12 0.000000 0.000000 0.730750
O O13 0.165444 0.456229 0.000000
#
# Coordination Sequence:
#
# PCOD9442407 Si02
#       5
#     8   8   8   8   8
#     4  10  19  37  61  81 104 140 189 232 267 316
#     4  11  23  36  52  82 119 148 175 218 283 337
#     4   9  17  33  59  85 105 135 185 236 270 308
#     4  10  19  35  58  83 107 140 189 229 262 314
#     4   9  20  35  55  83 112 142 180 227 278 329
#
# _framework density 21.510151
#
# number of rings (size 3 to 8) (size 9 to 14) (size 15 to 20)
#    0.000    2.200    2.000    1.200    2.800    2.800 
#    0.000    1.000    0.000    6.000    0.000    0.000 
#    0.000    0.000    0.000    0.000    0.000    0.000 
#
# Total GULP energy -223485.558647 kJ/mol
# GULP energy per Si atom -5587.138966 kJ/mol
# Density = 2.146119 g / cm^3
# Si number density = 21.510151 Si / 1000 Ang^3
#
#
#
# Elastic Constant Matrix: (Units=GPa)
#
#
# Indices 1 2 3 4 5 6 
#
# 1 155.1406 108.6529 -7.3293 0.0000 0.0000 0.0000
# 2 108.6529 181.0556 -12.7449 0.0000 0.0000 0.0000
# 3 -7.3293 -12.7449 44.6672 0.0000 0.0000 0.0000
# 4 0.0000 0.0000 0.0000 2.9340 0.0000 0.0000
# 5 0.0000 0.0000 0.0000 0.0000 11.2347 0.0000
# 6 0.0000 0.0000 0.0000 0.0000 0.0000 25.4306
#
#
#
# Elastic Compliance Matrix: (Units=1/GPa)
#
#
# Indices 1 2 3 4 5 6 
#
# 1 0.011119 -0.006678 -0.000081 0.000000 0.000000 0.000000
# 2 -0.006678 0.009648 0.001657 0.000000 0.000000 0.000000
# 3 -0.000081 0.001657 0.022847 0.000000 0.000000 0.000000
# 4 0.000000 0.000000 0.000000 0.340836 0.000000 0.000000
# 5 0.000000 0.000000 0.000000 0.000000 0.089010 0.000000
# 6 0.000000 0.000000 0.000000 0.000000 0.000000 0.039323
#
#
# Mechanical properties :
#
#
# Convention : Reuss Voigt Hill
#
# Bulk Modulus (GPa) = 29.93217 62.00232 45.96725
# Shear Modulus (GPa) = 9.36112 27.40550 18.38331
#
# Velocity S-wave (km/s) = 2.08840 3.57329 2.92658
# Velocity P-wave (km/s) = 4.44531 6.77582 5.73029
#
# Compressibility (1/GPa) = 0.03340887
#
# Stress axis : x y z
#
# Youngs Moduli (GPa) = 89.93478 103.65313 43.76896
#
# Poissons Ratio (x) = 0.69224 0.00355
# Poissons Ratio (y) = 0.60062 -0.07252
# Poissons Ratio (z) = 0.00729 -0.17174
#
# Static dielectric constant tensor:
#      x y z
#    x 1.741360 0.000000 0.000000 
#    y 0.000000 1.731380 0.000000 
#    z 0.000000 0.000000 1.835260 
# 
# From -- ./inp_files/3769.got.cif
#   From: 2010.05.17/outbox.cif.g08.bks.cpg/sg58_2_cif.got.tgz:3769.got - 2010.06.03 14:20:14.
