data_PCOD9442500
_publ_section_title
;
Structure prediction by ZEFSAII (Michael W. Deem and Ramdas Pophale) SiO2 
 PCOD9442500
Probable space group: P N N M
;
_chemical_formula_sum "Si O2"
_cell_formula_units_Z 60
_cell_length_a 22.326999
_cell_length_b 5.546244
_cell_length_c 23.067998
_cell_angle_alpha 90.000000
_cell_angle_beta 90.000000
_cell_angle_gamma 90.000000
_cell_volume 2856.532897
_symmetry_space_group_name_H-M "P N N M"
_symmetry_group_IT_number 58
_symmetry_cell_setting 'orthorhombic'
loop_
_space_group_symop_operation_xyz
x,y,z
-x,-y,z
1/2+x,1/2-y,1/2-z
1/2-x,1/2+y,1/2-z
-x,-y,-z
x,y,-z
1/2-x,1/2+y,1/2+z
1/2+x,1/2-y,1/2+z
loop_
_atom_site_type_symbol
_atom_site_label
_atom_site_fract_x
_atom_site_fract_y
_atom_site_fract_z
Si Si1 0.432334 0.887520 0.562108
Si Si2 0.392638 0.936338 0.214367
Si Si3 0.067398 0.434067 0.588352
Si Si4 0.678023 0.446240 0.711808
Si Si5 0.638694 0.561883 0.935139
Si Si6 0.413369 0.171197 0.671935
Si Si7 0.788039 0.200639 0.674794
Si Si8 0.000000 0.000000 0.108869
O O1 0.403434 0.939685 0.500000
O O2 0.446868 0.606320 0.570429
O O3 0.500000 0.000000 0.559328
O O4 0.401873 0.979819 0.620685
O O5 0.369589 0.714318 0.252850
O O6 0.431075 0.890659 0.157755
O O7 0.425416 0.089171 0.263071
O O8 0.335250 0.086955 0.190707
O O9 0.096955 0.180613 0.566904
O O10 0.000000 0.500000 0.569760
O O11 0.104168 0.679994 0.572973
O O12 0.643129 0.653712 0.678333
O O13 0.722087 0.308217 0.668636
O O14 0.716084 0.547064 0.766106
O O15 0.684799 0.560484 0.880564
O O16 0.665682 0.565777 0.000000
O O17 0.472156 0.303851 0.650290
#
# Coordination Sequence:
#
# PCOD9442500 Si02
#       8
#     8   8   8   8   8   8   8   4
#     4   9  18  34  54  79 111 156 206 243 291 370
#     4  10  21  37  56  87 122 157 200 263 321 388
#     4  11  24  41  65  97 132 175 222 270 328 399
#     4  11  19  37  62  89 118 157 212 264 321 393
#     4  11  24  44  66  95 133 174 224 274 333 397
#     4  10  22  34  55  89 122 156 199 262 320 383
#     4  10  21  37  63  91 117 161 216 267 322 387
#     4  10  19  36  56  82 116 168 203 244 314 386
#
# _framework density 21.004484000000001
#
# number of rings (size 3 to 8) (size 9 to 14) (size 15 to 20)
#    0.000    1.733    2.667    1.800    0.000    4.800 
#    0.000    0.667    0.000    0.800    0.000    0.000 
#    0.000    0.000    0.000    0.000    0.000    0.000 
#
# Total GULP energy -334339.160059 kJ/mol
# GULP energy per Si atom -5572.319334 kJ/mol
# Density = 2.095668 g / cm^3
# Si number density = 21.004484 Si / 1000 Ang^3
#
#
#
# Elastic Constant Matrix: (Units=GPa)
#
#
# Indices 1 2 3 4 5 6 
#
# 1 49.0877 17.5711 41.3622 0.0000 0.0000 0.0000
# 2 17.5711 84.6717 34.8543 0.0000 0.0000 0.0000
# 3 41.3622 34.8543 144.2375 0.0000 0.0000 0.0000
# 4 0.0000 0.0000 0.0000 10.3021 0.0000 0.0000
# 5 0.0000 0.0000 0.0000 0.0000 5.9649 0.0000
# 6 0.0000 0.0000 0.0000 0.0000 0.0000 30.2169
#
#
#
# Elastic Compliance Matrix: (Units=1/GPa)
#
#
# Indices 1 2 3 4 5 6 
#
# 1 0.027417 -0.002724 -0.007204 0.000000 0.000000 0.000000
# 2 -0.002724 0.013386 -0.002453 0.000000 0.000000 0.000000
# 3 -0.007204 -0.002453 0.009592 0.000000 0.000000 0.000000
# 4 0.000000 0.000000 0.000000 0.097068 0.000000 0.000000
# 5 0.000000 0.000000 0.000000 0.000000 0.167647 0.000000
# 6 0.000000 0.000000 0.000000 0.000000 0.000000 0.033094
#
#
# Mechanical properties :
#
#
# Convention : Reuss Voigt Hill
#
# Bulk Modulus (GPa) = 39.01477 51.73022 45.37249
# Shear Modulus (GPa) = 13.10582 21.57740 17.34161
#
# Velocity S-wave (km/s) = 2.50062 3.20859 2.87647
# Velocity P-wave (km/s) = 5.19156 6.19745 5.71667
#
# Compressibility (1/GPa) = 0.02563132
#
# Stress axis : x y z
#
# Youngs Moduli (GPa) = 36.47369 74.70741 104.25700
#
# Poissons Ratio (x) = 0.20352 0.75106
# Poissons Ratio (y) = 0.09936 0.25578
# Poissons Ratio (z) = 0.26275 0.18328
#
# Static dielectric constant tensor:
#      x y z
#    x 1.811780 0.000000 0.000000 
#    y 0.000000 1.930760 0.000000 
#    z 0.000000 0.000000 1.773800 
# 
# From -- ./inp_files/32406.got.cif
#   From: 2010.05.17/outbox.cif.g08.bks.cpg/sg58_17_cif.got.tgz:32406.got - 2010.06.03 14:20:14.
