data_PCOD9442441
_publ_section_title
;
Structure prediction by ZEFSAII (Michael W. Deem and Ramdas Pophale) SiO2 
 PCOD9442441
Probable space group: P N N M
;
_chemical_formula_sum "Si O2"
_cell_formula_units_Z 64
_cell_length_a 19.311491
_cell_length_b 19.710898
_cell_length_c 7.766001
_cell_angle_alpha 90.000000
_cell_angle_beta 90.000000
_cell_angle_gamma 90.000000
_cell_volume 2956.103657
_symmetry_space_group_name_H-M "P N N M"
_symmetry_group_IT_number 58
_symmetry_cell_setting 'orthorhombic'
loop_
_space_group_symop_operation_xyz
x,y,z
-x,-y,z
1/2+x,1/2-y,1/2-z
1/2-x,1/2+y,1/2-z
-x,-y,-z
x,y,-z
1/2-x,1/2+y,1/2+z
1/2+x,1/2-y,1/2+z
loop_
_atom_site_type_symbol
_atom_site_label
_atom_site_fract_x
_atom_site_fract_y
_atom_site_fract_z
Si Si1 0.016517 0.622939 0.796608
Si Si2 0.971752 0.101195 0.299587
Si Si3 0.391681 0.526585 0.696763
Si Si4 0.770268 0.875858 0.299488
Si Si5 0.640091 0.116277 0.288725
Si Si6 0.097122 0.759375 0.290575
Si Si7 0.141589 0.537548 0.210848
Si Si8 0.754321 0.729121 0.799192
O O1 0.058814 0.692289 0.772733
O O2 0.066457 0.563274 0.729511
O O3 0.938707 0.628797 0.728083
O O4 0.008718 0.609439 0.000000
O O5 0.991239 0.106931 0.500000
O O6 0.944397 0.173294 0.237798
O O7 0.038644 0.071900 0.204659
O O8 0.911988 0.044375 0.283854
O O9 0.373376 0.512925 0.500000
O O10 0.330624 0.569258 0.780626
O O11 0.759842 0.860912 0.500000
O O12 0.700040 0.909806 0.229488
O O13 0.786581 0.804170 0.213266
O O14 0.640039 0.119715 0.500000
O O15 0.694766 0.172079 0.225516
O O16 0.658173 0.039263 0.239521
O O17 0.097654 0.756951 0.500000
O O18 0.176380 0.765150 0.227637
O O19 0.142068 0.539106 0.000000
O O20 0.745322 0.711792 0.000000
#
# Coordination Sequence:
#
# PCOD9442441 Si02
#       8
#     8   8   8   8   8   8   8   8
#     4  10  19  35  59  88 114 146 193 243 291 343
#     4  10  21  39  61  87 115 153 197 240 293 350
#     4  11  23  39  59  86 117 152 194 245 294 343
#     4  11  22  37  59  84 117 157 194 237 285 348
#     4   9  19  34  59  88 113 143 189 245 292 340
#     4  10  22  37  57  82 118 158 191 234 288 349
#     4   9  18  34  58  86 114 147 191 242 293 342
#     4  10  21  38  57  83 116 153 193 237 289 345
#
# _framework density 21.650120000000001
#
# number of rings (size 3 to 8) (size 9 to 14) (size 15 to 20)
#    0.000    2.000    1.250    3.000    3.500    2.500 
#    0.000    0.000    0.000    3.750    0.000    0.000 
#    0.000    0.000    0.000    0.000    0.000    0.000 
#
# Total GULP energy -357554.155873 kJ/mol
# GULP energy per Si atom -5586.783686 kJ/mol
# Density = 2.160084 g / cm^3
# Si number density = 21.650120 Si / 1000 Ang^3
#
#
#
# Elastic Constant Matrix: (Units=GPa)
#
#
# Indices 1 2 3 4 5 6 
#
# 1 34.8114 25.0538 0.2433 0.0000 0.0000 0.0000
# 2 25.0538 101.4617 -12.4895 0.0000 0.0000 0.0000
# 3 0.2433 -12.4895 34.5884 0.0000 0.0000 0.0000
# 4 0.0000 0.0000 0.0000 18.9382 0.0000 0.0000
# 5 0.0000 0.0000 0.0000 0.0000 6.4283 0.0000
# 6 0.0000 0.0000 0.0000 0.0000 0.0000 40.5842
#
#
#
# Elastic Compliance Matrix: (Units=1/GPa)
#
#
# Indices 1 2 3 4 5 6 
#
# 1 0.035348 -0.009167 -0.003559 0.000000 0.000000 0.000000
# 2 -0.009167 0.012691 0.004647 0.000000 0.000000 0.000000
# 3 -0.003559 0.004647 0.030614 0.000000 0.000000 0.000000
# 4 0.000000 0.000000 0.000000 0.052803 0.000000 0.000000
# 5 0.000000 0.000000 0.000000 0.000000 0.155562 0.000000
# 6 0.000000 0.000000 0.000000 0.000000 0.000000 0.024640
#
#
# Mechanical properties :
#
#
# Convention : Reuss Voigt Hill
#
# Bulk Modulus (GPa) = 16.00041 21.83075 18.91558
# Shear Modulus (GPa) = 14.34111 23.72708 19.03409
#
# Velocity S-wave (km/s) = 2.57651 3.31408 2.96829
# Velocity P-wave (km/s) = 4.03209 4.97489 4.52809
#
# Compressibility (1/GPa) = 0.06249839
#
# Stress axis : x y z
#
# Youngs Moduli (GPa) = 28.28994 78.79304 32.66426
#
# Poissons Ratio (x) = 0.72226 0.11624
# Poissons Ratio (y) = 0.25932 -0.15180
# Poissons Ratio (z) = 0.10067 -0.36617
#
# Static dielectric constant tensor:
#      x y z
#    x 1.783490 0.000000 0.000000 
#    y 0.000000 1.754820 0.000000 
#    z 0.000000 0.000000 1.797740 
# 
# From -- ./inp_files/9238.got.cif
#   From: 2010.05.17/outbox.cif.g08.bks.cpg/sg58_5_cif.got.tgz:9238.got - 2010.06.03 14:20:14.
