data_PCOD9442383
_publ_section_title
;
Structure prediction by ZEFSAII (Michael W. Deem and Ramdas Pophale) SiO2 
 PCOD9442383
Probable space group: P N N M
;
_chemical_formula_sum "Si O2"
_cell_formula_units_Z 56
_cell_length_a 14.184951
_cell_length_b 19.778330
_cell_length_c 7.554292
_cell_angle_alpha 90.000000
_cell_angle_beta 90.000000
_cell_angle_gamma 90.000000
_cell_volume 2119.391687
_symmetry_space_group_name_H-M "P N N M"
_symmetry_group_IT_number 58
_symmetry_cell_setting 'orthorhombic'
loop_
_space_group_symop_operation_xyz
x,y,z
-x,-y,z
1/2+x,1/2-y,1/2-z
1/2-x,1/2+y,1/2-z
-x,-y,-z
x,y,-z
1/2-x,1/2+y,1/2+z
1/2+x,1/2-y,1/2+z
loop_
_atom_site_type_symbol
_atom_site_label
_atom_site_fract_x
_atom_site_fract_y
_atom_site_fract_z
Si Si1 0.706498 0.148492 0.701536
Si Si2 0.059705 0.716415 0.707419
Si Si3 0.776018 0.503406 0.787268
Si Si4 0.420385 0.360940 0.703098
Si Si5 0.222817 0.206043 0.216877
Si Si6 0.951573 0.429947 0.787144
Si Si7 0.896450 0.921980 0.787936
O O1 0.670460 0.148042 0.500000
O O2 0.687509 0.075311 0.783265
O O3 0.682649 0.221449 0.779894
O O4 0.821759 0.147101 0.697484
O O5 0.060850 0.730552 0.500000
O O6 0.167687 0.704189 0.771837
O O7 0.011457 0.643490 0.732403
O O8 0.029881 0.786528 0.796500
O O9 0.844155 0.443486 0.723931
O O10 0.668432 0.486462 0.746575
O O11 0.784103 0.506890 0.000000
O O12 0.396600 0.377792 0.500000
O O13 0.497356 0.412846 0.777768
O O14 0.164357 0.141897 0.279106
O O15 0.221829 0.206645 0.000000
O O16 0.000000 0.500000 0.731263
O O17 0.954388 0.429034 0.000000
O O18 0.904781 0.916397 0.000000
#
# Coordination Sequence:
#
# PCOD9442383 Si02
#       7
#     8   8   8   8   8   8   8
#     4   9  19  36  55  77 110 148 187 227 275 333
#     4  10  19  35  58  79 106 143 183 227 278 333
#     4  10  21  36  56  82 112 149 187 229 278 334
#     4  10  21  35  55  83 111 143 186 236 283 325
#     4   8  15  31  55  76  97 137 184 223 268 324
#     4  10  21  36  56  84 116 147 182 230 285 336
#     4  10  20  35  56  81 109 145 187 231 281 335
#
# _framework density 26.422677
#
# number of rings (size 3 to 8) (size 9 to 14) (size 15 to 20)
#    0.000    2.429    1.429    1.714    0.000    3.714 
#    0.000    7.143    0.000    3.429    0.000    0.000 
#    0.000    0.000    0.000    0.000    0.000    0.000 
#
# Total GULP energy -313113.380716 kJ/mol
# GULP energy per Si atom -5591.310370 kJ/mol
# Density = 2.636254 g / cm^3
# Si number density = 26.422677 Si / 1000 Ang^3
#
#
#
# Elastic Constant Matrix: (Units=GPa)
#
#
# Indices 1 2 3 4 5 6 
#
# 1 75.3456 12.8722 -3.7974 0.0000 0.0000 0.0000
# 2 12.8722 131.9156 -9.4195 0.0000 0.0000 0.0000
# 3 -3.7974 -9.4195 79.8682 0.0000 0.0000 0.0000
# 4 0.0000 0.0000 0.0000 17.4237 0.0000 0.0000
# 5 0.0000 0.0000 0.0000 0.0000 10.0320 0.0000
# 6 0.0000 0.0000 0.0000 0.0000 0.0000 54.0979
#
#
#
# Elastic Compliance Matrix: (Units=1/GPa)
#
#
# Indices 1 2 3 4 5 6 
#
# 1 0.013516 -0.001284 0.000491 0.000000 0.000000 0.000000
# 2 -0.001284 0.007767 0.000855 0.000000 0.000000 0.000000
# 3 0.000491 0.000855 0.012645 0.000000 0.000000 0.000000
# 4 0.000000 0.000000 0.000000 0.057393 0.000000 0.000000
# 5 0.000000 0.000000 0.000000 0.000000 0.099681 0.000000
# 6 0.000000 0.000000 0.000000 0.000000 0.000000 0.018485
#
#
# Mechanical properties :
#
#
# Convention : Reuss Voigt Hill
#
# Bulk Modulus (GPa) = 29.36619 31.82667 30.59643
# Shear Modulus (GPa) = 22.65378 35.47566 29.06472
#
# Velocity S-wave (km/s) = 2.93125 3.66816 3.32021
# Velocity P-wave (km/s) = 4.75336 5.47831 5.12866
#
# Compressibility (1/GPa) = 0.03405276
#
# Stress axis : x y z
#
# Youngs Moduli (GPa) = 73.98494 128.75106 79.08381
#
# Poissons Ratio (x) = 0.16529 -0.03885
# Poissons Ratio (y) = 0.09498 -0.06761
# Poissons Ratio (z) = -0.03634 -0.11008
#
# Static dielectric constant tensor:
#      x y z
#    x 2.150050 0.000000 0.000000 
#    y 0.000000 2.097000 0.000000 
#    z 0.000000 0.000000 1.976100 
# 
# From -- ./inp_files/6414.got.cif
#   From: 2010.05.17/outbox.cif.g08.bks.cpg/sg58_4_cif.got.tgz:6414.got - 2010.06.03 14:20:14.
