data_PCOD9443051
_publ_section_title
;
Structure prediction by ZEFSAII (Michael W. Deem and Ramdas Pophale) SiO2 
 PCOD9443051
Probable space group: P N N M
;
_chemical_formula_sum "Si O2"
_cell_formula_units_Z 60
_cell_length_a 12.489246
_cell_length_b 21.646551
_cell_length_c 13.105075
_cell_angle_alpha 90.000000
_cell_angle_beta 90.000000
_cell_angle_gamma 90.000000
_cell_volume 3542.945238
_symmetry_space_group_name_H-M "P N N M"
_symmetry_group_IT_number 58
_symmetry_cell_setting 'orthorhombic'
loop_
_space_group_symop_operation_xyz
x,y,z
-x,-y,z
1/2+x,1/2-y,1/2-z
1/2-x,1/2+y,1/2-z
-x,-y,-z
x,y,-z
1/2-x,1/2+y,1/2+z
1/2+x,1/2-y,1/2+z
loop_
_atom_site_type_symbol
_atom_site_label
_atom_site_fract_x
_atom_site_fract_y
_atom_site_fract_z
Si Si1 0.775386 0.483026 0.880338
Si Si2 0.090831 0.279961 0.387309
Si Si3 0.070749 0.938017 0.619971
Si Si4 0.750844 0.361336 0.256049
Si Si5 0.328592 0.255212 0.379219
Si Si6 0.943872 0.399111 0.613923
Si Si7 0.500000 0.000000 0.719975
Si Si8 0.489483 0.674465 0.259551
O O1 0.691389 0.538176 0.862285
O O2 0.745256 0.422605 0.814446
O O3 0.893967 0.503415 0.848086
O O4 0.769987 0.467251 0.000000
O O5 0.088734 0.251253 0.500000
O O6 0.215609 0.290660 0.364276
O O7 0.024871 0.342255 0.388135
O O8 0.035134 0.232045 0.313610
O O9 0.058069 0.920282 0.500000
O O10 0.037391 0.882725 0.694676
O O11 0.000000 0.000000 0.635805
O O12 0.806613 0.306975 0.187790
O O13 0.827827 0.375425 0.350754
O O14 0.631046 0.344611 0.292291
O O15 0.341815 0.240846 0.500000
O O16 0.426198 0.297808 0.340499
O O17 0.939677 0.426685 0.500000
O O18 0.984038 0.443355 0.703146
#
# Coordination Sequence:
#
# PCOD9443051 Si02
#       8
#     8   8   8   8   8   8   4   8
#     4  10  20  36  57  83 115 145 180 226 279 333
#     4   9  19  35  55  76 104 141 181 225 272 326
#     4  10  20  34  56  85 111 141 181 228 276 327
#     4  10  20  36  57  81 107 148 180 224 278 334
#     4  10  21  35  54  80 108 142 182 223 273 330
#     4  10  20  37  56  78 105 142 188 229 269 323
#     4  10  22  34  56  80 110 148 184 222 274 322
#     4  11  20  34  58  80 113 141 182 227 279 329
#
# _framework density 16.935061999999999
#
# number of rings (size 3 to 8) (size 9 to 14) (size 15 to 20)
#    0.000    2.000    2.667    1.200    1.867    1.600 
#    0.000    0.000    0.000    0.400    0.000    0.000 
#    0.000    0.000    0.000    0.000    0.000    0.000 
#
# Total GULP energy -334302.037875 kJ/mol
# GULP energy per Si atom -5571.700631 kJ/mol
# Density = 1.689652 g / cm^3
# Si number density = 16.935062 Si / 1000 Ang^3
#
#
#
# Elastic Constant Matrix: (Units=GPa)
#
#
# Indices 1 2 3 4 5 6 
#
# 1 98.4300 29.9556 23.0410 0.0000 0.0000 0.0000
# 2 29.9556 44.6736 8.4874 0.0000 0.0000 0.0000
# 3 23.0410 8.4874 39.1462 0.0000 0.0000 0.0000
# 4 0.0000 0.0000 0.0000 16.1318 0.0000 0.0000
# 5 0.0000 0.0000 0.0000 0.0000 27.1538 0.0000
# 6 0.0000 0.0000 0.0000 0.0000 0.0000 25.9376
#
#
#
# Elastic Compliance Matrix: (Units=1/GPa)
#
#
# Indices 1 2 3 4 5 6 
#
# 1 0.014220 -0.008286 -0.006573 0.000000 0.000000 0.000000
# 2 -0.008286 0.028175 -0.001231 0.000000 0.000000 0.000000
# 3 -0.006573 -0.001231 0.029681 0.000000 0.000000 0.000000
# 4 0.000000 0.000000 0.000000 0.061989 0.000000 0.000000
# 5 0.000000 0.000000 0.000000 0.000000 0.036827 0.000000
# 6 0.000000 0.000000 0.000000 0.000000 0.000000 0.038554
#
#
# Mechanical properties :
#
#
# Convention : Reuss Voigt Hill
#
# Bulk Modulus (GPa) = 25.06630 33.91309 29.48969
# Shear Modulus (GPa) = 19.61349 21.89569 20.75459
#
# Velocity S-wave (km/s) = 3.40686 3.59962 3.50457
# Velocity P-wave (km/s) = 5.50538 6.11107 5.81612
#
# Compressibility (1/GPa) = 0.03989420
#
# Stress axis : x y z
#
# Youngs Moduli (GPa) = 70.32349 35.49254 33.69142
#
# Poissons Ratio (x) = 0.29410 0.22146
# Poissons Ratio (y) = 0.58272 0.04149
# Poissons Ratio (z) = 0.46225 0.04371
#
# Static dielectric constant tensor:
#      x y z
#    x 1.592630 0.000000 0.000000 
#    y 0.000000 1.558960 0.000000 
#    z 0.000000 0.000000 1.563980 
# 
# From -- ./inp_files/21479.got.cif
#   From: 2010.05.17/outbox.cif.g08.bks.cpg/sg58_11_cif.got.tgz:21479.got - 2010.06.03 14:20:14.
