data_PCOD9443891
_publ_section_title
;
Structure prediction by ZEFSAII (Michael W. Deem and Ramdas Pophale) SiO2 
 PCOD9443891
Probable space group: P N N M
;
_chemical_formula_sum "Si O2"
_cell_formula_units_Z 64
_cell_length_a 12.051395
_cell_length_b 16.494016
_cell_length_c 15.380037
_cell_angle_alpha 90.000000
_cell_angle_beta 90.000000
_cell_angle_gamma 90.000000
_cell_volume 3057.180727
_symmetry_space_group_name_H-M "P N N M"
_symmetry_group_IT_number 58
_symmetry_cell_setting 'orthorhombic'
loop_
_space_group_symop_operation_xyz
x,y,z
-x,-y,z
1/2+x,1/2-y,1/2-z
1/2-x,1/2+y,1/2-z
-x,-y,-z
x,y,-z
1/2-x,1/2+y,1/2+z
1/2+x,1/2-y,1/2+z
loop_
_atom_site_type_symbol
_atom_site_label
_atom_site_fract_x
_atom_site_fract_y
_atom_site_fract_z
Si Si1 0.356613 0.226454 0.649510
Si Si2 0.500843 0.285030 0.095094
Si Si3 0.771947 0.581785 0.769138
Si Si4 0.264856 0.254079 0.159491
Si Si5 0.666174 0.146672 0.903531
Si Si6 0.990172 0.085922 0.732798
Si Si7 0.560668 0.343433 0.600376
Si Si8 0.123488 0.538678 0.099648
O O1 0.320460 0.221976 0.750899
O O2 0.260162 0.282918 0.607635
O O3 0.469533 0.276288 0.630752
O O4 0.370537 0.135472 0.614120
O O5 0.368435 0.280036 0.100940
O O6 0.552613 0.196553 0.105906
O O7 0.538198 0.343324 0.172851
O O8 0.535782 0.315460 0.000000
O O9 0.806347 0.665855 0.815796
O O10 0.823006 0.582469 0.673378
O O11 0.641080 0.595650 0.755844
O O12 0.800880 0.506882 0.829625
O O13 0.182733 0.192609 0.113513
O O14 0.675819 0.112109 0.000000
O O15 0.046295 0.087377 0.826948
O O16 0.000000 0.000000 0.687091
O O17 0.540554 0.365130 0.500000
O O18 0.000000 0.500000 0.110591
O O19 0.157715 0.521316 0.000000
#
# Coordination Sequence:
#
# PCOD9443891 Si02
#       8
#     8   8   8   8   8   8   8   8
#     4  11  22  39  67  91 127 164 213 264 318 377
#     4  10  21  39  63  93 124 162 206 261 319 380
#     4  10  22  38  61  88 123 166 195 258 318 378
#     4  10  22  39  65  92 127 165 210 259 311 377
#     4  10  20  38  65  90 117 158 215 260 306 375
#     4  11  24  40  58  88 130 167 209 256 319 375
#     4  12  23  41  69  96 124 168 222 269 312 369
#     4  11  25  40  60  95 130 163 207 264 327 387
#
# _framework density 20.93432
#
# number of rings (size 3 to 8) (size 9 to 14) (size 15 to 20)
#    0.000    1.375    3.750    3.750    5.250    4.000 
#    0.000    0.000    0.000    0.375    0.000    0.000 
#    0.000    0.000    0.000    0.000    0.000    0.000 
#
# Total GULP energy -357321.488456 kJ/mol
# GULP energy per Si atom -5583.148257 kJ/mol
# Density = 2.088667 g / cm^3
# Si number density = 20.934320 Si / 1000 Ang^3
#
#
#
# Elastic Constant Matrix: (Units=GPa)
#
#
# Indices 1 2 3 4 5 6 
#
# 1 26.3490 -9.9815 2.2990 0.0000 0.0000 0.0000
# 2 -9.9815 42.2357 12.1689 0.0000 0.0000 0.0000
# 3 2.2990 12.1689 126.4964 0.0000 0.0000 0.0000
# 4 0.0000 0.0000 0.0000 4.2259 0.0000 0.0000
# 5 0.0000 0.0000 0.0000 0.0000 13.4149 0.0000
# 6 0.0000 0.0000 0.0000 0.0000 0.0000 21.5299
#
#
#
# Elastic Compliance Matrix: (Units=1/GPa)
#
#
# Indices 1 2 3 4 5 6 
#
# 1 0.042066 0.010451 -0.001770 0.000000 0.000000 0.000000
# 2 0.010451 0.026948 -0.002782 0.000000 0.000000 0.000000
# 3 -0.001770 -0.002782 0.008205 0.000000 0.000000 0.000000
# 4 0.000000 0.000000 0.000000 0.236633 0.000000 0.000000
# 5 0.000000 0.000000 0.000000 0.000000 0.074544 0.000000
# 6 0.000000 0.000000 0.000000 0.000000 0.000000 0.046447
#
#
# Mechanical properties :
#
#
# Convention : Reuss Voigt Hill
#
# Bulk Modulus (GPa) = 11.23380 22.67264 16.95322
# Shear Modulus (GPa) = 11.04440 20.54046 15.79243
#
# Velocity S-wave (km/s) = 2.29939 3.13579 2.74958
# Velocity P-wave (km/s) = 3.52526 4.89538 4.26569
#
# Compressibility (1/GPa) = 0.08901711
#
# Stress axis : x y z
#
# Youngs Moduli (GPa) = 23.77236 37.10819 121.87408
#
# Poissons Ratio (x) = -0.38783 0.21571
# Poissons Ratio (y) = -0.24845 0.33910
# Poissons Ratio (z) = 0.04208 0.10325
#
# Static dielectric constant tensor:
#      x y z
#    x 1.777770 0.000000 0.000000 
#    y 0.000000 1.765890 0.000000 
#    z 0.000000 0.000000 1.779490 
# 
# From -- ./inp_files/21536.got.cif
#   From: 2010.05.17/outbox.cif.g08.bks.cpg/sg58_11_cif.got.tgz:21536.got - 2010.06.03 14:20:14.
