data_PCOD9443153
_publ_section_title
;
Structure prediction by ZEFSAII (Michael W. Deem and Ramdas Pophale) SiO2 
 PCOD9443153
Probable space group: P N N M
;
_chemical_formula_sum "Si O2"
_cell_formula_units_Z 64
_cell_length_a 15.291715
_cell_length_b 21.258335
_cell_length_c 9.333179
_cell_angle_alpha 90.000000
_cell_angle_beta 90.000000
_cell_angle_gamma 90.000000
_cell_volume 3033.996232
_symmetry_space_group_name_H-M "P N N M"
_symmetry_group_IT_number 58
_symmetry_cell_setting 'orthorhombic'
loop_
_space_group_symop_operation_xyz
x,y,z
-x,-y,z
1/2+x,1/2-y,1/2-z
1/2-x,1/2+y,1/2-z
-x,-y,-z
x,y,-z
1/2-x,1/2+y,1/2+z
1/2+x,1/2-y,1/2+z
loop_
_atom_site_type_symbol
_atom_site_label
_atom_site_fract_x
_atom_site_fract_y
_atom_site_fract_z
Si Si1 0.893892 0.752143 0.164387
Si Si2 0.121076 0.369572 0.662193
Si Si3 0.587406 0.885032 0.838079
Si Si4 0.586211 0.373383 0.835714
Si Si5 0.607425 0.763384 0.335581
Si Si6 0.377775 0.358561 0.836305
Si Si7 0.650921 0.503356 0.164605
Si Si8 0.353282 0.996689 0.336080
O O1 0.856427 0.694387 0.255603
O O2 0.873936 0.818308 0.240078
O O3 0.000628 0.744127 0.163777
O O4 0.865027 0.750300 0.000000
O O5 0.156154 0.372535 0.500000
O O6 0.143354 0.430135 0.756510
O O7 0.015619 0.370808 0.651625
O O8 0.627991 0.826595 0.752107
O O9 0.597568 0.949667 0.751860
O O10 0.622198 0.890819 0.000000
O O11 0.483069 0.360159 0.844403
O O12 0.599780 0.443653 0.775024
O O13 0.620339 0.371991 0.000000
O O14 0.635563 0.768244 0.500000
O O15 0.644776 0.701792 0.257691
O O16 0.353666 0.426695 0.772072
O O17 0.343092 0.353285 0.000000
O O18 0.751756 0.484114 0.160632
O O19 0.618190 0.511814 0.000000
O O20 0.384737 0.991233 0.500000
#
# Coordination Sequence:
#
# PCOD9443153 Si02
#       8
#     8   8   8   8   8   8   8   8
#     4   9  17  30  50  78 107 130 159 205 257 302
#     4  10  20  35  55  77 100 129 168 210 250 298
#     4  10  20  35  55  77 100 129 168 210 250 298
#     4   9  16  30  54  79 102 132 170 208 246 292
#     4   9  17  30  50  78 107 130 159 205 257 302
#     4   9  16  30  54  79 102 132 170 208 246 292
#     4   9  19  34  51  74 104 137 172 208 246 293
#     4  11  22  35  51  73 104 137 168 206 252 299
#
# _framework density 21.094290999999998
#
# number of rings (size 3 to 8) (size 9 to 14) (size 15 to 20)
#    0.000    2.500    0.000    2.625    0.000    7.500 
#    0.000    4.375    0.000    3.000    0.000    0.000 
#    0.000    0.000    0.000    0.000    0.000    0.000 
#
# Total GULP energy -357262.874561 kJ/mol
# GULP energy per Si atom -5582.232415 kJ/mol
# Density = 2.104628 g / cm^3
# Si number density = 21.094291 Si / 1000 Ang^3
#
#
#
# Elastic Constant Matrix: (Units=GPa)
#
#
# Indices 1 2 3 4 5 6 
#
# 1 22.3611 3.0134 10.0087 0.0000 0.0000 0.0000
# 2 3.0134 158.2030 83.1050 0.0000 0.0000 0.0000
# 3 10.0087 83.1050 152.2552 0.0000 0.0000 0.0000
# 4 0.0000 0.0000 0.0000 -30.9199 0.0000 0.0000
# 5 0.0000 0.0000 0.0000 0.0000 7.0741 0.0000
# 6 0.0000 0.0000 0.0000 0.0000 0.0000 -21.7547
#
#
#
# Elastic Compliance Matrix: (Units=1/GPa)
#
#
# Indices 1 2 3 4 5 6 
#
# 1 0.046190 0.001003 -0.003584 0.000000 0.000000 0.000000
# 2 0.001003 0.008884 -0.004915 0.000000 0.000000 0.000000
# 3 -0.003584 -0.004915 0.009486 0.000000 0.000000 0.000000
# 4 0.000000 0.000000 0.000000 -0.032342 0.000000 0.000000
# 5 0.000000 0.000000 0.000000 0.000000 0.141361 0.000000
# 6 0.000000 0.000000 0.000000 0.000000 0.000000 -0.045967
#
#
# Mechanical properties :
#
#
# Convention : Reuss Voigt Hill
#
# Bulk Modulus (GPa) = 20.17441 58.34152 39.25796
# Shear Modulus (GPa) = 31.42162 6.65935 19.04048
#
# Velocity S-wave (km/s) = 3.86369 1.77871 3.00765
# Velocity P-wave (km/s) = 5.43036 5.65119 5.54188
#
# Compressibility (1/GPa) = 0.04956774
#
# Stress axis : x y z
#
# Youngs Moduli (GPa) = 21.64993 112.56547 105.41652
#
# Poissons Ratio (x) = -0.11287 0.37777
# Poissons Ratio (y) = -0.02171 0.51811
# Poissons Ratio (z) = 0.07759 0.55325
#
# Static dielectric constant tensor:
#      x y z
#    x 1.945360 0.000000 0.000000 
#    y 0.000000 1.743580 0.000000 
#    z 0.000000 0.000000 1.750700 
# 
# From -- ./inp_files/8289.got.cif
#   From: 2010.05.17/outbox.cif.g08.bks.cpg/sg58_5_cif.got.tgz:8289.got - 2010.06.03 14:20:14.
