data_PCOD9443654
_publ_section_title
;
Structure prediction by ZEFSAII (Michael W. Deem and Ramdas Pophale) SiO2 
 PCOD9443654
Probable space group: P N N M
;
_chemical_formula_sum "Si O2"
_cell_formula_units_Z 64
_cell_length_a 7.478471
_cell_length_b 16.381788
_cell_length_c 27.005540
_cell_angle_alpha 90.000000
_cell_angle_beta 90.000000
_cell_angle_gamma 90.000000
_cell_volume 3308.468325
_symmetry_space_group_name_H-M "P N N M"
_symmetry_group_IT_number 58
_symmetry_cell_setting 'orthorhombic'
loop_
_space_group_symop_operation_xyz
x,y,z
-x,-y,z
1/2+x,1/2-y,1/2-z
1/2-x,1/2+y,1/2-z
-x,-y,-z
x,y,-z
1/2-x,1/2+y,1/2+z
1/2+x,1/2-y,1/2+z
loop_
_atom_site_type_symbol
_atom_site_label
_atom_site_fract_x
_atom_site_fract_y
_atom_site_fract_z
Si Si1 0.470082 0.712806 0.689936
Si Si2 0.775812 0.810217 0.902911
Si Si3 0.423467 0.411598 0.615863
Si Si4 0.471538 0.907049 0.145851
Si Si5 0.464809 0.588516 0.128986
Si Si6 0.370188 0.739365 0.802634
Si Si7 0.879161 0.418396 0.057624
Si Si8 0.745567 0.151039 0.444611
O O1 0.326156 0.737502 0.648409
O O2 0.517076 0.620984 0.670844
O O3 0.399319 0.721798 0.744874
O O4 0.658463 0.758525 0.686001
O O5 0.638804 0.880674 0.887691
O O6 0.696838 0.744988 0.939794
O O7 0.964547 0.849642 0.918272
O O8 0.500000 0.500000 0.607643
O O9 0.211718 0.407762 0.614590
O O10 0.445566 0.829925 0.183320
O O11 0.500000 0.000000 0.165546
O O12 0.500000 0.500000 0.153476
O O13 0.451618 0.665499 0.165544
O O14 0.285216 0.586897 0.095181
O O15 0.632395 0.601370 0.092556
O O16 0.000000 0.500000 0.063658
O O17 0.033339 0.350979 0.066127
O O18 0.819249 0.414289 0.000000
O O19 0.769087 0.119092 0.500000
#
# Coordination Sequence:
#
# PCOD9443654 Si02
#       8
#     8   8   8   8   8   8   8   8
#     4   9  21  36  60  80 120 157 201 249 305 358
#     4  10  20  37  60  84 120 150 198 251 298 359
#     4   9  19  34  56  86 110 151 198 243 290 363
#     4  11  19  34  60  86 111 154 199 240 298 357
#     4  12  24  39  60  92 131 163 204 256 309 363
#     4  11  22  38  58  88 119 162 201 256 304 362
#     4  10  21  38  60  87 122 165 211 248 298 370
#     4  11  23  39  64  91 122 166 208 251 310 370
#
# _framework density 19.3443
#
# number of rings (size 3 to 8) (size 9 to 14) (size 15 to 20)
#    0.750    0.875    3.750    1.875    0.000    1.000 
#    0.000    1.250    0.000    1.500    0.000    0.000 
#    0.000    0.000    0.000    0.000    0.000    0.000 
#
# Total GULP energy -356312.975756 kJ/mol
# GULP energy per Si atom -5567.390246 kJ/mol
# Density = 1.930027 g / cm^3
# Si number density = 19.344300 Si / 1000 Ang^3
#
#
#
# Elastic Constant Matrix: (Units=GPa)
#
#
# Indices 1 2 3 4 5 6 
#
# 1 77.0974 6.9944 6.9026 0.0000 0.0000 0.0000
# 2 6.9944 105.9818 18.7144 0.0000 0.0000 0.0000
# 3 6.9026 18.7144 40.4196 0.0000 0.0000 0.0000
# 4 0.0000 0.0000 0.0000 11.5629 0.0000 0.0000
# 5 0.0000 0.0000 0.0000 0.0000 16.1783 0.0000
# 6 0.0000 0.0000 0.0000 0.0000 0.0000 26.5804
#
#
#
# Elastic Compliance Matrix: (Units=1/GPa)
#
#
# Indices 1 2 3 4 5 6 
#
# 1 0.013198 -0.000515 -0.002015 0.000000 0.000000 0.000000
# 2 -0.000515 0.010296 -0.004679 0.000000 0.000000 0.000000
# 3 -0.002015 -0.004679 0.027251 0.000000 0.000000 0.000000
# 4 0.000000 0.000000 0.000000 0.086484 0.000000 0.000000
# 5 0.000000 0.000000 0.000000 0.000000 0.061811 0.000000
# 6 0.000000 0.000000 0.000000 0.000000 0.000000 0.037622
#
#
# Mechanical properties :
#
#
# Convention : Reuss Voigt Hill
#
# Bulk Modulus (GPa) = 27.52874 32.08017 29.80446
# Shear Modulus (GPa) = 18.99776 23.59013 21.29395
#
# Velocity S-wave (km/s) = 3.13722 3.49590 3.32141
# Velocity P-wave (km/s) = 5.23304 5.73715 5.49089
#
# Compressibility (1/GPa) = 0.03632567
#
# Stress axis : x y z
#
# Youngs Moduli (GPa) = 75.77033 97.12688 36.69584
#
# Poissons Ratio (x) = 0.05003 0.07395
# Poissons Ratio (y) = 0.03903 0.17170
# Poissons Ratio (z) = 0.15270 0.45446
#
# Static dielectric constant tensor:
#      x y z
#    x 1.716440 0.000000 0.000000 
#    y 0.000000 1.729790 0.000000 
#    z 0.000000 0.000000 1.654380 
# 
# From -- ./inp_files/31649.got.cif
#   From: 2010.05.17/outbox.cif.g08.bks.cpg/sg58_16_cif.got.tgz:31649.got - 2010.06.03 14:20:14.
