data_PCOD9443037
_publ_section_title
;
Structure prediction by ZEFSAII (Michael W. Deem and Ramdas Pophale) SiO2 
 PCOD9443037
Probable space group: P N N M
;
_chemical_formula_sum "Si O2"
_cell_formula_units_Z 44
_cell_length_a 27.931503
_cell_length_b 5.066708
_cell_length_c 14.213038
_cell_angle_alpha 90.000000
_cell_angle_beta 90.000000
_cell_angle_gamma 90.000000
_cell_volume 2011.440078
_symmetry_space_group_name_H-M "P N N M"
_symmetry_group_IT_number 58
_symmetry_cell_setting 'orthorhombic'
loop_
_space_group_symop_operation_xyz
x,y,z
-x,-y,z
1/2+x,1/2-y,1/2-z
1/2-x,1/2+y,1/2-z
-x,-y,-z
x,y,-z
1/2-x,1/2+y,1/2+z
1/2+x,1/2-y,1/2+z
loop_
_atom_site_type_symbol
_atom_site_label
_atom_site_fract_x
_atom_site_fract_y
_atom_site_fract_z
Si Si1 0.464930 0.747698 0.102693
Si Si2 0.464917 0.750235 0.500000
Si Si3 0.856345 0.227576 0.791150
Si Si4 0.055730 0.418999 0.798119
Si Si5 0.322427 0.770157 0.396823
Si Si6 0.232637 0.644948 0.303884
O O1 0.500000 0.500000 0.108526
O O2 0.435810 0.762967 0.200223
O O3 0.500000 0.000000 0.100690
O O4 0.439642 0.738538 0.000000
O O5 0.500000 0.500000 0.500000
O O6 0.437616 0.775941 0.600400
O O7 0.500000 0.000000 0.500000
O O8 0.910635 0.324525 0.789787
O O9 0.846200 0.931483 0.823042
O O10 0.823659 0.293454 0.699906
O O11 0.833387 0.430816 0.867635
O O12 0.000000 0.500000 0.797639
O O13 0.340352 0.711238 0.500000
O O14 0.265564 0.716528 0.391475
O O15 0.255810 0.845980 0.226171
#
# Coordination Sequence:
#
# PCOD9443037 Si02
#       6
#     8   4   8   8   8   8
#     4   9  18  34  56  76  97 133 184 234 278 321
#     4  10  22  36  50  72 108 154 192 228 270 318
#     4  10  21  35  54  79 110 147 184 228 272 338
#     4  10  22  38  55  80 116 156 194 233 280 331
#     4  10  20  34  56  80 108 140 185 227 280 339
#     4   8  16  33  52  73  98 130 168 220 276 318
#
# _framework density 21.874873999999998
#
# number of rings (size 3 to 8) (size 9 to 14) (size 15 to 20)
#    0.000    2.545    0.000    1.091    2.545    5.818 
#    0.000    0.909    0.000    0.000    0.000   12.727 
#    0.000    0.000    0.000    0.000    0.000    0.000 
#
# Total GULP energy -245234.042371 kJ/mol
# GULP energy per Si atom -5573.500963 kJ/mol
# Density = 2.182509 g / cm^3
# Si number density = 21.874874 Si / 1000 Ang^3
#
#
#
# Elastic Constant Matrix: (Units=GPa)
#
#
# Indices 1 2 3 4 5 6 
#
# 1 108.0187 -0.5833 18.5874 0.0000 0.0000 0.0000
# 2 -0.5833 100.5093 8.8568 0.0000 0.0000 0.0000
# 3 18.5874 8.8568 156.4607 0.0000 0.0000 0.0000
# 4 0.0000 0.0000 0.0000 15.9070 0.0000 0.0000
# 5 0.0000 0.0000 0.0000 0.0000 22.7448 0.0000
# 6 0.0000 0.0000 0.0000 0.0000 0.0000 34.0088
#
#
#
# Elastic Compliance Matrix: (Units=1/GPa)
#
#
# Indices 1 2 3 4 5 6 
#
# 1 0.009453 0.000155 -0.001132 0.000000 0.000000 0.000000
# 2 0.000155 0.010002 -0.000585 0.000000 0.000000 0.000000
# 3 -0.001132 -0.000585 0.006559 0.000000 0.000000 0.000000
# 4 0.000000 0.000000 0.000000 0.062865 0.000000 0.000000
# 5 0.000000 0.000000 0.000000 0.000000 0.043966 0.000000
# 6 0.000000 0.000000 0.000000 0.000000 0.000000 0.029404
#
#
# Mechanical properties :
#
#
# Convention : Reuss Voigt Hill
#
# Bulk Modulus (GPa) = 43.68633 46.52336 45.10485
# Shear Modulus (GPa) = 28.90121 37.07398 32.98759
#
# Velocity S-wave (km/s) = 3.63878 4.12129 3.88753
# Velocity P-wave (km/s) = 6.13748 6.63029 6.38864
#
# Compressibility (1/GPa) = 0.02289046
#
# Stress axis : x y z
#
# Youngs Moduli (GPa) = 105.78377 99.98269 152.46404
#
# Poissons Ratio (x) = -0.01546 0.17256
# Poissons Ratio (y) = -0.01635 0.08912
# Poissons Ratio (z) = 0.11972 0.05844
#
# Static dielectric constant tensor:
#      x y z
#    x 1.871460 0.000000 0.000000 
#    y 0.000000 1.760520 0.000000 
#    z 0.000000 0.000000 1.841810 
# 
# From -- ./inp_files/18559.got.cif
#   From: 2010.05.17/outbox.cif.g08.bks.cpg/sg58_10_cif.got.tgz:18559.got - 2010.06.03 14:20:14.
