data_PCOD9443301
_publ_section_title
;
Structure prediction by ZEFSAII (Michael W. Deem and Ramdas Pophale) SiO2 
 PCOD9443301
Probable space group: P N N M
;
_chemical_formula_sum "Si O2"
_cell_formula_units_Z 64
_cell_length_a 12.948307
_cell_length_b 28.469032
_cell_length_c 9.152105
_cell_angle_alpha 90.000000
_cell_angle_beta 90.000000
_cell_angle_gamma 90.000000
_cell_volume 3373.701719
_symmetry_space_group_name_H-M "P N N M"
_symmetry_group_IT_number 58
_symmetry_cell_setting 'orthorhombic'
loop_
_space_group_symop_operation_xyz
x,y,z
-x,-y,z
1/2+x,1/2-y,1/2-z
1/2-x,1/2+y,1/2-z
-x,-y,-z
x,y,-z
1/2-x,1/2+y,1/2+z
1/2+x,1/2-y,1/2+z
loop_
_atom_site_type_symbol
_atom_site_label
_atom_site_fract_x
_atom_site_fract_y
_atom_site_fract_z
Si Si1 0.856693 0.858547 0.830277
Si Si2 0.753556 0.704436 0.828361
Si Si3 0.963822 0.653660 0.822529
Si Si4 0.437733 0.365421 0.829900
Si Si5 0.681402 0.799352 0.675213
Si Si6 0.246419 0.043628 0.169824
Si Si7 0.392815 0.472167 0.827749
Si Si8 0.461759 0.052177 0.323560
O O1 0.767818 0.834200 0.737135
O O2 0.836326 0.914279 0.818113
O O3 0.968628 0.846811 0.767131
O O4 0.847772 0.845190 0.000000
O O5 0.861002 0.681297 0.774911
O O6 0.664012 0.665685 0.820344
O O7 0.713030 0.749058 0.739774
O O8 0.766854 0.717511 0.000000
O O9 0.068149 0.681440 0.779251
O O10 0.973231 0.598604 0.777787
O O11 0.960458 0.653159 0.000000
O O12 0.410186 0.418414 0.786198
O O13 0.471939 0.366714 0.000000
O O14 0.683373 0.798393 0.500000
O O15 0.347671 0.057680 0.259064
O O16 0.195573 0.997374 0.236392
O O17 0.272675 0.037896 0.000000
O O18 0.500000 0.500000 0.808487
O O19 0.365637 0.474086 0.000000
O O20 0.457981 0.052566 0.500000
O O21 0.500000 0.000000 0.278891
#
# Coordination Sequence:
#
# PCOD9443301 Si02
#       8
#     8   8   8   8   8   8   8   8
#     4  11  23  39  61  88 122 161 203 251 307 364
#     4  10  23  42  63  90 124 158 197 252 313 364
#     4   9  20  40  63  90 123 156 195 251 305 360
#     4  10  22  39  62  91 123 160 206 257 304 359
#     4  11  23  41  65  90 118 156 204 251 305 366
#     4  11  23  37  56  86 124 162 199 247 305 361
#     4  10  20  35  58  86 120 160 201 246 293 351
#     4  10  21  38  65  91 115 157 208 250 297 365
#
# _framework density 18.97026
#
# number of rings (size 3 to 8) (size 9 to 14) (size 15 to 20)
#    0.000    1.750    2.500    1.125    3.500    2.500 
#    0.000    1.250    0.000    0.000    0.000    0.000 
#    0.000    0.000    0.000    0.000    0.000    0.000 
#
# Total GULP energy -357323.665076 kJ/mol
# GULP energy per Si atom -5583.182267 kJ/mol
# Density = 1.892708 g / cm^3
# Si number density = 18.970260 Si / 1000 Ang^3
#
#
#
# Elastic Constant Matrix: (Units=GPa)
#
#
# Indices 1 2 3 4 5 6 
#
# 1 99.9910 45.3885 33.4607 0.0000 0.0000 0.0000
# 2 45.3885 109.0203 36.5463 0.0000 0.0000 0.0000
# 3 33.4607 36.5463 37.8663 0.0000 0.0000 0.0000
# 4 0.0000 0.0000 0.0000 25.3482 0.0000 0.0000
# 5 0.0000 0.0000 0.0000 0.0000 13.2994 0.0000
# 6 0.0000 0.0000 0.0000 0.0000 0.0000 22.4880
#
#
#
# Elastic Compliance Matrix: (Units=1/GPa)
#
#
# Indices 1 2 3 4 5 6 
#
# 1 0.014685 -0.002607 -0.010460 0.000000 0.000000 0.000000
# 2 -0.002607 0.014023 -0.011230 0.000000 0.000000 0.000000
# 3 -0.010460 -0.011230 0.046490 0.000000 0.000000 0.000000
# 4 0.000000 0.000000 0.000000 0.039451 0.000000 0.000000
# 5 0.000000 0.000000 0.000000 0.000000 0.075191 0.000000
# 6 0.000000 0.000000 0.000000 0.000000 0.000000 0.044468
#
#
# Mechanical properties :
#
#
# Convention : Reuss Voigt Hill
#
# Bulk Modulus (GPa) = 37.58924 53.07431 45.33178
# Shear Modulus (GPa) = 17.13685 20.99258 19.06472
#
# Velocity S-wave (km/s) = 3.00884 3.33018 3.17358
# Velocity P-wave (km/s) = 5.65055 6.54409 6.11367
#
# Compressibility (1/GPa) = 0.02660335
#
# Stress axis : x y z
#
# Youngs Moduli (GPa) = 68.09843 71.31326 21.51009
#
# Poissons Ratio (x) = 0.18594 0.22499
# Poissons Ratio (y) = 0.17755 0.24156
# Poissons Ratio (z) = 0.71229 0.80084
#
# Static dielectric constant tensor:
#      x y z
#    x 1.635020 0.000000 0.000000 
#    y 0.000000 1.688520 0.000000 
#    z 0.000000 0.000000 1.642260 
# 
# From -- ./inp_files/4828.got.cif
#   From: 2010.05.17/outbox.cif.g08.bks.cpg/sg58_3_cif.got.tgz:4828.got - 2010.06.03 14:20:14.
