data_PCOD9443790
_publ_section_title
;
Structure prediction by ZEFSAII (Michael W. Deem and Ramdas Pophale) SiO2 
 PCOD9443790
Probable space group: P N N M
;
_chemical_formula_sum "Si O2"
_cell_formula_units_Z 52
_cell_length_a 13.465655
_cell_length_b 18.752220
_cell_length_c 9.673347
_cell_angle_alpha 90.000000
_cell_angle_beta 90.000000
_cell_angle_gamma 90.000000
_cell_volume 2442.625799
_symmetry_space_group_name_H-M "P N N M"
_symmetry_group_IT_number 58
_symmetry_cell_setting 'orthorhombic'
loop_
_space_group_symop_operation_xyz
x,y,z
-x,-y,z
1/2+x,1/2-y,1/2-z
1/2-x,1/2+y,1/2-z
-x,-y,-z
x,y,-z
1/2-x,1/2+y,1/2+z
1/2+x,1/2-y,1/2+z
loop_
_atom_site_type_symbol
_atom_site_label
_atom_site_fract_x
_atom_site_fract_y
_atom_site_fract_z
Si Si1 0.103169 0.239819 0.343214
Si Si2 0.478591 0.352449 0.338845
Si Si3 0.299251 0.447576 0.666150
Si Si4 0.627422 0.127577 0.341304
Si Si5 0.163037 0.716101 0.848352
Si Si6 0.500000 0.000000 0.751893
Si Si7 0.685398 0.916538 0.846217
O O1 0.063667 0.247301 0.500000
O O2 0.081134 0.306864 0.244226
O O3 0.221840 0.238041 0.351878
O O4 0.064057 0.168742 0.267634
O O5 0.511188 0.353842 0.500000
O O6 0.411776 0.421994 0.311231
O O7 0.401551 0.286156 0.321393
O O8 0.279135 0.437232 0.500000
O O9 0.224617 0.400087 0.758341
O O10 0.273122 0.529630 0.699647
O O11 0.649456 0.147332 0.500000
O O12 0.550980 0.062064 0.336064
O O13 0.160303 0.651374 0.743901
O O14 0.132623 0.689353 0.000000
O O15 0.587708 0.965998 0.841541
O O16 0.708794 0.892500 0.000000
#
# Coordination Sequence:
#
# PCOD9443790 Si02
#       7
#     8   8   8   8   8   4   8
#     4  11  23  39  58  84 117 155 196 246 300 349
#     4  10  20  38  61  83 110 151 196 240 291 352
#     4   9  19  38  58  79 113 151 184 232 294 341
#     4  11  21  34  55  83 115 153 193 235 284 354
#     4  10  22  40  59  82 120 159 190 239 303 351
#     4  10  22  36  54  88 126 154 186 240 308 362
#     4  10  21  36  59  86 115 152 195 241 291 353
#
# _framework density 21.288564999999998
#
# number of rings (size 3 to 8) (size 9 to 14) (size 15 to 20)
#    0.000    1.846    1.538    2.308    0.000    9.846 
#    0.000    0.769    0.000    4.615    0.000    0.000 
#    0.000    0.000    0.000    0.000    0.000    0.000 
#
# Total GULP energy -290424.509662 kJ/mol
# GULP energy per Si atom -5585.086724 kJ/mol
# Density = 2.124011 g / cm^3
# Si number density = 21.288565 Si / 1000 Ang^3
#
#
#
# Elastic Constant Matrix: (Units=GPa)
#
#
# Indices 1 2 3 4 5 6 
#
# 1 30.0453 -9.6848 0.6166 0.0000 0.0000 0.0000
# 2 -9.6848 51.3976 21.9141 0.0000 0.0000 0.0000
# 3 0.6166 21.9141 78.6320 0.0000 0.0000 0.0000
# 4 0.0000 0.0000 0.0000 6.1655 0.0000 0.0000
# 5 0.0000 0.0000 0.0000 0.0000 16.3132 0.0000
# 6 0.0000 0.0000 0.0000 0.0000 0.0000 33.3212
#
#
#
# Elastic Compliance Matrix: (Units=1/GPa)
#
#
# Indices 1 2 3 4 5 6 
#
# 1 0.035848 0.007802 -0.002455 0.000000 0.000000 0.000000
# 2 0.007802 0.023778 -0.006688 0.000000 0.000000 0.000000
# 3 -0.002455 -0.006688 0.014601 0.000000 0.000000 0.000000
# 4 0.000000 0.000000 0.000000 0.162192 0.000000 0.000000
# 5 0.000000 0.000000 0.000000 0.000000 0.061300 0.000000
# 6 0.000000 0.000000 0.000000 0.000000 0.000000 0.030011
#
#
# Mechanical properties :
#
#
# Convention : Reuss Voigt Hill
#
# Bulk Modulus (GPa) = 13.97751 20.64076 17.30914
# Shear Modulus (GPa) = 14.11393 20.97527 17.54460
#
# Velocity S-wave (km/s) = 2.57764 3.14233 2.87389
# Velocity P-wave (km/s) = 3.92924 4.78355 4.37729
#
# Compressibility (1/GPa) = 0.07154349
#
# Stress axis : x y z
#
# Youngs Moduli (GPa) = 27.89538 42.05627 68.49054
#
# Poissons Ratio (x) = -0.32811 0.16817
# Poissons Ratio (y) = -0.21763 0.45805
# Poissons Ratio (z) = 0.06849 0.28126
#
# Static dielectric constant tensor:
#      x y z
#    x 1.812390 0.000000 0.000000 
#    y 0.000000 1.773250 0.000000 
#    z 0.000000 0.000000 1.765200 
# 
# From -- ./inp_files/6185.got.cif
#   From: 2010.05.17/outbox.cif.g08.bks.cpg/sg58_4_cif.got.tgz:6185.got - 2010.06.03 14:20:14.
