data_PCOD9443063
_publ_section_title
;
Structure prediction by ZEFSAII (Michael W. Deem and Ramdas Pophale) SiO2 
 PCOD9443063
Probable space group: P N N M
;
_chemical_formula_sum "Si O2"
_cell_formula_units_Z 64
_cell_length_a 8.172712
_cell_length_b 11.499333
_cell_length_c 30.720089
_cell_angle_alpha 90.000000
_cell_angle_beta 90.000000
_cell_angle_gamma 90.000000
_cell_volume 2887.096599
_symmetry_space_group_name_H-M "P N N M"
_symmetry_group_IT_number 58
_symmetry_cell_setting 'orthorhombic'
loop_
_space_group_symop_operation_xyz
x,y,z
-x,-y,z
1/2+x,1/2-y,1/2-z
1/2-x,1/2+y,1/2-z
-x,-y,-z
x,y,-z
1/2-x,1/2+y,1/2+z
1/2+x,1/2-y,1/2+z
loop_
_atom_site_type_symbol
_atom_site_label
_atom_site_fract_x
_atom_site_fract_y
_atom_site_fract_z
Si Si1 0.879474 0.272769 0.052375
Si Si2 0.692968 0.364020 0.585160
Si Si3 0.396053 0.236222 0.691278
Si Si4 0.148093 0.433951 0.548738
Si Si5 0.223617 0.702553 0.711611
Si Si6 0.177321 0.986380 0.826631
Si Si7 0.899830 0.175204 0.629736
Si Si8 0.240609 0.567461 0.121332
O O1 0.734870 0.181474 0.064599
O O2 0.842939 0.393020 0.076440
O O3 0.040410 0.214349 0.072430
O O4 0.889217 0.280560 0.000000
O O5 0.723248 0.460453 0.548598
O O6 0.667793 0.444319 0.627905
O O7 0.840111 0.275840 0.596803
O O8 0.590376 0.259708 0.698163
O O9 0.316686 0.225456 0.738726
O O10 0.308271 0.349027 0.669309
O O11 0.359628 0.126449 0.660714
O O12 0.090893 0.404443 0.500000
O O13 0.000000 0.500000 0.573278
O O14 0.203026 0.564813 0.701816
O O15 0.110078 0.772485 0.678225
O O16 0.000000 0.000000 0.804179
O O17 0.078411 0.124660 0.621587
O O18 0.771374 0.068978 0.626127
#
# Coordination Sequence:
#
# PCOD9443063 Si02
#       8
#     8   8   8   8   8   8   8   8
#     4  11  23  39  63  95 127 160 211 265 325 384
#     4  11  20  37  61  88 120 157 203 258 314 374
#     4  11  22  38  64  88 123 161 204 255 308 378
#     4  10  20  34  56  87 122 157 197 249 306 368
#     4  10  22  39  58  92 121 157 205 253 309 370
#     4   9  19  35  56  81 114 151 190 239 297 363
#     4  10  24  42  62  86 123 165 218 256 316 382
#     4  11  23  43  64  85 120 173 208 263 319 380
#
# _framework density 22.167598999999999
#
# number of rings (size 3 to 8) (size 9 to 14) (size 15 to 20)
#    0.000    1.625    0.000    6.000    1.750    3.000 
#    0.000    8.125    0.000    0.000    0.000    0.000 
#    0.000    0.000    0.000    0.000    0.000    0.000 
#
# Total GULP energy -357397.085932 kJ/mol
# GULP energy per Si atom -5584.329468 kJ/mol
# Density = 2.211714 g / cm^3
# Si number density = 22.167599 Si / 1000 Ang^3
#
#
#
# Elastic Constant Matrix: (Units=GPa)
#
#
# Indices 1 2 3 4 5 6 
#
# 1 51.9487 -7.1715 3.7057 0.0000 0.0000 0.0000
# 2 -7.1715 73.1320 15.8504 0.0000 0.0000 0.0000
# 3 3.7057 15.8504 105.2370 0.0000 0.0000 0.0000
# 4 0.0000 0.0000 0.0000 16.3714 0.0000 0.0000
# 5 0.0000 0.0000 0.0000 0.0000 26.8470 0.0000
# 6 0.0000 0.0000 0.0000 0.0000 0.0000 32.5078
#
#
#
# Elastic Compliance Matrix: (Units=1/GPa)
#
#
# Indices 1 2 3 4 5 6 
#
# 1 0.019618 0.002143 -0.001014 0.000000 0.000000 0.000000
# 2 0.002143 0.014370 -0.002240 0.000000 0.000000 0.000000
# 3 -0.001014 -0.002240 0.009875 0.000000 0.000000 0.000000
# 4 0.000000 0.000000 0.000000 0.061082 0.000000 0.000000
# 5 0.000000 0.000000 0.000000 0.000000 0.037248 0.000000
# 6 0.000000 0.000000 0.000000 0.000000 0.000000 0.030762
#
#
# Mechanical properties :
#
#
# Convention : Reuss Voigt Hill
#
# Bulk Modulus (GPa) = 24.01360 28.34298 26.17829
# Shear Modulus (GPa) = 26.44721 29.67411 28.06066
#
# Velocity S-wave (km/s) = 3.45781 3.66269 3.56173
# Velocity P-wave (km/s) = 5.17670 5.54081 5.36185
#
# Compressibility (1/GPa) = 0.04164306
#
# Stress axis : x y z
#
# Youngs Moduli (GPa) = 50.97367 69.59164 101.26168
#
# Poissons Ratio (x) = -0.14917 0.10264
# Poissons Ratio (y) = -0.10926 0.22680
# Poissons Ratio (z) = 0.05167 0.15587
#
# Static dielectric constant tensor:
#      x y z
#    x 1.922480 0.000000 0.000000 
#    y 0.000000 1.809970 0.000000 
#    z 0.000000 0.000000 1.824730 
# 
# From -- ./inp_files/34758.got.cif
#   From: 2010.05.17/outbox.cif.g08.bks.cpg/sg58_18_cif.got.tgz:34758.got - 2010.06.03 14:20:14.
