data_PCOD9443841
_publ_section_title
;
Structure prediction by ZEFSAII (Michael W. Deem and Ramdas Pophale) SiO2 
 PCOD9443841
Probable space group: P N N M
;
_chemical_formula_sum "Si O2"
_cell_formula_units_Z 28
_cell_length_a 9.255058
_cell_length_b 7.642972
_cell_length_c 16.339854
_cell_angle_alpha 90.000000
_cell_angle_beta 90.000000
_cell_angle_gamma 90.000000
_cell_volume 1155.818350
_symmetry_space_group_name_H-M "P N N M"
_symmetry_group_IT_number 58
_symmetry_cell_setting 'orthorhombic'
loop_
_space_group_symop_operation_xyz
x,y,z
-x,-y,z
1/2+x,1/2-y,1/2-z
1/2-x,1/2+y,1/2-z
-x,-y,-z
x,y,-z
1/2-x,1/2+y,1/2+z
1/2+x,1/2-y,1/2+z
loop_
_atom_site_type_symbol
_atom_site_label
_atom_site_fract_x
_atom_site_fract_y
_atom_site_fract_z
Si Si1 0.000000 0.000000 0.652344
Si Si2 0.438256 0.300892 0.410283
Si Si3 0.243689 0.779248 0.589382
Si Si4 0.087466 0.676417 0.257521
O O1 0.859285 0.052654 0.600634
O O2 0.983476 0.831643 0.709905
O O3 0.500000 0.500000 0.405166
O O4 0.369143 0.281028 0.500000
O O5 0.586610 0.187850 0.408584
O O6 0.354497 0.244269 0.329368
O O7 0.211682 0.699366 0.500000
O O8 0.201074 0.663386 0.667969
O O9 0.000000 0.500000 0.249667
#
# Coordination Sequence:
#
# PCOD9443841 Si02
#       4
#     4   8   8   8
#     4   8  19  38  57  86 124 160 213 262 317 372
#     4  10  20  38  62  90 127 168 214 268 323 387
#     4   9  19  37  62  88 123 169 210 262 324 379
#     4  10  21  35  59  89 122 162 213 263 316 385
#
# _framework density 24.225259000000001
#
# number of rings (size 3 to 8) (size 9 to 14) (size 15 to 20)
#    1.714    0.857    1.429    0.429    0.000    5.714 
#    0.000    0.000    0.000    8.571    0.000    0.000 
#    0.000    0.000    0.000    0.000    0.000    0.000 
#
# Total GULP energy -156165.420353 kJ/mol
# GULP energy per Si atom -5577.336441 kJ/mol
# Density = 2.417012 g / cm^3
# Si number density = 24.225259 Si / 1000 Ang^3
#
#
#
# Elastic Constant Matrix: (Units=GPa)
#
#
# Indices 1 2 3 4 5 6 
#
# 1 52.3367 22.8025 23.9792 0.0000 0.0000 0.0000
# 2 22.8025 104.7141 39.5491 0.0000 0.0000 0.0000
# 3 23.9792 39.5491 258.0416 0.0000 0.0000 0.0000
# 4 0.0000 0.0000 0.0000 0.1043 0.0000 0.0000
# 5 0.0000 0.0000 0.0000 0.0000 22.3602 0.0000
# 6 0.0000 0.0000 0.0000 0.0000 0.0000 29.8854
#
#
#
# Elastic Compliance Matrix: (Units=1/GPa)
#
#
# Indices 1 2 3 4 5 6 
#
# 1 0.021552 -0.004179 -0.001362 0.000000 0.000000 0.000000
# 2 -0.004179 0.010947 -0.001289 0.000000 0.000000 0.000000
# 3 -0.001362 -0.001289 0.004200 0.000000 0.000000 0.000000
# 4 0.000000 0.000000 0.000000 9.589364 0.000000 0.000000
# 5 0.000000 0.000000 0.000000 0.000000 0.044722 0.000000
# 6 0.000000 0.000000 0.000000 0.000000 0.000000 0.033461
#
#
# Mechanical properties :
#
#
# Convention : Reuss Voigt Hill
#
# Bulk Modulus (GPa) = 43.40770 65.30601 54.35685
# Shear Modulus (GPa) = 0.51411 32.38741 16.45076
#
# Velocity S-wave (km/s) = 0.46117 3.66037 2.60873
# Velocity P-wave (km/s) = 4.27093 6.69931 5.61790
#
# Compressibility (1/GPa) = 0.02303739
#
# Stress axis : x y z
#
# Youngs Moduli (GPa) = 46.39987 91.35133 238.11947
#
# Poissons Ratio (x) = 0.38172 0.32440
# Poissons Ratio (y) = 0.19389 0.30705
# Poissons Ratio (z) = 0.06321 0.11779
#
# Static dielectric constant tensor:
#      x y z
#    x 1.912360 0.000000 0.000000 
#    y 0.000000 1.945560 0.000000 
#    z 0.000000 0.000000 1.987430 
# 
# From -- ./inp_files/24707.got.cif
#   From: 2010.05.17/outbox.cif.g08.bks.cpg/sg58_13_cif.got.tgz:24707.got - 2010.06.03 14:20:14.
