data_PCOD9443272
_publ_section_title
;
Structure prediction by ZEFSAII (Michael W. Deem and Ramdas Pophale) SiO2 
 PCOD9443272
Probable space group: P N N M
;
_chemical_formula_sum "Si O2"
_cell_formula_units_Z 56
_cell_length_a 22.394595
_cell_length_b 14.669947
_cell_length_c 8.865067
_cell_angle_alpha 90.000000
_cell_angle_beta 90.000000
_cell_angle_gamma 90.000000
_cell_volume 2912.418492
_symmetry_space_group_name_H-M "P N N M"
_symmetry_group_IT_number 58
_symmetry_cell_setting 'orthorhombic'
loop_
_space_group_symop_operation_xyz
x,y,z
-x,-y,z
1/2+x,1/2-y,1/2-z
1/2-x,1/2+y,1/2-z
-x,-y,-z
x,y,-z
1/2-x,1/2+y,1/2+z
1/2+x,1/2-y,1/2+z
loop_
_atom_site_type_symbol
_atom_site_label
_atom_site_fract_x
_atom_site_fract_y
_atom_site_fract_z
Si Si1 0.219333 0.605572 0.321431
Si Si2 0.351120 0.602035 0.179340
Si Si3 0.502396 0.106910 0.819123
Si Si4 0.109670 0.712018 0.180973
Si Si5 0.715851 0.106719 0.176293
Si Si6 0.111921 0.284144 0.178526
Si Si7 0.856195 0.089310 0.179757
O O1 0.225493 0.623851 0.500000
O O2 0.283716 0.613075 0.243414
O O3 0.170684 0.670194 0.246475
O O4 0.199152 0.499836 0.305608
O O5 0.389005 0.683463 0.251119
O O6 0.372105 0.502102 0.231964
O O7 0.350517 0.608924 0.000000
O O8 0.445070 0.157943 0.752394
O O9 0.561128 0.153332 0.751578
O O10 0.500000 0.000000 0.780242
O O11 0.502844 0.114779 0.000000
O O12 0.107485 0.819747 0.216535
O O13 0.109825 0.702772 0.000000
O O14 0.675186 0.170219 0.278006
O O15 0.786272 0.111690 0.209939
O O16 0.707041 0.131661 0.000000
O O17 0.104686 0.279826 0.000000
O O18 0.860190 0.070988 0.000000
#
# Coordination Sequence:
#
# PCOD9443272 Si02
#       7
#     8   8   8   8   8   8   8
#     4  10  20  35  57  86 121 157 192 234 285 341
#     4  11  22  37  59  86 117 152 192 238 286 340
#     4  11  25  44  63  84 115 153 192 237 285 335
#     4  11  22  37  60  88 118 152 191 238 289 342
#     4   9  18  34  56  84 119 155 189 230 284 342
#     4  12  24  38  59  85 115 152 195 241 288 342
#     4   9  20  38  58  84 119 153 186 231 287 342
#
# _framework density 19.228005
#
# number of rings (size 3 to 8) (size 9 to 14) (size 15 to 20)
#    0.000    1.571    0.000    6.429    0.000    9.714 
#    0.000    0.714    0.000    4.286    0.000    0.000 
#    0.000    0.000    0.000    0.000    0.000    0.000 
#
# Total GULP energy -313157.872583 kJ/mol
# GULP energy per Si atom -5592.104868 kJ/mol
# Density = 1.918424 g / cm^3
# Si number density = 19.228005 Si / 1000 Ang^3
#
#
#
# Elastic Constant Matrix: (Units=GPa)
#
#
# Indices 1 2 3 4 5 6 
#
# 1 32.2600 57.6835 35.1222 0.0000 0.0000 0.0000
# 2 57.6835 160.0496 89.7725 0.0000 0.0000 0.0000
# 3 35.1222 89.7725 110.3735 0.0000 0.0000 0.0000
# 4 0.0000 0.0000 0.0000 39.8362 0.0000 0.0000
# 5 0.0000 0.0000 0.0000 0.0000 27.7490 0.0000
# 6 0.0000 0.0000 0.0000 0.0000 0.0000 34.2415
#
#
#
# Elastic Compliance Matrix: (Units=1/GPa)
#
#
# Indices 1 2 3 4 5 6 
#
# 1 0.088162 -0.029495 -0.004065 0.000000 0.000000 0.000000
# 2 -0.029495 0.021357 -0.007985 0.000000 0.000000 0.000000
# 3 -0.004065 -0.007985 0.016849 0.000000 0.000000 0.000000
# 4 0.000000 0.000000 0.000000 0.025103 0.000000 0.000000
# 5 0.000000 0.000000 0.000000 0.000000 0.036037 0.000000
# 6 0.000000 0.000000 0.000000 0.000000 0.000000 0.029204
#
#
# Mechanical properties :
#
#
# Convention : Reuss Voigt Hill
#
# Bulk Modulus (GPa) = 23.10619 74.20438 48.65528
# Shear Modulus (GPa) = 15.91198 28.37234 22.14216
#
# Velocity S-wave (km/s) = 2.87982 3.84549 3.39714
# Velocity P-wave (km/s) = 4.80634 7.64151 6.38332
#
# Compressibility (1/GPa) = 0.04327846
#
# Stress axis : x y z
#
# Youngs Moduli (GPa) = 11.34270 46.82245 59.35212
#
# Poissons Ratio (x) = 1.38101 0.24126
# Poissons Ratio (y) = 0.33455 0.47395
# Poissons Ratio (z) = 0.04611 0.37390
#
# Static dielectric constant tensor:
#      x y z
#    x 1.663060 0.000000 0.000000 
#    y 0.000000 1.678250 0.000000 
#    z 0.000000 0.000000 1.636360 
# 
# From -- ./inp_files/9042.got.cif
#   From: 2010.05.17/outbox.cif.g08.bks.cpg/sg58_5_cif.got.tgz:9042.got - 2010.06.03 14:20:14.
