data_PCOD9443074
_publ_section_title
;
Structure prediction by ZEFSAII (Michael W. Deem and Ramdas Pophale) SiO2 
 PCOD9443074
Probable space group: P N N M
;
_chemical_formula_sum "Si O2"
_cell_formula_units_Z 64
_cell_length_a 25.070250
_cell_length_b 14.464488
_cell_length_c 9.109483
_cell_angle_alpha 90.000000
_cell_angle_beta 90.000000
_cell_angle_gamma 90.000000
_cell_volume 3303.356610
_symmetry_space_group_name_H-M "P N N M"
_symmetry_group_IT_number 58
_symmetry_cell_setting 'orthorhombic'
loop_
_space_group_symop_operation_xyz
x,y,z
-x,-y,z
1/2+x,1/2-y,1/2-z
1/2-x,1/2+y,1/2-z
-x,-y,-z
x,y,-z
1/2-x,1/2+y,1/2+z
1/2+x,1/2-y,1/2+z
loop_
_atom_site_type_symbol
_atom_site_label
_atom_site_fract_x
_atom_site_fract_y
_atom_site_fract_z
Si Si1 0.043609 0.780936 0.326230
Si Si2 0.217085 0.951124 0.170236
Si Si3 0.668560 0.257921 0.672675
Si Si4 0.327620 0.959616 0.674336
Si Si5 0.723555 0.772563 0.669450
Si Si6 0.393742 0.469751 0.826655
Si Si7 0.057725 0.137060 0.173530
Si Si8 0.374066 0.126286 0.175467
O O1 0.030662 0.778832 0.500000
O O2 0.073991 0.686751 0.286429
O O3 0.991396 0.804092 0.234162
O O4 0.084794 0.865883 0.304383
O O5 0.269698 0.982246 0.256728
O O6 0.217620 0.838921 0.175615
O O7 0.162303 0.982503 0.244257
O O8 0.219454 0.980050 0.000000
O O9 0.682169 0.267144 0.500000
O O10 0.662088 0.148596 0.703658
O O11 0.718062 0.294274 0.766957
O O12 0.613232 0.309228 0.699456
O O13 0.326669 0.973268 0.500000
O O14 0.370144 0.026548 0.749832
O O15 0.718730 0.801393 0.500000
O O16 0.677147 0.817918 0.764700
O O17 0.436075 0.541058 0.759708
O O18 0.387294 0.485172 0.000000
O O19 0.051950 0.120515 0.000000
O O20 0.371111 0.118768 0.000000
#
# Coordination Sequence:
#
# PCOD9443074 Si02
#       8
#     8   8   8   8   8   8   8   8
#     4  10  23  42  61  84 117 158 199 241 297 356
#     4  10  20  35  56  86 121 154 192 238 288 346
#     4   9  21  41  60  82 118 157 194 242 301 353
#     4  10  21  38  60  85 117 156 197 242 295 354
#     4  10  20  34  57  87 117 152 194 239 289 349
#     4  11  22  38  59  85 119 159 197 237 291 355
#     4  11  24  40  61  87 115 154 200 250 300 350
#     4  11  22  38  60  86 119 157 196 243 297 350
#
# _framework density 19.374234000000001
#
# number of rings (size 3 to 8) (size 9 to 14) (size 15 to 20)
#    0.000    1.750    1.250    2.625    1.750    6.000 
#    0.000    0.625    0.000    3.750    0.000    0.000 
#    0.000    0.000    0.000    0.000    0.000    0.000 
#
# Total GULP energy -357858.713026 kJ/mol
# GULP energy per Si atom -5591.542391 kJ/mol
# Density = 1.933014 g / cm^3
# Si number density = 19.374234 Si / 1000 Ang^3
#
#
#
# Elastic Constant Matrix: (Units=GPa)
#
#
# Indices 1 2 3 4 5 6 
#
# 1 46.4006 -0.2132 30.7903 0.0000 0.0000 0.0000
# 2 -0.2132 41.7006 15.4396 0.0000 0.0000 0.0000
# 3 30.7903 15.4396 68.9221 0.0000 0.0000 0.0000
# 4 0.0000 0.0000 0.0000 22.2386 0.0000 0.0000
# 5 0.0000 0.0000 0.0000 0.0000 35.7242 0.0000
# 6 0.0000 0.0000 0.0000 0.0000 0.0000 26.4943
#
#
#
# Elastic Compliance Matrix: (Units=1/GPa)
#
#
# Indices 1 2 3 4 5 6 
#
# 1 0.031925 0.005936 -0.015592 0.000000 0.000000 0.000000
# 2 0.005936 0.027253 -0.008757 0.000000 0.000000 0.000000
# 3 -0.015592 -0.008757 0.023436 0.000000 0.000000 0.000000
# 4 0.000000 0.000000 0.000000 0.044967 0.000000 0.000000
# 5 0.000000 0.000000 0.000000 0.000000 0.027992 0.000000
# 6 0.000000 0.000000 0.000000 0.000000 0.000000 0.037744
#
#
# Mechanical properties :
#
#
# Convention : Reuss Voigt Hill
#
# Bulk Modulus (GPa) = 21.83938 27.67297 24.75617
# Shear Modulus (GPa) = 20.37435 24.29187 22.33311
#
# Velocity S-wave (km/s) = 3.24639 3.54478 3.39886
# Velocity P-wave (km/s) = 5.03477 5.57390 5.31118
#
# Compressibility (1/GPa) = 0.04578885
#
# Stress axis : x y z
#
# Youngs Moduli (GPa) = 31.32318 36.69313 42.66862
#
# Poissons Ratio (x) = -0.21781 0.66529
# Poissons Ratio (y) = -0.18594 0.37365
# Poissons Ratio (z) = 0.48839 0.32132
#
# Static dielectric constant tensor:
#      x y z
#    x 1.640230 0.000000 0.000000 
#    y 0.000000 1.712350 0.000000 
#    z 0.000000 0.000000 1.644360 
# 
# From -- ./inp_files/6731.got.cif
#   From: 2010.05.17/outbox.cif.g08.bks.cpg/sg58_4_cif.got.tgz:6731.got - 2010.06.03 14:20:14.
