data_PCOD9443694
_publ_section_title
;
Structure prediction by ZEFSAII (Michael W. Deem and Ramdas Pophale) SiO2 
 PCOD9443694
Probable space group: P N N M
;
_chemical_formula_sum "Si O2"
_cell_formula_units_Z 48
_cell_length_a 14.595213
_cell_length_b 20.267483
_cell_length_c 8.849162
_cell_angle_alpha 90.000000
_cell_angle_beta 90.000000
_cell_angle_gamma 90.000000
_cell_volume 2617.654960
_symmetry_space_group_name_H-M "P N N M"
_symmetry_group_IT_number 58
_symmetry_cell_setting 'orthorhombic'
loop_
_space_group_symop_operation_xyz
x,y,z
-x,-y,z
1/2+x,1/2-y,1/2-z
1/2-x,1/2+y,1/2-z
-x,-y,-z
x,y,-z
1/2-x,1/2+y,1/2+z
1/2+x,1/2-y,1/2+z
loop_
_atom_site_type_symbol
_atom_site_label
_atom_site_fract_x
_atom_site_fract_y
_atom_site_fract_z
Si Si1 0.223466 0.207654 0.680167
Si Si2 0.473693 0.722978 0.320421
Si Si3 0.216024 0.435739 0.678611
Si Si4 0.031515 0.380031 0.820705
Si Si5 0.168651 0.571921 0.180252
Si Si6 0.839719 0.172989 0.680246
O O1 0.223604 0.219721 0.500000
O O2 0.120741 0.202516 0.741800
O O3 0.279104 0.140437 0.708753
O O4 0.273778 0.268284 0.761473
O O5 0.469481 0.711263 0.500000
O O6 0.484396 0.802007 0.298380
O O7 0.560752 0.686769 0.249670
O O8 0.227193 0.430080 0.500000
O O9 0.119064 0.404089 0.729186
O O10 0.211870 0.511278 0.731286
O O11 0.295072 0.394540 0.761285
O O12 0.938302 0.418005 0.780189
O O13 0.049127 0.390459 0.000000
O O14 0.172908 0.558888 0.000000
O O15 0.843254 0.173852 0.500000
#
# Coordination Sequence:
#
# PCOD9443694 Si02
#       6
#     8   8   8   8   8   8
#     4  11  22  40  64  92 123 160 204 252 303 364
#     4  11  22  39  63  94 125 158 201 253 305 360
#     4  12  25  39  59  90 126 161 206 256 303 362
#     4  10  20  37  61  90 125 163 197 243 308 368
#     4  10  22  41  62  86 124 165 202 245 305 369
#     4  12  24  40  63  89 122 164 206 252 303 359
#
# _framework density 18.337022000000001
#
# number of rings (size 3 to 8) (size 9 to 14) (size 15 to 20)
#    0.000    1.000    3.333    4.500    0.000    4.667 
#    0.000    0.833    0.000    5.000    0.000    0.000 
#    0.000    0.000    0.000    0.000    0.000    0.000 
#
# Total GULP energy -268524.129951 kJ/mol
# GULP energy per Si atom -5594.252707 kJ/mol
# Density = 1.829529 g / cm^3
# Si number density = 18.337022 Si / 1000 Ang^3
#
#
#
# Elastic Constant Matrix: (Units=GPa)
#
#
# Indices 1 2 3 4 5 6 
#
# 1 72.6182 -10.1683 8.4263 0.0000 0.0000 0.0000
# 2 -10.1683 32.5643 20.1302 0.0000 0.0000 0.0000
# 3 8.4263 20.1302 71.6669 0.0000 0.0000 0.0000
# 4 0.0000 0.0000 0.0000 23.3532 0.0000 0.0000
# 5 0.0000 0.0000 0.0000 0.0000 40.2360 0.0000
# 6 0.0000 0.0000 0.0000 0.0000 0.0000 26.9084
#
#
#
# Elastic Compliance Matrix: (Units=1/GPa)
#
#
# Indices 1 2 3 4 5 6 
#
# 1 0.015200 0.007080 -0.003776 0.000000 0.000000 0.000000
# 2 0.007080 0.040459 -0.012197 0.000000 0.000000 0.000000
# 3 -0.003776 -0.012197 0.017823 0.000000 0.000000 0.000000
# 4 0.000000 0.000000 0.000000 0.042821 0.000000 0.000000
# 5 0.000000 0.000000 0.000000 0.000000 0.024853 0.000000
# 6 0.000000 0.000000 0.000000 0.000000 0.000000 0.037163
#
#
# Mechanical properties :
#
#
# Convention : Reuss Voigt Hill
#
# Bulk Modulus (GPa) = 17.95398 23.73618 20.84508
# Shear Modulus (GPa) = 23.29151 28.66360 25.97756
#
# Velocity S-wave (km/s) = 3.56784 3.95796 3.76795
# Velocity P-wave (km/s) = 5.17542 5.81892 5.50658
#
# Compressibility (1/GPa) = 0.05569796
#
# Stress axis : x y z
#
# Youngs Moduli (GPa) = 65.78844 24.71636 56.10628
#
# Poissons Ratio (x) = -0.17500 0.21186
# Poissons Ratio (y) = -0.46582 0.68432
# Poissons Ratio (z) = 0.24842 0.30146
#
# Static dielectric constant tensor:
#      x y z
#    x 1.607050 0.000000 0.000000 
#    y 0.000000 1.618770 0.000000 
#    z 0.000000 0.000000 1.609300 
# 
# From -- ./inp_files/5746.got.cif
#   From: 2010.05.17/outbox.cif.g08.bks.cpg/sg58_3_cif.got.tgz:5746.got - 2010.06.03 14:20:14.
