data_PCOD9443525
_publ_section_title
;
Structure prediction by ZEFSAII (Michael W. Deem and Ramdas Pophale) SiO2 
 PCOD9443525
Probable space group: P N N M
;
_chemical_formula_sum "Si O2"
_cell_formula_units_Z 64
_cell_length_a 23.787453
_cell_length_b 14.416542
_cell_length_c 7.688408
_cell_angle_alpha 90.000000
_cell_angle_beta 90.000000
_cell_angle_gamma 90.000000
_cell_volume 2636.607400
_symmetry_space_group_name_H-M "P N N M"
_symmetry_group_IT_number 58
_symmetry_cell_setting 'orthorhombic'
loop_
_space_group_symop_operation_xyz
x,y,z
-x,-y,z
1/2+x,1/2-y,1/2-z
1/2-x,1/2+y,1/2-z
-x,-y,-z
x,y,-z
1/2-x,1/2+y,1/2+z
1/2+x,1/2-y,1/2+z
loop_
_atom_site_type_symbol
_atom_site_label
_atom_site_fract_x
_atom_site_fract_y
_atom_site_fract_z
Si Si1 0.771715 0.607908 0.249034
Si Si2 0.418688 0.400592 0.199267
Si Si3 0.521968 0.288394 0.796801
Si Si4 0.828658 0.243254 0.193941
Si Si5 0.160756 0.557860 0.209419
Si Si6 0.320143 0.528802 0.297573
Si Si7 0.350711 0.733928 0.208622
Si Si8 0.530412 0.907366 0.291400
O O1 0.725764 0.679408 0.322798
O O2 0.815482 0.529750 0.309723
O O3 0.723950 0.532750 0.187351
O O4 0.816858 0.685954 0.191100
O O5 0.477875 0.364565 0.275418
O O6 0.376500 0.311659 0.203690
O O7 0.381666 0.480812 0.286161
O O8 0.427515 0.429117 0.000000
O O9 0.585022 0.277531 0.727734
O O10 0.492885 0.188007 0.783723
O O11 0.528755 0.312550 0.000000
O O12 0.811433 0.344256 0.258799
O O13 0.852804 0.257695 0.000000
O O14 0.095790 0.577439 0.242590
O O15 0.167778 0.538465 0.000000
O O16 0.302462 0.523228 0.500000
O O17 0.323554 0.633246 0.233721
O O18 0.349649 0.757541 0.000000
O O19 0.522150 0.901267 0.500000
O O20 0.500000 0.000000 0.227463
#
# Coordination Sequence:
#
# PCOD9443525 Si02
#       8
#     8   8   8   8   8   8   8   8
#     4  11  22  38  62  89 122 161 208 258 311 372
#     4  10  20  38  63  93 124 161 205 254 307 369
#     4  10  22  39  62  93 128 165 210 257 312 378
#     4  10  20  38  61  87 119 160 209 256 304 367
#     4  10  21  37  60  89 123 164 206 252 311 373
#     4  11  25  44  65  94 125 160 212 266 315 376
#     4  11  24  44  66  91 127 170 206 254 321 380
#     4  10  20  36  60  90 123 164 210 253 306 373
#
# _framework density 24.273619
#
# number of rings (size 3 to 8) (size 9 to 14) (size 15 to 20)
#    0.000    1.625    1.250    4.125    0.000    5.750 
#    0.000    8.750    0.000    0.000    0.000    0.000 
#    0.000    0.000    0.000    0.000    0.000    0.000 
#
# Total GULP energy -356780.838379 kJ/mol
# GULP energy per Si atom -5574.700600 kJ/mol
# Density = 2.421837 g / cm^3
# Si number density = 24.273619 Si / 1000 Ang^3
#
#
#
# Elastic Constant Matrix: (Units=GPa)
#
#
# Indices 1 2 3 4 5 6 
#
# 1 143.8965 41.7877 12.8551 0.0000 0.0000 0.0000
# 2 41.7877 172.7391 8.2613 0.0000 0.0000 0.0000
# 3 12.8551 8.2613 78.0945 0.0000 0.0000 0.0000
# 4 0.0000 0.0000 0.0000 21.8570 0.0000 0.0000
# 5 0.0000 0.0000 0.0000 0.0000 -14.7801 0.0000
# 6 0.0000 0.0000 0.0000 0.0000 0.0000 46.5612
#
#
#
# Elastic Compliance Matrix: (Units=1/GPa)
#
#
# Indices 1 2 3 4 5 6 
#
# 1 0.007560 -0.001778 -0.001056 0.000000 0.000000 0.000000
# 2 -0.001778 0.006237 -0.000367 0.000000 0.000000 0.000000
# 3 -0.001056 -0.000367 0.013018 0.000000 0.000000 0.000000
# 4 0.000000 0.000000 0.000000 0.045752 0.000000 0.000000
# 5 0.000000 0.000000 0.000000 0.000000 -0.067659 0.000000
# 6 0.000000 0.000000 0.000000 0.000000 0.000000 0.021477
#
#
# Mechanical properties :
#
#
# Convention : Reuss Voigt Hill
#
# Bulk Modulus (GPa) = 48.99260 57.83758 53.41509
# Shear Modulus (GPa) = 126.28662 32.84936 79.56799
#
# Velocity S-wave (km/s) = 7.22075 3.68271 5.73156
# Velocity P-wave (km/s) = 9.47345 6.47782 8.11506
#
# Compressibility (1/GPa) = 0.02041124
#
# Stress axis : x y z
#
# Youngs Moduli (GPa) = 132.27058 160.33743 76.81843
#
# Poissons Ratio (x) = 0.28514 0.08115
# Poissons Ratio (y) = 0.23523 0.02819
# Poissons Ratio (z) = 0.13972 0.05885
#
# Static dielectric constant tensor:
#      x y z
#    x 1.929280 0.000000 0.000000 
#    y 0.000000 1.910490 0.000000 
#    z 0.000000 0.000000 2.065310 
# 
# From -- ./inp_files/10046.got.cif
#   From: 2010.05.17/outbox.cif.g08.bks.cpg/sg58_6_cif.got.tgz:10046.got - 2010.06.03 14:20:14.
