data_PCOD9443773
_publ_section_title
;
Structure prediction by ZEFSAII (Michael W. Deem and Ramdas Pophale) SiO2 
 PCOD9443773
Probable space group: P N N M
;
_chemical_formula_sum "Si O2"
_cell_formula_units_Z 64
_cell_length_a 24.789088
_cell_length_b 14.866601
_cell_length_c 9.178344
_cell_angle_alpha 90.000000
_cell_angle_beta 90.000000
_cell_angle_gamma 90.000000
_cell_volume 3382.490346
_symmetry_space_group_name_H-M "P N N M"
_symmetry_group_IT_number 58
_symmetry_cell_setting 'orthorhombic'
loop_
_space_group_symop_operation_xyz
x,y,z
-x,-y,z
1/2+x,1/2-y,1/2-z
1/2-x,1/2+y,1/2-z
-x,-y,-z
x,y,-z
1/2-x,1/2+y,1/2+z
1/2+x,1/2-y,1/2+z
loop_
_atom_site_type_symbol
_atom_site_label
_atom_site_fract_x
_atom_site_fract_y
_atom_site_fract_z
Si Si1 0.239928 0.364673 0.670016
Si Si2 0.375831 0.959112 0.831292
Si Si3 0.445566 0.446412 0.826150
Si Si4 0.025687 0.402376 0.827290
Si Si5 0.057507 0.759697 0.170739
Si Si6 0.654365 0.867764 0.328679
Si Si7 0.165128 0.003969 0.175858
Si Si8 0.264568 0.674618 0.325811
O O1 0.249233 0.340364 0.500000
O O2 0.184467 0.420370 0.678327
O O3 0.290093 0.427890 0.716234
O O4 0.231214 0.274176 0.760604
O O5 0.420652 0.892280 0.768033
O O6 0.378065 0.046895 0.730578
O O7 0.386812 0.980699 0.000000
O O8 0.500000 0.500000 0.786797
O O9 0.451943 0.344512 0.771435
O O10 0.391912 0.485262 0.750147
O O11 0.438952 0.450020 0.000000
O O12 0.000000 0.500000 0.792297
O O13 0.983797 0.321946 0.801537
O O14 0.038543 0.402911 0.000000
O O15 0.117492 0.719972 0.191752
O O16 0.052409 0.785124 0.000000
O O17 0.665250 0.877797 0.500000
O O18 0.708596 0.862371 0.237406
O O19 0.189419 0.102086 0.214230
O O20 0.159664 0.000033 0.000000
O O21 0.262319 0.678201 0.500000
#
# Coordination Sequence:
#
# PCOD9443773 Si02
#       8
#     8   8   8   8   8   8   8   8
#     4  10  22  41  60  87 127 164 199 247 303 361
#     4  11  22  37  58  87 125 163 200 249 304 356
#     4  11  26  45  64  90 122 154 201 261 310 357
#     4  10  20  38  59  86 124 161 202 248 296 362
#     4  10  22  40  64  90 120 163 208 251 303 363
#     4  11  21  37  61  89 122 161 203 248 305 364
#     4  10  22  43  66  88 122 162 204 249 301 365
#     4  11  23  39  61  93 125 158 204 255 302 361
#
# _framework density 18.920971999999999
#
# number of rings (size 3 to 8) (size 9 to 14) (size 15 to 20)
#    0.000    1.500    2.500    2.250    0.000    9.250 
#    0.000    5.000    0.000    0.000    0.000    0.000 
#    0.000    0.000    0.000    0.000    0.000    0.000 
#
# Total GULP energy -357549.433893 kJ/mol
# GULP energy per Si atom -5586.709905 kJ/mol
# Density = 1.887791 g / cm^3
# Si number density = 18.920972 Si / 1000 Ang^3
#
#
#
# Elastic Constant Matrix: (Units=GPa)
#
#
# Indices 1 2 3 4 5 6 
#
# 1 118.0413 48.6860 51.9549 0.0000 0.0000 0.0000
# 2 48.6860 109.1013 59.4469 0.0000 0.0000 0.0000
# 3 51.9549 59.4469 51.3821 0.0000 0.0000 0.0000
# 4 0.0000 0.0000 0.0000 615.4669 0.0000 0.0000
# 5 0.0000 0.0000 0.0000 0.0000 35.1161 0.0000
# 6 0.0000 0.0000 0.0000 0.0000 0.0000 20.1564
#
#
#
# Elastic Compliance Matrix: (Units=1/GPa)
#
#
# Indices 1 2 3 4 5 6 
#
# 1 0.016059 0.004549 -0.021501 0.000000 0.000000 0.000000
# 2 0.004549 0.026088 -0.034783 0.000000 0.000000 0.000000
# 3 -0.021501 -0.034783 0.081445 0.000000 0.000000 0.000000
# 4 0.000000 0.000000 0.000000 0.001625 0.000000 0.000000
# 5 0.000000 0.000000 0.000000 0.000000 0.028477 0.000000
# 6 0.000000 0.000000 0.000000 0.000000 0.000000 0.049612
#
#
# Mechanical properties :
#
#
# Convention : Reuss Voigt Hill
#
# Bulk Modulus (GPa) = 49.69524 66.52224 58.10874
# Shear Modulus (GPa) = 15.94981 142.04370 78.99675
#
# Velocity S-wave (km/s) = 2.90654 8.67382 6.46850
# Velocity P-wave (km/s) = 6.13071 11.64249 9.30412
#
# Compressibility (1/GPa) = 0.02012265
#
# Stress axis : x y z
#
# Youngs Moduli (GPa) = 62.27101 38.33167 12.27816
#
# Poissons Ratio (x) = -0.17439 0.26400
# Poissons Ratio (y) = -0.28330 0.42707
# Poissons Ratio (z) = 1.33891 1.33329
#
# Static dielectric constant tensor:
#      x y z
#    x 1.662020 0.000000 0.000000 
#    y 0.000000 1.692330 0.000000 
#    z 0.000000 0.000000 1.629530 
# 
# From -- ./inp_files/10112.got.cif
#   From: 2010.05.17/outbox.cif.g08.bks.cpg/sg58_6_cif.got.tgz:10112.got - 2010.06.03 14:20:14.
