data_PCOD9443094
_publ_section_title
;
Structure prediction by ZEFSAII (Michael W. Deem and Ramdas Pophale) SiO2 
 PCOD9443094
Probable space group: P N N M
;
_chemical_formula_sum "Si O2"
_cell_formula_units_Z 28
_cell_length_a 7.019995
_cell_length_b 19.948597
_cell_length_c 7.278429
_cell_angle_alpha 90.000000
_cell_angle_beta 90.000000
_cell_angle_gamma 90.000000
_cell_volume 1019.264291
_symmetry_space_group_name_H-M "P N N M"
_symmetry_group_IT_number 58
_symmetry_cell_setting 'orthorhombic'
loop_
_space_group_symop_operation_xyz
x,y,z
-x,-y,z
1/2+x,1/2-y,1/2-z
1/2-x,1/2+y,1/2-z
-x,-y,-z
x,y,-z
1/2-x,1/2+y,1/2+z
1/2+x,1/2-y,1/2+z
loop_
_atom_site_type_symbol
_atom_site_label
_atom_site_fract_x
_atom_site_fract_y
_atom_site_fract_z
Si Si1 0.244743 0.311809 0.792051
Si Si2 0.727772 0.988361 0.717528
Si Si3 0.188066 0.659164 0.779039
Si Si4 0.897452 0.097137 0.000000
O O1 0.241529 0.231577 0.782404
O O2 0.395751 0.343098 0.657595
O O3 0.037772 0.339111 0.734013
O O4 0.282105 0.332574 0.000000
O O5 0.773382 0.992749 0.500000
O O6 0.763859 0.912476 0.790579
O O7 0.500000 0.000000 0.732778
O O8 0.834912 0.042018 0.839483
O O9 0.204920 0.657098 0.000000
#
# Coordination Sequence:
#
# PCOD9443094 Si02
#       4
#     8   8   8   4
#     4  11  24  37  60  89 127 154 202 247 298 359
#     4  10  20  34  58  88 119 147 207 254 288 347
#     4  10  22  40  58  93 121 157 198 249 297 359
#     4  12  21  36  60  91 115 166 190 258 296 355
#
# _framework density 27.470794999999999
#
# number of rings (size 3 to 8) (size 9 to 14) (size 15 to 20)
#    0.000    1.429    4.286    1.286    4.000    0.000 
#    0.000    0.000    0.000    3.429    0.000    6.000 
#    0.000    0.000    0.000    0.000    0.000    0.000 
#
# Total GULP energy -156264.690022 kJ/mol
# GULP energy per Si atom -5580.881786 kJ/mol
# Density = 2.740827 g / cm^3
# Si number density = 27.470795 Si / 1000 Ang^3
#
#
#
# Elastic Constant Matrix: (Units=GPa)
#
#
# Indices 1 2 3 4 5 6 
#
# 1 94.1468 48.6632 -9.6427 0.0000 0.0000 0.0000
# 2 48.6632 232.3920 46.1355 0.0000 0.0000 0.0000
# 3 -9.6427 46.1355 149.9571 0.0000 0.0000 0.0000
# 4 0.0000 0.0000 0.0000 74.6160 0.0000 0.0000
# 5 0.0000 0.0000 0.0000 0.0000 -47.2086 0.0000
# 6 0.0000 0.0000 0.0000 0.0000 0.0000 64.0488
#
#
#
# Elastic Compliance Matrix: (Units=1/GPa)
#
#
# Indices 1 2 3 4 5 6 
#
# 1 0.012299 -0.002910 0.001686 0.000000 0.000000 0.000000
# 2 -0.002910 0.005272 -0.001809 0.000000 0.000000 0.000000
# 3 0.001686 -0.001809 0.007334 0.000000 0.000000 0.000000
# 4 0.000000 0.000000 0.000000 0.013402 0.000000 0.000000
# 5 0.000000 0.000000 0.000000 0.000000 -0.021183 0.000000
# 6 0.000000 0.000000 0.000000 0.000000 0.000000 0.015613
#
#
# Mechanical properties :
#
#
# Convention : Reuss Voigt Hill
#
# Bulk Modulus (GPa) = 53.08447 71.86755 62.47601
# Shear Modulus (GPa) = 110.91075 44.38056 77.64566
#
# Velocity S-wave (km/s) = 6.36095 4.02376 5.32223
# Velocity P-wave (km/s) = 8.56241 6.91417 7.78205
#
# Compressibility (1/GPa) = 0.01883790
#
# Stress axis : x y z
#
# Youngs Moduli (GPa) = 81.31009 189.69661 136.35976
#
# Poissons Ratio (x) = 0.55203 -0.22992
# Poissons Ratio (y) = 0.23662 0.24667
# Poissons Ratio (z) = -0.13710 0.34316
#
# Static dielectric constant tensor:
#      x y z
#    x 2.339160 0.000000 0.000000 
#    y 0.000000 2.076650 0.000000 
#    z 0.000000 0.000000 2.061520 
# 
# From -- ./inp_files/2100.got.cif
#   From: 2010.05.17/outbox.cif.g08.bks.cpg/sg58_2_cif.got.tgz:2100.got - 2010.06.03 14:20:14.
