data_PCOD9443711
_publ_section_title
;
Structure prediction by ZEFSAII (Michael W. Deem and Ramdas Pophale) SiO2 
 PCOD9443711
Probable space group: P N N M
;
_chemical_formula_sum "Si O2"
_cell_formula_units_Z 40
_cell_length_a 12.670549
_cell_length_b 17.040132
_cell_length_c 7.834778
_cell_angle_alpha 90.000000
_cell_angle_beta 90.000000
_cell_angle_gamma 90.000000
_cell_volume 1691.589897
_symmetry_space_group_name_H-M "P N N M"
_symmetry_group_IT_number 58
_symmetry_cell_setting 'orthorhombic'
loop_
_space_group_symop_operation_xyz
x,y,z
-x,-y,z
1/2+x,1/2-y,1/2-z
1/2-x,1/2+y,1/2-z
-x,-y,-z
x,y,-z
1/2-x,1/2+y,1/2+z
1/2+x,1/2-y,1/2+z
loop_
_atom_site_type_symbol
_atom_site_label
_atom_site_fract_x
_atom_site_fract_y
_atom_site_fract_z
Si Si1 0.054078 0.116195 0.806870
Si Si2 0.735343 0.818449 0.799396
Si Si3 0.973177 0.409716 0.290824
Si Si4 0.852320 0.041543 0.695070
Si Si5 0.310689 0.840368 0.200660
O O1 0.147990 0.165534 0.724260
O O2 0.946109 0.105220 0.707383
O O3 0.107892 0.030393 0.806974
O O4 0.029757 0.142050 0.000000
O O5 0.637655 0.870200 0.732909
O O6 0.734791 0.724824 0.783166
O O7 0.742929 0.838366 0.000000
O O8 0.972156 0.410083 0.500000
O O9 0.000000 0.500000 0.238939
O O10 0.069560 0.352470 0.236676
O O11 0.841740 0.015955 0.500000
O O12 0.745530 0.076831 0.765021
O O13 0.312496 0.825359 0.000000
#
# Coordination Sequence:
#
# PCOD9443711 Si02
#       5
#     8   8   8   8   8
#     4  10  20  37  62  89 119 154 198 247 303 364
#     4  10  22  39  61  90 123 156 196 252 309 368
#     4   9  19  39  65  89 116 158 208 252 301 365
#     4  11  22  37  59  86 120 158 201 247 300 359
#     4  11  23  38  60  89 121 159 204 250 305 367
#
# _framework density 23.646394999999998
#
# number of rings (size 3 to 8) (size 9 to 14) (size 15 to 20)
#    0.000    1.800    0.000    5.400    2.800    4.800 
#    0.000    1.000    0.000    4.200    0.000    0.000 
#    0.000    0.000    0.000    0.000    0.000    0.000 
#
# Total GULP energy -223228.627293 kJ/mol
# GULP energy per Si atom -5580.715682 kJ/mol
# Density = 2.359257 g / cm^3
# Si number density = 23.646395 Si / 1000 Ang^3
#
#
#
# Elastic Constant Matrix: (Units=GPa)
#
#
# Indices 1 2 3 4 5 6 
#
# 1 57.3581 22.3630 4.9377 0.0000 0.0000 0.0000
# 2 22.3630 70.8818 -0.6607 0.0000 0.0000 0.0000
# 3 4.9377 -0.6607 59.2123 0.0000 0.0000 0.0000
# 4 0.0000 0.0000 0.0000 -9.7495 0.0000 0.0000
# 5 0.0000 0.0000 0.0000 0.0000 -9.2007 0.0000
# 6 0.0000 0.0000 0.0000 0.0000 0.0000 48.2435
#
#
#
# Elastic Compliance Matrix: (Units=1/GPa)
#
#
# Indices 1 2 3 4 5 6 
#
# 1 0.020058 -0.006345 -0.001743 0.000000 0.000000 0.000000
# 2 -0.006345 0.016116 0.000709 0.000000 0.000000 0.000000
# 3 -0.001743 0.000709 0.017042 0.000000 0.000000 0.000000
# 4 0.000000 0.000000 0.000000 -0.102569 0.000000 0.000000
# 5 0.000000 0.000000 0.000000 0.000000 -0.108687 0.000000
# 6 0.000000 0.000000 0.000000 0.000000 0.000000 0.020728
#
#
# Mechanical properties :
#
#
# Convention : Reuss Voigt Hill
#
# Bulk Modulus (GPa) = 26.00247 26.74804 26.37525
# Shear Modulus (GPa) = -45.56426 16.57947 -14.49240
#
# Velocity S-wave (km/s) = -4.39441 2.65078 -2.47833
# Velocity P-wave (km/s) = 3.83765 4.55028 1.72881
#
# Compressibility (1/GPa) = 0.03845789
#
# Stress axis : x y z
#
# Youngs Moduli (GPa) = 49.85531 62.04908 58.67970
#
# Poissons Ratio (x) = 0.39367 0.10230
# Poissons Ratio (y) = 0.31631 -0.04160
# Poissons Ratio (z) = 0.08692 -0.04399
#
# Static dielectric constant tensor:
#      x y z
#    x 1.932190 0.000000 0.000000 
#    y 0.000000 2.045670 0.000000 
#    z 0.000000 0.000000 1.835940 
# 
# From -- ./inp_files/3816.got.cif
#   From: 2010.05.17/outbox.cif.g08.bks.cpg/sg58_2_cif.got.tgz:3816.got - 2010.06.03 14:20:14.
