data_PCOD9443760
_publ_section_title
;
Structure prediction by ZEFSAII (Michael W. Deem and Ramdas Pophale) SiO2 
 PCOD9443760
Probable space group: P N N M
;
_chemical_formula_sum "Si O2"
_cell_formula_units_Z 52
_cell_length_a 5.231662
_cell_length_b 14.604858
_cell_length_c 32.967881
_cell_angle_alpha 90.000000
_cell_angle_beta 90.000000
_cell_angle_gamma 90.000000
_cell_volume 2518.999322
_symmetry_space_group_name_H-M "P N N M"
_symmetry_group_IT_number 58
_symmetry_cell_setting 'orthorhombic'
loop_
_space_group_symop_operation_xyz
x,y,z
-x,-y,z
1/2+x,1/2-y,1/2-z
1/2-x,1/2+y,1/2-z
-x,-y,-z
x,y,-z
1/2-x,1/2+y,1/2+z
1/2+x,1/2-y,1/2+z
loop_
_atom_site_type_symbol
_atom_site_label
_atom_site_fract_x
_atom_site_fract_y
_atom_site_fract_z
Si Si1 0.000000 0.000000 0.109524
Si Si2 0.148745 0.307622 0.255792
Si Si3 0.624279 0.101943 0.156353
Si Si4 0.004356 0.392448 0.172588
Si Si5 0.505636 0.389036 0.127390
Si Si6 0.401519 0.776514 0.921059
Si Si7 0.623632 0.366782 0.546255
O O1 0.906143 0.078468 0.139682
O O2 0.183683 0.048571 0.076744
O O3 0.436116 0.271640 0.249390
O O4 0.118440 0.355718 0.299202
O O5 0.081118 0.372998 0.218383
O O6 0.533656 0.172801 0.121986
O O7 0.500000 0.000000 0.155732
O O8 0.720091 0.362149 0.160909
O O9 0.000000 0.500000 0.166367
O O10 0.227245 0.357121 0.142905
O O11 0.500000 0.500000 0.122272
O O12 0.594420 0.331234 0.088639
O O13 0.134857 0.817039 0.937792
O O14 0.633349 0.801385 0.950334
O O15 0.586694 0.395844 0.500000
#
# Coordination Sequence:
#
# PCOD9443760 Si02
#       7
#     4   8   8   8   8   8   8
#     4  10  23  42  62  94 122 168 210 252 312 374
#     4  12  26  39  57  83 120 165 207 253 309 357
#     4  11  23  40  61  89 126 162 209 258 310 366
#     4  10  20  38  56  84 112 155 203 257 303 350
#     4  10  21  39  66  88 120 158 211 261 304 360
#     4  11  22  39  63  92 123 160 205 252 308 373
#     4  11  23  40  64  92 128 161 200 251 311 382
#
# _framework density 20.643117
#
# number of rings (size 3 to 8) (size 9 to 14) (size 15 to 20)
#    0.000    1.231    1.538    4.846    2.154    1.231 
#    4.154    2.308    0.000    2.769    0.000    0.000 
#    0.000    0.000    0.000    0.000    0.000    0.000 
#
# Total GULP energy -290046.144455 kJ/mol
# GULP energy per Si atom -5577.810470 kJ/mol
# Density = 2.059613 g / cm^3
# Si number density = 20.643117 Si / 1000 Ang^3
#
#
#
# Elastic Constant Matrix: (Units=GPa)
#
#
# Indices 1 2 3 4 5 6 
#
# 1 76.8614 22.1257 12.1942 0.0000 0.0000 0.0000
# 2 22.1257 57.0077 31.4226 0.0000 0.0000 0.0000
# 3 12.1942 31.4226 86.0799 0.0000 0.0000 0.0000
# 4 0.0000 0.0000 0.0000 25.4814 0.0000 0.0000
# 5 0.0000 0.0000 0.0000 0.0000 21.6322 0.0000
# 6 0.0000 0.0000 0.0000 0.0000 0.0000 11.2082
#
#
#
# Elastic Compliance Matrix: (Units=1/GPa)
#
#
# Indices 1 2 3 4 5 6 
#
# 1 0.014647 -0.005685 0.000000 0.000000 0.000000 0.000000
# 2 -0.005685 0.024167 -0.008016 0.000000 0.000000 0.000000
# 3 0.000000 -0.008016 0.014543 0.000000 0.000000 0.000000
# 4 0.000000 0.000000 0.000000 0.039244 0.000000 0.000000
# 5 0.000000 0.000000 0.000000 0.000000 0.046227 0.000000
# 6 0.000000 0.000000 0.000000 0.000000 0.000000 0.089220
#
#
# Mechanical properties :
#
#
# Convention : Reuss Voigt Hill
#
# Bulk Modulus (GPa) = 38.52852 39.04823 38.78837
# Shear Modulus (GPa) = 18.93207 21.94481 20.43844
#
# Velocity S-wave (km/s) = 3.03167 3.26399 3.14998
# Velocity P-wave (km/s) = 5.56411 5.75863 5.66220
#
# Compressibility (1/GPa) = 0.02595480
#
# Stress axis : x y z
#
# Youngs Moduli (GPa) = 68.27400 41.37954 68.75985
#
# Poissons Ratio (x) = 0.23524 -0.00002
# Poissons Ratio (y) = 0.38813 0.55121
# Poissons Ratio (z) = -0.00002 0.33172
#
# Static dielectric constant tensor:
#      x y z
#    x 1.822970 0.000000 0.000000 
#    y 0.000000 1.791270 0.000000 
#    z 0.000000 0.000000 1.749950 
# 
# From -- ./inp_files/34174.got.cif
#   From: 2010.05.17/outbox.cif.g08.bks.cpg/sg58_18_cif.got.tgz:34174.got - 2010.06.03 14:20:14.
