data_PCOD9443902
_publ_section_title
;
Structure prediction by ZEFSAII (Michael W. Deem and Ramdas Pophale) SiO2 
 PCOD9443902
Probable space group: P N N M
;
_chemical_formula_sum "Si O2"
_cell_formula_units_Z 44
_cell_length_a 8.871965
_cell_length_b 7.682384
_cell_length_c 27.983244
_cell_angle_alpha 90.000000
_cell_angle_beta 90.000000
_cell_angle_gamma 90.000000
_cell_volume 1907.277522
_symmetry_space_group_name_H-M "P N N M"
_symmetry_group_IT_number 58
_symmetry_cell_setting 'orthorhombic'
loop_
_space_group_symop_operation_xyz
x,y,z
-x,-y,z
1/2+x,1/2-y,1/2-z
1/2-x,1/2+y,1/2-z
-x,-y,-z
x,y,-z
1/2-x,1/2+y,1/2+z
1/2+x,1/2-y,1/2+z
loop_
_atom_site_type_symbol
_atom_site_label
_atom_site_fract_x
_atom_site_fract_y
_atom_site_fract_z
Si Si1 0.764385 0.089455 0.738644
Si Si2 0.568087 0.803168 0.000000
Si Si3 0.446596 0.735060 0.797435
Si Si4 0.070997 0.308253 0.403525
Si Si5 0.000000 0.500000 0.167629
Si Si6 0.426020 0.309614 0.596816
Si Si7 0.428241 0.693713 0.500000
O O1 0.673318 0.111614 0.787825
O O2 0.889062 0.236989 0.726327
O O3 0.861116 0.917131 0.730907
O O4 0.633820 0.077538 0.699448
O O5 0.506240 0.726425 0.049603
O O6 0.500000 0.000000 0.000000
O O7 0.748231 0.808399 0.000000
O O8 0.457036 0.708200 0.853925
O O9 0.248572 0.331641 0.412765
O O10 0.000000 0.500000 0.396231
O O11 0.057111 0.663788 0.137103
O O12 0.500000 0.500000 0.608026
O O13 0.508611 0.234209 0.549619
O O14 0.500000 0.500000 0.500000
#
# Coordination Sequence:
#
# PCOD9443902 Si02
#       7
#     8   4   8   8   4   8   4
#     4  11  26  48  67 106 140 185 244 306 360 440
#     4  10  20  38  66 105 145 181 245 308 353 439
#     4  11  26  45  75  99 148 189 239 300 373 434
#     4  11  23  41  71 106 140 196 240 297 369 439
#     4  12  26  45  72 102 156 179 250 308 366 444
#     4  11  24  43  71 105 141 198 242 301 370 436
#     4  10  20  39  70 106 143 191 247 305 361 437
#
# _framework density 23.069531000000001
#
# number of rings (size 3 to 8) (size 9 to 14) (size 15 to 20)
#    0.000    1.091    1.818    6.000    8.909    0.364 
#    0.000    0.000    0.000    3.273    0.000    0.000 
#    0.000    0.000    0.000    0.000    0.000    0.000 
#
# Total GULP energy -245906.044198 kJ/mol
# GULP energy per Si atom -5588.773732 kJ/mol
# Density = 2.301702 g / cm^3
# Si number density = 23.069531 Si / 1000 Ang^3
#
#
#
# Elastic Constant Matrix: (Units=GPa)
#
#
# Indices 1 2 3 4 5 6 
#
# 1 233.6818 23.1696 67.9206 0.0000 0.0000 0.0000
# 2 23.1696 70.7124 12.9926 0.0000 0.0000 0.0000
# 3 67.9206 12.9926 145.3505 0.0000 0.0000 0.0000
# 4 0.0000 0.0000 0.0000 42.5667 0.0000 0.0000
# 5 0.0000 0.0000 0.0000 0.0000 50.4583 0.0000
# 6 0.0000 0.0000 0.0000 0.0000 0.0000 22.4113
#
#
#
# Elastic Compliance Matrix: (Units=1/GPa)
#
#
# Indices 1 2 3 4 5 6 
#
# 1 0.005057 -0.001243 -0.002252 0.000000 0.000000 0.000000
# 2 -0.001243 0.014684 -0.000732 0.000000 0.000000 0.000000
# 3 -0.002252 -0.000732 0.007998 0.000000 0.000000 0.000000
# 4 0.000000 0.000000 0.000000 0.023493 0.000000 0.000000
# 5 0.000000 0.000000 0.000000 0.000000 0.019818 0.000000
# 6 0.000000 0.000000 0.000000 0.000000 0.000000 0.044620
#
#
# Mechanical properties :
#
#
# Convention : Reuss Voigt Hill
#
# Bulk Modulus (GPa) = 51.85459 73.10114 62.47787
# Shear Modulus (GPa) = 38.29908 46.13140 42.21524
#
# Velocity S-wave (km/s) = 4.07892 4.47662 4.28239
# Velocity P-wave (km/s) = 6.68654 7.64697 7.18283
#
# Compressibility (1/GPa) = 0.01928469
#
# Stress axis : x y z
#
# Youngs Moduli (GPa) = 197.73993 68.10335 125.03668
#
# Poissons Ratio (x) = 0.08467 0.28158
# Poissons Ratio (y) = 0.24584 0.09147
# Poissons Ratio (z) = 0.44531 0.04982
#
# Static dielectric constant tensor:
#      x y z
#    x 1.761470 0.000000 0.000000 
#    y 0.000000 1.941260 0.000000 
#    z 0.000000 0.000000 1.908240 
# 
# From -- ./inp_files/34512.got.cif
#   From: 2010.05.17/outbox.cif.g08.bks.cpg/sg58_18_cif.got.tgz:34512.got - 2010.06.03 14:20:14.
