data_PCOD9443784
_publ_section_title
;
Structure prediction by ZEFSAII (Michael W. Deem and Ramdas Pophale) SiO2 
 PCOD9443784
Probable space group: P N N M
;
_chemical_formula_sum "Si O2"
_cell_formula_units_Z 58
_cell_length_a 14.240272
_cell_length_b 12.430136
_cell_length_c 17.118115
_cell_angle_alpha 90.000000
_cell_angle_beta 90.000000
_cell_angle_gamma 90.000000
_cell_volume 3030.052161
_symmetry_space_group_name_H-M "P N N M"
_symmetry_group_IT_number 58
_symmetry_cell_setting 'orthorhombic'
loop_
_space_group_symop_operation_xyz
x,y,z
-x,-y,z
1/2+x,1/2-y,1/2-z
1/2-x,1/2+y,1/2-z
-x,-y,-z
x,y,-z
1/2-x,1/2+y,1/2+z
1/2+x,1/2-y,1/2+z
loop_
_atom_site_type_symbol
_atom_site_label
_atom_site_fract_x
_atom_site_fract_y
_atom_site_fract_z
Si Si1 0.679678 0.240597 0.197681
Si Si2 0.962032 0.614288 0.589128
Si Si3 0.509184 0.373202 0.264916
Si Si4 0.911067 0.183215 0.388575
Si Si5 0.208346 0.371307 0.861793
Si Si6 0.000000 0.000000 0.500000
Si Si7 0.687663 0.884192 0.592542
Si Si8 0.990538 0.722655 0.911912
O O1 0.618230 0.162390 0.143394
O O2 0.608793 0.333660 0.228919
O O3 0.710760 0.172863 0.273166
O O4 0.758328 0.295596 0.144041
O O5 0.928542 0.600535 0.500000
O O6 0.000000 0.500000 0.617856
O O7 0.044263 0.703017 0.589143
O O8 0.500000 0.500000 0.272642
O O9 0.432241 0.332920 0.202998
O O10 0.497884 0.313684 0.346974
O O11 0.800727 0.175266 0.403199
O O12 0.964898 0.087109 0.432876
O O13 0.211769 0.499506 0.872433
O O14 0.109971 0.332537 0.897929
O O15 0.715528 0.880704 0.500000
O O16 0.576597 0.860726 0.596897
O O17 0.995282 0.765332 0.000000
#
# Coordination Sequence:
#
# PCOD9443784 Si02
#       8
#     8   8   8   8   8   2   8   8
#     4  10  23  38  59  93 121 160 207 250 319 378
#     4  10  22  40  62  89 126 163 201 252 312 387
#     4  10  20  38  60  86 121 154 199 259 313 375
#     4  11  23  38  64  96 126 156 203 253 326 373
#     4  11  24  38  62  90 124 164 200 262 315 373
#     4  12  24  36  66 104 124 156 194 276 316 380
#     4  11  23  39  64  88 121 162 212 264 306 371
#     4  10  23  41  58  86 120 163 215 254 305 367
#
# _framework density 19.141584000000002
#
# number of rings (size 3 to 8) (size 9 to 14) (size 15 to 20)
#    0.000    1.517    1.379    2.897    3.862    5.793 
#    0.000    1.379    0.000    0.000    0.000    0.000 
#    0.000    0.000    0.000    0.000    0.000    0.000 
#
# Total GULP energy -323468.850395 kJ/mol
# GULP energy per Si atom -5577.049145 kJ/mol
# Density = 1.909802 g / cm^3
# Si number density = 19.141584 Si / 1000 Ang^3
#
#
#
# Elastic Constant Matrix: (Units=GPa)
#
#
# Indices 1 2 3 4 5 6 
#
# 1 101.5403 44.2029 43.1891 0.0000 0.0000 0.0000
# 2 44.2029 113.5718 49.6447 0.0000 0.0000 0.0000
# 3 43.1891 49.6447 123.2739 0.0000 0.0000 0.0000
# 4 0.0000 0.0000 0.0000 24.7169 0.0000 0.0000
# 5 0.0000 0.0000 0.0000 0.0000 6.5894 0.0000
# 6 0.0000 0.0000 0.0000 0.0000 0.0000 12.6298
#
#
#
# Elastic Compliance Matrix: (Units=1/GPa)
#
#
# Indices 1 2 3 4 5 6 
#
# 1 0.012702 -0.003639 -0.002985 0.000000 0.000000 0.000000
# 2 -0.003639 0.011729 -0.003448 0.000000 0.000000 0.000000
# 3 -0.002985 -0.003448 0.010546 0.000000 0.000000 0.000000
# 4 0.000000 0.000000 0.000000 0.040458 0.000000 0.000000
# 5 0.000000 0.000000 0.000000 0.000000 0.151758 0.000000
# 6 0.000000 0.000000 0.000000 0.000000 0.000000 0.079178
#
#
# Mechanical properties :
#
#
# Convention : Reuss Voigt Hill
#
# Bulk Modulus (GPa) = 67.41769 68.05104 67.73437
# Shear Modulus (GPa) = 15.08480 22.21051 18.64766
#
# Velocity S-wave (km/s) = 2.81029 3.41005 3.12460
# Velocity P-wave (km/s) = 6.76959 7.15075 6.96278
#
# Compressibility (1/GPa) = 0.01483290
#
# Stress axis : x y z
#
# Youngs Moduli (GPa) = 78.72800 85.26072 94.81876
#
# Poissons Ratio (x) = 0.31027 0.28300
# Poissons Ratio (y) = 0.28649 0.32698
# Poissons Ratio (z) = 0.23497 0.29402
#
# Static dielectric constant tensor:
#      x y z
#    x 1.687290 0.000000 0.000000 
#    y 0.000000 1.624910 0.000000 
#    z 0.000000 0.000000 1.684160 
# 
# From -- ./inp_files/26961.got.cif
#   From: 2010.05.17/outbox.cif.g08.bks.cpg/sg58_14_cif.got.tgz:26961.got - 2010.06.03 14:20:14.
