data_PCOD9443732
_publ_section_title
;
Structure prediction by ZEFSAII (Michael W. Deem and Ramdas Pophale) SiO2 
 PCOD9443732
Probable space group: P N N M
;
_chemical_formula_sum "Si O2"
_cell_formula_units_Z 64
_cell_length_a 10.748227
_cell_length_b 33.708665
_cell_length_c 7.761042
_cell_angle_alpha 90.000000
_cell_angle_beta 90.000000
_cell_angle_gamma 90.000000
_cell_volume 2811.890580
_symmetry_space_group_name_H-M "P N N M"
_symmetry_group_IT_number 58
_symmetry_cell_setting 'orthorhombic'
loop_
_space_group_symop_operation_xyz
x,y,z
-x,-y,z
1/2+x,1/2-y,1/2-z
1/2-x,1/2+y,1/2-z
-x,-y,-z
x,y,-z
1/2-x,1/2+y,1/2+z
1/2+x,1/2-y,1/2+z
loop_
_atom_site_type_symbol
_atom_site_label
_atom_site_fract_x
_atom_site_fract_y
_atom_site_fract_z
Si Si1 0.931039 0.137636 0.288698
Si Si2 0.550894 0.197652 0.798844
Si Si3 0.543805 0.284447 0.196619
Si Si4 0.323066 0.588929 0.795998
Si Si5 0.774958 0.332675 0.300778
Si Si6 0.166918 0.384957 0.203145
Si Si7 0.405865 0.966700 0.701856
Si Si8 0.143121 0.001368 0.802911
O O1 0.929823 0.139309 0.500000
O O2 0.806151 0.117546 0.224487
O O3 0.948045 0.183204 0.228137
O O4 0.049949 0.111312 0.242579
O O5 0.569526 0.241593 0.722716
O O6 0.404791 0.189064 0.786781
O O7 0.613891 0.159126 0.719515
O O8 0.589449 0.197986 0.000000
O O9 0.671171 0.309256 0.195388
O O10 0.502378 0.276255 0.000000
O O11 0.218623 0.621740 0.758501
O O12 0.316091 0.547270 0.703638
O O13 0.326560 0.581090 0.000000
O O14 0.735516 0.332222 0.500000
O O15 0.088963 0.421943 0.276118
O O16 0.179202 0.393167 0.000000
O O17 0.440292 0.964238 0.500000
O O18 0.500000 0.000000 0.776800
O O19 0.259717 0.978984 0.716059
O O20 0.135108 0.987139 0.000000
O O21 0.000000 0.000000 0.730948
#
# Coordination Sequence:
#
# PCOD9443732 Si02
#       8
#     8   8   8   8   8   8   8   8
#     4   8  16  33  58  84 111 148 191 238 286 337
#     4  10  23  38  55  81 117 154 189 234 290 352
#     4   9  19  37  57  80 112 151 193 237 290 348
#     4  10  20  37  63  88 117 156 196 240 293 351
#     4  10  21  37  57  84 117 151 192 241 292 347
#     4  10  21  37  60  85 112 151 200 243 287 349
#     4  10  23  42  62  90 125 162 209 258 307 371
#     4  11  24  40  62  94 127 159 201 255 310 367
#
# _framework density 22.760487999999999
#
# number of rings (size 3 to 8) (size 9 to 14) (size 15 to 20)
#    0.000    2.250    0.000    2.625    3.500    4.250 
#    0.000    3.125    0.000    0.000    0.000    0.000 
#    0.000    0.000    0.000    0.000    0.000    0.000 
#
# Total GULP energy -357090.373884 kJ/mol
# GULP energy per Si atom -5579.537092 kJ/mol
# Density = 2.270868 g / cm^3
# Si number density = 22.760488 Si / 1000 Ang^3
#
#
#
# Elastic Constant Matrix: (Units=GPa)
#
#
# Indices 1 2 3 4 5 6 
#
# 1 31.4321 7.3830 -0.9104 0.0000 0.0000 0.0000
# 2 7.3830 141.7607 -7.5798 0.0000 0.0000 0.0000
# 3 -0.9104 -7.5798 33.1244 0.0000 0.0000 0.0000
# 4 0.0000 0.0000 0.0000 26.1107 0.0000 0.0000
# 5 0.0000 0.0000 0.0000 0.0000 13.6123 0.0000
# 6 0.0000 0.0000 0.0000 0.0000 0.0000 21.9825
#
#
#
# Elastic Compliance Matrix: (Units=1/GPa)
#
#
# Indices 1 2 3 4 5 6 
#
# 1 0.032217 -0.001651 0.000508 0.000000 0.000000 0.000000
# 2 -0.001651 0.007226 0.001608 0.000000 0.000000 0.000000
# 3 0.000508 0.001608 0.030571 0.000000 0.000000 0.000000
# 4 0.000000 0.000000 0.000000 0.038298 0.000000 0.000000
# 5 0.000000 0.000000 0.000000 0.000000 0.073463 0.000000
# 6 0.000000 0.000000 0.000000 0.000000 0.000000 0.045491
#
#
# Mechanical properties :
#
#
# Convention : Reuss Voigt Hill
#
# Bulk Modulus (GPa) = 14.09548 22.67807 18.38677
# Shear Modulus (GPa) = 20.00124 26.16940 23.08532
#
# Velocity S-wave (km/s) = 2.96762 3.39451 3.18822
# Velocity P-wave (km/s) = 4.23660 5.03478 4.65284
#
# Compressibility (1/GPa) = 0.07094473
#
# Stress axis : x y z
#
# Youngs Moduli (GPa) = 31.03942 138.38722 32.71053
#
# Poissons Ratio (x) = 0.22844 -0.01661
# Poissons Ratio (y) = 0.05124 -0.05260
# Poissons Ratio (z) = -0.01576 -0.22255
#
# Static dielectric constant tensor:
#      x y z
#    x 1.858380 0.000000 0.000000 
#    y 0.000000 1.880640 0.000000 
#    z 0.000000 0.000000 1.869830 
# 
# From -- ./inp_files/4841.got.cif
#   From: 2010.05.17/outbox.cif.g08.bks.cpg/sg58_3_cif.got.tgz:4841.got - 2010.06.03 14:20:14.
