data_PCOD9443780
_publ_section_title
;
Structure prediction by ZEFSAII (Michael W. Deem and Ramdas Pophale) SiO2 
 PCOD9443780
Probable space group: P N N M
;
_chemical_formula_sum "Si O2"
_cell_formula_units_Z 56
_cell_length_a 15.072236
_cell_length_b 21.554290
_cell_length_c 8.726672
_cell_angle_alpha 90.000000
_cell_angle_beta 90.000000
_cell_angle_gamma 90.000000
_cell_volume 2835.045676
_symmetry_space_group_name_H-M "P N N M"
_symmetry_group_IT_number 58
_symmetry_cell_setting 'orthorhombic'
loop_
_space_group_symop_operation_xyz
x,y,z
-x,-y,z
1/2+x,1/2-y,1/2-z
1/2-x,1/2+y,1/2-z
-x,-y,-z
x,y,-z
1/2-x,1/2+y,1/2+z
1/2+x,1/2-y,1/2+z
loop_
_atom_site_type_symbol
_atom_site_label
_atom_site_fract_x
_atom_site_fract_y
_atom_site_fract_z
Si Si1 0.688899 0.741210 0.682279
Si Si2 0.742248 0.474105 0.814147
Si Si3 0.664838 0.342602 0.813327
Si Si4 0.004407 0.235530 0.678394
Si Si5 0.931777 0.442809 0.325085
Si Si6 0.439335 0.852184 0.673740
Si Si7 0.757044 0.110113 0.321747
O O1 0.689786 0.745162 0.500000
O O2 0.757547 0.794647 0.739710
O O3 0.588379 0.748337 0.740034
O O4 0.716333 0.672053 0.733696
O O5 0.685185 0.413587 0.772371
O O6 0.837162 0.463191 0.736795
O O7 0.708395 0.542817 0.769440
O O8 0.752156 0.475119 0.000000
O O9 0.567788 0.319440 0.762302
O O10 0.664669 0.339137 0.000000
O O11 0.986367 0.225762 0.500000
O O12 0.063831 0.296459 0.706449
O O13 0.925318 0.419094 0.500000
O O14 0.000000 0.500000 0.326109
O O15 0.975216 0.392368 0.214144
O O16 0.443740 0.827823 0.500000
O O17 0.350210 0.892353 0.685492
O O18 0.782247 0.118903 0.500000
#
# Coordination Sequence:
#
# PCOD9443780 Si02
#       7
#     8   8   8   8   8   8   8
#     4  11  22  39  62  89 119 157 200 246 299 355
#     4  10  20  38  60  83 115 155 201 248 298 355
#     4   9  20  38  61  86 115 151 193 243 297 352
#     4  11  22  39  61  88 117 151 195 247 303 354
#     4  11  22  33  50  81 119 155 191 235 297 360
#     4  11  21  35  56  84 115 152 195 239 295 355
#     4  10  21  36  58  86 115 153 197 243 294 353
#
# _framework density 19.752769000000001
#
# number of rings (size 3 to 8) (size 9 to 14) (size 15 to 20)
#    0.000    1.571    2.857    2.571    0.000    2.857 
#    0.000    2.857    0.000    4.286    0.000    0.000 
#    0.000    0.000    0.000    0.000    0.000    0.000 
#
# Total GULP energy -312503.353936 kJ/mol
# GULP energy per Si atom -5580.417035 kJ/mol
# Density = 1.970781 g / cm^3
# Si number density = 19.752769 Si / 1000 Ang^3
#
#
#
# Elastic Constant Matrix: (Units=GPa)
#
#
# Indices 1 2 3 4 5 6 
#
# 1 38.1719 12.6587 9.4398 0.0000 0.0000 0.0000
# 2 12.6587 94.0970 10.3368 0.0000 0.0000 0.0000
# 3 9.4398 10.3368 27.7260 0.0000 0.0000 0.0000
# 4 0.0000 0.0000 0.0000 23.7745 0.0000 0.0000
# 5 0.0000 0.0000 0.0000 0.0000 20.1030 0.0000
# 6 0.0000 0.0000 0.0000 0.0000 0.0000 29.6708
#
#
#
# Elastic Compliance Matrix: (Units=1/GPa)
#
#
# Indices 1 2 3 4 5 6 
#
# 1 0.029384 -0.002976 -0.008895 0.000000 0.000000 0.000000
# 2 -0.002976 0.011383 -0.003230 0.000000 0.000000 0.000000
# 3 -0.008895 -0.003230 0.040300 0.000000 0.000000 0.000000
# 4 0.000000 0.000000 0.000000 0.042062 0.000000 0.000000
# 5 0.000000 0.000000 0.000000 0.000000 0.049744 0.000000
# 6 0.000000 0.000000 0.000000 0.000000 0.000000 0.033703
#
#
# Mechanical properties :
#
#
# Convention : Reuss Voigt Hill
#
# Bulk Modulus (GPa) = 19.66020 24.98506 22.32263
# Shear Modulus (GPa) = 19.70584 23.21366 21.45975
#
# Velocity S-wave (km/s) = 3.16195 3.43185 3.29966
# Velocity P-wave (km/s) = 4.82755 5.32727 5.08356
#
# Compressibility (1/GPa) = 0.05086419
#
# Stress axis : x y z
#
# Youngs Moduli (GPa) = 34.03241 87.85391 24.81389
#
# Poissons Ratio (x) = 0.26144 0.22071
# Poissons Ratio (y) = 0.10127 0.08016
# Poissons Ratio (z) = 0.30271 0.28381
#
# Static dielectric constant tensor:
#      x y z
#    x 1.703900 0.000000 0.000000 
#    y 0.000000 1.736610 0.000000 
#    z 0.000000 0.000000 1.678870 
# 
# From -- ./inp_files/6294.got.cif
#   From: 2010.05.17/outbox.cif.g08.bks.cpg/sg58_4_cif.got.tgz:6294.got - 2010.06.03 14:20:14.
