data_PCOD9443681
_publ_section_title
;
Structure prediction by ZEFSAII (Michael W. Deem and Ramdas Pophale) SiO2 
 PCOD9443681
Probable space group: P N N M
;
_chemical_formula_sum "Si O2"
_cell_formula_units_Z 64
_cell_length_a 20.020911
_cell_length_b 9.430194
_cell_length_c 17.811889
_cell_angle_alpha 90.000000
_cell_angle_beta 90.000000
_cell_angle_gamma 90.000000
_cell_volume 3362.903787
_symmetry_space_group_name_H-M "P N N M"
_symmetry_group_IT_number 58
_symmetry_cell_setting 'orthorhombic'
loop_
_space_group_symop_operation_xyz
x,y,z
-x,-y,z
1/2+x,1/2-y,1/2-z
1/2-x,1/2+y,1/2-z
-x,-y,-z
x,y,-z
1/2-x,1/2+y,1/2+z
1/2+x,1/2-y,1/2+z
loop_
_atom_site_type_symbol
_atom_site_label
_atom_site_fract_x
_atom_site_fract_y
_atom_site_fract_z
Si Si1 0.675777 0.868226 0.837069
Si Si2 0.030810 0.654146 0.084021
Si Si3 0.571507 0.073332 0.083958
Si Si4 0.695295 0.541631 0.846289
Si Si5 0.945760 0.879880 0.171367
Si Si6 0.191755 0.972121 0.163941
Si Si7 0.440123 0.612857 0.851343
Si Si8 0.322705 0.147395 0.344397
O O1 0.680979 0.705954 0.865096
O O2 0.671574 0.863644 0.746202
O O3 0.617770 0.970941 0.866261
O O4 0.744560 0.940856 0.860545
O O5 0.103608 0.635475 0.121044
O O6 0.000000 0.500000 0.078109
O O7 0.978024 0.744349 0.132326
O O8 0.037965 0.716294 0.000000
O O9 0.558133 0.232556 0.112283
O O10 0.500000 0.000000 0.081443
O O11 0.600401 0.079330 0.000000
O O12 0.693511 0.534474 0.755111
O O13 0.630975 0.454695 0.873067
O O14 0.765537 0.466266 0.868464
O O15 0.940938 0.861909 0.261273
O O16 0.875382 0.942770 0.143494
O O17 0.000000 0.000000 0.157527
O O18 0.197121 0.809953 0.137694
O O19 0.500000 0.500000 0.868106
#
# Coordination Sequence:
#
# PCOD9443681 Si02
#       8
#     8   8   8   8   8   8   8   8
#     4  10  21  36  64  89 118 156 202 251 297 357
#     4  11  26  41  56  88 128 161 205 250 302 365
#     4  11  25  41  58  87 122 151 194 246 299 361
#     4   9  19  35  58  94 123 150 199 255 299 346
#     4  10  20  37  63  91 120 154 204 254 293 352
#     4   9  18  35  57  94 121 149 202 254 298 348
#     4  10  21  37  65  93 121 154 201 247 297 366
#     4  10  20  37  61  85 122 162 200 249 300 354
#
# _framework density 19.031171000000001
#
# number of rings (size 3 to 8) (size 9 to 14) (size 15 to 20)
#    0.000    2.000    1.250    1.500    7.000    2.500 
#    0.000    4.375    0.000    0.000    0.000    0.000 
#    0.000    0.000    0.000    0.000    0.000    0.000 
#
# Total GULP energy -356782.881648 kJ/mol
# GULP energy per Si atom -5574.732526 kJ/mol
# Density = 1.898786 g / cm^3
# Si number density = 19.031171 Si / 1000 Ang^3
#
#
#
# Elastic Constant Matrix: (Units=GPa)
#
#
# Indices 1 2 3 4 5 6 
#
# 1 130.0582 66.2891 35.9468 0.0000 0.0000 0.0000
# 2 66.2891 166.9004 45.2008 0.0000 0.0000 0.0000
# 3 35.9468 45.2008 23.7169 0.0000 0.0000 0.0000
# 4 0.0000 0.0000 0.0000 14.0251 0.0000 0.0000
# 5 0.0000 0.0000 0.0000 0.0000 -38.1656 0.0000
# 6 0.0000 0.0000 0.0000 0.0000 0.0000 36.9237
#
#
#
# Elastic Compliance Matrix: (Units=1/GPa)
#
#
# Indices 1 2 3 4 5 6 
#
# 1 0.013243 0.000364 -0.020765 0.000000 0.000000 0.000000
# 2 0.000364 0.012393 -0.024171 0.000000 0.000000 0.000000
# 3 -0.020765 -0.024171 0.119704 0.000000 0.000000 0.000000
# 4 0.000000 0.000000 0.000000 0.071301 0.000000 0.000000
# 5 0.000000 0.000000 0.000000 0.000000 -0.026202 0.000000
# 6 0.000000 0.000000 0.000000 0.000000 0.000000 0.027083
#
#
# Mechanical properties :
#
#
# Convention : Reuss Voigt Hill
#
# Bulk Modulus (GPa) = 17.79520 68.39432 43.09476
# Shear Modulus (GPa) = 15.36576 14.10588 14.73582
#
# Velocity S-wave (km/s) = 2.84456 2.72545 2.78564
# Velocity P-wave (km/s) = 4.48994 6.77644 5.74803
#
# Compressibility (1/GPa) = 0.05619492
#
# Stress axis : x y z
#
# Youngs Moduli (GPa) = 75.51379 80.68933 8.35393
#
# Poissons Ratio (x) = -0.02938 0.17347
# Poissons Ratio (y) = -0.02749 0.20193
# Poissons Ratio (z) = 1.56806 1.95037
#
# Static dielectric constant tensor:
#      x y z
#    x 1.618330 0.000000 0.000000 
#    y 0.000000 1.621790 0.000000 
#    z 0.000000 0.000000 1.674120 
# 
# From -- ./inp_files/30292.got.cif
#   From: 2010.05.17/outbox.cif.g08.bks.cpg/sg58_16_cif.got.tgz:30292.got - 2010.06.03 14:20:14.
