data_PCOD9443494
_publ_section_title
;
Structure prediction by ZEFSAII (Michael W. Deem and Ramdas Pophale) SiO2 
 PCOD9443494
Probable space group: P N N M
;
_chemical_formula_sum "Si O2"
_cell_formula_units_Z 64
_cell_length_a 23.840682
_cell_length_b 10.361514
_cell_length_c 13.406884
_cell_angle_alpha 90.000000
_cell_angle_beta 90.000000
_cell_angle_gamma 90.000000
_cell_volume 3311.843032
_symmetry_space_group_name_H-M "P N N M"
_symmetry_group_IT_number 58
_symmetry_cell_setting 'orthorhombic'
loop_
_space_group_symop_operation_xyz
x,y,z
-x,-y,z
1/2+x,1/2-y,1/2-z
1/2-x,1/2+y,1/2-z
-x,-y,-z
x,y,-z
1/2-x,1/2+y,1/2+z
1/2+x,1/2-y,1/2+z
loop_
_atom_site_type_symbol
_atom_site_label
_atom_site_fract_x
_atom_site_fract_y
_atom_site_fract_z
Si Si1 0.725661 0.013822 0.386936
Si Si2 0.724332 0.793840 0.117555
Si Si3 0.600955 0.911001 0.887325
Si Si4 0.084498 0.043080 0.620752
Si Si5 0.693186 0.355474 0.785437
Si Si6 0.374078 0.891957 0.270542
Si Si7 0.484134 0.291495 0.814473
Si Si8 0.517236 0.151628 0.616344
O O1 0.708963 0.029136 0.500000
O O2 0.762734 0.142011 0.361614
O O3 0.669903 0.013834 0.322861
O O4 0.761243 0.885735 0.369502
O O5 0.659756 0.835172 0.135876
O O6 0.769933 0.870566 0.184518
O O7 0.734597 0.814691 0.000000
O O8 0.548024 0.818242 0.875142
O O9 0.593601 0.028682 0.812447
O O10 0.606054 0.957375 0.000000
O O11 0.092344 0.032345 0.500000
O O12 0.141520 0.054749 0.682936
O O13 0.045435 0.167153 0.645714
O O14 0.052181 0.919271 0.663617
O O15 0.664311 0.217268 0.778335
O O16 0.417381 0.839131 0.352088
O O17 0.487301 0.240917 0.700013
O O18 0.508177 0.186802 0.500000
O O19 0.500000 0.000000 0.627076
#
# Coordination Sequence:
#
# PCOD9443494 Si02
#       8
#     8   8   8   8   8   8   8   8
#     4  10  20  36  60  84 113 160 205 248 308 375
#     4   9  20  38  60  86 117 159 208 256 312 370
#     4  11  21  37  61  88 124 162 202 256 316 375
#     4  11  23  40  64  95 132 168 208 259 318 378
#     4  11  21  37  61  90 124 159 206 262 311 373
#     4  11  22  39  58  90 122 157 205 260 312 379
#     4  11  22  42  64  93 124 165 209 259 310 382
#     4  11  23  43  67  88 119 162 208 261 315 372
#
# _framework density 19.324587000000001
#
# number of rings (size 3 to 8) (size 9 to 14) (size 15 to 20)
#    0.000    1.375    3.750    3.000    0.000    2.500 
#    0.000    2.500    0.000    0.000    0.000    0.000 
#    0.000    0.000    0.000    0.000    0.000    0.000 
#
# Total GULP energy -356736.928215 kJ/mol
# GULP energy per Si atom -5574.014503 kJ/mol
# Density = 1.928060 g / cm^3
# Si number density = 19.324587 Si / 1000 Ang^3
#
#
#
# Elastic Constant Matrix: (Units=GPa)
#
#
# Indices 1 2 3 4 5 6 
#
# 1 71.7798 8.4653 27.5500 0.0000 0.0000 0.0000
# 2 8.4653 31.8448 30.6100 0.0000 0.0000 0.0000
# 3 27.5500 30.6100 104.4108 0.0000 0.0000 0.0000
# 4 0.0000 0.0000 0.0000 28.4090 0.0000 0.0000
# 5 0.0000 0.0000 0.0000 0.0000 23.9576 0.0000
# 6 0.0000 0.0000 0.0000 0.0000 0.0000 33.8145
#
#
#
# Elastic Compliance Matrix: (Units=1/GPa)
#
#
# Indices 1 2 3 4 5 6 
#
# 1 0.015503 -0.000263 -0.004013 0.000000 0.000000 0.000000
# 2 -0.000263 0.043728 -0.012750 0.000000 0.000000 0.000000
# 3 -0.004013 -0.012750 0.014375 0.000000 0.000000 0.000000
# 4 0.000000 0.000000 0.000000 0.035200 0.000000 0.000000
# 5 0.000000 0.000000 0.000000 0.000000 0.041740 0.000000
# 6 0.000000 0.000000 0.000000 0.000000 0.000000 0.029573
#
#
# Mechanical properties :
#
#
# Convention : Reuss Voigt Hill
#
# Bulk Modulus (GPa) = 25.28341 37.92065 31.60203
# Shear Modulus (GPa) = 21.99183 26.66356 24.32770
#
# Velocity S-wave (km/s) = 3.37712 3.71856 3.55195
# Velocity P-wave (km/s) = 5.32152 6.17272 5.76286
#
# Compressibility (1/GPa) = 0.03955163
#
# Stress axis : x y z
#
# Youngs Moduli (GPa) = 64.50386 22.86856 69.56758
#
# Poissons Ratio (x) = 0.00602 0.27921
# Poissons Ratio (y) = 0.01699 0.88700
# Poissons Ratio (z) = 0.25888 0.29158
#
# Static dielectric constant tensor:
#      x y z
#    x 1.720010 0.000000 0.000000 
#    y 0.000000 1.713860 0.000000 
#    z 0.000000 0.000000 1.650960 
# 
# From -- ./inp_files/17537.got.cif
#   From: 2010.05.17/outbox.cif.g08.bks.cpg/sg58_9_cif.got.tgz:17537.got - 2010.06.03 14:20:14.
