data_PCOD9443637
_publ_section_title
;
Structure prediction by ZEFSAII (Michael W. Deem and Ramdas Pophale) SiO2 
 PCOD9443637
Probable space group: P N N M
;
_chemical_formula_sum "Si O2"
_cell_formula_units_Z 64
_cell_length_a 31.679636
_cell_length_b 12.233867
_cell_length_c 8.465734
_cell_angle_alpha 90.000000
_cell_angle_beta 90.000000
_cell_angle_gamma 90.000000
_cell_volume 3281.017571
_symmetry_space_group_name_H-M "P N N M"
_symmetry_group_IT_number 58
_symmetry_cell_setting 'orthorhombic'
loop_
_space_group_symop_operation_xyz
x,y,z
-x,-y,z
1/2+x,1/2-y,1/2-z
1/2-x,1/2+y,1/2-z
-x,-y,-z
x,y,-z
1/2-x,1/2+y,1/2+z
1/2+x,1/2-y,1/2+z
loop_
_atom_site_type_symbol
_atom_site_label
_atom_site_fract_x
_atom_site_fract_y
_atom_site_fract_z
Si Si1 0.628750 0.650358 0.308992
Si Si2 0.878840 0.898863 0.191005
Si Si3 0.044990 0.721231 0.811558
Si Si4 0.697796 0.246047 0.310179
Si Si5 0.067798 0.489537 0.689946
Si Si6 0.333684 0.985317 0.809991
Si Si7 0.043794 0.244800 0.688898
Si Si8 0.707120 0.787690 0.191189
O O1 0.629250 0.652388 0.500000
O O2 0.623155 0.524853 0.257525
O O3 0.588643 0.722915 0.255605
O O4 0.672409 0.701870 0.250005
O O5 0.837553 0.831852 0.247105
O O6 0.920767 0.836510 0.246392
O O7 0.878679 0.897913 0.000000
O O8 0.044732 0.594399 0.760580
O O9 0.003665 0.779666 0.743060
O O10 0.043737 0.728036 0.000000
O O11 0.698814 0.255268 0.500000
O O12 0.683225 0.125420 0.264145
O O13 0.745344 0.266322 0.252199
O O14 0.062677 0.494236 0.500000
O O15 0.117212 0.500713 0.729604
O O16 0.053740 0.369260 0.743620
O O17 0.308034 0.091875 0.758976
O O18 0.330823 0.975839 0.000000
O O19 0.046126 0.244137 0.500000
O O20 0.706868 0.784842 0.000000
#
# Coordination Sequence:
#
# PCOD9443637 Si02
#       8
#     8   8   8   8   8   8   8   8
#     4  10  23  41  61  85 115 155 197 239 288 345
#     4  10  22  41  61  82 115 155 194 240 290 341
#     4  11  23  38  59  88 118 151 194 239 290 348
#     4  10  22  38  59  88 118 150 192 238 285 340
#     4  10  20  37  59  86 118 152 190 236 289 345
#     4  10  20  37  62  87 118 156 191 236 292 342
#     4  11  23  39  60  87 117 151 194 239 291 349
#     4  10  22  39  60  88 119 153 193 237 287 343
#
# _framework density 19.506143999999999
#
# number of rings (size 3 to 8) (size 9 to 14) (size 15 to 20)
#    0.000    1.750    2.500    1.125    1.750    5.500 
#    0.000    2.500    0.000    0.000    0.000    0.000 
#    0.000    0.000    0.000    0.000    0.000    0.000 
#
# Total GULP energy -357575.600244 kJ/mol
# GULP energy per Si atom -5587.118754 kJ/mol
# Density = 1.946175 g / cm^3
# Si number density = 19.506144 Si / 1000 Ang^3
#
#
#
# Elastic Constant Matrix: (Units=GPa)
#
#
# Indices 1 2 3 4 5 6 
#
# 1 96.9470 23.2503 9.1963 0.0000 0.0000 0.0000
# 2 23.2503 103.6805 8.5206 0.0000 0.0000 0.0000
# 3 9.1963 8.5206 4.5856 0.0000 0.0000 0.0000
# 4 0.0000 0.0000 0.0000 40.1992 0.0000 0.0000
# 5 0.0000 0.0000 0.0000 0.0000 -24.4679 0.0000
# 6 0.0000 0.0000 0.0000 0.0000 0.0000 -3.2940
#
#
#
# Elastic Compliance Matrix: (Units=1/GPa)
#
#
# Indices 1 2 3 4 5 6 
#
# 1 0.012809 -0.000899 -0.024018 0.000000 0.000000 0.000000
# 2 -0.000899 0.011446 -0.019467 0.000000 0.000000 0.000000
# 3 -0.024018 -0.019467 0.302413 0.000000 0.000000 0.000000
# 4 0.000000 0.000000 0.000000 0.024876 0.000000 0.000000
# 5 0.000000 0.000000 0.000000 0.000000 -0.040870 0.000000
# 6 0.000000 0.000000 0.000000 0.000000 0.000000 -0.303579
#
#
# Mechanical properties :
#
#
# Convention : Reuss Voigt Hill
#
# Bulk Modulus (GPa) = 4.20343 31.90531 18.05437
# Shear Modulus (GPa) = 28.54499 13.43718 20.99109
#
# Velocity S-wave (km/s) = 3.82957 2.62748 3.28400
# Velocity P-wave (km/s) = 4.65980 5.05934 4.86368
#
# Compressibility (1/GPa) = 0.23790089
#
# Stress axis : x y z
#
# Youngs Moduli (GPa) = 78.07171 87.36432 3.30674
#
# Poissons Ratio (x) = 0.07850 0.07942
# Poissons Ratio (y) = 0.07015 0.06437
# Poissons Ratio (z) = 1.87513 1.70070
#
# Static dielectric constant tensor:
#      x y z
#    x 1.679090 0.000000 0.000000 
#    y 0.000000 1.655210 0.000000 
#    z 0.000000 0.000000 1.674450 
# 
# From -- ./inp_files/4765.got.cif
#   From: 2010.05.17/outbox.cif.g08.bks.cpg/sg58_3_cif.got.tgz:4765.got - 2010.06.03 14:20:14.
