data_PCOD9443976
_publ_section_title
;
Structure prediction by ZEFSAII (Michael W. Deem and Ramdas Pophale) SiO2 
 PCOD9443976
Probable space group: P N N M
;
_chemical_formula_sum "Si O2"
_cell_formula_units_Z 40
_cell_length_a 5.510294
_cell_length_b 24.569056
_cell_length_c 12.163191
_cell_angle_alpha 90.000000
_cell_angle_beta 90.000000
_cell_angle_gamma 90.000000
_cell_volume 1646.685904
_symmetry_space_group_name_H-M "P N N M"
_symmetry_group_IT_number 58
_symmetry_cell_setting 'orthorhombic'
loop_
_space_group_symop_operation_xyz
x,y,z
-x,-y,z
1/2+x,1/2-y,1/2-z
1/2-x,1/2+y,1/2-z
-x,-y,-z
x,y,-z
1/2-x,1/2+y,1/2+z
1/2+x,1/2-y,1/2+z
loop_
_atom_site_type_symbol
_atom_site_label
_atom_site_fract_x
_atom_site_fract_y
_atom_site_fract_z
Si Si1 0.757467 0.032602 0.872274
Si Si2 0.990526 0.851473 0.500000
Si Si3 0.496196 0.914398 0.500000
Si Si4 0.875968 0.824807 0.130496
Si Si5 0.783445 0.206426 0.304952
Si Si6 0.525307 0.891715 0.727854
O O1 0.694772 0.084696 0.800035
O O2 0.500000 0.000000 0.867087
O O3 0.797168 0.047329 0.000000
O O4 0.000000 0.000000 0.837088
O O5 0.727346 0.875066 0.500000
O O6 0.022593 0.816976 0.390301
O O7 0.214325 0.895044 0.500000
O O8 0.541836 0.934351 0.625960
O O9 0.132775 0.806600 0.181833
O O10 0.736505 0.769021 0.163534
O O11 0.749359 0.875807 0.193020
O O12 0.876532 0.832982 0.000000
O O13 0.556642 0.166445 0.323199
#
# Coordination Sequence:
#
# PCOD9443976 Si02
#       6
#     8   4   4   8   8   8
#     4  10  24  46  71  97 132 173 222 286 347 397
#     4  10  20  40  60  85 130 180 216 252 321 388
#     4  10  22  38  68  93 128 176 216 263 337 391
#     4  12  24  38  61  94 132 179 231 276 323 401
#     4  11  23  39  59  90 135 176 222 269 330 393
#     4  11  24  42  66  97 130 180 222 280 334 409
#
# _framework density 24.291215000000001
#
# number of rings (size 3 to 8) (size 9 to 14) (size 15 to 20)
#    0.000    1.200    5.000    0.600    2.800    1.600 
#    1.800    1.000    0.000    0.000    0.000    0.000 
#    0.000    0.000    0.000    0.000    0.000    0.000 
#
# Total GULP energy -222877.373659 kJ/mol
# GULP energy per Si atom -5571.934341 kJ/mol
# Density = 2.423593 g / cm^3
# Si number density = 24.291215 Si / 1000 Ang^3
#
#
#
# Elastic Constant Matrix: (Units=GPa)
#
#
# Indices 1 2 3 4 5 6 
#
# 1 96.4158 21.7255 16.5116 0.0000 0.0000 0.0000
# 2 21.7255 68.6971 17.7924 0.0000 0.0000 0.0000
# 3 16.5116 17.7924 147.4709 0.0000 0.0000 0.0000
# 4 0.0000 0.0000 0.0000 10.7683 0.0000 0.0000
# 5 0.0000 0.0000 0.0000 0.0000 24.1274 0.0000
# 6 0.0000 0.0000 0.0000 0.0000 0.0000 34.2840
#
#
#
# Elastic Compliance Matrix: (Units=1/GPa)
#
#
# Indices 1 2 3 4 5 6 
#
# 1 0.011272 -0.003342 -0.000859 0.000000 0.000000 0.000000
# 2 -0.003342 0.016017 -0.001558 0.000000 0.000000 0.000000
# 3 -0.000859 -0.001558 0.007065 0.000000 0.000000 0.000000
# 4 0.000000 0.000000 0.000000 0.092865 0.000000 0.000000
# 5 0.000000 0.000000 0.000000 0.000000 0.041447 0.000000
# 6 0.000000 0.000000 0.000000 0.000000 0.000000 0.029168
#
#
# Mechanical properties :
#
#
# Convention : Reuss Voigt Hill
#
# Bulk Modulus (GPa) = 43.79134 47.18252 45.48693
# Shear Modulus (GPa) = 23.04516 30.93954 26.99235
#
# Velocity S-wave (km/s) = 3.08344 3.57275 3.33708
# Velocity P-wave (km/s) = 5.54469 6.04031 5.79780
#
# Compressibility (1/GPa) = 0.02283557
#
# Stress axis : x y z
#
# Youngs Moduli (GPa) = 88.71573 62.43265 141.53960
#
# Poissons Ratio (x) = 0.20867 0.12156
# Poissons Ratio (y) = 0.29652 0.22055
# Poissons Ratio (z) = 0.07619 0.09729
#
# Static dielectric constant tensor:
#      x y z
#    x 2.104390 0.000000 0.000000 
#    y 0.000000 1.995940 0.000000 
#    z 0.000000 0.000000 2.012810 
# 
# From -- ./inp_files/11866.got.cif
#   From: 2010.05.17/outbox.cif.g08.bks.cpg/sg58_6_cif.got.tgz:11866.got - 2010.06.03 14:20:14.
