data_PCOD9443429
_publ_section_title
;
Structure prediction by ZEFSAII (Michael W. Deem and Ramdas Pophale) SiO2 
 PCOD9443429
Probable space group: P N N M
;
_chemical_formula_sum "Si O2"
_cell_formula_units_Z 56
_cell_length_a 21.789621
_cell_length_b 15.001505
_cell_length_c 8.292863
_cell_angle_alpha 90.000000
_cell_angle_beta 90.000000
_cell_angle_gamma 90.000000
_cell_volume 2710.747078
_symmetry_space_group_name_H-M "P N N M"
_symmetry_group_IT_number 58
_symmetry_cell_setting 'orthorhombic'
loop_
_space_group_symop_operation_xyz
x,y,z
-x,-y,z
1/2+x,1/2-y,1/2-z
1/2-x,1/2+y,1/2-z
-x,-y,-z
x,y,-z
1/2-x,1/2+y,1/2+z
1/2+x,1/2-y,1/2+z
loop_
_atom_site_type_symbol
_atom_site_label
_atom_site_fract_x
_atom_site_fract_y
_atom_site_fract_z
Si Si1 0.734862 0.757422 0.691326
Si Si2 0.099356 0.709002 0.806743
Si Si3 0.487722 0.357274 0.193222
Si Si4 0.097471 0.025910 0.695302
Si Si5 0.929414 0.489916 0.802701
Si Si6 0.183020 0.402282 0.813249
Si Si7 0.732799 0.449499 0.314926
O O1 0.734805 0.774177 0.500000
O O2 0.663698 0.745671 0.744603
O O3 0.778731 0.674537 0.726479
O O4 0.758549 0.845713 0.778629
O O5 0.040820 0.766333 0.755523
O O6 0.095162 0.606933 0.748938
O O7 0.099550 0.706447 0.000000
O O8 0.441016 0.437385 0.236629
O O9 0.555033 0.390081 0.245557
O O10 0.489299 0.353861 0.000000
O O11 0.104734 0.028347 0.500000
O O12 0.162876 0.025825 0.777496
O O13 0.883921 0.568861 0.749160
O O14 0.000000 0.500000 0.753691
O O15 0.927596 0.490846 0.000000
O O16 0.223065 0.492156 0.797091
O O17 0.177366 0.376454 0.000000
O O18 0.747918 0.469897 0.500000
#
# Coordination Sequence:
#
# PCOD9443429 Si02
#       7
#     8   8   8   8   8   8   8
#     4  11  23  40  61  89 122 158 203 253 310 368
#     4  10  20  36  58  85 116 155 196 245 304 362
#     4   9  19  35  57  84 114 154 196 239 297 364
#     4   9  19  37  57  81 118 157 194 243 304 357
#     4   9  19  38  62  85 114 154 199 245 299 362
#     4  11  22  40  63  90 123 160 202 253 314 370
#     4  12  24  38  59  88 119 158 204 250 301 360
#
# _framework density 20.658512999999999
#
# number of rings (size 3 to 8) (size 9 to 14) (size 15 to 20)
#    0.000    1.857    1.429    3.857    0.000    5.714 
#    0.000    2.857    0.000    3.000    0.000    0.000 
#    0.000    0.000    0.000    0.000    0.000    0.000 
#
# Total GULP energy -312798.983415 kJ/mol
# GULP energy per Si atom -5585.696132 kJ/mol
# Density = 2.061149 g / cm^3
# Si number density = 20.658513 Si / 1000 Ang^3
#
#
#
# Elastic Constant Matrix: (Units=GPa)
#
#
# Indices 1 2 3 4 5 6 
#
# 1 91.7764 -4.2685 -0.1386 0.0000 0.0000 0.0000
# 2 -4.2685 39.2953 -6.9725 0.0000 0.0000 0.0000
# 3 -0.1386 -6.9725 20.7033 0.0000 0.0000 0.0000
# 4 0.0000 0.0000 0.0000 25.9035 0.0000 0.0000
# 5 0.0000 0.0000 0.0000 0.0000 28.5740 0.0000
# 6 0.0000 0.0000 0.0000 0.0000 0.0000 29.6819
#
#
#
# Elastic Compliance Matrix: (Units=1/GPa)
#
#
# Indices 1 2 3 4 5 6 
#
# 1 0.010956 0.001280 0.000504 0.000000 0.000000 0.000000
# 2 0.001280 0.027215 0.009174 0.000000 0.000000 0.000000
# 3 0.000504 0.009174 0.051394 0.000000 0.000000 0.000000
# 4 0.000000 0.000000 0.000000 0.038605 0.000000 0.000000
# 5 0.000000 0.000000 0.000000 0.000000 0.034997 0.000000
# 6 0.000000 0.000000 0.000000 0.000000 0.000000 0.033691
#
#
# Mechanical properties :
#
#
# Convention : Reuss Voigt Hill
#
# Bulk Modulus (GPa) = 8.97005 14.33510 11.65258
# Shear Modulus (GPa) = 23.57348 27.70886 25.64117
#
# Velocity S-wave (km/s) = 3.38169 3.66632 3.52688
# Velocity P-wave (km/s) = 4.42710 4.98765 4.71571
#
# Compressibility (1/GPa) = 0.11148204
#
# Stress axis : x y z
#
# Youngs Moduli (GPa) = 91.27148 36.74423 19.45736
#
# Poissons Ratio (x) = -0.04702 -0.00981
# Poissons Ratio (y) = -0.11679 -0.17850
# Poissons Ratio (z) = -0.04603 -0.33710
#
# Static dielectric constant tensor:
#      x y z
#    x 1.741290 0.000000 0.000000 
#    y 0.000000 1.734910 0.000000 
#    z 0.000000 0.000000 1.714850 
# 
# From -- ./inp_files/6277.got.cif
#   From: 2010.05.17/outbox.cif.g08.bks.cpg/sg58_4_cif.got.tgz:6277.got - 2010.06.03 14:20:14.
