data_PCOD9443412
_publ_section_title
;
Structure prediction by ZEFSAII (Michael W. Deem and Ramdas Pophale) SiO2 
 PCOD9443412
Probable space group: P N N M
;
_chemical_formula_sum "Si O2"
_cell_formula_units_Z 56
_cell_length_a 21.415048
_cell_length_b 15.509353
_cell_length_c 9.629645
_cell_angle_alpha 90.000000
_cell_angle_beta 90.000000
_cell_angle_gamma 90.000000
_cell_volume 3198.328073
_symmetry_space_group_name_H-M "P N N M"
_symmetry_group_IT_number 58
_symmetry_cell_setting 'orthorhombic'
loop_
_space_group_symop_operation_xyz
x,y,z
-x,-y,z
1/2+x,1/2-y,1/2-z
1/2-x,1/2+y,1/2-z
-x,-y,-z
x,y,-z
1/2-x,1/2+y,1/2+z
1/2+x,1/2-y,1/2+z
loop_
_atom_site_type_symbol
_atom_site_label
_atom_site_fract_x
_atom_site_fract_y
_atom_site_fract_z
Si Si1 0.667111 0.183966 0.667478
Si Si2 0.313897 0.988719 0.834140
Si Si3 0.519286 0.207168 0.334939
Si Si4 0.603186 0.477248 0.156934
Si Si5 0.476917 0.365571 0.842294
Si Si6 0.552608 0.927880 0.845233
Si Si7 0.295932 0.622679 0.666151
O O1 0.672469 0.172491 0.500000
O O2 0.592766 0.193416 0.701775
O O3 0.699965 0.275629 0.705468
O O4 0.693028 0.099918 0.747591
O O5 0.382601 0.027058 0.807311
O O6 0.265383 0.065806 0.801232
O O7 0.309052 0.970164 0.000000
O O8 0.515792 0.207590 0.500000
O O9 0.493303 0.294298 0.268741
O O10 0.474614 0.136095 0.267907
O O11 0.581934 0.574053 0.194106
O O12 0.538661 0.424550 0.152170
O O13 0.648543 0.429030 0.260463
O O14 0.629341 0.478014 0.000000
O O15 0.467616 0.331966 0.000000
O O16 0.500000 0.000000 0.856823
O O17 0.560140 0.887898 0.000000
O O18 0.304229 0.621327 0.500000
#
# Coordination Sequence:
#
# PCOD9443412 Si02
#       7
#     8   8   8   8   8   8   8
#     4  10  21  37  58  83 112 147 185 229 285 340
#     4  10  22  40  61  82 109 149 193 235 280 337
#     4  11  21  33  55  85 112 143 181 226 283 339
#     4   9  18  33  55  82 110 145 187 230 274 324
#     4   9  18  33  53  80 113 146 185 229 271 324
#     4  10  20  36  58  82 108 142 183 232 286 332
#     4  10  21  39  59  82 115 152 190 232 284 342
#
# _framework density 17.509149000000001
#
# number of rings (size 3 to 8) (size 9 to 14) (size 15 to 20)
#    0.000    2.143    2.857    1.286    0.000    3.143 
#    2.571    1.429    0.000    0.000    0.000    0.000 
#    0.000    0.000    0.000    0.000    0.000    0.000 
#
# Total GULP energy -311980.243044 kJ/mol
# GULP energy per Si atom -5571.075769 kJ/mol
# Density = 1.746930 g / cm^3
# Si number density = 17.509149 Si / 1000 Ang^3
#
#
#
# Elastic Constant Matrix: (Units=GPa)
#
#
# Indices 1 2 3 4 5 6 
#
# 1 87.1459 62.1748 33.4404 0.0000 0.0000 0.0000
# 2 62.1748 132.0198 63.8021 0.0000 0.0000 0.0000
# 3 33.4404 63.8021 54.0575 0.0000 0.0000 0.0000
# 4 0.0000 0.0000 0.0000 37.1183 0.0000 0.0000
# 5 0.0000 0.0000 0.0000 0.0000 12.4332 0.0000
# 6 0.0000 0.0000 0.0000 0.0000 0.0000 20.1329
#
#
#
# Elastic Compliance Matrix: (Units=1/GPa)
#
#
# Indices 1 2 3 4 5 6 
#
# 1 0.017431 -0.006978 -0.002547 0.000000 0.000000 0.000000
# 2 -0.006978 0.020425 -0.019790 0.000000 0.000000 0.000000
# 3 -0.002547 -0.019790 0.043432 0.000000 0.000000 0.000000
# 4 0.000000 0.000000 0.000000 0.026941 0.000000 0.000000
# 5 0.000000 0.000000 0.000000 0.000000 0.080430 0.000000
# 6 0.000000 0.000000 0.000000 0.000000 0.000000 0.049670
#
#
# Mechanical properties :
#
#
# Convention : Reuss Voigt Hill
#
# Bulk Modulus (GPa) = 44.13519 65.78420 54.95969
# Shear Modulus (GPa) = 16.41969 21.52394 18.97181
#
# Velocity S-wave (km/s) = 3.06564 3.50994 3.29528
# Velocity P-wave (km/s) = 6.14756 7.35385 6.77760
#
# Compressibility (1/GPa) = 0.02265766
#
# Stress axis : x y z
#
# Youngs Moduli (GPa) = 57.36897 48.95854 23.02441
#
# Poissons Ratio (x) = 0.34166 0.05863
# Poissons Ratio (y) = 0.40035 0.45566
# Poissons Ratio (z) = 0.14609 0.96891
#
# Static dielectric constant tensor:
#      x y z
#    x 1.578000 0.000000 0.000000 
#    y 0.000000 1.536550 0.000000 
#    z 0.000000 0.000000 1.594390 
# 
# From -- ./inp_files/6338.got.cif
#   From: 2010.05.17/outbox.cif.g08.bks.cpg/sg58_4_cif.got.tgz:6338.got - 2010.06.03 14:20:14.
