data_PCOD9443073
_publ_section_title
;
Structure prediction by ZEFSAII (Michael W. Deem and Ramdas Pophale) SiO2 
 PCOD9443073
Probable space group: P N N M
;
_chemical_formula_sum "Si O2"
_cell_formula_units_Z 58
_cell_length_a 23.660434
_cell_length_b 15.594381
_cell_length_c 7.603104
_cell_angle_alpha 90.000000
_cell_angle_beta 90.000000
_cell_angle_gamma 90.000000
_cell_volume 2805.315933
_symmetry_space_group_name_H-M "P N N M"
_symmetry_group_IT_number 58
_symmetry_cell_setting 'orthorhombic'
loop_
_space_group_symop_operation_xyz
x,y,z
-x,-y,z
1/2+x,1/2-y,1/2-z
1/2-x,1/2+y,1/2-z
-x,-y,-z
x,y,-z
1/2-x,1/2+y,1/2+z
1/2+x,1/2-y,1/2+z
loop_
_atom_site_type_symbol
_atom_site_label
_atom_site_fract_x
_atom_site_fract_y
_atom_site_fract_z
Si Si1 0.388388 0.435301 0.214496
Si Si2 0.199464 0.583371 0.215321
Si Si3 0.983223 0.201776 0.795978
Si Si4 0.577224 0.867302 0.303821
Si Si5 0.261316 0.412728 0.792484
Si Si6 0.211978 0.229857 0.287831
Si Si7 0.500000 0.000000 0.500000
Si Si8 0.396566 0.630253 0.795579
O O1 0.437152 0.373127 0.281718
O O2 0.325744 0.406633 0.273590
O O3 0.396925 0.533450 0.275707
O O4 0.391950 0.431991 0.000000
O O5 0.135621 0.600235 0.276986
O O6 0.227473 0.494825 0.278908
O O7 0.239488 0.662532 0.264186
O O8 0.198042 0.577984 0.000000
O O9 0.955611 0.288159 0.718193
O O10 0.042018 0.171838 0.714538
O O11 0.997038 0.219219 0.000000
O O12 0.594402 0.832253 0.500000
O O13 0.535176 0.944802 0.349329
O O14 0.227461 0.325036 0.770416
O O15 0.267870 0.428824 0.000000
O O16 0.211020 0.232749 0.500000
O O17 0.152351 0.191790 0.222086
O O18 0.381139 0.618650 0.000000
#
# Coordination Sequence:
#
# PCOD9443073 Si02
#       8
#     8   8   8   8   8   8   2   8
#     4  10  20  37  57  79 112 153 192 224 272 350
#     4   9  16  33  56  77 104 146 186 224 267 328
#     4  11  22  35  54  86 113 139 189 240 292 328
#     4   8  17  31  51  77 110 137 176 223 275 331
#     4  10  20  34  57  87 109 140 189 234 278 328
#     4  10  20  36  57  80 111 147 190 230 282 338
#     4   8  16  32  48  76 112 144 172 214 282 334
#     4  10  21  38  56  76 112 155 191 227 274 350
#
# _framework density 20.675032000000002
#
# number of rings (size 3 to 8) (size 9 to 14) (size 15 to 20)
#    0.414    1.931    1.379    1.655    0.000    5.517 
#    0.000    0.690    0.000    1.655    0.000    3.862 
#    0.000    0.000    0.000    0.000    0.000    0.000 
#
# Total GULP energy -322967.389080 kJ/mol
# GULP energy per Si atom -5568.403260 kJ/mol
# Density = 2.062797 g / cm^3
# Si number density = 20.675032 Si / 1000 Ang^3
#
#
#
# Elastic Constant Matrix: (Units=GPa)
#
#
# Indices 1 2 3 4 5 6 
#
# 1 123.6879 53.1179 -11.9068 0.0000 0.0000 0.0000
# 2 53.1179 94.8959 -13.7538 0.0000 0.0000 0.0000
# 3 -11.9068 -13.7538 38.0353 0.0000 0.0000 0.0000
# 4 0.0000 0.0000 0.0000 19.2005 0.0000 0.0000
# 5 0.0000 0.0000 0.0000 0.0000 6.1335 0.0000
# 6 0.0000 0.0000 0.0000 0.0000 0.0000 36.6782
#
#
#
# Elastic Compliance Matrix: (Units=1/GPa)
#
#
# Indices 1 2 3 4 5 6 
#
# 1 0.010699 -0.005808 0.001249 0.000000 0.000000 0.000000
# 2 -0.005808 0.014273 0.003343 0.000000 0.000000 0.000000
# 3 0.001249 0.003343 0.027891 0.000000 0.000000 0.000000
# 4 0.000000 0.000000 0.000000 0.052082 0.000000 0.000000
# 5 0.000000 0.000000 0.000000 0.000000 0.163038 0.000000
# 6 0.000000 0.000000 0.000000 0.000000 0.000000 0.027264
#
#
# Mechanical properties :
#
#
# Convention : Reuss Voigt Hill
#
# Bulk Modulus (GPa) = 19.82823 34.61485 27.22154
# Shear Modulus (GPa) = 15.89876 27.67990 21.78933
#
# Velocity S-wave (km/s) = 2.77606 3.66294 3.24990
# Velocity P-wave (km/s) = 4.45944 5.88797 5.22278
#
# Compressibility (1/GPa) = 0.05043316
#
# Stress axis : x y z
#
# Youngs Moduli (GPa) = 93.46393 70.06058 35.85337
#
# Poissons Ratio (x) = 0.40690 -0.04479
# Poissons Ratio (y) = 0.54283 -0.11987
# Poissons Ratio (z) = -0.11676 -0.23423
#
# Static dielectric constant tensor:
#      x y z
#    x 1.724670 0.000000 0.000000 
#    y 0.000000 1.716430 0.000000 
#    z 0.000000 0.000000 1.789840 
# 
# From -- ./inp_files/9910.got.cif
#   From: 2010.05.17/outbox.cif.g08.bks.cpg/sg58_5_cif.got.tgz:9910.got - 2010.06.03 14:20:14.
