data_PCOD9443816
_publ_section_title
;
Structure prediction by ZEFSAII (Michael W. Deem and Ramdas Pophale) SiO2 
 PCOD9443816
Probable space group: P N N M
;
_chemical_formula_sum "Si O2"
_cell_formula_units_Z 40
_cell_length_a 11.799916
_cell_length_b 11.805782
_cell_length_c 13.554832
_cell_angle_alpha 90.000000
_cell_angle_beta 90.000000
_cell_angle_gamma 90.000000
_cell_volume 1888.286179
_symmetry_space_group_name_H-M "P N N M"
_symmetry_group_IT_number 58
_symmetry_cell_setting 'orthorhombic'
loop_
_space_group_symop_operation_xyz
x,y,z
-x,-y,z
1/2+x,1/2-y,1/2-z
1/2-x,1/2+y,1/2-z
-x,-y,-z
x,y,-z
1/2-x,1/2+y,1/2+z
1/2+x,1/2-y,1/2+z
loop_
_atom_site_type_symbol
_atom_site_label
_atom_site_fract_x
_atom_site_fract_y
_atom_site_fract_z
Si Si1 0.877048 0.438568 0.389180
Si Si2 0.361980 0.995529 0.668595
Si Si3 0.460497 0.617982 0.613225
Si Si4 0.753853 0.736732 0.823422
Si Si5 0.688710 0.758479 0.605798
O O1 0.828729 0.457781 0.500000
O O2 0.833033 0.487981 0.285063
O O3 0.856608 0.302428 0.367928
O O4 0.000000 0.500000 0.393565
O O5 0.301217 0.880850 0.632790
O O6 0.500000 0.000000 0.659694
O O7 0.318240 0.106370 0.613280
O O8 0.500000 0.500000 0.659602
O O9 0.428752 0.593680 0.500000
O O10 0.353596 0.673317 0.662502
O O11 0.563058 0.706160 0.611000
O O12 0.743342 0.718582 0.706739
O O13 0.739381 0.724077 0.500000
#
# Coordination Sequence:
#
# PCOD9443816 Si02
#       5
#     8   8   8   8   8
#     4   9  20  38  60  90 124 161 213 266 315 378
#     4  10  20  38  61  90 124 163 208 261 321 385
#     4  10  22  40  63  91 122 161 216 269 315 373
#     4  11  22  38  65  89 124 168 210 258 325 383
#     4  10  23  39  59  92 128 165 208 265 324 382
#
# _framework density 21.183229000000001
#
# number of rings (size 3 to 8) (size 9 to 14) (size 15 to 20)
#    0.000    2.000    2.000    0.600    5.600    2.800 
#    0.000    0.000    0.000    0.600    0.000    0.000 
#    0.000    0.000    0.000    0.000    0.000    0.000 
#
# Total GULP energy -222697.902283 kJ/mol
# GULP energy per Si atom -5567.447557 kJ/mol
# Density = 2.113502 g / cm^3
# Si number density = 21.183229 Si / 1000 Ang^3
#
#
#
# Elastic Constant Matrix: (Units=GPa)
#
#
# Indices 1 2 3 4 5 6 
#
# 1 47.4944 60.9189 21.5085 0.0000 0.0000 0.0000
# 2 60.9189 138.5039 -6.1249 0.0000 0.0000 0.0000
# 3 21.5085 -6.1249 103.1850 0.0000 0.0000 0.0000
# 4 0.0000 0.0000 0.0000 53.1657 0.0000 0.0000
# 5 0.0000 0.0000 0.0000 0.0000 -10.8718 0.0000
# 6 0.0000 0.0000 0.0000 0.0000 0.0000 44.0033
#
#
#
# Elastic Compliance Matrix: (Units=1/GPa)
#
#
# Indices 1 2 3 4 5 6 
#
# 1 0.066629 -0.029999 -0.015669 0.000000 0.000000 0.000000
# 2 -0.029999 0.020746 0.007485 0.000000 0.000000 0.000000
# 3 -0.015669 0.007485 0.013402 0.000000 0.000000 0.000000
# 4 0.000000 0.000000 0.000000 0.018809 0.000000 0.000000
# 5 0.000000 0.000000 0.000000 0.000000 -0.091981 0.000000
# 6 0.000000 0.000000 0.000000 0.000000 0.000000 0.022726
#
#
# Mechanical properties :
#
#
# Convention : Reuss Voigt Hill
#
# Bulk Modulus (GPa) = 40.96765 49.08759 45.02762
# Shear Modulus (GPa) = 37.08271 31.45151 34.26711
#
# Velocity S-wave (km/s) = 4.18852 3.85741 4.02637
# Velocity P-wave (km/s) = 6.54013 6.56221 6.55118
#
# Compressibility (1/GPa) = 0.02440950
#
# Stress axis : x y z
#
# Youngs Moduli (GPa) = 15.00843 48.20322 74.61687
#
# Poissons Ratio (x) = 1.44604 1.16919
# Poissons Ratio (y) = 0.45023 -0.55847
# Poissons Ratio (z) = 0.23517 -0.36078
#
# Static dielectric constant tensor:
#      x y z
#    x 1.778010 0.000000 0.000000 
#    y 0.000000 1.825300 0.000000 
#    z 0.000000 0.000000 1.777430 
# 
# From -- ./inp_files/20905.got.cif
#   From: 2010.05.17/outbox.cif.g08.bks.cpg/sg58_11_cif.got.tgz:20905.got - 2010.06.03 14:20:14.
