data_PCOD9443049
_publ_section_title
;
Structure prediction by ZEFSAII (Michael W. Deem and Ramdas Pophale) SiO2 
 PCOD9443049
Probable space group: P N N M
;
_chemical_formula_sum "Si O2"
_cell_formula_units_Z 58
_cell_length_a 23.785031
_cell_length_b 15.408835
_cell_length_c 9.025211
_cell_angle_alpha 90.000000
_cell_angle_beta 90.000000
_cell_angle_gamma 90.000000
_cell_volume 3307.736385
_symmetry_space_group_name_H-M "P N N M"
_symmetry_group_IT_number 58
_symmetry_cell_setting 'orthorhombic'
loop_
_space_group_symop_operation_xyz
x,y,z
-x,-y,z
1/2+x,1/2-y,1/2-z
1/2-x,1/2+y,1/2-z
-x,-y,-z
x,y,-z
1/2-x,1/2+y,1/2+z
1/2+x,1/2-y,1/2+z
loop_
_atom_site_type_symbol
_atom_site_label
_atom_site_fract_x
_atom_site_fract_y
_atom_site_fract_z
Si Si1 0.199133 0.087265 0.676549
Si Si2 0.331001 0.097605 0.323933
Si Si3 0.000000 0.000000 0.000000
Si Si4 0.699031 0.595693 0.675084
Si Si5 0.890988 0.764240 0.322011
Si Si6 0.831968 0.585229 0.324082
Si Si7 0.381837 0.264824 0.176398
Si Si8 0.005026 0.819773 0.836494
O O1 0.195029 0.069529 0.500000
O O2 0.264189 0.110406 0.707242
O O3 0.157565 0.165662 0.713298
O O4 0.184548 0.000321 0.765984
O O5 0.338994 0.104775 0.500000
O O6 0.345083 0.001332 0.266713
O O7 0.365696 0.170843 0.240117
O O8 0.003254 0.922352 0.126871
O O9 0.686991 0.602156 0.500000
O O10 0.765903 0.607057 0.698010
O O11 0.663869 0.667378 0.760956
O O12 0.899313 0.766613 0.500000
O O13 0.868825 0.668454 0.283120
O O14 0.947554 0.789808 0.238995
O O15 0.838909 0.568105 0.500000
O O16 0.442005 0.294748 0.237655
O O17 0.381057 0.264116 0.000000
O O18 0.011175 0.777689 0.000000
#
# Coordination Sequence:
#
# PCOD9443049 Si02
#       8
#     8   8   2   8   8   8   8   8
#     4   9  19  34  55  86 120 153 189 230 283 343
#     4  10  20  37  59  85 117 152 191 238 286 336
#     4   8  24  44  62  80 118 144 194 232 292 334
#     4  10  20  34  56  84 117 154 191 232 286 340
#     4  10  20  36  58  83 115 151 191 232 281 339
#     4   9  19  37  58  84 118 154 188 232 286 340
#     4  12  24  38  58  83 114 151 196 239 287 343
#     4  10  23  41  60  82 111 146 189 233 284 338
#
# _framework density 17.534649000000002
#
# number of rings (size 3 to 8) (size 9 to 14) (size 15 to 20)
#    0.414    1.655    0.000    3.310    1.931    4.414 
#    0.000    2.759    0.000    4.138    0.000    0.000 
#    0.000    0.000    0.000    0.000    0.000    0.000 
#
# Total GULP energy -323207.769559 kJ/mol
# GULP energy per Si atom -5572.547751 kJ/mol
# Density = 1.749474 g / cm^3
# Si number density = 17.534649 Si / 1000 Ang^3
#
#
#
# Elastic Constant Matrix: (Units=GPa)
#
#
# Indices 1 2 3 4 5 6 
#
# 1 81.7488 90.2085 68.1486 0.0000 0.0000 0.0000
# 2 90.2085 150.9724 90.0213 0.0000 0.0000 0.0000
# 3 68.1486 90.0213 102.2407 0.0000 0.0000 0.0000
# 4 0.0000 0.0000 0.0000 27.4081 0.0000 0.0000
# 5 0.0000 0.0000 0.0000 0.0000 25.5941 0.0000
# 6 0.0000 0.0000 0.0000 0.0000 0.0000 -0.9502
#
#
#
# Elastic Compliance Matrix: (Units=1/GPa)
#
#
# Indices 1 2 3 4 5 6 
#
# 1 0.042370 -0.017846 -0.012528 0.000000 0.000000 0.000000
# 2 -0.017846 0.021462 -0.007001 0.000000 0.000000 0.000000
# 3 -0.012528 -0.007001 0.024296 0.000000 0.000000 0.000000
# 4 0.000000 0.000000 0.000000 0.036486 0.000000 0.000000
# 5 0.000000 0.000000 0.000000 0.000000 0.039072 0.000000
# 6 0.000000 0.000000 0.000000 0.000000 0.000000 -1.052413
#
#
# Mechanical properties :
#
#
# Convention : Reuss Voigt Hill
#
# Bulk Modulus (GPa) = 74.76091 92.41319 83.58705
# Shear Modulus (GPa) = -6.17651 16.18262 5.00305
#
# Velocity S-wave (km/s) = -1.87886 3.04121 1.69099
# Velocity P-wave (km/s) = 6.16619 8.07153 7.18232
#
# Compressibility (1/GPa) = 0.01337597
#
# Stress axis : x y z
#
# Youngs Moduli (GPa) = 23.60186 46.59387 41.15890
#
# Poissons Ratio (x) = 0.83153 0.51564
# Poissons Ratio (y) = 0.42121 0.28817
# Poissons Ratio (z) = 0.29568 0.32623
#
# Static dielectric constant tensor:
#      x y z
#    x 1.583930 0.000000 0.000000 
#    y 0.000000 1.570600 0.000000 
#    z 0.000000 0.000000 1.586570 
# 
# From -- ./inp_files/9913.got.cif
#   From: 2010.05.17/outbox.cif.g08.bks.cpg/sg58_5_cif.got.tgz:9913.got - 2010.06.03 14:20:14.
