data_PCOD9443683
_publ_section_title
;
Structure prediction by ZEFSAII (Michael W. Deem and Ramdas Pophale) SiO2 
 PCOD9443683
Probable space group: P N N M
;
_chemical_formula_sum "Si O2"
_cell_formula_units_Z 64
_cell_length_a 32.705317
_cell_length_b 11.451577
_cell_length_c 8.770052
_cell_angle_alpha 90.000000
_cell_angle_beta 90.000000
_cell_angle_gamma 90.000000
_cell_volume 3284.625264
_symmetry_space_group_name_H-M "P N N M"
_symmetry_group_IT_number 58
_symmetry_cell_setting 'orthorhombic'
loop_
_space_group_symop_operation_xyz
x,y,z
-x,-y,z
1/2+x,1/2-y,1/2-z
1/2-x,1/2+y,1/2-z
-x,-y,-z
x,y,-z
1/2-x,1/2+y,1/2+z
1/2+x,1/2-y,1/2+z
loop_
_atom_site_type_symbol
_atom_site_label
_atom_site_fract_x
_atom_site_fract_y
_atom_site_fract_z
Si Si1 0.295793 0.471920 0.680014
Si Si2 0.373393 0.060436 0.680079
Si Si3 0.981397 0.824460 0.181119
Si Si4 0.166287 0.201178 0.319153
Si Si5 0.083341 0.340182 0.682573
Si Si6 0.290060 0.918143 0.320779
Si Si7 0.860393 0.189381 0.680249
Si Si8 0.943260 0.054708 0.319466
O O1 0.289913 0.473222 0.500000
O O2 0.321758 0.584067 0.732534
O O3 0.252168 0.471130 0.762910
O O4 0.321114 0.358236 0.731350
O O5 0.381366 0.071844 0.500000
O O6 0.374193 0.184720 0.761019
O O7 0.403940 0.966007 0.753098
O O8 0.327884 0.006662 0.699689
O O9 0.956973 0.713072 0.242082
O O10 0.024455 0.847903 0.264040
O O11 0.954566 0.938030 0.228166
O O12 0.986796 0.820757 0.000000
O O13 0.167397 0.179449 0.500000
O O14 0.121597 0.253596 0.280779
O O15 0.198162 0.302200 0.272557
O O16 0.079430 0.343847 0.500000
O O17 0.287417 0.889355 0.500000
O O18 0.851812 0.193164 0.500000
O O19 0.897714 0.099769 0.705715
O O20 0.948737 0.032095 0.500000
#
# Coordination Sequence:
#
# PCOD9443683 Si02
#       8
#     8   8   8   8   8   8   8   8
#     4  12  25  38  58  85 115 153 193 239 292 345
#     4  10  22  40  62  86 116 153 194 243 296 351
#     4  11  21  34  59  91 122 154 192 244 295 346
#     4  10  21  38  59  84 114 146 189 239 288 342
#     4  10  20  37  61  86 115 154 195 238 288 348
#     4  10  22  40  60  83 113 149 192 240 290 346
#     4  11  24  41  61  85 117 156 197 241 293 352
#     4  10  21  38  59  86 120 158 196 240 294 353
#
# _framework density 19.484718999999998
#
# number of rings (size 3 to 8) (size 9 to 14) (size 15 to 20)
#    0.000    1.500    0.000    6.000    1.750    8.000 
#    0.000    0.625    0.000    3.750    0.000    0.000 
#    0.000    0.000    0.000    0.000    0.000    0.000 
#
# Total GULP energy -357904.284373 kJ/mol
# GULP energy per Si atom -5592.254443 kJ/mol
# Density = 1.944037 g / cm^3
# Si number density = 19.484719 Si / 1000 Ang^3
#
#
#
# Elastic Constant Matrix: (Units=GPa)
#
#
# Indices 1 2 3 4 5 6 
#
# 1 23.8566 -15.7601 11.5938 0.0000 0.0000 0.0000
# 2 -15.7601 23.8008 -9.7144 0.0000 0.0000 0.0000
# 3 11.5938 -9.7144 43.7146 0.0000 0.0000 0.0000
# 4 0.0000 0.0000 0.0000 35.4285 0.0000 0.0000
# 5 0.0000 0.0000 0.0000 0.0000 52.7651 0.0000
# 6 0.0000 0.0000 0.0000 0.0000 0.0000 12.1347
#
#
#
# Elastic Compliance Matrix: (Units=1/GPa)
#
#
# Indices 1 2 3 4 5 6 
#
# 1 0.078428 0.047776 -0.010183 0.000000 0.000000 0.000000
# 2 0.047776 0.075310 0.004065 0.000000 0.000000 0.000000
# 3 -0.010183 0.004065 0.026480 0.000000 0.000000 0.000000
# 4 0.000000 0.000000 0.000000 0.028226 0.000000 0.000000
# 5 0.000000 0.000000 0.000000 0.000000 0.018952 0.000000
# 6 0.000000 0.000000 0.000000 0.000000 0.000000 0.082409
#
#
# Mechanical properties :
#
#
# Convention : Reuss Voigt Hill
#
# Bulk Modulus (GPa) = 3.79462 7.06786 5.43124
# Shear Modulus (GPa) = 15.90668 27.08250 21.49459
#
# Velocity S-wave (km/s) = 2.86031 3.73223 3.32498
# Velocity P-wave (km/s) = 3.58612 4.71253 4.18737
#
# Compressibility (1/GPa) = 0.26353128
#
# Stress axis : x y z
#
# Youngs Moduli (GPa) = 12.75060 13.27847 37.76479
#
# Poissons Ratio (x) = -0.63439 0.38457
# Poissons Ratio (y) = -0.60917 -0.15350
# Poissons Ratio (z) = 0.12984 -0.05397
#
# Static dielectric constant tensor:
#      x y z
#    x 1.673600 0.000000 0.000000 
#    y 0.000000 1.672020 0.000000 
#    z 0.000000 0.000000 1.644310 
# 
# From -- ./inp_files/11082.got.cif
#   From: 2010.05.17/outbox.cif.g08.bks.cpg/sg58_6_cif.got.tgz:11082.got - 2010.06.03 14:20:14.
