data_PCOD9443969
_publ_section_title
;
Structure prediction by ZEFSAII (Michael W. Deem and Ramdas Pophale) SiO2 
 PCOD9443969
Probable space group: P N N M
;
_chemical_formula_sum "Si O2"
_cell_formula_units_Z 46
_cell_length_a 11.652626
_cell_length_b 8.947932
_cell_length_c 24.568643
_cell_angle_alpha 90.000000
_cell_angle_beta 90.000000
_cell_angle_gamma 90.000000
_cell_volume 2561.696367
_symmetry_space_group_name_H-M "P N N M"
_symmetry_group_IT_number 58
_symmetry_cell_setting 'orthorhombic'
loop_
_space_group_symop_operation_xyz
x,y,z
-x,-y,z
1/2+x,1/2-y,1/2-z
1/2-x,1/2+y,1/2-z
-x,-y,-z
x,y,-z
1/2-x,1/2+y,1/2+z
1/2+x,1/2-y,1/2+z
loop_
_atom_site_type_symbol
_atom_site_label
_atom_site_fract_x
_atom_site_fract_y
_atom_site_fract_z
Si Si1 0.154243 0.248550 0.887195
Si Si2 0.226095 0.829678 0.800601
Si Si3 0.542189 0.165384 0.500000
Si Si4 0.880794 0.085013 0.000000
Si Si5 0.500000 0.500000 0.670461
Si Si6 0.500000 0.000000 0.000000
Si Si7 0.298430 0.985636 0.908913
Si Si8 0.362516 0.988957 0.704738
O O1 0.158684 0.395586 0.850406
O O2 0.058159 0.134925 0.863326
O O3 0.272637 0.154037 0.887689
O O4 0.115823 0.292207 0.947415
O O5 0.289393 0.875651 0.857261
O O6 0.305758 0.889521 0.752208
O O7 0.193461 0.654579 0.797130
O O8 0.106453 0.923464 0.798525
O O9 0.420384 0.247499 0.500000
O O10 0.500000 0.000000 0.500000
O O11 0.811271 0.048099 0.946458
O O12 0.000000 0.000000 0.000000
O O13 0.597555 0.023519 0.048883
O O14 0.500000 0.000000 0.712482
#
# Coordination Sequence:
#
# PCOD9443969 Si02
#       8
#     8   8   4   4   4   2   8   8
#     4  11  21  39  59  96 126 167 206 268 324 377
#     4  11  24  42  66  97 129 175 219 274 338 387
#     4  12  22  28  56  90 128 158 196 252 320 379
#     4  11  19  35  58  95 124 159 198 252 322 376
#     4  10  20  39  68  92 132 161 222 272 322 396
#     4  10  22  44  66  98 126 174 236 242 312 416
#     4  10  22  39  69  89 128 170 213 269 313 393
#     4  12  26  43  67  98 134 171 223 277 331 402
#
# _framework density 17.956851
#
# number of rings (size 3 to 8) (size 9 to 14) (size 15 to 20)
#    0.000    1.043    3.478    5.217    4.870    0.000 
#    0.000    0.000    0.000    1.043    0.000    0.000 
#    0.000    0.000    0.000    0.000    0.000    0.000 
#
# Total GULP energy -256127.144518 kJ/mol
# GULP energy per Si atom -5567.981403 kJ/mol
# Density = 1.791598 g / cm^3
# Si number density = 17.956851 Si / 1000 Ang^3
#
#
#
# Elastic Constant Matrix: (Units=GPa)
#
#
# Indices 1 2 3 4 5 6 
#
# 1 94.4833 44.2610 54.5511 0.0000 0.0000 0.0000
# 2 44.2610 153.2901 56.2744 0.0000 0.0000 0.0000
# 3 54.5511 56.2744 136.4989 0.0000 0.0000 0.0000
# 4 0.0000 0.0000 0.0000 20.1937 0.0000 0.0000
# 5 0.0000 0.0000 0.0000 0.0000 7.2562 0.0000
# 6 0.0000 0.0000 0.0000 0.0000 0.0000 17.5245
#
#
#
# Elastic Compliance Matrix: (Units=1/GPa)
#
#
# Indices 1 2 3 4 5 6 
#
# 1 0.014485 -0.002424 -0.004789 0.000000 0.000000 0.000000
# 2 -0.002424 0.008093 -0.002368 0.000000 0.000000 0.000000
# 3 -0.004789 -0.002368 0.010216 0.000000 0.000000 0.000000
# 4 0.000000 0.000000 0.000000 0.049520 0.000000 0.000000
# 5 0.000000 0.000000 0.000000 0.000000 0.137812 0.000000
# 6 0.000000 0.000000 0.000000 0.000000 0.000000 0.057063
#
#
# Mechanical properties :
#
#
# Convention : Reuss Voigt Hill
#
# Bulk Modulus (GPa) = 73.35965 77.16060 75.26013
# Shear Modulus (GPa) = 16.61710 24.27396 20.44553
#
# Velocity S-wave (km/s) = 3.04532 3.68066 3.37796
# Velocity P-wave (km/s) = 7.30119 7.81833 7.56418
#
# Compressibility (1/GPa) = 0.01363147
#
# Stress axis : x y z
#
# Youngs Moduli (GPa) = 69.03873 123.56857 97.88388
#
# Poissons Ratio (x) = 0.29954 0.46880
# Poissons Ratio (y) = 0.16736 0.23175
# Poissons Ratio (z) = 0.33065 0.29256
#
# Static dielectric constant tensor:
#      x y z
#    x 1.619260 0.000000 0.000000 
#    y 0.000000 2.757340 0.000000 
#    z 0.000000 0.000000 1.633710 
# 
# From -- ./inp_files/31932.got.cif
#   From: 2010.05.17/outbox.cif.g08.bks.cpg/sg58_16_cif.got.tgz:31932.got - 2010.06.03 14:20:14.
