data_PCOD9443641
_publ_section_title
;
Structure prediction by ZEFSAII (Michael W. Deem and Ramdas Pophale) SiO2 
 PCOD9443641
Probable space group: P N N M
;
_chemical_formula_sum "Si O2"
_cell_formula_units_Z 48
_cell_length_a 10.695682
_cell_length_b 32.424589
_cell_length_c 7.585005
_cell_angle_alpha 90.000000
_cell_angle_beta 90.000000
_cell_angle_gamma 90.000000
_cell_volume 2630.503194
_symmetry_space_group_name_H-M "P N N M"
_symmetry_group_IT_number 58
_symmetry_cell_setting 'orthorhombic'
loop_
_space_group_symop_operation_xyz
x,y,z
-x,-y,z
1/2+x,1/2-y,1/2-z
1/2-x,1/2+y,1/2-z
-x,-y,-z
x,y,-z
1/2-x,1/2+y,1/2+z
1/2+x,1/2-y,1/2+z
loop_
_atom_site_type_symbol
_atom_site_label
_atom_site_fract_x
_atom_site_fract_y
_atom_site_fract_z
Si Si1 0.305019 0.506349 0.000000
Si Si2 0.859864 0.378261 0.710588
Si Si3 0.063982 0.129587 0.210170
Si Si4 0.884957 0.286751 0.712194
Si Si5 0.887541 0.468243 0.291359
Si Si6 0.033611 0.929205 0.500000
Si Si7 0.896783 0.777428 0.789354
O O1 0.225182 0.516039 0.173092
O O2 0.419591 0.538254 0.000000
O O3 0.347859 0.458982 0.000000
O O4 0.878885 0.376399 0.500000
O O5 0.710438 0.381226 0.740199
O O6 0.902491 0.333716 0.780005
O O7 0.918571 0.421427 0.769170
O O8 0.981225 0.099784 0.329206
O O9 0.054302 0.177447 0.267417
O O10 0.039576 0.125959 0.000000
O O11 0.876961 0.288743 0.500000
O O12 0.001464 0.257395 0.751057
O O13 0.746821 0.271675 0.775414
O O14 0.855650 0.466683 0.500000
O O15 0.000000 0.500000 0.268646
O O16 0.887128 0.780301 0.000000
#
# Coordination Sequence:
#
# PCOD9443641 Si02
#       7
#     4   8   8   8   8   4   8
#     4  11  23  36  52  86 119 131 186 240 274 331
#     4   8  15  32  54  77 103 137 184 227 263 317
#     4   9  18  35  56  77 108 145 186 225 262 328
#     4   9  18  33  54  78 110 142 177 228 275 323
#     4  10  20  37  60  79 106 149 189 230 280 327
#     4  11  22  34  56  84 110 148 178 224 283 336
#     4   9  19  35  53  80 110 139 182 229 270 327
#
# _framework density 18.247458999999999
#
# number of rings (size 3 to 8) (size 9 to 14) (size 15 to 20)
#    0.000    2.667    1.667    2.250    1.167    1.333 
#    6.000    3.333    0.000    4.000    0.000    0.000 
#    0.000    0.000    0.000    0.000    0.000    0.000 
#
# Total GULP energy -267429.606099 kJ/mol
# GULP energy per Si atom -5571.450127 kJ/mol
# Density = 1.820593 g / cm^3
# Si number density = 18.247459 Si / 1000 Ang^3
#
#
#
# Elastic Constant Matrix: (Units=GPa)
#
#
# Indices 1 2 3 4 5 6 
#
# 1 69.1053 76.8521 19.2515 0.0000 0.0000 0.0000
# 2 76.8521 175.1472 30.4485 0.0000 0.0000 0.0000
# 3 19.2515 30.4485 44.4758 0.0000 0.0000 0.0000
# 4 0.0000 0.0000 0.0000 33.7238 0.0000 0.0000
# 5 0.0000 0.0000 0.0000 0.0000 15.0679 0.0000
# 6 0.0000 0.0000 0.0000 0.0000 0.0000 34.8704
#
#
#
# Elastic Compliance Matrix: (Units=1/GPa)
#
#
# Indices 1 2 3 4 5 6 
#
# 1 0.028987 -0.011962 -0.004358 0.000000 0.000000 0.000000
# 2 -0.011962 0.011417 -0.002638 0.000000 0.000000 0.000000
# 3 -0.004358 -0.002638 0.026177 0.000000 0.000000 0.000000
# 4 0.000000 0.000000 0.000000 0.029653 0.000000 0.000000
# 5 0.000000 0.000000 0.000000 0.000000 0.066366 0.000000
# 6 0.000000 0.000000 0.000000 0.000000 0.000000 0.028678
#
#
# Mechanical properties :
#
#
# Convention : Reuss Voigt Hill
#
# Bulk Modulus (GPa) = 34.88636 60.20361 47.54499
# Shear Modulus (GPa) = 20.94254 27.54415 24.24335
#
# Velocity S-wave (km/s) = 3.39144 3.88942 3.64893
# Velocity P-wave (km/s) = 5.87331 7.29620 6.62308
#
# Compressibility (1/GPa) = 0.02866450
#
# Stress axis : x y z
#
# Youngs Moduli (GPa) = 34.49798 87.59092 38.20166
#
# Poissons Ratio (x) = 1.04772 0.16649
# Poissons Ratio (y) = 0.41265 0.10079
# Poissons Ratio (z) = 0.15035 0.23110
#
# Static dielectric constant tensor:
#      x y z
#    x 1.616320 0.000000 0.000000 
#    y 0.000000 1.656720 0.000000 
#    z 0.000000 0.000000 1.695700 
# 
# From -- ./inp_files/3073.got.cif
#   From: 2010.05.17/outbox.cif.g08.bks.cpg/sg58_2_cif.got.tgz:3073.got - 2010.06.03 14:20:14.
