data_PCOD9443972
_publ_section_title
;
Structure prediction by ZEFSAII (Michael W. Deem and Ramdas Pophale) SiO2 
 PCOD9443972
Probable space group: P N N M
;
_chemical_formula_sum "Si O2"
_cell_formula_units_Z 58
_cell_length_a 26.966818
_cell_length_b 11.034569
_cell_length_c 9.290508
_cell_angle_alpha 90.000000
_cell_angle_beta 90.000000
_cell_angle_gamma 90.000000
_cell_volume 2764.550582
_symmetry_space_group_name_H-M "P N N M"
_symmetry_group_IT_number 58
_symmetry_cell_setting 'orthorhombic'
loop_
_space_group_symop_operation_xyz
x,y,z
-x,-y,z
1/2+x,1/2-y,1/2-z
1/2-x,1/2+y,1/2-z
-x,-y,-z
x,y,-z
1/2-x,1/2+y,1/2+z
1/2+x,1/2-y,1/2+z
loop_
_atom_site_type_symbol
_atom_site_label
_atom_site_fract_x
_atom_site_fract_y
_atom_site_fract_z
Si Si1 0.643978 0.133879 0.167300
Si Si2 0.969340 0.381146 0.829115
Si Si3 0.000000 0.000000 0.000000
Si Si4 0.686175 0.399355 0.829928
Si Si5 0.290274 0.089967 0.826569
Si Si6 0.085169 0.994544 0.250100
Si Si7 0.454995 0.743911 0.162832
Si Si8 0.383489 0.226837 0.833943
O O1 0.676090 0.255711 0.172519
O O2 0.590483 0.175184 0.224055
O O3 0.675277 0.022214 0.223005
O O4 0.634189 0.105838 0.000000
O O5 0.915885 0.365409 0.759972
O O6 0.000000 0.500000 0.783135
O O7 0.000770 0.267445 0.771423
O O8 0.966178 0.379598 0.000000
O O9 0.955119 0.010265 0.876717
O O10 0.739727 0.417602 0.760923
O O11 0.642430 0.459542 0.734348
O O12 0.682431 0.438174 0.000000
O O13 0.325155 0.208016 0.800961
O O14 0.281103 0.081756 0.000000
O O15 0.062969 0.105582 0.343422
O O16 0.094773 0.860936 0.312219
O O17 0.468503 0.781405 0.000000
O O18 0.389803 0.193056 0.000000
#
# Coordination Sequence:
#
# PCOD9443972 Si02
#       8
#     8   8   2   8   8   8   8   8
#     4   8  17  37  60  87 119 162 219 269 322 398
#     4  11  25  41  60  91 134 176 223 283 346 407
#     4  12  28  44  66 104 134 188 230 288 342 422
#     4  10  22  42  66  93 131 178 221 275 339 407
#     4  10  22  39  64  96 130 170 225 280 336 399
#     4  11  25  43  69 100 140 176 224 282 349 419
#     4  10  20  39  69  92 124 176 228 277 336 418
#     4  11  24  42  66  98 137 176 226 286 339 412
#
# _framework density 20.979901999999999
#
# number of rings (size 3 to 8) (size 9 to 14) (size 15 to 20)
#    0.000    1.793    0.000    4.138    6.759    2.759 
#    0.000    4.483    0.000    0.000    0.000    0.000 
#    0.000    0.000    0.000    0.000    0.000    0.000 
#
# Total GULP energy -322883.638845 kJ/mol
# GULP energy per Si atom -5566.959290 kJ/mol
# Density = 2.093215 g / cm^3
# Si number density = 20.979902 Si / 1000 Ang^3
#
#
#
# Elastic Constant Matrix: (Units=GPa)
#
#
# Indices 1 2 3 4 5 6 
#
# 1 170.1638 38.4466 65.2121 0.0000 0.0000 0.0000
# 2 38.4466 82.9300 20.4797 0.0000 0.0000 0.0000
# 3 65.2121 20.4797 63.4358 0.0000 0.0000 0.0000
# 4 0.0000 0.0000 0.0000 38.7152 0.0000 0.0000
# 5 0.0000 0.0000 0.0000 0.0000 547.5001 0.0000
# 6 0.0000 0.0000 0.0000 0.0000 0.0000 22.7463
#
#
#
# Elastic Compliance Matrix: (Units=1/GPa)
#
#
# Indices 1 2 3 4 5 6 
#
# 1 0.010085 -0.002298 -0.009625 0.000000 0.000000 0.000000
# 2 -0.002298 0.013627 -0.002037 0.000000 0.000000 0.000000
# 3 -0.009625 -0.002037 0.026316 0.000000 0.000000 0.000000
# 4 0.000000 0.000000 0.000000 0.025830 0.000000 0.000000
# 5 0.000000 0.000000 0.000000 0.000000 0.001826 0.000000
# 6 0.000000 0.000000 0.000000 0.000000 0.000000 0.043963
#
#
# Mechanical properties :
#
#
# Convention : Reuss Voigt Hill
#
# Bulk Modulus (GPa) = 45.23347 62.75628 53.99487
# Shear Modulus (GPa) = 31.86021 134.61841 83.23931
#
# Velocity S-wave (km/s) = 3.90116 8.01902 6.30570
# Velocity P-wave (km/s) = 6.47296 10.75719 8.87740
#
# Compressibility (1/GPa) = 0.02210752
#
# Stress axis : x y z
#
# Youngs Moduli (GPa) = 99.16154 73.38467 37.99981
#
# Poissons Ratio (x) = 0.16866 0.36575
# Poissons Ratio (y) = 0.22791 0.07739
# Poissons Ratio (z) = 0.95442 0.14946
#
# Static dielectric constant tensor:
#      x y z
#    x 1.779120 0.000000 0.000000 
#    y 0.000000 1.820750 0.000000 
#    z 0.000000 0.000000 1.713830 
# 
# From -- ./inp_files/10461.got.cif
#   From: 2010.05.17/outbox.cif.g08.bks.cpg/sg58_6_cif.got.tgz:10461.got - 2010.06.03 14:20:14.
