data_PCOD9443842
_publ_section_title
;
Structure prediction by ZEFSAII (Michael W. Deem and Ramdas Pophale) SiO2 
 PCOD9443842
Probable space group: P N N M
;
_chemical_formula_sum "Si O2"
_cell_formula_units_Z 28
_cell_length_a 24.134654
_cell_length_b 5.047813
_cell_length_c 9.648549
_cell_angle_alpha 90.000000
_cell_angle_beta 90.000000
_cell_angle_gamma 90.000000
_cell_volume 1175.455904
_symmetry_space_group_name_H-M "P N N M"
_symmetry_group_IT_number 58
_symmetry_cell_setting 'orthorhombic'
loop_
_space_group_symop_operation_xyz
x,y,z
-x,-y,z
1/2+x,1/2-y,1/2-z
1/2-x,1/2+y,1/2-z
-x,-y,-z
x,y,-z
1/2-x,1/2+y,1/2+z
1/2+x,1/2-y,1/2+z
loop_
_atom_site_type_symbol
_atom_site_label
_atom_site_fract_x
_atom_site_fract_y
_atom_site_fract_z
Si Si1 0.774956 0.973626 0.329580
Si Si2 0.625947 0.619752 0.353413
Si Si3 0.939281 0.634539 0.201841
Si Si4 0.460007 0.754016 0.000000
O O1 0.762549 0.694777 0.250876
O O2 0.769498 0.968858 0.500000
O O3 0.835991 0.059733 0.277793
O O4 0.657171 0.580946 0.500000
O O5 0.573461 0.421809 0.358820
O O6 0.603893 0.916956 0.347248
O O7 0.927524 0.702212 0.361302
O O8 0.000000 0.500000 0.184482
O O9 0.500000 0.500000 0.000000
O O10 0.500000 0.000000 0.000000
#
# Coordination Sequence:
#
# PCOD9443842 Si02
#       4
#     8   8   8   4
#     4  12  27  50  80 108 145 187 241 304 374 443
#     4  12  26  43  69 103 144 186 237 293 356 429
#     4  11  24  41  67  99 143 190 240 289 348 417
#     4  10  20  38  62  90 130 178 230 286 338 396
#
# _framework density 23.820546
#
# number of rings (size 3 to 8) (size 9 to 14) (size 15 to 20)
#    0.000    0.571    0.000    9.429    4.000    3.429 
#    0.000    0.000    0.000    0.000    0.000    0.000 
#    0.000    0.000    0.000    0.000    0.000    0.000 
#
# Total GULP energy -156203.953558 kJ/mol
# GULP energy per Si atom -5578.712627 kJ/mol
# Density = 2.376633 g / cm^3
# Si number density = 23.820546 Si / 1000 Ang^3
#
#
#
# Elastic Constant Matrix: (Units=GPa)
#
#
# Indices 1 2 3 4 5 6 
#
# 1 63.7799 5.4838 18.1783 0.0000 0.0000 0.0000
# 2 5.4838 131.6821 28.3350 0.0000 0.0000 0.0000
# 3 18.1783 28.3350 245.3679 0.0000 0.0000 0.0000
# 4 0.0000 0.0000 0.0000 34.8635 0.0000 0.0000
# 5 0.0000 0.0000 0.0000 0.0000 39.9629 0.0000
# 6 0.0000 0.0000 0.0000 0.0000 0.0000 42.6379
#
#
#
# Elastic Compliance Matrix: (Units=1/GPa)
#
#
# Indices 1 2 3 4 5 6 
#
# 1 0.016040 -0.000423 -0.001140 0.000000 0.000000 0.000000
# 2 -0.000423 0.007799 -0.000869 0.000000 0.000000 0.000000
# 3 -0.001140 -0.000869 0.004260 0.000000 0.000000 0.000000
# 4 0.000000 0.000000 0.000000 0.028683 0.000000 0.000000
# 5 0.000000 0.000000 0.000000 0.000000 0.025023 0.000000
# 6 0.000000 0.000000 0.000000 0.000000 0.000000 0.023453
#
#
# Mechanical properties :
#
#
# Convention : Reuss Voigt Hill
#
# Bulk Modulus (GPa) = 43.03677 60.53603 51.78640
# Shear Modulus (GPa) = 42.42056 49.41504 45.91780
#
# Velocity S-wave (km/s) = 4.22458 4.55958 4.39527
# Velocity P-wave (km/s) = 6.47320 7.29302 6.89531
#
# Compressibility (1/GPa) = 0.02323594
#
# Stress axis : x y z
#
# Youngs Moduli (GPa) = 62.34389 128.22653 234.72426
#
# Poissons Ratio (x) = 0.05421 0.26747
# Poissons Ratio (y) = 0.02636 0.20404
# Poissons Ratio (z) = 0.07104 0.11146
#
# Static dielectric constant tensor:
#      x y z
#    x 1.923340 0.000000 0.000000 
#    y 0.000000 1.857210 0.000000 
#    z 0.000000 0.000000 2.130010 
# 
# From -- ./inp_files/10207.got.cif
#   From: 2010.05.17/outbox.cif.g08.bks.cpg/sg58_6_cif.got.tgz:10207.got - 2010.06.03 14:20:14.
