data_PCOD9443660
_publ_section_title
;
Structure prediction by ZEFSAII (Michael W. Deem and Ramdas Pophale) SiO2 
 PCOD9443660
Probable space group: P N N M
;
_chemical_formula_sum "Si O2"
_cell_formula_units_Z 48
_cell_length_a 29.734176
_cell_length_b 10.296109
_cell_length_c 8.862113
_cell_angle_alpha 90.000000
_cell_angle_beta 90.000000
_cell_angle_gamma 90.000000
_cell_volume 2713.103257
_symmetry_space_group_name_H-M "P N N M"
_symmetry_group_IT_number 58
_symmetry_cell_setting 'orthorhombic'
loop_
_space_group_symop_operation_xyz
x,y,z
-x,-y,z
1/2+x,1/2-y,1/2-z
1/2-x,1/2+y,1/2-z
-x,-y,-z
x,y,-z
1/2-x,1/2+y,1/2+z
1/2+x,1/2-y,1/2+z
loop_
_atom_site_type_symbol
_atom_site_label
_atom_site_fract_x
_atom_site_fract_y
_atom_site_fract_z
Si Si1 0.884208 0.981931 0.819826
Si Si2 0.971347 0.868565 0.320818
Si Si3 0.613201 0.767140 0.820081
Si Si4 0.787354 0.978763 0.319679
Si Si5 0.282619 0.219113 0.179833
Si Si6 0.473370 0.132068 0.320277
O O1 0.922700 0.890199 0.752611
O O2 0.834617 0.947183 0.760236
O O3 0.893544 0.127121 0.757577
O O4 0.885518 0.981438 0.000000
O O5 0.967287 0.848343 0.500000
O O6 0.998056 0.751007 0.245894
O O7 0.000000 0.000000 0.296596
O O8 0.664617 0.808133 0.790377
O O9 0.575557 0.862361 0.756098
O O10 0.607927 0.750802 0.000000
O O11 0.793779 0.974674 0.500000
O O12 0.749561 0.878367 0.267546
O O13 0.775284 0.128759 0.280761
O O14 0.275052 0.204967 0.000000
O O15 0.468435 0.146571 0.500000
O O16 0.500000 0.000000 0.288791
#
# Coordination Sequence:
#
# PCOD9443660 Si02
#       6
#     8   8   8   8   8   8
#     4  11  21  35  60  88 116 149 190 241 289 338
#     4  11  22  37  61  88 115 150 192 238 283 339
#     4  10  20  37  60  85 115 153 195 236 284 346
#     4  10  21  38  60  86 117 151 190 236 286 344
#     4   9  20  38  59  85 115 148 189 237 286 341
#     4  11  24  40  58  85 119 155 194 238 288 344
#
# _framework density 17.691918000000001
#
# number of rings (size 3 to 8) (size 9 to 14) (size 15 to 20)
#    0.000    1.667    1.667    4.500    0.000    6.000 
#    3.000    0.000    0.000    0.000    0.000    0.000 
#    0.000    0.000    0.000    0.000    0.000    0.000 
#
# Total GULP energy -268159.737362 kJ/mol
# GULP energy per Si atom -5586.661195 kJ/mol
# Density = 1.765165 g / cm^3
# Si number density = 17.691918 Si / 1000 Ang^3
#
#
#
# Elastic Constant Matrix: (Units=GPa)
#
#
# Indices 1 2 3 4 5 6 
#
# 1 118.3775 61.7336 57.5692 0.0000 0.0000 0.0000
# 2 61.7336 74.2737 52.8380 0.0000 0.0000 0.0000
# 3 57.5692 52.8380 76.2510 0.0000 0.0000 0.0000
# 4 0.0000 0.0000 0.0000 24.3234 0.0000 0.0000
# 5 0.0000 0.0000 0.0000 0.0000 -93.0174 0.0000
# 6 0.0000 0.0000 0.0000 0.0000 0.0000 28.9840
#
#
#
# Elastic Compliance Matrix: (Units=1/GPa)
#
#
# Indices 1 2 3 4 5 6 
#
# 1 0.016065 -0.009317 -0.005673 0.000000 0.000000 0.000000
# 2 -0.009317 0.031957 -0.015110 0.000000 0.000000 0.000000
# 3 -0.005673 -0.015110 0.027868 0.000000 0.000000 0.000000
# 4 0.000000 0.000000 0.000000 0.041113 0.000000 0.000000
# 5 0.000000 0.000000 0.000000 0.000000 -0.010751 0.000000
# 6 0.000000 0.000000 0.000000 0.000000 0.000000 0.034502
#
#
# Mechanical properties :
#
#
# Convention : Reuss Voigt Hill
#
# Bulk Modulus (GPa) = 63.73473 68.13154 65.93313
# Shear Modulus (GPa) = 24.25005 -1.49124 11.37940
#
# Velocity S-wave (km/s) = 3.70629 -0.91909 2.53889
# Velocity P-wave (km/s) = 7.37689 6.12105 6.77812
#
# Compressibility (1/GPa) = 0.01569003
#
# Stress axis : x y z
#
# Youngs Moduli (GPa) = 62.24598 31.29181 35.88322
#
# Poissons Ratio (x) = 0.29155 0.20356
# Poissons Ratio (y) = 0.57996 0.54220
# Poissons Ratio (z) = 0.35311 0.47283
#
# Static dielectric constant tensor:
#      x y z
#    x 1.600990 0.000000 0.000000 
#    y 0.000000 1.579170 0.000000 
#    z 0.000000 0.000000 1.587330 
# 
# From -- ./inp_files/10733.got.cif
#   From: 2010.05.17/outbox.cif.g08.bks.cpg/sg58_6_cif.got.tgz:10733.got - 2010.06.03 14:20:14.
