data_PCOD9443266
_publ_section_title
;
Structure prediction by ZEFSAII (Michael W. Deem and Ramdas Pophale) SiO2 
 PCOD9443266
Probable space group: P N N M
;
_chemical_formula_sum "Si O2"
_cell_formula_units_Z 32
_cell_length_a 7.197756
_cell_length_b 16.691200
_cell_length_c 10.985713
_cell_angle_alpha 90.000000
_cell_angle_beta 90.000000
_cell_angle_gamma 90.000000
_cell_volume 1319.814606
_symmetry_space_group_name_H-M "P N N M"
_symmetry_group_IT_number 58
_symmetry_cell_setting 'orthorhombic'
loop_
_space_group_symop_operation_xyz
x,y,z
-x,-y,z
1/2+x,1/2-y,1/2-z
1/2-x,1/2+y,1/2-z
-x,-y,-z
x,y,-z
1/2-x,1/2+y,1/2+z
1/2+x,1/2-y,1/2+z
loop_
_atom_site_type_symbol
_atom_site_label
_atom_site_fract_x
_atom_site_fract_y
_atom_site_fract_z
Si Si1 0.340177 0.066638 0.500000
Si Si2 0.865865 0.705109 0.000000
Si Si3 0.141986 0.291096 0.261298
Si Si4 0.252321 0.617164 0.746063
Si Si5 0.775242 0.481859 0.500000
Si Si6 0.136588 0.841519 0.000000
O O1 0.447828 0.151730 0.500000
O O2 0.236481 0.065843 0.629384
O O3 0.500000 0.000000 0.500000
O O4 0.770376 0.689194 0.128327
O O5 0.939843 0.796083 0.000000
O O6 0.118338 0.195044 0.259815
O O7 0.256649 0.312403 0.379746
O O8 0.952098 0.341469 0.264696
O O9 0.270290 0.564578 0.625246
O O10 0.659832 0.563805 0.500000
O O11 0.000000 0.500000 0.500000
#
# Coordination Sequence:
#
# PCOD9443266 Si02
#       6
#     4   4   8   8   4   4
#     4  10  20  35  57  85 125 152 211 262 304 351
#     4  10  23  39  62  93 121 173 207 260 328 377
#     4  11  20  40  64  88 128 164 218 253 318 389
#     4  11  22  38  62  95 119 169 209 261 321 377
#     4  12  23  35  62  97 127 160 220 270 323 382
#     4  12  22  41  62  95 134 163 207 282 318 381
#
# _framework density 24.245830999999999
#
# number of rings (size 3 to 8) (size 9 to 14) (size 15 to 20)
#    0.000    1.000    7.500    1.500    3.500    0.000 
#    0.000    2.500    0.000    0.000    0.000   10.500 
#    0.000    0.000    0.000    0.000    0.000    0.000 
#
# Total GULP energy -178957.329117 kJ/mol
# GULP energy per Si atom -5592.416535 kJ/mol
# Density = 2.419065 g / cm^3
# Si number density = 24.245831 Si / 1000 Ang^3
#
#
#
# Elastic Constant Matrix: (Units=GPa)
#
#
# Indices 1 2 3 4 5 6 
#
# 1 52.1991 7.1729 47.5090 0.0000 0.0000 0.0000
# 2 7.1729 145.0948 81.0069 0.0000 0.0000 0.0000
# 3 47.5090 81.0069 294.1451 0.0000 0.0000 0.0000
# 4 0.0000 0.0000 0.0000 24.5386 0.0000 0.0000
# 5 0.0000 0.0000 0.0000 0.0000 31.3077 0.0000
# 6 0.0000 0.0000 0.0000 0.0000 0.0000 47.0723
#
#
#
# Elastic Compliance Matrix: (Units=1/GPa)
#
#
# Indices 1 2 3 4 5 6 
#
# 1 0.022603 0.001088 -0.003950 0.000000 0.000000 0.000000
# 2 0.001088 0.008197 -0.002433 0.000000 0.000000 0.000000
# 3 -0.003950 -0.002433 0.004708 0.000000 0.000000 0.000000
# 4 0.000000 0.000000 0.000000 0.040752 0.000000 0.000000
# 5 0.000000 0.000000 0.000000 0.000000 0.031941 0.000000
# 6 0.000000 0.000000 0.000000 0.000000 0.000000 0.021244
#
#
# Mechanical properties :
#
#
# Convention : Reuss Voigt Hill
#
# Bulk Modulus (GPa) = 40.13314 84.75740 62.44527
# Shear Modulus (GPa) = 33.70600 44.30039 39.00320
#
# Velocity S-wave (km/s) = 3.73255 4.27914 4.01516
# Velocity P-wave (km/s) = 5.92996 7.71026 6.87796
#
# Compressibility (1/GPa) = 0.02491706
#
# Stress axis : x y z
#
# Youngs Moduli (GPa) = 44.24105 122.00094 212.41272
#
# Poissons Ratio (x) = -0.13276 0.83913
# Poissons Ratio (y) = -0.04814 0.51682
# Poissons Ratio (z) = 0.17477 0.29684
#
# Static dielectric constant tensor:
#      x y z
#    x 1.970530 0.000000 0.000000 
#    y 0.000000 1.946030 0.000000 
#    z 0.000000 0.000000 1.956290 
# 
# From -- ./inp_files/12421.got.cif
#   From: 2010.05.17/outbox.cif.g08.bks.cpg/sg58_7_cif.got.tgz:12421.got - 2010.06.03 14:20:14.
