data_PCOD9443168
_publ_section_title
;
Structure prediction by ZEFSAII (Michael W. Deem and Ramdas Pophale) SiO2 
 PCOD9443168
Probable space group: P N N M
;
_chemical_formula_sum "Si O2"
_cell_formula_units_Z 64
_cell_length_a 10.593003
_cell_length_b 16.527723
_cell_length_c 21.196181
_cell_angle_alpha 90.000000
_cell_angle_beta 90.000000
_cell_angle_gamma 90.000000
_cell_volume 3710.989626
_symmetry_space_group_name_H-M "P N N M"
_symmetry_group_IT_number 58
_symmetry_cell_setting 'orthorhombic'
loop_
_space_group_symop_operation_xyz
x,y,z
-x,-y,z
1/2+x,1/2-y,1/2-z
1/2-x,1/2+y,1/2-z
-x,-y,-z
x,y,-z
1/2-x,1/2+y,1/2+z
1/2+x,1/2-y,1/2+z
loop_
_atom_site_type_symbol
_atom_site_label
_atom_site_fract_x
_atom_site_fract_y
_atom_site_fract_z
Si Si1 0.616736 0.438428 0.430374
Si Si2 0.954263 0.250035 0.426318
Si Si3 0.703549 0.977574 0.184013
Si Si4 0.348610 0.746639 0.428189
Si Si5 0.794272 0.464735 0.825217
Si Si6 0.953598 0.634007 0.681913
Si Si7 0.588673 0.421663 0.071103
Si Si8 0.055934 0.368270 0.175812
O O1 0.500000 0.500000 0.427005
O O2 0.676778 0.450148 0.500000
O O3 0.707207 0.455927 0.372775
O O4 0.590104 0.342628 0.426263
O O5 0.976673 0.273657 0.500000
O O6 0.803008 0.257957 0.415719
O O7 0.027989 0.303911 0.375010
O O8 0.003938 0.158311 0.418711
O O9 0.758832 0.963213 0.253789
O O10 0.579624 0.921167 0.182221
O O11 0.659119 0.069852 0.174928
O O12 0.361962 0.777958 0.500000
O O13 0.412597 0.803540 0.377068
O O14 0.694829 0.436099 0.876684
O O15 0.847017 0.556396 0.832143
O O16 0.917321 0.407577 0.829713
O O17 0.937108 0.667526 0.753051
O O18 0.500000 0.500000 0.072609
O O19 0.643334 0.415237 0.000000
#
# Coordination Sequence:
#
# PCOD9443168 Si02
#       8
#     8   8   8   8   8   8   8   8
#     4  10  21  37  55  78 109 145 184 225 268 322
#     4  10  20  35  55  81 110 143 185 229 275 326
#     4   9  18  35  58  78 106 141 178 223 271 324
#     4  10  20  36  57  79 108 146 187 225 269 330
#     4   9  19  36  56  79 110 141 178 224 270 329
#     4   9  18  35  56  81 107 137 179 228 271 317
#     4  10  21  36  54  79 111 143 180 228 275 322
#     4   9  19  36  56  80 108 143 181 220 272 331
#
# _framework density 17.246072999999999
#
# number of rings (size 3 to 8) (size 9 to 14) (size 15 to 20)
#    0.000    2.500    1.250    2.250    0.000    4.000 
#    2.250    3.750    0.000    0.000    0.000    0.000 
#    0.000    0.000    0.000    0.000    0.000    0.000 
#
# Total GULP energy -356553.259335 kJ/mol
# GULP energy per Si atom -5571.144677 kJ/mol
# Density = 1.720682 g / cm^3
# Si number density = 17.246073 Si / 1000 Ang^3
#
#
#
# Elastic Constant Matrix: (Units=GPa)
#
#
# Indices 1 2 3 4 5 6 
#
# 1 35.4301 25.2566 49.0573 0.0000 0.0000 0.0000
# 2 25.2566 93.6883 82.7307 0.0000 0.0000 0.0000
# 3 49.0573 82.7307 156.5804 0.0000 0.0000 0.0000
# 4 0.0000 0.0000 0.0000 40.0740 0.0000 0.0000
# 5 0.0000 0.0000 0.0000 0.0000 37.0917 0.0000
# 6 0.0000 0.0000 0.0000 0.0000 0.0000 20.0227
#
#
#
# Elastic Compliance Matrix: (Units=1/GPa)
#
#
# Indices 1 2 3 4 5 6 
#
# 1 0.049872 0.000662 -0.015975 0.000000 0.000000 0.000000
# 2 0.000662 0.020018 -0.010784 0.000000 0.000000 0.000000
# 3 -0.015975 -0.010784 0.017089 0.000000 0.000000 0.000000
# 4 0.000000 0.000000 0.000000 0.024954 0.000000 0.000000
# 5 0.000000 0.000000 0.000000 0.000000 0.026960 0.000000
# 6 0.000000 0.000000 0.000000 0.000000 0.000000 0.049943
#
#
# Mechanical properties :
#
#
# Convention : Reuss Voigt Hill
#
# Bulk Modulus (GPa) = 28.74778 66.64310 47.69544
# Shear Modulus (GPa) = 19.79213 28.01462 23.90338
#
# Velocity S-wave (km/s) = 3.39135 4.03476 3.72697
# Velocity P-wave (km/s) = 5.66042 7.77381 6.79972
#
# Compressibility (1/GPa) = 0.03478530
#
# Stress axis : x y z
#
# Youngs Moduli (GPa) = 20.05140 49.95481 58.51590
#
# Poissons Ratio (x) = -0.03307 0.93478
# Poissons Ratio (y) = -0.01327 0.63104
# Poissons Ratio (z) = 0.32032 0.53872
#
# Static dielectric constant tensor:
#      x y z
#    x 1.564320 0.000000 0.000000 
#    y 0.000000 1.582360 0.000000 
#    z 0.000000 0.000000 1.593660 
# 
# From -- ./inp_files/26413.got.cif
#   From: 2010.05.17/outbox.cif.g08.bks.cpg/sg58_14_cif.got.tgz:26413.got - 2010.06.03 14:20:14.
