data_PCOD9443372
_publ_section_title
;
Structure prediction by ZEFSAII (Michael W. Deem and Ramdas Pophale) SiO2 
 PCOD9443372
Probable space group: P N N M
;
_chemical_formula_sum "Si O2"
_cell_formula_units_Z 64
_cell_length_a 26.824289
_cell_length_b 15.170667
_cell_length_c 7.968601
_cell_angle_alpha 90.000000
_cell_angle_beta 90.000000
_cell_angle_gamma 90.000000
_cell_volume 3242.761264
_symmetry_space_group_name_H-M "P N N M"
_symmetry_group_IT_number 58
_symmetry_cell_setting 'orthorhombic'
loop_
_space_group_symop_operation_xyz
x,y,z
-x,-y,z
1/2+x,1/2-y,1/2-z
1/2-x,1/2+y,1/2-z
-x,-y,-z
x,y,-z
1/2-x,1/2+y,1/2+z
1/2+x,1/2-y,1/2+z
loop_
_atom_site_type_symbol
_atom_site_label
_atom_site_fract_x
_atom_site_fract_y
_atom_site_fract_z
Si Si1 0.556365 0.510371 0.300433
Si Si2 0.363719 0.348983 0.196687
Si Si3 0.172274 0.499293 0.202113
Si Si4 0.108576 0.329558 0.703071
Si Si5 0.633956 0.364524 0.203349
Si Si6 0.496781 0.899725 0.199886
Si Si7 0.714113 0.505693 0.794656
Si Si8 0.103943 0.658715 0.196785
O O1 0.500000 0.500000 0.238711
O O2 0.555219 0.526176 0.500000
O O3 0.587495 0.589985 0.219989
O O4 0.587167 0.421983 0.263324
O O5 0.317709 0.408836 0.261219
O O6 0.372587 0.254725 0.278564
O O7 0.355774 0.333775 0.000000
O O8 0.143439 0.410205 0.245557
O O9 0.229146 0.496677 0.264049
O O10 0.140129 0.582278 0.266483
O O11 0.174944 0.507118 0.000000
O O12 0.107627 0.325906 0.500000
O O13 0.129047 0.235470 0.762885
O O14 0.052397 0.350107 0.764498
O O15 0.682907 0.419075 0.256356
O O16 0.633532 0.364865 0.000000
O O17 0.548667 0.850275 0.228919
O O18 0.500000 0.000000 0.267925
O O19 0.489864 0.907304 0.000000
O O20 0.713869 0.507818 0.000000
O O21 0.098023 0.642091 0.000000
#
# Coordination Sequence:
#
# PCOD9443372 Si02
#       8
#     8   8   8   8   8   8   8   8
#     4  10  21  36  54  81 114 144 179 228 278 328
#     4  10  21  38  60  81 109 149 189 231 275 329
#     4  10  21  37  57  80 110 148 186 228 284 338
#     4  10  21  36  56  84 111 144 190 233 275 327
#     4   9  19  36  57  80 108 144 186 226 270 329
#     4  10  20  36  56  78 112 151 189 234 277 328
#     4   8  17  37  59  79 107 144 185 232 279 327
#     4  11  23  36  55  85 117 149 186 230 285 341
#
# _framework density 19.736267000000002
#
# number of rings (size 3 to 8) (size 9 to 14) (size 15 to 20)
#    0.000    2.250    1.250    1.875    1.750    3.750 
#    0.000    4.375    0.000    0.000    0.000    0.000 
#    0.000    0.000    0.000    0.000    0.000    0.000 
#
# Total GULP energy -357261.136470 kJ/mol
# GULP energy per Si atom -5582.205257 kJ/mol
# Density = 1.969135 g / cm^3
# Si number density = 19.736267 Si / 1000 Ang^3
#
#
#
# Elastic Constant Matrix: (Units=GPa)
#
#
# Indices 1 2 3 4 5 6 
#
# 1 183.8085 79.4439 -5.6434 0.0000 0.0000 0.0000
# 2 79.4439 145.7485 -10.5065 0.0000 0.0000 0.0000
# 3 -5.6434 -10.5065 7.6528 0.0000 0.0000 0.0000
# 4 0.0000 0.0000 0.0000 23.2198 0.0000 0.0000
# 5 0.0000 0.0000 0.0000 0.0000 8.5097 0.0000
# 6 0.0000 0.0000 0.0000 0.0000 0.0000 2.1844
#
#
#
# Elastic Compliance Matrix: (Units=1/GPa)
#
#
# Indices 1 2 3 4 5 6 
#
# 1 0.007117 -0.003886 -0.000086 0.000000 0.000000 0.000000
# 2 -0.003886 0.009736 0.010501 0.000000 0.000000 0.000000
# 3 -0.000086 0.010501 0.145026 0.000000 0.000000 0.000000
# 4 0.000000 0.000000 0.000000 0.043067 0.000000 0.000000
# 5 0.000000 0.000000 0.000000 0.000000 0.117513 0.000000
# 6 0.000000 0.000000 0.000000 0.000000 0.000000 0.457789
#
#
# Mechanical properties :
#
#
# Convention : Reuss Voigt Hill
#
# Bulk Modulus (GPa) = 5.71631 51.53308 28.62470
# Shear Modulus (GPa) = 6.05692 25.04382 15.55037
#
# Velocity S-wave (km/s) = 1.75374 3.56606 2.81002
# Velocity P-wave (km/s) = 2.64640 6.56683 5.00633
#
# Compressibility (1/GPa) = 0.17493805
#
# Stress axis : x y z
#
# Youngs Moduli (GPa) = 140.50451 102.71057 6.89534
#
# Poissons Ratio (x) = 0.39909 0.00059
# Poissons Ratio (y) = 0.54595 -0.07241
# Poissons Ratio (z) = 0.01210 -1.07860
#
# Static dielectric constant tensor:
#      x y z
#    x 1.680410 0.000000 0.000000 
#    y 0.000000 1.670920 0.000000 
#    z 0.000000 0.000000 1.699120 
# 
# From -- ./inp_files/10065.got.cif
#   From: 2010.05.17/outbox.cif.g08.bks.cpg/sg58_6_cif.got.tgz:10065.got - 2010.06.03 14:20:14.
