data_PCOD9443693
_publ_section_title
;
Structure prediction by ZEFSAII (Michael W. Deem and Ramdas Pophale) SiO2 
 PCOD9443693
Probable space group: P N N M
;
_chemical_formula_sum "Si O2"
_cell_formula_units_Z 64
_cell_length_a 22.244068
_cell_length_b 9.190790
_cell_length_c 14.743427
_cell_angle_alpha 90.000000
_cell_angle_beta 90.000000
_cell_angle_gamma 90.000000
_cell_volume 3014.154439
_symmetry_space_group_name_H-M "P N N M"
_symmetry_group_IT_number 58
_symmetry_cell_setting 'orthorhombic'
loop_
_space_group_symop_operation_xyz
x,y,z
-x,-y,z
1/2+x,1/2-y,1/2-z
1/2-x,1/2+y,1/2-z
-x,-y,-z
x,y,-z
1/2-x,1/2+y,1/2+z
1/2+x,1/2-y,1/2+z
loop_
_atom_site_type_symbol
_atom_site_label
_atom_site_fract_x
_atom_site_fract_y
_atom_site_fract_z
Si Si1 0.873657 0.270191 0.396703
Si Si2 0.061872 0.087926 0.902524
Si Si3 0.230596 0.217019 0.101524
Si Si4 0.071985 0.467821 0.704569
Si Si5 0.723901 0.634146 0.602566
Si Si6 0.933178 0.563089 0.902744
Si Si7 0.136787 0.931777 0.750631
Si Si8 0.667424 0.262540 0.790855
O O1 0.890769 0.241883 0.500000
O O2 0.801462 0.251486 0.388126
O O3 0.894386 0.428765 0.365857
O O4 0.899340 0.160646 0.322100
O O5 0.058491 0.261938 0.894735
O O6 0.096469 0.022178 0.819384
O O7 0.092616 0.058357 0.000000
O O8 0.000000 0.000000 0.905108
O O9 0.192399 0.271266 0.188058
O O10 0.225692 0.041779 0.102163
O O11 0.211908 0.267046 0.000000
O O12 0.091004 0.501609 0.808947
O O13 0.101215 0.306876 0.693484
O O14 0.000000 0.500000 0.697135
O O15 0.709974 0.683227 0.500000
O O16 0.676957 0.668298 0.683155
O O17 0.787530 0.692064 0.637204
O O18 0.000000 0.500000 0.907733
O O19 0.903302 0.530452 0.000000
O O20 0.171337 0.062923 0.700302
#
# Coordination Sequence:
#
# PCOD9443693 Si02
#       8
#     8   8   8   8   8   8   8   8
#     4  11  24  43  64  89 127 169 220 276 326 381
#     4  10  21  37  62  95 132 171 205 247 315 392
#     4   9  19  37  63  89 121 165 209 258 322 382
#     4  11  24  41  66  94 127 178 223 268 323 384
#     4  10  20  37  61  90 122 158 201 260 322 389
#     4   9  19  37  59  91 127 163 209 257 307 371
#     4  11  23  38  64  93 128 162 213 262 327 386
#     4  11  21  38  64  94 124 162 214 266 322 388
#
# _framework density 21.233153000000001
#
# number of rings (size 3 to 8) (size 9 to 14) (size 15 to 20)
#    0.000    1.750    3.750    0.375    3.500    1.750 
#    0.000    0.625    0.000    1.125    0.000    0.000 
#    0.000    0.000    0.000    0.000    0.000    0.000 
#
# Total GULP energy -356832.118038 kJ/mol
# GULP energy per Si atom -5575.501844 kJ/mol
# Density = 2.118483 g / cm^3
# Si number density = 21.233153 Si / 1000 Ang^3
#
#
#
# Elastic Constant Matrix: (Units=GPa)
#
#
# Indices 1 2 3 4 5 6 
#
# 1 60.6012 17.6598 11.1808 0.0000 0.0000 0.0000
# 2 17.6598 42.8288 39.9075 0.0000 0.0000 0.0000
# 3 11.1808 39.9075 126.9815 0.0000 0.0000 0.0000
# 4 0.0000 0.0000 0.0000 24.6712 0.0000 0.0000
# 5 0.0000 0.0000 0.0000 0.0000 2.1936 0.0000
# 6 0.0000 0.0000 0.0000 0.0000 0.0000 26.4378
#
#
#
# Elastic Compliance Matrix: (Units=1/GPa)
#
#
# Indices 1 2 3 4 5 6 
#
# 1 0.018865 -0.008811 0.001108 0.000000 0.000000 0.000000
# 2 -0.008811 0.037133 -0.010894 0.000000 0.000000 0.000000
# 3 0.001108 -0.010894 0.011201 0.000000 0.000000 0.000000
# 4 0.000000 0.000000 0.000000 0.040533 0.000000 0.000000
# 5 0.000000 0.000000 0.000000 0.000000 0.455869 0.000000
# 6 0.000000 0.000000 0.000000 0.000000 0.000000 0.037825
#
#
# Mechanical properties :
#
#
# Convention : Reuss Voigt Hill
#
# Bulk Modulus (GPa) = 33.32824 40.87865 37.10344
# Shear Modulus (GPa) = 7.70866 21.43808 14.57337
#
# Velocity S-wave (km/s) = 1.90745 3.18095 2.62267
# Velocity P-wave (km/s) = 4.53669 5.72585 5.16560
#
# Compressibility (1/GPa) = 0.03000458
#
# Stress axis : x y z
#
# Youngs Moduli (GPa) = 53.00958 26.93017 89.27430
#
# Poissons Ratio (x) = 0.23728 -0.09892
# Poissons Ratio (y) = 0.46707 0.97258
# Poissons Ratio (z) = -0.05874 0.29339
#
# Static dielectric constant tensor:
#      x y z
#    x 1.869620 0.000000 0.000000 
#    y 0.000000 1.824850 0.000000 
#    z 0.000000 0.000000 1.818710 
# 
# From -- ./inp_files/23531.got.cif
#   From: 2010.05.17/outbox.cif.g08.bks.cpg/sg58_12_cif.got.tgz:23531.got - 2010.06.03 14:20:14.
