data_PCOD9443623
_publ_section_title
;
Structure prediction by ZEFSAII (Michael W. Deem and Ramdas Pophale) SiO2 
 PCOD9443623
Probable space group: P N N M
;
_chemical_formula_sum "Si O2"
_cell_formula_units_Z 64
_cell_length_a 15.332979
_cell_length_b 24.699416
_cell_length_c 7.559925
_cell_angle_alpha 90.000000
_cell_angle_beta 90.000000
_cell_angle_gamma 90.000000
_cell_volume 2863.061735
_symmetry_space_group_name_H-M "P N N M"
_symmetry_group_IT_number 58
_symmetry_cell_setting 'orthorhombic'
loop_
_space_group_symop_operation_xyz
x,y,z
-x,-y,z
1/2+x,1/2-y,1/2-z
1/2-x,1/2+y,1/2-z
-x,-y,-z
x,y,-z
1/2-x,1/2+y,1/2+z
1/2+x,1/2-y,1/2+z
loop_
_atom_site_type_symbol
_atom_site_label
_atom_site_fract_x
_atom_site_fract_y
_atom_site_fract_z
Si Si1 0.254473 0.576716 0.292847
Si Si2 0.898947 0.499089 0.283434
Si Si3 0.322700 0.885970 0.796311
Si Si4 0.865066 0.130437 0.699035
Si Si5 0.400553 0.488329 0.214186
Si Si6 0.564322 0.214160 0.290058
Si Si7 0.200788 0.196573 0.216334
Si Si8 0.378614 0.253989 0.211921
O O1 0.236997 0.586357 0.500000
O O2 0.164788 0.549545 0.222074
O O3 0.330556 0.532021 0.277843
O O4 0.288561 0.634428 0.221517
O O5 0.899492 0.497892 0.500000
O O6 0.855300 0.556009 0.230176
O O7 0.000000 0.500000 0.226960
O O8 0.239276 0.864628 0.692753
O O9 0.396102 0.840463 0.787867
O O10 0.295769 0.892804 0.000000
O O11 0.902371 0.127823 0.500000
O O12 0.896202 0.185823 0.785644
O O13 0.881376 0.072104 0.780931
O O14 0.500000 0.500000 0.262312
O O15 0.393288 0.488810 0.000000
O O16 0.576634 0.211176 0.500000
O O17 0.618079 0.267275 0.226034
O O18 0.462758 0.218685 0.249717
O O19 0.288339 0.228128 0.273293
O O20 0.197602 0.195409 0.000000
O O21 0.369686 0.259680 0.000000
#
# Coordination Sequence:
#
# PCOD9443623 Si02
#       8
#     8   8   8   8   8   8   8   8
#     4  10  20  37  59  83 111 147 189 237 282 330
#     4   9  19  34  56  85 113 143 186 237 284 333
#     4  11  21  36  61  88 111 147 197 242 286 341
#     4  10  20  38  61  81 114 155 191 237 293 342
#     4  10  22  38  57  83 117 156 189 227 287 350
#     4  11  23  40  58  85 119 153 190 237 291 341
#     4   9  20  38  59  80 113 153 189 230 288 345
#     4  10  21  39  61  85 110 150 197 235 281 342
#
# _framework density 22.353691000000001
#
# number of rings (size 3 to 8) (size 9 to 14) (size 15 to 20)
#    0.000    2.000    2.500    0.750    3.500    0.750 
#    0.000    1.250    0.000    1.875    0.000    0.000 
#    0.000    0.000    0.000    0.000    0.000    0.000 
#
# Total GULP energy -357454.365896 kJ/mol
# GULP energy per Si atom -5585.224467 kJ/mol
# Density = 2.230281 g / cm^3
# Si number density = 22.353691 Si / 1000 Ang^3
#
#
#
# Elastic Constant Matrix: (Units=GPa)
#
#
# Indices 1 2 3 4 5 6 
#
# 1 49.3593 -32.8060 -8.6121 0.0000 0.0000 0.0000
# 2 -32.8060 71.2066 -2.0294 0.0000 0.0000 0.0000
# 3 -8.6121 -2.0294 54.3535 0.0000 0.0000 0.0000
# 4 0.0000 0.0000 0.0000 5.5408 0.0000 0.0000
# 5 0.0000 0.0000 0.0000 0.0000 1.9054 0.0000
# 6 0.0000 0.0000 0.0000 0.0000 0.0000 38.8162
#
#
#
# Elastic Compliance Matrix: (Units=1/GPa)
#
#
# Indices 1 2 3 4 5 6 
#
# 1 0.030707 0.014301 0.005399 0.000000 0.000000 0.000000
# 2 0.014301 0.020719 0.003039 0.000000 0.000000 0.000000
# 3 0.005399 0.003039 0.019367 0.000000 0.000000 0.000000
# 4 0.000000 0.000000 0.000000 0.180480 0.000000 0.000000
# 5 0.000000 0.000000 0.000000 0.000000 0.524825 0.000000
# 6 0.000000 0.000000 0.000000 0.000000 0.000000 0.025762
#
#
# Mechanical properties :
#
#
# Convention : Reuss Voigt Hill
#
# Bulk Modulus (GPa) = 8.60054 9.78049 9.19052
# Shear Modulus (GPa) = 6.28822 23.81027 15.04924
#
# Velocity S-wave (km/s) = 1.67904 3.26722 2.59749
# Velocity P-wave (km/s) = 2.75948 4.31484 3.62164
#
# Compressibility (1/GPa) = 0.11627170
#
# Stress axis : x y z
#
# Youngs Moduli (GPa) = 32.56639 48.26512 51.63404
#
# Poissons Ratio (x) = -0.69023 -0.27879
# Poissons Ratio (y) = -0.46573 -0.15694
# Poissons Ratio (z) = -0.17583 -0.14670
#
# Static dielectric constant tensor:
#      x y z
#    x 1.780510 0.000000 0.000000 
#    y 0.000000 1.744540 0.000000 
#    z 0.000000 0.000000 1.875060 
# 
# From -- ./inp_files/6987.got.cif
#   From: 2010.05.17/outbox.cif.g08.bks.cpg/sg58_4_cif.got.tgz:6987.got - 2010.06.03 14:20:14.
