data_PCOD9443325
_publ_section_title
;
Structure prediction by ZEFSAII (Michael W. Deem and Ramdas Pophale) SiO2 
 PCOD9443325
Probable space group: P N N M
;
_chemical_formula_sum "Si O2"
_cell_formula_units_Z 56
_cell_length_a 11.926852
_cell_length_b 13.670520
_cell_length_c 14.970011
_cell_angle_alpha 90.000000
_cell_angle_beta 90.000000
_cell_angle_gamma 90.000000
_cell_volume 2440.804437
_symmetry_space_group_name_H-M "P N N M"
_symmetry_group_IT_number 58
_symmetry_cell_setting 'orthorhombic'
loop_
_space_group_symop_operation_xyz
x,y,z
-x,-y,z
1/2+x,1/2-y,1/2-z
1/2-x,1/2+y,1/2-z
-x,-y,-z
x,y,-z
1/2-x,1/2+y,1/2+z
1/2+x,1/2-y,1/2+z
loop_
_atom_site_type_symbol
_atom_site_label
_atom_site_fract_x
_atom_site_fract_y
_atom_site_fract_z
Si Si1 0.205224 0.693501 0.901847
Si Si2 0.067810 0.249227 0.660633
Si Si3 0.657305 0.842080 0.188422
Si Si4 0.887464 0.085082 0.095337
Si Si5 0.305212 0.948231 0.216385
Si Si6 0.091277 0.194418 0.856138
Si Si7 0.901118 0.580894 0.099468
O O1 0.341272 0.694842 0.899672
O O2 0.170167 0.667121 0.798169
O O3 0.160030 0.803737 0.906780
O O4 0.170723 0.648496 0.000000
O O5 0.131299 0.351407 0.683788
O O6 0.059175 0.190607 0.752638
O O7 0.940335 0.279056 0.643049
O O8 0.775302 0.816154 0.142957
O O9 0.633087 0.956594 0.179315
O O10 0.820595 0.043257 0.179228
O O11 0.019651 0.107235 0.101086
O O12 0.853920 0.041298 0.000000
O O13 0.312979 0.941891 0.322977
O O14 0.061717 0.305098 0.888695
O O15 0.000000 0.500000 0.110735
O O16 0.856477 0.573038 0.000000
#
# Coordination Sequence:
#
# PCOD9443325 Si02
#       7
#     8   8   8   8   8   8   8
#     4   9  19  34  57  86 112 151 205 246 296 368
#     4   9  18  35  57  82 116 156 198 249 304 357
#     4  11  20  35  60  85 119 163 199 249 312 360
#     4  10  20  38  61  81 115 158 203 251 298 362
#     4  10  21  36  57  90 124 158 201 245 301 371
#     4  10  20  35  59  87 117 156 205 246 302 366
#     4  10  21  37  60  92 125 153 194 255 310 355
#
# _framework density 22.943256999999999
#
# number of rings (size 3 to 8) (size 9 to 14) (size 15 to 20)
#    0.000    2.143    1.429    3.429    0.000    1.143 
#    0.000    4.286    0.000    5.571    0.000    3.000 
#    0.000    0.000    0.000    0.000    0.000    0.000 
#
# Total GULP energy -312163.419909 kJ/mol
# GULP energy per Si atom -5574.346784 kJ/mol
# Density = 2.289104 g / cm^3
# Si number density = 22.943257 Si / 1000 Ang^3
#
#
#
# Elastic Constant Matrix: (Units=GPa)
#
#
# Indices 1 2 3 4 5 6 
#
# 1 133.7034 -7.1721 37.1374 0.0000 0.0000 0.0000
# 2 -7.1721 42.9503 10.4021 0.0000 0.0000 0.0000
# 3 37.1374 10.4021 94.9192 0.0000 0.0000 0.0000
# 4 0.0000 0.0000 0.0000 9.2548 0.0000 0.0000
# 5 0.0000 0.0000 0.0000 0.0000 25.0107 0.0000
# 6 0.0000 0.0000 0.0000 0.0000 0.0000 28.4705
#
#
#
# Elastic Compliance Matrix: (Units=1/GPa)
#
#
# Indices 1 2 3 4 5 6 
#
# 1 0.008610 0.002315 -0.003622 0.000000 0.000000 0.000000
# 2 0.002315 0.024540 -0.003595 0.000000 0.000000 0.000000
# 3 -0.003622 -0.003595 0.012346 0.000000 0.000000 0.000000
# 4 0.000000 0.000000 0.000000 0.108052 0.000000 0.000000
# 5 0.000000 0.000000 0.000000 0.000000 0.039983 0.000000
# 6 0.000000 0.000000 0.000000 0.000000 0.000000 0.035124
#
#
# Mechanical properties :
#
#
# Convention : Reuss Voigt Hill
#
# Bulk Modulus (GPa) = 28.01802 39.14530 33.58166
# Shear Modulus (GPa) = 19.97150 27.96090 23.96620
#
# Velocity S-wave (km/s) = 2.95358 3.49477 3.23551
# Velocity P-wave (km/s) = 4.88568 5.77784 5.35039
#
# Compressibility (1/GPa) = 0.03569132
#
# Stress axis : x y z
#
# Youngs Moduli (GPa) = 116.15058 40.74987 80.99495
#
# Poissons Ratio (x) = -0.09433 0.29338
# Poissons Ratio (y) = -0.26888 0.29118
# Poissons Ratio (z) = 0.42072 0.14650
#
# Static dielectric constant tensor:
#      x y z
#    x 1.967260 0.000000 0.000000 
#    y 0.000000 1.921370 0.000000 
#    z 0.000000 0.000000 1.854420 
# 
# From -- ./inp_files/21271.got.cif
#   From: 2010.05.17/outbox.cif.g08.bks.cpg/sg58_11_cif.got.tgz:21271.got - 2010.06.03 14:20:14.
