data_PCOD9443489
_publ_section_title
;
Structure prediction by ZEFSAII (Michael W. Deem and Ramdas Pophale) SiO2 
 PCOD9443489
Probable space group: P N N M
;
_chemical_formula_sum "Si O2"
_cell_formula_units_Z 48
_cell_length_a 9.406568
_cell_length_b 10.300477
_cell_length_c 22.915571
_cell_angle_alpha 90.000000
_cell_angle_beta 90.000000
_cell_angle_gamma 90.000000
_cell_volume 2220.338652
_symmetry_space_group_name_H-M "P N N M"
_symmetry_group_IT_number 58
_symmetry_cell_setting 'orthorhombic'
loop_
_space_group_symop_operation_xyz
x,y,z
-x,-y,z
1/2+x,1/2-y,1/2-z
1/2-x,1/2+y,1/2-z
-x,-y,-z
x,y,-z
1/2-x,1/2+y,1/2+z
1/2+x,1/2-y,1/2+z
loop_
_atom_site_type_symbol
_atom_site_label
_atom_site_fract_x
_atom_site_fract_y
_atom_site_fract_z
Si Si1 0.532998 0.852991 0.187427
Si Si2 0.268101 0.771060 0.747836
Si Si3 0.302027 0.905385 0.365580
Si Si4 0.347981 0.456157 0.430839
Si Si5 0.127647 0.690885 0.431309
Si Si6 0.873621 0.302811 0.866960
O O1 0.426358 0.766911 0.226247
O O2 0.697646 0.833852 0.204679
O O3 0.509662 0.824760 0.119035
O O4 0.500000 0.000000 0.200869
O O5 0.257220 0.891418 0.702748
O O6 0.171742 0.757376 0.804922
O O7 0.208671 0.821625 0.410682
O O8 0.459181 0.840553 0.368095
O O9 0.302248 0.057684 0.378528
O O10 0.500000 0.500000 0.404661
O O11 0.361565 0.453479 0.500000
O O12 0.228889 0.565344 0.420362
O O13 0.328615 0.309216 0.410893
O O14 0.089142 0.692970 0.500000
#
# Coordination Sequence:
#
# PCOD9443489 Si02
#       6
#     8   8   8   8   8   8
#     4  11  23  42  66  99 134 179 232 281 346 416
#     4  11  22  40  64  93 137 177 219 281 337 416
#     4  10  22  39  61  97 134 177 225 277 345 406
#     4  10  20  36  59  94 130 171 230 283 333 402
#     4  10  22  42  67  95 137 183 234 288 344 414
#     4  11  21  38  63  92 134 175 226 281 342 406
#
# _framework density 21.618324999999999
#
# number of rings (size 3 to 8) (size 9 to 14) (size 15 to 20)
#    0.000    1.500    3.333    2.000    0.000    2.333 
#    0.000   10.000    0.000    1.000    0.000    0.000 
#    0.000    0.000    0.000    0.000    0.000    0.000 
#
# Total GULP energy -267523.109357 kJ/mol
# GULP energy per Si atom -5573.398112 kJ/mol
# Density = 2.156912 g / cm^3
# Si number density = 21.618325 Si / 1000 Ang^3
#
#
#
# Elastic Constant Matrix: (Units=GPa)
#
#
# Indices 1 2 3 4 5 6 
#
# 1 58.5414 45.0518 40.8141 0.0000 0.0000 0.0000
# 2 45.0518 122.9410 21.8652 0.0000 0.0000 0.0000
# 3 40.8141 21.8652 83.9285 0.0000 0.0000 0.0000
# 4 0.0000 0.0000 0.0000 16.1134 0.0000 0.0000
# 5 0.0000 0.0000 0.0000 0.0000 19.9658 0.0000
# 6 0.0000 0.0000 0.0000 0.0000 0.0000 1.6655
#
#
#
# Elastic Compliance Matrix: (Units=1/GPa)
#
#
# Indices 1 2 3 4 5 6 
#
# 1 0.034978 -0.010268 -0.014334 0.000000 0.000000 0.000000
# 2 -0.010268 0.011544 0.001986 0.000000 0.000000 0.000000
# 3 -0.014334 0.001986 0.018368 0.000000 0.000000 0.000000
# 4 0.000000 0.000000 0.000000 0.062060 0.000000 0.000000
# 5 0.000000 0.000000 0.000000 0.000000 0.050086 0.000000
# 6 0.000000 0.000000 0.000000 0.000000 0.000000 0.600415
#
#
# Mechanical properties :
#
#
# Convention : Reuss Voigt Hill
#
# Bulk Modulus (GPa) = 50.87415 53.43036 52.15225
# Shear Modulus (GPa) = 6.02965 18.06092 12.04528
#
# Velocity S-wave (km/s) = 1.67188 2.89354 2.36303
# Velocity P-wave (km/s) = 5.22598 5.99437 5.62331
#
# Compressibility (1/GPa) = 0.01965635
#
# Stress axis : x y z
#
# Youngs Moduli (GPa) = 28.58959 86.62850 54.44165
#
# Poissons Ratio (x) = 0.88952 0.78039
# Poissons Ratio (y) = 0.29356 -0.10812
# Poissons Ratio (z) = 0.40982 -0.17205
#
# Static dielectric constant tensor:
#      x y z
#    x 1.871660 0.000000 0.000000 
#    y 0.000000 1.786850 0.000000 
#    z 0.000000 0.000000 1.812360 
# 
# From -- ./inp_files/31442.got.cif
#   From: 2010.05.17/outbox.cif.g08.bks.cpg/sg58_16_cif.got.tgz:31442.got - 2010.06.03 14:20:14.
