data_PCOD9443155
_publ_section_title
;
Structure prediction by ZEFSAII (Michael W. Deem and Ramdas Pophale) SiO2 
 PCOD9443155
Probable space group: P N N M
;
_chemical_formula_sum "Si O2"
_cell_formula_units_Z 48
_cell_length_a 9.617716
_cell_length_b 31.514226
_cell_length_c 7.738823
_cell_angle_alpha 90.000000
_cell_angle_beta 90.000000
_cell_angle_gamma 90.000000
_cell_volume 2345.597595
_symmetry_space_group_name_H-M "P N N M"
_symmetry_group_IT_number 58
_symmetry_cell_setting 'orthorhombic'
loop_
_space_group_symop_operation_xyz
x,y,z
-x,-y,z
1/2+x,1/2-y,1/2-z
1/2-x,1/2+y,1/2-z
-x,-y,-z
x,y,-z
1/2-x,1/2+y,1/2+z
1/2+x,1/2-y,1/2+z
loop_
_atom_site_type_symbol
_atom_site_label
_atom_site_fract_x
_atom_site_fract_y
_atom_site_fract_z
Si Si1 0.897205 0.707980 0.798699
Si Si2 0.917036 0.460289 0.796443
Si Si3 0.078054 0.133981 0.795593
Si Si4 0.099149 0.634458 0.789562
Si Si5 0.597673 0.461598 0.290281
Si Si6 0.587328 0.715437 0.800138
O O1 0.743007 0.714102 0.723999
O O2 0.992191 0.670050 0.726530
O O3 0.986115 0.750821 0.788292
O O4 0.874157 0.697076 0.000000
O O5 0.942035 0.412767 0.727483
O O6 0.753532 0.468175 0.775048
O O7 0.000000 0.500000 0.719865
O O8 0.951627 0.458200 0.000000
O O9 0.241837 0.142869 0.765194
O O10 0.051758 0.085655 0.734864
O O11 0.982888 0.169368 0.709808
O O12 0.051715 0.135893 0.000000
O O13 0.100413 0.634571 0.000000
O O14 0.500000 0.500000 0.233813
O O15 0.601459 0.461269 0.500000
O O16 0.596310 0.729123 0.000000
#
# Coordination Sequence:
#
# PCOD9443155 Si02
#       6
#     8   8   8   8   8   8
#     4  10  22  38  55  77 105 137 173 212 255 306
#     4   9  18  32  52  79 108 139 175 214 258 307
#     4  10  20  35  55  78 105 137 174 215 258 307
#     4   9  18  35  56  77 106 141 174 213 260 306
#     4   9  19  35  53  75 105 140 176 214 257 305
#     4  11  23  37  55  79 105 134 170 212 258 308
#
# _framework density 20.463868000000002
#
# number of rings (size 3 to 8) (size 9 to 14) (size 15 to 20)
#    0.000    2.333    0.000    2.000    0.000    7.333 
#    0.000    1.667    0.000    0.000    0.000    0.000 
#    0.000    0.000    0.000    0.000    0.000    0.000 
#
# Total GULP energy -267941.193971 kJ/mol
# GULP energy per Si atom -5582.108208 kJ/mol
# Density = 2.041729 g / cm^3
# Si number density = 20.463868 Si / 1000 Ang^3
#
#
#
# Elastic Constant Matrix: (Units=GPa)
#
#
# Indices 1 2 3 4 5 6 
#
# 1 110.9846 88.5027 -8.7612 0.0000 0.0000 0.0000
# 2 88.5027 133.9822 -10.4869 0.0000 0.0000 0.0000
# 3 -8.7612 -10.4869 31.7357 0.0000 0.0000 0.0000
# 4 0.0000 0.0000 0.0000 -421.0692 0.0000 0.0000
# 5 0.0000 0.0000 0.0000 0.0000 11.6726 0.0000
# 6 0.0000 0.0000 0.0000 0.0000 0.0000 43.0053
#
#
#
# Elastic Compliance Matrix: (Units=1/GPa)
#
#
# Indices 1 2 3 4 5 6 
#
# 1 0.019079 -0.012514 0.001132 0.000000 0.000000 0.000000
# 2 -0.012514 0.015870 0.001789 0.000000 0.000000 0.000000
# 3 0.001132 0.001789 0.032414 0.000000 0.000000 0.000000
# 4 0.000000 0.000000 0.000000 -0.002375 0.000000 0.000000
# 5 0.000000 0.000000 0.000000 0.000000 0.085671 0.000000
# 6 0.000000 0.000000 0.000000 0.000000 0.000000 0.023253
#
#
# Mechanical properties :
#
#
# Convention : Reuss Voigt Hill
#
# Bulk Modulus (GPa) = 20.75667 46.13463 33.44565
# Shear Modulus (GPa) = 23.90566 -59.44840 -17.77137
#
# Velocity S-wave (km/s) = 3.42159 -5.39569 -2.95011
# Velocity P-wave (km/s) = 5.07689 4.02798 2.18520
#
# Compressibility (1/GPa) = 0.04817728
#
# Stress axis : x y z
#
# Youngs Moduli (GPa) = 52.41482 63.01257 30.85080
#
# Poissons Ratio (x) = 0.78853 -0.03492
# Poissons Ratio (y) = 0.65591 -0.05521
# Poissons Ratio (z) = -0.05932 -0.11276
#
# Static dielectric constant tensor:
#      x y z
#    x 1.692600 0.000000 0.000000 
#    y 0.000000 1.732970 0.000000 
#    z 0.000000 0.000000 1.750430 
# 
# From -- ./inp_files/2905.got.cif
#   From: 2010.05.17/outbox.cif.g08.bks.cpg/sg58_2_cif.got.tgz:2905.got - 2010.06.03 14:20:14.
