data_PCOD9443408
_publ_section_title
;
Structure prediction by ZEFSAII (Michael W. Deem and Ramdas Pophale) SiO2 
 PCOD9443408
Probable space group: P N N M
;
_chemical_formula_sum "Si O2"
_cell_formula_units_Z 48
_cell_length_a 10.303565
_cell_length_b 27.160384
_cell_length_c 7.509438
_cell_angle_alpha 90.000000
_cell_angle_beta 90.000000
_cell_angle_gamma 90.000000
_cell_volume 2101.507078
_symmetry_space_group_name_H-M "P N N M"
_symmetry_group_IT_number 58
_symmetry_cell_setting 'orthorhombic'
loop_
_space_group_symop_operation_xyz
x,y,z
-x,-y,z
1/2+x,1/2-y,1/2-z
1/2-x,1/2+y,1/2-z
-x,-y,-z
x,y,-z
1/2-x,1/2+y,1/2+z
1/2+x,1/2-y,1/2+z
loop_
_atom_site_type_symbol
_atom_site_label
_atom_site_fract_x
_atom_site_fract_y
_atom_site_fract_z
Si Si1 0.880068 0.709060 0.202723
Si Si2 0.321605 0.369645 0.793344
Si Si3 0.639897 0.519535 0.217914
Si Si4 0.608020 0.961173 0.715311
Si Si5 0.124775 0.649661 0.295048
Si Si6 0.906508 0.820144 0.216472
O O1 0.779404 0.669978 0.286065
O O2 0.894092 0.763624 0.279299
O O3 0.020563 0.683896 0.200715
O O4 0.833384 0.717262 0.000000
O O5 0.328037 0.425051 0.719524
O O6 0.465001 0.346617 0.785457
O O7 0.281025 0.375788 0.000000
O O8 0.500000 0.500000 0.276301
O O9 0.752415 0.481909 0.270923
O O10 0.637646 0.520979 0.000000
O O11 0.605446 0.958863 0.500000
O O12 0.582262 0.906695 0.782526
O O13 0.500000 0.000000 0.772357
O O14 0.125393 0.665922 0.500000
O O15 0.272453 0.653765 0.229350
O O16 0.917149 0.821137 0.000000
#
# Coordination Sequence:
#
# PCOD9443408 Si02
#       6
#     8   8   8   8   8   8
#     4  10  21  38  58  80 109 147 191 233 275 330
#     4  10  20  36  59  83 108 143 187 233 279 328
#     4   9  17  30  51  79 106 134 175 224 269 318
#     4  10  20  36  58  81 108 145 187 228 271 323
#     4  11  23  38  57  84 117 149 184 229 281 333
#     4  10  22  38  55  80 114 148 184 230 281 334
#
# _framework density 22.84075
#
# number of rings (size 3 to 8) (size 9 to 14) (size 15 to 20)
#    0.000    2.000    0.000    3.500    0.000    8.333 
#    0.000    0.833    0.000    3.000    0.000    0.000 
#    0.000    0.000    0.000    0.000    0.000    0.000 
#
# Total GULP energy -268378.086948 kJ/mol
# GULP energy per Si atom -5591.210145 kJ/mol
# Density = 2.278876 g / cm^3
# Si number density = 22.840750 Si / 1000 Ang^3
#
#
#
# Elastic Constant Matrix: (Units=GPa)
#
#
# Indices 1 2 3 4 5 6 
#
# 1 50.0180 -31.4879 -8.9486 0.0000 0.0000 0.0000
# 2 -31.4879 82.9808 -7.1586 0.0000 0.0000 0.0000
# 3 -8.9486 -7.1586 60.2867 0.0000 0.0000 0.0000
# 4 0.0000 0.0000 0.0000 11.5973 0.0000 0.0000
# 5 0.0000 0.0000 0.0000 0.0000 13.7143 0.0000
# 6 0.0000 0.0000 0.0000 0.0000 0.0000 46.2134
#
#
#
# Elastic Compliance Matrix: (Units=1/GPa)
#
#
# Indices 1 2 3 4 5 6 
#
# 1 0.027941 0.011074 0.005462 0.000000 0.000000 0.000000
# 2 0.011074 0.016565 0.003611 0.000000 0.000000 0.000000
# 3 0.005462 0.003611 0.017827 0.000000 0.000000 0.000000
# 4 0.000000 0.000000 0.000000 0.086227 0.000000 0.000000
# 5 0.000000 0.000000 0.000000 0.000000 0.072916 0.000000
# 6 0.000000 0.000000 0.000000 0.000000 0.000000 0.021639
#
#
# Mechanical properties :
#
#
# Convention : Reuss Voigt Hill
#
# Bulk Modulus (GPa) = 9.74403 10.89947 10.32175
# Shear Modulus (GPa) = 21.09439 30.36372 25.72905
#
# Velocity S-wave (km/s) = 3.04228 3.65000 3.35991
# Velocity P-wave (km/s) = 4.07627 4.74823 4.42502
#
# Compressibility (1/GPa) = 0.10262695
#
# Stress axis : x y z
#
# Youngs Moduli (GPa) = 35.78912 60.36977 56.09482
#
# Poissons Ratio (x) = -0.66853 -0.30641
# Poissons Ratio (y) = -0.39633 -0.20254
# Poissons Ratio (z) = -0.19549 -0.21798
#
# Static dielectric constant tensor:
#      x y z
#    x 1.817170 0.000000 0.000000 
#    y 0.000000 1.807190 0.000000 
#    z 0.000000 0.000000 1.890860 
# 
# From -- ./inp_files/2936.got.cif
#   From: 2010.05.17/outbox.cif.g08.bks.cpg/sg58_2_cif.got.tgz:2936.got - 2010.06.03 14:20:14.
