data_PCOD9443728
_publ_section_title
;
Structure prediction by ZEFSAII (Michael W. Deem and Ramdas Pophale) SiO2 
 PCOD9443728
Probable space group: P N N M
;
_chemical_formula_sum "Si O2"
_cell_formula_units_Z 40
_cell_length_a 8.179496
_cell_length_b 16.058911
_cell_length_c 13.013554
_cell_angle_alpha 90.000000
_cell_angle_beta 90.000000
_cell_angle_gamma 90.000000
_cell_volume 1709.379747
_symmetry_space_group_name_H-M "P N N M"
_symmetry_group_IT_number 58
_symmetry_cell_setting 'orthorhombic'
loop_
_space_group_symop_operation_xyz
x,y,z
-x,-y,z
1/2+x,1/2-y,1/2-z
1/2-x,1/2+y,1/2-z
-x,-y,-z
x,y,-z
1/2-x,1/2+y,1/2+z
1/2+x,1/2-y,1/2+z
loop_
_atom_site_type_symbol
_atom_site_label
_atom_site_fract_x
_atom_site_fract_y
_atom_site_fract_z
Si Si1 0.426416 0.415142 0.791643
Si Si2 0.469808 0.236161 0.879723
Si Si3 0.811620 0.292624 0.123540
Si Si4 0.388331 0.677937 0.623757
Si Si5 0.309367 0.013600 0.617155
O O1 0.500000 0.500000 0.839249
O O2 0.434809 0.333986 0.861492
O O3 0.520169 0.394995 0.686445
O O4 0.243068 0.448148 0.794695
O O5 0.660041 0.232903 0.843644
O O6 0.301326 0.191744 0.843187
O O7 0.474939 0.215998 0.000000
O O8 0.781964 0.389723 0.146627
O O9 0.988933 0.255212 0.150539
O O10 0.808890 0.290783 0.000000
O O11 0.391438 0.667122 0.500000
O O12 0.245846 0.997619 0.500000
O O13 0.500000 0.000000 0.608004
#
# Coordination Sequence:
#
# PCOD9443728 Si02
#       5
#     8   8   8   8   8
#     4  12  24  37  62  97 128 165 212 265 326 388
#     4  10  21  39  64  91 123 161 208 264 322 376
#     4   9  18  37  64  88 116 161 212 259 311 374
#     4  10  24  44  63  87 125 174 218 257 308 378
#     4  10  20  37  62  97 138 168 201 264 341 399
#
# _framework density 23.400299
#
# number of rings (size 3 to 8) (size 9 to 14) (size 15 to 20)
#    0.000    1.800    2.000    1.800    2.800    4.400 
#    3.600    0.000    0.000    0.600    0.000    0.000 
#    0.000    0.000    0.000    0.000    0.000    0.000 
#
# Total GULP energy -222842.175300 kJ/mol
# GULP energy per Si atom -5571.054383 kJ/mol
# Density = 2.334704 g / cm^3
# Si number density = 23.400299 Si / 1000 Ang^3
#
#
#
# Elastic Constant Matrix: (Units=GPa)
#
#
# Indices 1 2 3 4 5 6 
#
# 1 107.5704 14.8061 44.5079 0.0000 0.0000 0.0000
# 2 14.8061 62.6383 18.9700 0.0000 0.0000 0.0000
# 3 44.5079 18.9700 81.1857 0.0000 0.0000 0.0000
# 4 0.0000 0.0000 0.0000 -98.5249 0.0000 0.0000
# 5 0.0000 0.0000 0.0000 0.0000 39.6801 0.0000
# 6 0.0000 0.0000 0.0000 0.0000 0.0000 44.7808
#
#
#
# Elastic Compliance Matrix: (Units=1/GPa)
#
#
# Indices 1 2 3 4 5 6 
#
# 1 0.012072 -0.000914 -0.006405 0.000000 0.000000 0.000000
# 2 -0.000914 0.017250 -0.003530 0.000000 0.000000 0.000000
# 3 -0.006405 -0.003530 0.016653 0.000000 0.000000 0.000000
# 4 0.000000 0.000000 0.000000 -0.010150 0.000000 0.000000
# 5 0.000000 0.000000 0.000000 0.000000 0.025202 0.000000
# 6 0.000000 0.000000 0.000000 0.000000 0.000000 0.022331
#
#
# Mechanical properties :
#
#
# Convention : Reuss Voigt Hill
#
# Bulk Modulus (GPa) = 41.18816 45.32914 43.25865
# Shear Modulus (GPa) = 44.19040 8.72790 26.45915
#
# Velocity S-wave (km/s) = 4.35035 1.93337 3.36626
# Velocity P-wave (km/s) = 6.54781 4.93934 5.79961
#
# Compressibility (1/GPa) = 0.02427882
#
# Stress axis : x y z
#
# Youngs Moduli (GPa) = 82.83656 57.97231 60.04808
#
# Poissons Ratio (x) = 0.05298 0.38458
# Poissons Ratio (y) = 0.07570 0.21194
# Poissons Ratio (z) = 0.53053 0.20462
#
# Static dielectric constant tensor:
#      x y z
#    x 2.577370 0.000000 0.000000 
#    y 0.000000 1.873360 0.000000 
#    z 0.000000 0.000000 1.949290 
# 
# From -- ./inp_files/19505.got.cif
#   From: 2010.05.17/outbox.cif.g08.bks.cpg/sg58_10_cif.got.tgz:19505.got - 2010.06.03 14:20:14.
