data_PCOD9443606
_publ_section_title
;
Structure prediction by ZEFSAII (Michael W. Deem and Ramdas Pophale) SiO2 
 PCOD9443606
Probable space group: P N N M
;
_chemical_formula_sum "Si O2"
_cell_formula_units_Z 64
_cell_length_a 25.454752
_cell_length_b 14.571041
_cell_length_c 9.156136
_cell_angle_alpha 90.000000
_cell_angle_beta 90.000000
_cell_angle_gamma 90.000000
_cell_volume 3396.031307
_symmetry_space_group_name_H-M "P N N M"
_symmetry_group_IT_number 58
_symmetry_cell_setting 'orthorhombic'
loop_
_space_group_symop_operation_xyz
x,y,z
-x,-y,z
1/2+x,1/2-y,1/2-z
1/2-x,1/2+y,1/2-z
-x,-y,-z
x,y,-z
1/2-x,1/2+y,1/2+z
1/2+x,1/2-y,1/2+z
loop_
_atom_site_type_symbol
_atom_site_label
_atom_site_fract_x
_atom_site_fract_y
_atom_site_fract_z
Si Si1 0.220971 0.541289 0.169148
Si Si2 0.896999 0.457570 0.174346
Si Si3 0.665693 0.251064 0.675200
Si Si4 0.048464 0.713152 0.674255
Si Si5 0.672910 0.462755 0.674842
Si Si6 0.271636 0.262880 0.669355
Si Si7 0.618514 0.642306 0.324074
Si Si8 0.057320 0.347615 0.825869
O O1 0.162396 0.513282 0.214646
O O2 0.270704 0.508546 0.260624
O O3 0.221397 0.652614 0.178764
O O4 0.228192 0.515082 0.000000
O O5 0.915790 0.369818 0.263083
O O6 0.935292 0.543559 0.196356
O O7 0.896025 0.435408 0.000000
O O8 0.670072 0.247184 0.500000
O O9 0.661676 0.358236 0.720453
O O10 0.719537 0.212507 0.741659
O O11 0.612600 0.198937 0.715433
O O12 0.049370 0.714279 0.500000
O O13 0.072392 0.806173 0.740932
O O14 0.990615 0.693142 0.736090
O O15 0.677309 0.463959 0.500000
O O16 0.628293 0.536028 0.714052
O O17 0.263314 0.287014 0.500000
O O18 0.326269 0.308357 0.715339
O O19 0.611483 0.651386 0.500000
O O20 0.048659 0.332928 0.000000
#
# Coordination Sequence:
#
# PCOD9443606 Si02
#       8
#     8   8   8   8   8   8   8   8
#     4   9  17  31  52  79 113 147 181 220 267 331
#     4  10  20  37  58  81 112 153 191 220 271 349
#     4   9  19  36  56  83 114 143 186 234 277 324
#     4  12  25  39  57  83 112 142 187 247 291 325
#     4   9  19  34  55  83 116 149 184 231 277 323
#     4   9  17  31  52  77 108 147 182 220 274 329
#     4  10  20  37  58  80 112 154 191 223 275 344
#     4  10  22  39  60  80 108 154 193 228 278 343
#
# _framework density 18.845527000000001
#
# number of rings (size 3 to 8) (size 9 to 14) (size 15 to 20)
#    0.000    2.250    1.250    1.500    1.750    4.000 
#    0.000    0.625    0.000    3.750    0.000    0.000 
#    0.000    0.000    0.000    0.000    0.000    0.000 
#
# Total GULP energy -357328.256799 kJ/mol
# GULP energy per Si atom -5583.254012 kJ/mol
# Density = 1.880263 g / cm^3
# Si number density = 18.845527 Si / 1000 Ang^3
#
#
#
# Elastic Constant Matrix: (Units=GPa)
#
#
# Indices 1 2 3 4 5 6 
#
# 1 65.2820 8.1679 21.2822 0.0000 0.0000 0.0000
# 2 8.1679 36.8971 13.4404 0.0000 0.0000 0.0000
# 3 21.2822 13.4404 26.8340 0.0000 0.0000 0.0000
# 4 0.0000 0.0000 0.0000 13.6650 0.0000 0.0000
# 5 0.0000 0.0000 0.0000 0.0000 33.0544 0.0000
# 6 0.0000 0.0000 0.0000 0.0000 0.0000 29.1532
#
#
#
# Elastic Compliance Matrix: (Units=1/GPa)
#
#
# Indices 1 2 3 4 5 6 
#
# 1 0.020748 0.001714 -0.017314 0.000000 0.000000 0.000000
# 2 0.001714 0.033292 -0.018035 0.000000 0.000000 0.000000
# 3 -0.017314 -0.018035 0.060031 0.000000 0.000000 0.000000
# 4 0.000000 0.000000 0.000000 0.073180 0.000000 0.000000
# 5 0.000000 0.000000 0.000000 0.000000 0.030253 0.000000
# 6 0.000000 0.000000 0.000000 0.000000 0.000000 0.034302
#
#
# Mechanical properties :
#
#
# Convention : Reuss Voigt Hill
#
# Bulk Modulus (GPa) = 21.36644 23.86600 22.61622
# Shear Modulus (GPa) = 14.93984 20.91603 17.92794
#
# Velocity S-wave (km/s) = 2.81864 3.33508 3.08768
# Velocity P-wave (km/s) = 4.68564 5.24613 4.97379
#
# Compressibility (1/GPa) = 0.04680237
#
# Stress axis : x y z
#
# Youngs Moduli (GPa) = 48.19720 30.03687 16.65806
#
# Poissons Ratio (x) = -0.05148 0.28842
# Poissons Ratio (y) = -0.08260 0.30042
# Poissons Ratio (z) = 0.83448 0.54170
#
# Static dielectric constant tensor:
#      x y z
#    x 1.638310 0.000000 0.000000 
#    y 0.000000 1.686970 0.000000 
#    z 0.000000 0.000000 1.628090 
# 
# From -- ./inp_files/10012.got.cif
#   From: 2010.05.17/outbox.cif.g08.bks.cpg/sg58_6_cif.got.tgz:10012.got - 2010.06.03 14:20:14.
