data_PCOD9443783
_publ_section_title
;
Structure prediction by ZEFSAII (Michael W. Deem and Ramdas Pophale) SiO2 
 PCOD9443783
Probable space group: P N N M
;
_chemical_formula_sum "Si O2"
_cell_formula_units_Z 48
_cell_length_a 28.076461
_cell_length_b 10.383550
_cell_length_c 8.434455
_cell_angle_alpha 90.000000
_cell_angle_beta 90.000000
_cell_angle_gamma 90.000000
_cell_volume 2458.924809
_symmetry_space_group_name_H-M "P N N M"
_symmetry_group_IT_number 58
_symmetry_cell_setting 'orthorhombic'
loop_
_space_group_symop_operation_xyz
x,y,z
-x,-y,z
1/2+x,1/2-y,1/2-z
1/2-x,1/2+y,1/2-z
-x,-y,-z
x,y,-z
1/2-x,1/2+y,1/2+z
1/2+x,1/2-y,1/2+z
loop_
_atom_site_type_symbol
_atom_site_label
_atom_site_fract_x
_atom_site_fract_y
_atom_site_fract_z
Si Si1 0.289770 0.251487 0.309870
Si Si2 0.679747 0.251331 0.193271
Si Si3 0.537373 0.607589 0.689745
Si Si4 0.641198 0.526463 0.809731
Si Si5 0.856998 0.474062 0.692055
Si Si6 0.037200 0.608510 0.691623
O O1 0.290383 0.256715 0.500000
O O2 0.234916 0.249972 0.256272
O O3 0.318280 0.374153 0.244630
O O4 0.317435 0.124214 0.254251
O O5 0.654158 0.382335 0.245468
O O6 0.654229 0.119682 0.243443
O O7 0.679416 0.252524 0.000000
O O8 0.500000 0.500000 0.746708
O O9 0.536931 0.608631 0.500000
O O10 0.590312 0.572513 0.746691
O O11 0.524525 0.749435 0.750367
O O12 0.639505 0.527742 0.000000
O O13 0.855928 0.470481 0.500000
O O14 0.909255 0.427423 0.743655
O O15 0.037034 0.609600 0.500000
O O16 0.000000 0.500000 0.744875
#
# Coordination Sequence:
#
# PCOD9443783 Si02
#       6
#     8   8   8   8   8   8
#     4  11  21  37  59  86 122 160 196 241 296 351
#     4   9  21  37  58  88 120 157 201 245 289 343
#     4  11  25  43  62  88 122 157 194 241 301 360
#     4  11  22  39  63  89 118 156 202 248 292 347
#     4  10  20  38  60  85 118 154 195 243 290 346
#     4  10  22  39  64  93 117 150 197 243 293 351
#
# _framework density 19.520727999999998
#
# number of rings (size 3 to 8) (size 9 to 14) (size 15 to 20)
#    0.000    1.667    1.667    2.500    2.333    1.667 
#    0.000    5.000    0.000    0.000    0.000    0.000 
#    0.000    0.000    0.000    0.000    0.000    0.000 
#
# Total GULP energy -268303.890012 kJ/mol
# GULP energy per Si atom -5589.664375 kJ/mol
# Density = 1.947630 g / cm^3
# Si number density = 19.520728 Si / 1000 Ang^3
#
#
#
# Elastic Constant Matrix: (Units=GPa)
#
#
# Indices 1 2 3 4 5 6 
#
# 1 91.5134 66.3603 19.4648 0.0000 0.0000 0.0000
# 2 66.3603 199.6272 19.8700 0.0000 0.0000 0.0000
# 3 19.4648 19.8700 14.2054 0.0000 0.0000 0.0000
# 4 0.0000 0.0000 0.0000 -18.1838 0.0000 0.0000
# 5 0.0000 0.0000 0.0000 0.0000 10.8249 0.0000
# 6 0.0000 0.0000 0.0000 0.0000 0.0000 42.3310
#
#
#
# Elastic Compliance Matrix: (Units=1/GPa)
#
#
# Indices 1 2 3 4 5 6 
#
# 1 0.017880 -0.004072 -0.018804 0.000000 0.000000 0.000000
# 2 -0.004072 0.006747 -0.003858 0.000000 0.000000 0.000000
# 3 -0.018804 -0.003858 0.101557 0.000000 0.000000 0.000000
# 4 0.000000 0.000000 0.000000 -0.054994 0.000000 0.000000
# 5 0.000000 0.000000 0.000000 0.000000 0.092380 0.000000
# 6 0.000000 0.000000 0.000000 0.000000 0.000000 0.023623
#
#
# Mechanical properties :
#
#
# Convention : Reuss Voigt Hill
#
# Bulk Modulus (GPa) = 13.75193 57.41515 35.58354
# Shear Modulus (GPa) = 18.87511 20.30447 19.58979
#
# Velocity S-wave (km/s) = 3.11292 3.22863 3.17130
# Velocity P-wave (km/s) = 4.46995 6.58597 5.62830
#
# Compressibility (1/GPa) = 0.07271705
#
# Stress axis : x y z
#
# Youngs Moduli (GPa) = 55.92957 148.21567 9.84665
#
# Poissons Ratio (x) = 0.60352 0.18515
# Poissons Ratio (y) = 0.22774 0.03799
# Poissons Ratio (z) = 1.05168 0.57179
#
# Static dielectric constant tensor:
#      x y z
#    x 1.654900 0.000000 0.000000 
#    y 0.000000 1.662260 0.000000 
#    z 0.000000 0.000000 1.675380 
# 
# From -- ./inp_files/10757.got.cif
#   From: 2010.05.17/outbox.cif.g08.bks.cpg/sg58_6_cif.got.tgz:10757.got - 2010.06.03 14:20:14.
