data_PCOD9443755
_publ_section_title
;
Structure prediction by ZEFSAII (Michael W. Deem and Ramdas Pophale) SiO2 
 PCOD9443755
Probable space group: P N N M
;
_chemical_formula_sum "Si O2"
_cell_formula_units_Z 40
_cell_length_a 9.753674
_cell_length_b 9.016410
_cell_length_c 16.746496
_cell_angle_alpha 90.000000
_cell_angle_beta 90.000000
_cell_angle_gamma 90.000000
_cell_volume 1472.739171
_symmetry_space_group_name_H-M "P N N M"
_symmetry_group_IT_number 58
_symmetry_cell_setting 'orthorhombic'
loop_
_space_group_symop_operation_xyz
x,y,z
-x,-y,z
1/2+x,1/2-y,1/2-z
1/2-x,1/2+y,1/2-z
-x,-y,-z
x,y,-z
1/2-x,1/2+y,1/2+z
1/2+x,1/2-y,1/2+z
loop_
_atom_site_type_symbol
_atom_site_label
_atom_site_fract_x
_atom_site_fract_y
_atom_site_fract_z
Si Si1 0.753024 0.770920 0.588256
Si Si2 0.445703 0.293618 0.877071
Si Si3 0.650571 0.989087 0.813496
Si Si4 0.429032 0.643222 0.705889
Si Si5 0.654543 0.089567 0.409418
O O1 0.712786 0.713451 0.500000
O O2 0.780541 0.638613 0.652201
O O3 0.653693 0.911329 0.606122
O O4 0.911075 0.823037 0.582531
O O5 0.395026 0.123367 0.883676
O O6 0.478783 0.324070 0.783279
O O7 0.316949 0.382311 0.905461
O O8 0.775695 0.909243 0.768727
O O9 0.500000 0.000000 0.772195
O O10 0.500000 0.500000 0.664769
O O11 0.403287 0.785703 0.650788
O O12 0.608526 0.116966 0.500000
#
# Coordination Sequence:
#
# PCOD9443755 Si02
#       5
#     8   8   8   8   8
#     4  10  20  37  64  99 139 185 244 306 365 440
#     4  10  21  38  64  99 140 184 243 305 366 436
#     4   9  22  40  64  98 137 185 238 297 367 442
#     4  11  24  43  69 104 148 196 250 311 374 440
#     4  10  22  42  69 102 145 195 245 305 375 446
#
# _framework density 27.160274000000001
#
# number of rings (size 3 to 8) (size 9 to 14) (size 15 to 20)
#    0.000    2.000    0.000    2.400    0.000   18.400 
#    0.000    5.000    0.000    2.400    0.000    0.000 
#    0.000    2.400    0.000    0.400    0.000    0.200 
#
# Total GULP energy -223406.187904 kJ/mol
# GULP energy per Si atom -5585.154698 kJ/mol
# Density = 2.709846 g / cm^3
# Si number density = 27.160274 Si / 1000 Ang^3
#
#
#
# Elastic Constant Matrix: (Units=GPa)
#
#
# Indices 1 2 3 4 5 6 
#
# 1 144.9319 43.7570 48.6700 0.0000 0.0000 0.0000
# 2 43.7570 194.4031 72.7133 0.0000 0.0000 0.0000
# 3 48.6700 72.7133 153.3193 0.0000 0.0000 0.0000
# 4 0.0000 0.0000 0.0000 10.9182 0.0000 0.0000
# 5 0.0000 0.0000 0.0000 0.0000 20.0767 0.0000
# 6 0.0000 0.0000 0.0000 0.0000 0.0000 75.1475
#
#
#
# Elastic Compliance Matrix: (Units=1/GPa)
#
#
# Indices 1 2 3 4 5 6 
#
# 1 0.007886 -0.001020 -0.002020 0.000000 0.000000 0.000000
# 2 -0.001020 0.006385 -0.002705 0.000000 0.000000 0.000000
# 3 -0.002020 -0.002705 0.008446 0.000000 0.000000 0.000000
# 4 0.000000 0.000000 0.000000 0.091590 0.000000 0.000000
# 5 0.000000 0.000000 0.000000 0.000000 0.049809 0.000000
# 6 0.000000 0.000000 0.000000 0.000000 0.000000 0.013307
#
#
# Mechanical properties :
#
#
# Convention : Reuss Voigt Hill
#
# Bulk Modulus (GPa) = 89.05215 91.43722 90.24468
# Shear Modulus (GPa) = 25.95325 43.06273 34.50799
#
# Velocity S-wave (km/s) = 3.09457 3.98616 3.56832
# Velocity P-wave (km/s) = 6.75480 7.41113 7.09056
#
# Compressibility (1/GPa) = 0.01122938
#
# Stress axis : x y z
#
# Youngs Moduli (GPa) = 126.80911 156.61680 118.39706
#
# Poissons Ratio (x) = 0.15967 0.23914
# Poissons Ratio (y) = 0.12928 0.32021
# Poissons Ratio (z) = 0.25613 0.42357
#
# Static dielectric constant tensor:
#      x y z
#    x 2.132280 0.000000 0.000000 
#    y 0.000000 2.263450 0.000000 
#    z 0.000000 0.000000 2.070130 
# 
# From -- ./inp_files/24953.got.cif
#   From: 2010.05.17/outbox.cif.g08.bks.cpg/sg58_13_cif.got.tgz:24953.got - 2010.06.03 14:20:14.
