data_PCOD9443162
_publ_section_title
;
Structure prediction by ZEFSAII (Michael W. Deem and Ramdas Pophale) SiO2 
 PCOD9443162
Probable space group: P N N M
;
_chemical_formula_sum "Si O2"
_cell_formula_units_Z 64
_cell_length_a 34.225362
_cell_length_b 11.956447
_cell_length_c 8.247011
_cell_angle_alpha 90.000000
_cell_angle_beta 90.000000
_cell_angle_gamma 90.000000
_cell_volume 3374.790106
_symmetry_space_group_name_H-M "P N N M"
_symmetry_group_IT_number 58
_symmetry_cell_setting 'orthorhombic'
loop_
_space_group_symop_operation_xyz
x,y,z
-x,-y,z
1/2+x,1/2-y,1/2-z
1/2-x,1/2+y,1/2-z
-x,-y,-z
x,y,-z
1/2-x,1/2+y,1/2+z
1/2+x,1/2-y,1/2+z
loop_
_atom_site_type_symbol
_atom_site_label
_atom_site_fract_x
_atom_site_fract_y
_atom_site_fract_z
Si Si1 0.298496 0.447274 0.691240
Si Si2 0.361585 0.033488 0.694993
Si Si3 0.970380 0.841553 0.302330
Si Si4 0.171938 0.182140 0.308953
Si Si5 0.095502 0.320369 0.695819
Si Si6 0.286539 0.893834 0.308137
Si Si7 0.867114 0.213307 0.804424
Si Si8 0.944704 0.088116 0.304139
O O1 0.292477 0.430410 0.500000
O O2 0.317494 0.568152 0.720704
O O3 0.256598 0.437645 0.774885
O O4 0.328930 0.353985 0.752854
O O5 0.360864 0.038091 0.500000
O O6 0.367753 0.159056 0.756273
O O7 0.394402 0.944215 0.745281
O O8 0.320019 0.980812 0.748275
O O9 0.970610 0.840567 0.500000
O O10 0.944655 0.736601 0.248158
O O11 0.015461 0.849347 0.250791
O O12 0.949685 0.958351 0.254432
O O13 0.168565 0.158478 0.500000
O O14 0.131481 0.239785 0.253124
O O15 0.204715 0.276409 0.278823
O O16 0.095733 0.322247 0.500000
O O17 0.291925 0.876368 0.500000
O O18 0.905888 0.146329 0.757532
O O19 0.865164 0.216002 0.000000
O O20 0.943876 0.089155 0.500000
#
# Coordination Sequence:
#
# PCOD9443162 Si02
#       8
#     8   8   8   8   8   8   8   8
#     4  11  23  36  54  79 106 139 178 222 271 323
#     4   9  20  38  55  72 103 144 177 214 268 319
#     4   8  15  30  54  82 111 137 170 220 273 311
#     4  10  20  35  55  79 108 136 171 221 269 319
#     4   9  17  32  55  80 103 135 177 221 264 312
#     4  10  21  37  57  79 103 137 180 223 270 323
#     4  10  22  38  53  74 109 145 174 217 271 319
#     4   9  17  32  55  81 108 141 177 217 263 321
#
# _framework density 18.964141999999999
#
# number of rings (size 3 to 8) (size 9 to 14) (size 15 to 20)
#    0.000    2.500    0.000    2.625    1.750    3.500 
#    0.000    3.125    0.000    3.750    0.000    0.000 
#    0.000    0.000    0.000    0.000    0.000    0.000 
#
# Total GULP energy -357134.746518 kJ/mol
# GULP energy per Si atom -5580.230414 kJ/mol
# Density = 1.892098 g / cm^3
# Si number density = 18.964142 Si / 1000 Ang^3
#
#
#
# Elastic Constant Matrix: (Units=GPa)
#
#
# Indices 1 2 3 4 5 6 
#
# 1 72.6887 30.1683 4.6721 0.0000 0.0000 0.0000
# 2 30.1683 74.0084 2.6013 0.0000 0.0000 0.0000
# 3 4.6721 2.6013 8.5677 0.0000 0.0000 0.0000
# 4 0.0000 0.0000 0.0000 25.7464 0.0000 0.0000
# 5 0.0000 0.0000 0.0000 0.0000 22.6073 0.0000
# 6 0.0000 0.0000 0.0000 0.0000 0.0000 15.2220
#
#
#
# Elastic Compliance Matrix: (Units=1/GPa)
#
#
# Indices 1 2 3 4 5 6 
#
# 1 0.016992 -0.006672 -0.007240 0.000000 0.000000 0.000000
# 2 -0.006672 0.016277 -0.001304 0.000000 0.000000 0.000000
# 3 -0.007240 -0.001304 0.121062 0.000000 0.000000 0.000000
# 4 0.000000 0.000000 0.000000 0.038840 0.000000 0.000000
# 5 0.000000 0.000000 0.000000 0.000000 0.044233 0.000000
# 6 0.000000 0.000000 0.000000 0.000000 0.000000 0.065694
#
#
# Mechanical properties :
#
#
# Convention : Reuss Voigt Hill
#
# Bulk Modulus (GPa) = 8.07107 25.57202 16.82155
# Shear Modulus (GPa) = 13.33935 20.57003 16.95469
#
# Velocity S-wave (km/s) = 2.65504 3.29702 2.99329
# Velocity P-wave (km/s) = 3.69651 5.29221 4.56463
#
# Compressibility (1/GPa) = 0.12389934
#
# Stress axis : x y z
#
# Youngs Moduli (GPa) = 58.85210 61.43450 8.26024
#
# Poissons Ratio (x) = 0.40989 0.05981
# Poissons Ratio (y) = 0.39266 0.01077
# Poissons Ratio (z) = 0.42610 0.08010
#
# Static dielectric constant tensor:
#      x y z
#    x 1.650520 0.000000 0.000000 
#    y 0.000000 1.645820 0.000000 
#    z 0.000000 0.000000 1.663830 
# 
# From -- ./inp_files/11083.got.cif
#   From: 2010.05.17/outbox.cif.g08.bks.cpg/sg58_6_cif.got.tgz:11083.got - 2010.06.03 14:20:14.
