data_PCOD9443259
_publ_section_title
;
Structure prediction by ZEFSAII (Michael W. Deem and Ramdas Pophale) SiO2 
 PCOD9443259
Probable space group: P N N M
;
_chemical_formula_sum "Si O2"
_cell_formula_units_Z 40
_cell_length_a 18.785313
_cell_length_b 7.534147
_cell_length_c 11.706277
_cell_angle_alpha 90.000000
_cell_angle_beta 90.000000
_cell_angle_gamma 90.000000
_cell_volume 1656.804714
_symmetry_space_group_name_H-M "P N N M"
_symmetry_group_IT_number 58
_symmetry_cell_setting 'orthorhombic'
loop_
_space_group_symop_operation_xyz
x,y,z
-x,-y,z
1/2+x,1/2-y,1/2-z
1/2-x,1/2+y,1/2-z
-x,-y,-z
x,y,-z
1/2-x,1/2+y,1/2+z
1/2+x,1/2-y,1/2+z
loop_
_atom_site_type_symbol
_atom_site_label
_atom_site_fract_x
_atom_site_fract_y
_atom_site_fract_z
Si Si1 0.384061 0.279385 0.873107
Si Si2 0.423903 0.904536 0.874489
Si Si3 0.576714 0.593219 0.376198
Si Si4 0.249529 0.541219 0.122180
Si Si5 0.164650 0.224466 0.197226
O O1 0.418195 0.312492 0.747895
O O2 0.317328 0.409293 0.878370
O O3 0.368924 0.069046 0.872863
O O4 0.420958 0.306168 0.000000
O O5 0.401072 0.765221 0.781554
O O6 0.500000 0.000000 0.857774
O O7 0.422276 0.822701 0.000000
O O8 0.500000 0.500000 0.378119
O O9 0.582845 0.691193 0.500000
O O10 0.638750 0.443582 0.373568
O O11 0.183739 0.407710 0.135934
O O12 0.267637 0.674171 0.223842
O O13 0.245847 0.634973 0.000000
#
# Coordination Sequence:
#
# PCOD9443259 Si02
#       5
#     8   8   8   8   8
#     4   9  19  36  57  82 112 148 192 239 287 341
#     4  10  20  35  57  85 114 146 190 242 290 338
#     4  10  21  37  57  84 118 155 195 238 286 340
#     4  10  21  37  57  83 113 147 190 236 284 339
#     4  11  21  37  59  83 115 151 188 233 286 344
#
# _framework density 24.142855000000001
#
# number of rings (size 3 to 8) (size 9 to 14) (size 15 to 20)
#    0.000    2.000    0.000    3.600    0.000    1.200 
#    0.000   15.000    0.000    5.400    0.000    0.000 
#    0.000    0.000    0.000    0.000    0.000    0.000 
#
# Total GULP energy -223132.475686 kJ/mol
# GULP energy per Si atom -5578.311892 kJ/mol
# Density = 2.408791 g / cm^3
# Si number density = 24.142855 Si / 1000 Ang^3
#
#
#
# Elastic Constant Matrix: (Units=GPa)
#
#
# Indices 1 2 3 4 5 6 
#
# 1 47.2650 -5.9093 25.8377 0.0000 0.0000 0.0000
# 2 -5.9093 35.3312 28.1376 0.0000 0.0000 0.0000
# 3 25.8377 28.1376 209.8617 0.0000 0.0000 0.0000
# 4 0.0000 0.0000 0.0000 6.9180 0.0000 0.0000
# 5 0.0000 0.0000 0.0000 0.0000 115.9551 0.0000
# 6 0.0000 0.0000 0.0000 0.0000 0.0000 41.3596
#
#
#
# Elastic Compliance Matrix: (Units=1/GPa)
#
#
# Indices 1 2 3 4 5 6 
#
# 1 0.024213 0.007192 -0.003945 0.000000 0.000000 0.000000
# 2 0.007192 0.033823 -0.005420 0.000000 0.000000 0.000000
# 3 -0.003945 -0.005420 0.005978 0.000000 0.000000 0.000000
# 4 0.000000 0.000000 0.000000 0.144550 0.000000 0.000000
# 5 0.000000 0.000000 0.000000 0.000000 0.008624 0.000000
# 6 0.000000 0.000000 0.000000 0.000000 0.000000 0.024178
#
#
# Mechanical properties :
#
#
# Convention : Reuss Voigt Hill
#
# Bulk Modulus (GPa) = 16.75989 43.17663 29.96826
# Shear Modulus (GPa) = 18.82508 49.13933 33.98221
#
# Velocity S-wave (km/s) = 2.79541 4.51639 3.75580
# Velocity P-wave (km/s) = 4.16847 6.71712 5.58998
#
# Compressibility (1/GPa) = 0.05966625
#
# Stress axis : x y z
#
# Youngs Moduli (GPa) = 41.29977 29.56547 167.29327
#
# Poissons Ratio (x) = -0.21263 0.66003
# Poissons Ratio (y) = -0.29702 0.90679
# Poissons Ratio (z) = 0.16294 0.16026
#
# Static dielectric constant tensor:
#      x y z
#    x 1.951990 0.000000 0.000000 
#    y 0.000000 1.878720 0.000000 
#    z 0.000000 0.000000 1.984170 
# 
# From -- ./inp_files/9597.got.cif
#   From: 2010.05.17/outbox.cif.g08.bks.cpg/sg58_5_cif.got.tgz:9597.got - 2010.06.03 14:20:14.
