data_PCOD9443462
_publ_section_title
;
Structure prediction by ZEFSAII (Michael W. Deem and Ramdas Pophale) SiO2 
 PCOD9443462
Probable space group: P N N M
;
_chemical_formula_sum "Si O2"
_cell_formula_units_Z 64
_cell_length_a 24.435903
_cell_length_b 15.416515
_cell_length_c 7.540272
_cell_angle_alpha 90.000000
_cell_angle_beta 90.000000
_cell_angle_gamma 90.000000
_cell_volume 2840.544614
_symmetry_space_group_name_H-M "P N N M"
_symmetry_group_IT_number 58
_symmetry_cell_setting 'orthorhombic'
loop_
_space_group_symop_operation_xyz
x,y,z
-x,-y,z
1/2+x,1/2-y,1/2-z
1/2-x,1/2+y,1/2-z
-x,-y,-z
x,y,-z
1/2-x,1/2+y,1/2+z
1/2+x,1/2-y,1/2+z
loop_
_atom_site_type_symbol
_atom_site_label
_atom_site_fract_x
_atom_site_fract_y
_atom_site_fract_z
Si Si1 0.256297 0.281324 0.714357
Si Si2 0.130261 0.515439 0.287858
Si Si3 0.030282 0.231275 0.298574
Si Si4 0.957933 0.076344 0.283561
Si Si5 0.748637 0.915483 0.709471
Si Si6 0.521649 0.908211 0.294827
Si Si7 0.866999 0.677633 0.716990
Si Si8 0.333929 0.443186 0.210556
O O1 0.257877 0.280922 0.500000
O O2 0.261225 0.182003 0.779292
O O3 0.195445 0.309873 0.770463
O O4 0.300995 0.352685 0.768340
O O5 0.127540 0.517780 0.500000
O O6 0.191895 0.534224 0.232632
O O7 0.087064 0.584187 0.215887
O O8 0.114840 0.418472 0.227430
O O9 0.040467 0.200581 0.500000
O O10 0.090090 0.250275 0.219091
O O11 0.987775 0.163701 0.218745
O O12 0.001616 0.324884 0.301237
O O13 0.954019 0.080310 0.500000
O O14 0.895871 0.063178 0.219024
O O15 0.000000 0.000000 0.238855
O O16 0.759744 0.904863 0.500000
O O17 0.797071 0.976897 0.782644
O O18 0.505144 0.901828 0.500000
O O19 0.500000 0.000000 0.221185
O O20 0.868309 0.679567 0.500000
O O21 0.338349 0.458273 0.000000
#
# Coordination Sequence:
#
# PCOD9443462 Si02
#       8
#     8   8   8   8   8   8   8   8
#     4  10  21  38  58  83 113 153 194 235 293 352
#     4  11  21  36  58  82 113 148 192 238 278 340
#     4  10  20  36  59  85 113 150 197 243 285 337
#     4   9  20  37  60  88 115 148 194 248 294 333
#     4  10  22  37  57  83 116 154 189 234 295 352
#     4  11  23  37  54  81 119 155 186 227 286 348
#     4   9  18  33  56  83 109 143 191 240 283 336
#     4  10  21  38  58  87 120 149 190 243 293 343
#
# _framework density 22.530892999999999
#
# number of rings (size 3 to 8) (size 9 to 14) (size 15 to 20)
#    0.000    2.000    2.500    0.750    3.500    1.000 
#    0.000    0.625    0.000    1.500    0.000    0.000 
#    0.000    0.000    0.000    0.000    0.000    0.000 
#
# Total GULP energy -357426.491251 kJ/mol
# GULP energy per Si atom -5584.788926 kJ/mol
# Density = 2.247961 g / cm^3
# Si number density = 22.530893 Si / 1000 Ang^3
#
#
#
# Elastic Constant Matrix: (Units=GPa)
#
#
# Indices 1 2 3 4 5 6 
#
# 1 179.9659 52.3039 -7.0610 0.0000 0.0000 0.0000
# 2 52.3039 94.0088 2.0779 0.0000 0.0000 0.0000
# 3 -7.0610 2.0779 55.2297 0.0000 0.0000 0.0000
# 4 0.0000 0.0000 0.0000 12.5431 0.0000 0.0000
# 5 0.0000 0.0000 0.0000 0.0000 54.4581 0.0000
# 6 0.0000 0.0000 0.0000 0.0000 0.0000 26.8828
#
#
#
# Elastic Compliance Matrix: (Units=1/GPa)
#
#
# Indices 1 2 3 4 5 6 
#
# 1 0.006683 -0.003740 0.000995 0.000000 0.000000 0.000000
# 2 -0.003740 0.012739 -0.000957 0.000000 0.000000 0.000000
# 3 0.000995 -0.000957 0.018269 0.000000 0.000000 0.000000
# 4 0.000000 0.000000 0.000000 0.079725 0.000000 0.000000
# 5 0.000000 0.000000 0.000000 0.000000 0.018363 0.000000
# 6 0.000000 0.000000 0.000000 0.000000 0.000000 0.037199
#
#
# Mechanical properties :
#
#
# Convention : Reuss Voigt Hill
#
# Bulk Modulus (GPa) = 33.01792 47.09401 40.05597
# Shear Modulus (GPa) = 26.24973 37.56902 31.90938
#
# Velocity S-wave (km/s) = 3.41699 4.08787 3.76739
# Velocity P-wave (km/s) = 5.50037 6.57482 6.06145
#
# Compressibility (1/GPa) = 0.03028658
#
# Stress axis : x y z
#
# Youngs Moduli (GPa) = 149.64185 78.49715 54.73617
#
# Poissons Ratio (x) = 0.29358 -0.05447
# Poissons Ratio (y) = 0.55966 0.05241
# Poissons Ratio (z) = -0.14890 0.07516
#
# Static dielectric constant tensor:
#      x y z
#    x 1.831640 0.000000 0.000000 
#    y 0.000000 1.833110 0.000000 
#    z 0.000000 0.000000 1.875610 
# 
# From -- ./inp_files/9977.got.cif
#   From: 2010.05.17/outbox.cif.g08.bks.cpg/sg58_5_cif.got.tgz:9977.got - 2010.06.03 14:20:14.
