data_PCOD9443835
_publ_section_title
;
Structure prediction by ZEFSAII (Michael W. Deem and Ramdas Pophale) SiO2 
 PCOD9443835
Probable space group: P N N M
;
_chemical_formula_sum "Si O2"
_cell_formula_units_Z 64
_cell_length_a 8.538916
_cell_length_b 19.811042
_cell_length_c 18.670163
_cell_angle_alpha 90.000000
_cell_angle_beta 90.000000
_cell_angle_gamma 90.000000
_cell_volume 3158.334829
_symmetry_space_group_name_H-M "P N N M"
_symmetry_group_IT_number 58
_symmetry_cell_setting 'orthorhombic'
loop_
_space_group_symop_operation_xyz
x,y,z
-x,-y,z
1/2+x,1/2-y,1/2-z
1/2-x,1/2+y,1/2-z
-x,-y,-z
x,y,-z
1/2-x,1/2+y,1/2+z
1/2+x,1/2-y,1/2+z
loop_
_atom_site_type_symbol
_atom_site_label
_atom_site_fract_x
_atom_site_fract_y
_atom_site_fract_z
Si Si1 0.122540 0.769877 0.311676
Si Si2 0.352313 0.895023 0.681157
Si Si3 0.124428 0.401855 0.347114
Si Si4 0.241514 0.258762 0.658062
Si Si5 0.311559 0.151044 0.083458
Si Si6 0.853987 0.364392 0.917218
Si Si7 0.331568 0.533251 0.659039
Si Si8 0.671605 0.468144 0.175108
O O1 0.207270 0.842220 0.320733
O O2 0.159344 0.748107 0.230366
O O3 0.197449 0.717370 0.367623
O O4 0.936972 0.764802 0.325271
O O5 0.417574 0.895135 0.762595
O O6 0.485690 0.876357 0.625525
O O7 0.290406 0.969715 0.666524
O O8 0.239064 0.338198 0.359400
O O9 0.205087 0.474160 0.356394
O O10 0.974274 0.386381 0.395056
O O11 0.306705 0.212998 0.595192
O O12 0.184523 0.096592 0.107583
O O13 0.307447 0.166954 0.000000
O O14 0.721741 0.409812 0.878633
O O15 0.868203 0.381574 0.000000
O O16 0.500000 0.500000 0.652672
O O17 0.314986 0.555453 0.742187
O O18 0.500000 0.500000 0.164368
#
# Coordination Sequence:
#
# PCOD9443835 Si02
#       8
#     8   8   8   8   8   8   8   8
#     4  10  21  39  65  89 113 148 196 247 292 344
#     4  10  21  39  62  87 113 149 196 243 292 343
#     4   9  20  38  61  84 108 146 192 236 280 334
#     4  10  20  38  62  88 115 149 197 246 292 342
#     4  11  23  37  55  82 118 156 187 222 278 347
#     4  12  25  38  56  86 124 160 192 234 291 355
#     4  10  21  37  61  88 111 141 189 244 289 332
#     4  10  21  40  64  87 112 148 197 250 296 343
#
# _framework density 20.263842
#
# number of rings (size 3 to 8) (size 9 to 14) (size 15 to 20)
#    0.000    1.750    0.000    5.250    0.000   12.000 
#    0.000    1.250    0.000    0.000    0.000    0.000 
#    0.000    0.000    0.000    0.000    0.000    0.000 
#
# Total GULP energy -357801.594675 kJ/mol
# GULP energy per Si atom -5590.649917 kJ/mol
# Density = 2.021772 g / cm^3
# Si number density = 20.263842 Si / 1000 Ang^3
#
#
#
# Elastic Constant Matrix: (Units=GPa)
#
#
# Indices 1 2 3 4 5 6 
#
# 1 26.1856 -17.8506 -12.5488 0.0000 0.0000 0.0000
# 2 -17.8506 49.1957 20.9964 0.0000 0.0000 0.0000
# 3 -12.5488 20.9964 36.7271 0.0000 0.0000 0.0000
# 4 0.0000 0.0000 0.0000 -0.7886 0.0000 0.0000
# 5 0.0000 0.0000 0.0000 0.0000 -20.5530 0.0000
# 6 0.0000 0.0000 0.0000 0.0000 0.0000 24.1930
#
#
#
# Elastic Compliance Matrix: (Units=1/GPa)
#
#
# Indices 1 2 3 4 5 6 
#
# 1 0.053098 0.015243 0.009428 0.000000 0.000000 0.000000
# 2 0.015243 0.031263 -0.012665 0.000000 0.000000 0.000000
# 3 0.009428 -0.012665 0.037689 0.000000 0.000000 0.000000
# 4 0.000000 0.000000 0.000000 -1.267994 0.000000 0.000000
# 5 0.000000 0.000000 0.000000 0.000000 -0.048655 0.000000
# 6 0.000000 0.000000 0.000000 0.000000 0.000000 0.041334
#
#
# Mechanical properties :
#
#
# Convention : Reuss Voigt Hill
#
# Bulk Modulus (GPa) = 6.84634 10.36691 8.60662
# Shear Modulus (GPa) = -4.43031 8.67105 2.12037
#
# Velocity S-wave (km/s) = -1.48022 2.07084 1.02404
# Velocity P-wave (km/s) = 0.68156 3.29316 2.37796
#
# Compressibility (1/GPa) = 0.14606353
#
# Stress axis : x y z
#
# Youngs Moduli (GPa) = 18.83307 31.98677 26.53259
#
# Poissons Ratio (x) = -0.48756 -0.25016
# Poissons Ratio (y) = -0.28707 0.33602
# Poissons Ratio (z) = -0.17757 0.40510
#
# Static dielectric constant tensor:
#      x y z
#    x 1.735650 0.000000 0.000000 
#    y 0.000000 1.731410 0.000000 
#    z 0.000000 0.000000 1.672540 
# 
# From -- ./inp_files/25650.got.cif
#   From: 2010.05.17/outbox.cif.g08.bks.cpg/sg58_13_cif.got.tgz:25650.got - 2010.06.03 14:20:14.
