data_PCOD9443234
_publ_section_title
;
Structure prediction by ZEFSAII (Michael W. Deem and Ramdas Pophale) SiO2 
 PCOD9443234
Probable space group: P N N M
;
_chemical_formula_sum "Si O2"
_cell_formula_units_Z 48
_cell_length_a 9.520218
_cell_length_b 31.723497
_cell_length_c 8.815872
_cell_angle_alpha 90.000000
_cell_angle_beta 90.000000
_cell_angle_gamma 90.000000
_cell_volume 2662.522119
_symmetry_space_group_name_H-M "P N N M"
_symmetry_group_IT_number 58
_symmetry_cell_setting 'orthorhombic'
loop_
_space_group_symop_operation_xyz
x,y,z
-x,-y,z
1/2+x,1/2-y,1/2-z
1/2-x,1/2+y,1/2-z
-x,-y,-z
x,y,-z
1/2-x,1/2+y,1/2+z
1/2+x,1/2-y,1/2+z
loop_
_atom_site_type_symbol
_atom_site_label
_atom_site_fract_x
_atom_site_fract_y
_atom_site_fract_z
Si Si1 0.087952 0.540891 0.183037
Si Si2 0.414746 0.380842 0.681696
Si Si3 0.910036 0.208912 0.318601
Si Si4 0.914623 0.617357 0.681823
Si Si5 0.413587 0.541781 0.816659
Si Si6 0.897468 0.712254 0.682739
O O1 0.250737 0.538724 0.230950
O O2 0.000000 0.500000 0.234831
O O3 0.011456 0.582708 0.241313
O O4 0.086005 0.541069 0.000000
O O5 0.422028 0.380188 0.500000
O O6 0.457605 0.335171 0.745495
O O7 0.250224 0.387924 0.724201
O O8 0.510613 0.417608 0.747778
O O9 0.912540 0.204858 0.500000
O O10 0.752568 0.216511 0.261248
O O11 0.003859 0.248989 0.274931
O O12 0.924400 0.612820 0.500000
O O13 0.954520 0.665589 0.721531
O O14 0.500000 0.500000 0.772542
O O15 0.417455 0.544766 0.000000
O O16 0.877648 0.712563 0.500000
#
# Coordination Sequence:
#
# PCOD9443234 Si02
#       6
#     8   8   8   8   8   8
#     4  10  21  36  55  80 107 137 175 218 264 315
#     4  10  21  37  56  79 109 143 181 224 270 320
#     4  10  20  35  57  82 109 144 183 222 269 322
#     4   9  19  36  55  76 105 140 176 217 265 316
#     4  10  21  37  57  81 109 141 179 222 268 323
#     4   9  20  37  54  78 111 142 178 223 268 319
#
# _framework density 18.028020000000001
#
# number of rings (size 3 to 8) (size 9 to 14) (size 15 to 20)
#    0.000    2.333    0.000    3.000    0.000    8.667 
#    0.000    3.333    0.000    0.000    0.000    0.000 
#    0.000    0.000    0.000    0.000    0.000    0.000 
#
# Total GULP energy -267926.783989 kJ/mol
# GULP energy per Si atom -5581.808000 kJ/mol
# Density = 1.798699 g / cm^3
# Si number density = 18.028020 Si / 1000 Ang^3
#
#
#
# Elastic Constant Matrix: (Units=GPa)
#
#
# Indices 1 2 3 4 5 6 
#
# 1 125.6969 124.5892 38.8559 0.0000 0.0000 0.0000
# 2 124.5892 204.0691 49.4910 0.0000 0.0000 0.0000
# 3 38.8559 49.4910 17.2103 0.0000 0.0000 0.0000
# 4 0.0000 0.0000 0.0000 35.0120 0.0000 0.0000
# 5 0.0000 0.0000 0.0000 0.0000 24.9951 0.0000
# 6 0.0000 0.0000 0.0000 0.0000 0.0000 40.3794
#
#
#
# Elastic Compliance Matrix: (Units=1/GPa)
#
#
# Indices 1 2 3 4 5 6 
#
# 1 0.028332 -0.005897 -0.047007 0.000000 0.000000 0.000000
# 2 -0.005897 0.017422 -0.036785 0.000000 0.000000 0.000000
# 3 -0.047007 -0.036785 0.270014 0.000000 0.000000 0.000000
# 4 0.000000 0.000000 0.000000 0.028562 0.000000 0.000000
# 5 0.000000 0.000000 0.000000 0.000000 0.040008 0.000000
# 6 0.000000 0.000000 0.000000 0.000000 0.000000 0.024765
#
#
# Mechanical properties :
#
#
# Convention : Reuss Voigt Hill
#
# Bulk Modulus (GPa) = 7.33195 85.87208 46.60202
# Shear Modulus (GPa) = 7.88715 29.01331 18.45023
#
# Velocity S-wave (km/s) = 2.09390 4.01602 3.20256
# Velocity P-wave (km/s) = 3.14988 8.32109 6.29135
#
# Compressibility (1/GPa) = 0.13638930
#
# Stress axis : x y z
#
# Youngs Moduli (GPa) = 35.29627 57.39934 3.70351
#
# Poissons Ratio (x) = 0.33849 0.17409
# Poissons Ratio (y) = 0.20814 0.13623
# Poissons Ratio (z) = 1.65916 2.11145
#
# Static dielectric constant tensor:
#      x y z
#    x 1.596720 0.000000 0.000000 
#    y 0.000000 1.602530 0.000000 
#    z 0.000000 0.000000 1.606340 
# 
# From -- ./inp_files/2870.got.cif
#   From: 2010.05.17/outbox.cif.g08.bks.cpg/sg58_2_cif.got.tgz:2870.got - 2010.06.03 14:20:14.
