data_PCOD9443413
_publ_section_title
;
Structure prediction by ZEFSAII (Michael W. Deem and Ramdas Pophale) SiO2 
 PCOD9443413
Probable space group: P N N M
;
_chemical_formula_sum "Si O2"
_cell_formula_units_Z 40
_cell_length_a 14.145554
_cell_length_b 14.679070
_cell_length_c 7.530558
_cell_angle_alpha 90.000000
_cell_angle_beta 90.000000
_cell_angle_gamma 90.000000
_cell_volume 1563.672003
_symmetry_space_group_name_H-M "P N N M"
_symmetry_group_IT_number 58
_symmetry_cell_setting 'orthorhombic'
loop_
_space_group_symop_operation_xyz
x,y,z
-x,-y,z
1/2+x,1/2-y,1/2-z
1/2-x,1/2+y,1/2-z
-x,-y,-z
x,y,-z
1/2-x,1/2+y,1/2+z
1/2+x,1/2-y,1/2+z
loop_
_atom_site_type_symbol
_atom_site_label
_atom_site_fract_x
_atom_site_fract_y
_atom_site_fract_z
Si Si1 0.988684 0.727560 0.712583
Si Si2 0.892643 0.112257 0.287404
Si Si3 0.715907 0.228832 0.293271
Si Si4 0.201980 0.065674 0.787025
Si Si5 0.092887 0.550789 0.285069
O O1 0.978525 0.728892 0.500000
O O2 0.019632 0.827149 0.779816
O O3 0.072898 0.657212 0.751744
O O4 0.889786 0.689960 0.782311
O O5 0.896205 0.120480 0.500000
O O6 0.797783 0.164323 0.218853
O O7 0.880169 0.005648 0.253876
O O8 0.741069 0.240569 0.500000
O O9 0.700906 0.330871 0.217309
O O10 0.302898 0.025559 0.721755
O O11 0.204838 0.071125 0.000000
O O12 0.093567 0.538879 0.500000
O O13 0.000000 0.500000 0.217423
#
# Coordination Sequence:
#
# PCOD9443413 Si02
#       5
#     8   8   8   8   8
#     4  10  20  36  58  82 110 148 190 231 277 334
#     4  10  21  38  57  81 116 150 183 232 289 333
#     4  10  21  38  57  81 116 150 183 232 289 333
#     4  10  20  36  58  82 110 148 190 231 277 334
#     4   9  16  30  55  83 105 134 185 236 272 319
#
# _framework density 25.580814
#
# number of rings (size 3 to 8) (size 9 to 14) (size 15 to 20)
#    0.000    2.200    2.000    1.200    0.000    4.800 
#    0.000    5.000    0.000    3.600    0.000    0.000 
#    0.000    0.000    0.000    0.000    0.000    0.000 
#
# Total GULP energy -223514.211664 kJ/mol
# GULP energy per Si atom -5587.855292 kJ/mol
# Density = 2.552259 g / cm^3
# Si number density = 25.580814 Si / 1000 Ang^3
#
#
#
# Elastic Constant Matrix: (Units=GPa)
#
#
# Indices 1 2 3 4 5 6 
#
# 1 64.7063 -3.5905 -11.2834 0.0000 0.0000 0.0000
# 2 -3.5905 76.9622 1.6093 0.0000 0.0000 0.0000
# 3 -11.2834 1.6093 63.0110 0.0000 0.0000 0.0000
# 4 0.0000 0.0000 0.0000 37.1111 0.0000 0.0000
# 5 0.0000 0.0000 0.0000 0.0000 18.0822 0.0000
# 6 0.0000 0.0000 0.0000 0.0000 0.0000 39.2523
#
#
#
# Elastic Compliance Matrix: (Units=1/GPa)
#
#
# Indices 1 2 3 4 5 6 
#
# 1 0.015989 0.000686 0.002846 0.000000 0.000000 0.000000
# 2 0.000686 0.013030 -0.000210 0.000000 0.000000 0.000000
# 3 0.002846 -0.000210 0.016385 0.000000 0.000000 0.000000
# 4 0.000000 0.000000 0.000000 0.026946 0.000000 0.000000
# 5 0.000000 0.000000 0.000000 0.000000 0.055303 0.000000
# 6 0.000000 0.000000 0.000000 0.000000 0.000000 0.025476
#
#
# Mechanical properties :
#
#
# Convention : Reuss Voigt Hill
#
# Bulk Modulus (GPa) = 19.21306 19.79449 19.50378
# Shear Modulus (GPa) = 30.51868 33.41873 31.96871
#
# Velocity S-wave (km/s) = 3.45777 3.61833 3.53896
# Velocity P-wave (km/s) = 4.84444 5.02108 4.93355
#
# Compressibility (1/GPa) = 0.05204794
#
# Stress axis : x y z
#
# Youngs Moduli (GPa) = 62.54397 76.74713 61.03085
#
# Poissons Ratio (x) = -0.05268 -0.17367
# Poissons Ratio (y) = -0.04293 0.01281
# Poissons Ratio (z) = -0.17797 0.01611
#
# Static dielectric constant tensor:
#      x y z
#    x 2.000110 0.000000 0.000000 
#    y 0.000000 2.074580 0.000000 
#    z 0.000000 0.000000 1.965200 
# 
# From -- ./inp_files/5360.got.cif
#   From: 2010.05.17/outbox.cif.g08.bks.cpg/sg58_3_cif.got.tgz:5360.got - 2010.06.03 14:20:14.
