data_PCOD9443042
_publ_section_title
;
Structure prediction by ZEFSAII (Michael W. Deem and Ramdas Pophale) SiO2 
 PCOD9443042
Probable space group: P N N M
;
_chemical_formula_sum "Si O2"
_cell_formula_units_Z 64
_cell_length_a 28.844532
_cell_length_b 12.990245
_cell_length_c 8.768464
_cell_angle_alpha 90.000000
_cell_angle_beta 90.000000
_cell_angle_gamma 90.000000
_cell_volume 3285.521869
_symmetry_space_group_name_H-M "P N N M"
_symmetry_group_IT_number 58
_symmetry_cell_setting 'orthorhombic'
loop_
_space_group_symop_operation_xyz
x,y,z
-x,-y,z
1/2+x,1/2-y,1/2-z
1/2-x,1/2+y,1/2-z
-x,-y,-z
x,y,-z
1/2-x,1/2+y,1/2+z
1/2+x,1/2-y,1/2+z
loop_
_atom_site_type_symbol
_atom_site_label
_atom_site_fract_x
_atom_site_fract_y
_atom_site_fract_z
Si Si1 0.407599 0.878670 0.818109
Si Si2 0.828010 0.346408 0.175545
Si Si3 0.291602 0.356331 0.181327
Si Si4 0.435479 0.086804 0.320848
Si Si5 0.192874 0.423811 0.181773
Si Si6 0.115440 0.953701 0.315354
Si Si7 0.037895 0.806391 0.816793
Si Si8 0.557927 0.346547 0.815890
O O1 0.354732 0.891907 0.761748
O O2 0.425199 0.766753 0.767607
O O3 0.437265 0.975727 0.757136
O O4 0.408559 0.882000 0.000000
O O5 0.810812 0.256416 0.282675
O O6 0.882020 0.375226 0.194608
O O7 0.801532 0.453368 0.199967
O O8 0.821866 0.312972 0.000000
O O9 0.239700 0.371710 0.241890
O O10 0.331774 0.434224 0.236097
O O11 0.287784 0.371291 0.000000
O O12 0.445179 0.072072 0.500000
O O13 0.463549 0.186441 0.264071
O O14 0.186847 0.404764 0.000000
O O15 0.114156 0.946054 0.500000
O O16 0.093658 0.063558 0.272432
O O17 0.082646 0.864755 0.247926
O O18 0.992219 0.862976 0.757470
O O19 0.040125 0.805929 0.000000
O O20 0.553491 0.348056 0.000000
#
# Coordination Sequence:
#
# PCOD9443042 Si02
#       8
#     8   8   8   8   8   8   8   8
#     4  10  21  37  58  83 111 147 192 235 275 333
#     4   9  17  33  54  75 106 143 177 224 278 325
#     4  10  20  34  56  83 107 141 187 228 272 332
#     4   9  19  36  57  80 111 146 180 226 284 334
#     4   9  20  37  55  79 113 148 181 225 287 341
#     4  10  21  38  58  80 113 152 188 231 282 336
#     4  11  22  37  59  86 112 145 190 235 283 336
#     4  10  23  40  56  80 116 153 187 228 284 338
#
# _framework density 19.479402
#
# number of rings (size 3 to 8) (size 9 to 14) (size 15 to 20)
#    0.000    2.250    1.250    1.875    0.000    8.000 
#    0.000    5.000    0.000    0.000    0.000    0.000 
#    0.000    0.000    0.000    0.000    0.000    0.000 
#
# Total GULP energy -357162.368679 kJ/mol
# GULP energy per Si atom -5580.662011 kJ/mol
# Density = 1.943507 g / cm^3
# Si number density = 19.479402 Si / 1000 Ang^3
#
#
#
# Elastic Constant Matrix: (Units=GPa)
#
#
# Indices 1 2 3 4 5 6 
#
# 1 44.4071 7.8806 3.2074 0.0000 0.0000 0.0000
# 2 7.8806 81.2557 14.3880 0.0000 0.0000 0.0000
# 3 3.2074 14.3880 7.9092 0.0000 0.0000 0.0000
# 4 0.0000 0.0000 0.0000 30.5647 0.0000 0.0000
# 5 0.0000 0.0000 0.0000 0.0000 -7.8589 0.0000
# 6 0.0000 0.0000 0.0000 0.0000 0.0000 20.5794
#
#
#
# Elastic Compliance Matrix: (Units=1/GPa)
#
#
# Indices 1 2 3 4 5 6 
#
# 1 0.023239 -0.000863 -0.007854 0.000000 0.000000 0.000000
# 2 -0.000863 0.018187 -0.032735 0.000000 0.000000 0.000000
# 3 -0.007854 -0.032735 0.189169 0.000000 0.000000 0.000000
# 4 0.000000 0.000000 0.000000 0.032718 0.000000 0.000000
# 5 0.000000 0.000000 0.000000 0.000000 -0.127244 0.000000
# 6 0.000000 0.000000 0.000000 0.000000 0.000000 0.048592
#
#
# Mechanical properties :
#
#
# Convention : Reuss Voigt Hill
#
# Bulk Modulus (GPa) = 6.77085 20.50267 13.63676
# Shear Modulus (GPa) = 15.78305 15.86344 15.82324
#
# Velocity S-wave (km/s) = 2.84957 2.85681 2.85319
# Velocity P-wave (km/s) = 3.78288 4.62925 4.22730
#
# Compressibility (1/GPa) = 0.14769190
#
# Stress axis : x y z
#
# Youngs Moduli (GPa) = 43.03044 54.98459 5.28627
#
# Poissons Ratio (x) = 0.04746 0.04152
# Poissons Ratio (y) = 0.03714 0.17304
# Poissons Ratio (z) = 0.33796 1.79990
#
# Static dielectric constant tensor:
#      x y z
#    x 1.683880 0.000000 0.000000 
#    y 0.000000 1.687390 0.000000 
#    z 0.000000 0.000000 1.658380 
# 
# From -- ./inp_files/11043.got.cif
#   From: 2010.05.17/outbox.cif.g08.bks.cpg/sg58_6_cif.got.tgz:11043.got - 2010.06.03 14:20:14.
