data_PCOD9443549
_publ_section_title
;
Structure prediction by ZEFSAII (Michael W. Deem and Ramdas Pophale) SiO2 
 PCOD9443549
Probable space group: P N N M
;
_chemical_formula_sum "Si O2"
_cell_formula_units_Z 36
_cell_length_a 5.214032
_cell_length_b 13.933761
_cell_length_c 22.994146
_cell_angle_alpha 90.000000
_cell_angle_beta 90.000000
_cell_angle_gamma 90.000000
_cell_volume 1670.549442
_symmetry_space_group_name_H-M "P N N M"
_symmetry_group_IT_number 58
_symmetry_cell_setting 'orthorhombic'
loop_
_space_group_symop_operation_xyz
x,y,z
-x,-y,z
1/2+x,1/2-y,1/2-z
1/2-x,1/2+y,1/2-z
-x,-y,-z
x,y,-z
1/2-x,1/2+y,1/2+z
1/2+x,1/2-y,1/2+z
loop_
_atom_site_type_symbol
_atom_site_label
_atom_site_fract_x
_atom_site_fract_y
_atom_site_fract_z
Si Si1 0.248040 0.567026 0.000000
Si Si2 0.279796 0.222990 0.399116
Si Si3 0.215261 0.766869 0.679688
Si Si4 0.417507 0.901756 0.222488
Si Si5 0.749379 0.060202 0.907463
O O1 0.500000 0.500000 0.000000
O O2 0.235406 0.637754 0.055139
O O3 0.000000 0.500000 0.000000
O O4 0.544718 0.224521 0.363271
O O5 0.251841 0.329208 0.427444
O O6 0.044957 0.210137 0.354531
O O7 0.259915 0.834812 0.734577
O O8 0.165496 0.659265 0.702537
O O9 0.272161 0.928808 0.163001
O O10 0.500000 0.000000 0.252461
O O11 0.500000 0.000000 0.925828
O O12 0.000000 0.000000 0.922986
#
# Coordination Sequence:
#
# PCOD9443549 Si02
#       5
#     4   8   8   8   8
#     4  12  28  50  72  92 122 172 226 280 340 382
#     4  11  24  44  64  90 126 165 217 277 321 377
#     4  11  23  39  63  94 130 169 214 260 315 385
#     4  10  21  37  59  90 130 170 203 247 309 382
#     4  10  20  36  61  92 125 161 194 240 314 386
#
# _framework density 21.549797000000002
#
# number of rings (size 3 to 8) (size 9 to 14) (size 15 to 20)
#    0.000    1.333    0.000    8.000    0.000    6.222 
#    0.000    3.333    0.000    0.000    0.000    0.778 
#    0.000    0.000    0.000    0.000    0.000    0.000 
#
# Total GULP energy -201483.708698 kJ/mol
# GULP energy per Si atom -5596.769686 kJ/mol
# Density = 2.150075 g / cm^3
# Si number density = 21.549797 Si / 1000 Ang^3
#
#
#
# Elastic Constant Matrix: (Units=GPa)
#
#
# Indices 1 2 3 4 5 6 
#
# 1 183.1132 79.7813 51.6009 0.0000 0.0000 0.0000
# 2 79.7813 188.2557 61.5319 0.0000 0.0000 0.0000
# 3 51.6009 61.5319 79.0441 0.0000 0.0000 0.0000
# 4 0.0000 0.0000 0.0000 35.9088 0.0000 0.0000
# 5 0.0000 0.0000 0.0000 0.0000 14.1928 0.0000
# 6 0.0000 0.0000 0.0000 0.0000 0.0000 34.8959
#
#
#
# Elastic Compliance Matrix: (Units=1/GPa)
#
#
# Indices 1 2 3 4 5 6 
#
# 1 0.007233 -0.002041 -0.003133 0.000000 0.000000 0.000000
# 2 -0.002041 0.007701 -0.004662 0.000000 0.000000 0.000000
# 3 -0.003133 -0.004662 0.018326 0.000000 0.000000 0.000000
# 4 0.000000 0.000000 0.000000 0.027848 0.000000 0.000000
# 5 0.000000 0.000000 0.000000 0.000000 0.070458 0.000000
# 6 0.000000 0.000000 0.000000 0.000000 0.000000 0.028657
#
#
# Mechanical properties :
#
#
# Convention : Reuss Voigt Hill
#
# Bulk Modulus (GPa) = 73.59970 92.91571 83.25771
# Shear Modulus (GPa) = 27.11133 34.16609 30.63871
#
# Velocity S-wave (km/s) = 3.55079 3.98609 3.77472
# Velocity P-wave (km/s) = 7.14411 8.02468 7.59716
#
# Compressibility (1/GPa) = 0.01358701
#
# Stress axis : x y z
#
# Youngs Moduli (GPa) = 138.24770 129.85503 54.56870
#
# Poissons Ratio (x) = 0.26510 0.17096
# Poissons Ratio (y) = 0.28223 0.25440
# Poissons Ratio (z) = 0.43311 0.60539
#
# Static dielectric constant tensor:
#      x y z
#    x 1.776180 0.000000 0.000000 
#    y 0.000000 1.791220 0.000000 
#    z 0.000000 0.000000 1.793690 
# 
# From -- ./inp_files/30841.got.cif
#   From: 2010.05.17/outbox.cif.g08.bks.cpg/sg58_16_cif.got.tgz:30841.got - 2010.06.03 14:20:14.
