data_PCOD9443468
_publ_section_title
;
Structure prediction by ZEFSAII (Michael W. Deem and Ramdas Pophale) SiO2 
 PCOD9443468
Probable space group: P N N M
;
_chemical_formula_sum "Si O2"
_cell_formula_units_Z 48
_cell_length_a 18.375832
_cell_length_b 15.903693
_cell_length_c 8.455301
_cell_angle_alpha 90.000000
_cell_angle_beta 90.000000
_cell_angle_gamma 90.000000
_cell_volume 2471.007525
_symmetry_space_group_name_H-M "P N N M"
_symmetry_group_IT_number 58
_symmetry_cell_setting 'orthorhombic'
loop_
_space_group_symop_operation_xyz
x,y,z
-x,-y,z
1/2+x,1/2-y,1/2-z
1/2-x,1/2+y,1/2-z
-x,-y,-z
x,y,-z
1/2-x,1/2+y,1/2+z
1/2+x,1/2-y,1/2+z
loop_
_atom_site_type_symbol
_atom_site_label
_atom_site_fract_x
_atom_site_fract_y
_atom_site_fract_z
Si Si1 0.291143 0.254521 0.691525
Si Si2 0.039616 0.414457 0.310417
Si Si3 0.289328 0.583792 0.807133
Si Si4 0.040597 0.751897 0.189526
Si Si5 0.542773 0.416366 0.191374
Si Si6 0.295601 0.916501 0.310224
O O1 0.289508 0.256688 0.500000
O O2 0.251051 0.168940 0.743086
O O3 0.375270 0.254718 0.742665
O O4 0.248872 0.335271 0.754789
O O5 0.038247 0.412464 0.500000
O O6 0.122711 0.413834 0.254085
O O7 0.000000 0.500000 0.255988
O O8 0.997742 0.332900 0.247695
O O9 0.373263 0.582017 0.755419
O O10 0.245712 0.501059 0.755764
O O11 0.289592 0.583414 0.000000
O O12 0.997573 0.833026 0.250911
O O13 0.039816 0.752511 0.000000
O O14 0.500000 0.500000 0.243634
O O15 0.542653 0.415652 0.000000
O O16 0.298240 0.917561 0.500000
#
# Coordination Sequence:
#
# PCOD9443468 Si02
#       6
#     8   8   8   8   8   8
#     4  10  21  38  58  82 116 155 193 236 288 344
#     4  11  24  41  61  86 118 156 196 241 296 355
#     4   9  19  36  57  80 110 150 189 228 282 346
#     4  11  23  38  59  87 118 155 199 247 294 343
#     4  10  20  36  59  85 116 155 196 239 292 353
#     4  11  22  38  62  89 116 149 193 241 290 348
#
# _framework density 19.425274999999999
#
# number of rings (size 3 to 8) (size 9 to 14) (size 15 to 20)
#    0.000    1.667    0.000    4.500    0.000    7.000 
#    0.000    3.333    0.000    0.000    0.000    0.000 
#    0.000    0.000    0.000    0.000    0.000    0.000 
#
# Total GULP energy -268391.275795 kJ/mol
# GULP energy per Si atom -5591.484912 kJ/mol
# Density = 1.938106 g / cm^3
# Si number density = 19.425275 Si / 1000 Ang^3
#
#
#
# Elastic Constant Matrix: (Units=GPa)
#
#
# Indices 1 2 3 4 5 6 
#
# 1 188.7159 94.8623 12.8097 0.0000 0.0000 0.0000
# 2 94.8623 189.9475 11.1830 0.0000 0.0000 0.0000
# 3 12.8097 11.1830 10.6193 0.0000 0.0000 0.0000
# 4 0.0000 0.0000 0.0000 -19.2244 0.0000 0.0000
# 5 0.0000 0.0000 0.0000 0.0000 0.7798 0.0000
# 6 0.0000 0.0000 0.0000 0.0000 0.0000 47.0006
#
#
#
# Elastic Compliance Matrix: (Units=1/GPa)
#
#
# Indices 1 2 3 4 5 6 
#
# 1 0.007348 -0.003356 -0.005329 0.000000 0.000000 0.000000
# 2 -0.003356 0.007145 -0.003477 0.000000 0.000000 0.000000
# 3 -0.005329 -0.003477 0.104258 0.000000 0.000000 0.000000
# 4 0.000000 0.000000 0.000000 -0.052017 0.000000 0.000000
# 5 0.000000 0.000000 0.000000 0.000000 1.282325 0.000000
# 6 0.000000 0.000000 0.000000 0.000000 0.000000 0.021276
#
#
# Mechanical properties :
#
#
# Convention : Reuss Voigt Hill
#
# Bulk Modulus (GPa) = 10.59016 69.66585 40.12801
# Shear Modulus (GPa) = 3.50598 23.73972 13.62285
#
# Velocity S-wave (km/s) = 1.34491 3.49965 2.65107
# Velocity P-wave (km/s) = 2.80629 7.22990 5.48392
#
# Compressibility (1/GPa) = 0.09442726
#
# Stress axis : x y z
#
# Youngs Moduli (GPa) = 136.10019 139.95458 9.59163
#
# Poissons Ratio (x) = 0.46965 0.05112
# Poissons Ratio (y) = 0.45671 0.03335
# Poissons Ratio (z) = 0.72531 0.48657
#
# Static dielectric constant tensor:
#      x y z
#    x 1.649010 0.000000 0.000000 
#    y 0.000000 1.638270 0.000000 
#    z 0.000000 0.000000 1.670140 
# 
# From -- ./inp_files/5834.got.cif
#   From: 2010.05.17/outbox.cif.g08.bks.cpg/sg58_3_cif.got.tgz:5834.got - 2010.06.03 14:20:14.
