data_PCOD9443179
_publ_section_title
;
Structure prediction by ZEFSAII (Michael W. Deem and Ramdas Pophale) SiO2 
 PCOD9443179
Probable space group: P N N M
;
_chemical_formula_sum "Si O2"
_cell_formula_units_Z 64
_cell_length_a 12.608730
_cell_length_b 15.167478
_cell_length_c 15.864333
_cell_angle_alpha 90.000000
_cell_angle_beta 90.000000
_cell_angle_gamma 90.000000
_cell_volume 3033.936844
_symmetry_space_group_name_H-M "P N N M"
_symmetry_group_IT_number 58
_symmetry_cell_setting 'orthorhombic'
loop_
_space_group_symop_operation_xyz
x,y,z
-x,-y,z
1/2+x,1/2-y,1/2-z
1/2-x,1/2+y,1/2-z
-x,-y,-z
x,y,-z
1/2-x,1/2+y,1/2+z
1/2+x,1/2-y,1/2+z
loop_
_atom_site_type_symbol
_atom_site_label
_atom_site_fract_x
_atom_site_fract_y
_atom_site_fract_z
Si Si1 0.339719 0.526051 0.649480
Si Si2 0.533594 0.305410 0.671148
Si Si3 0.354930 0.141752 0.102453
Si Si4 0.552870 0.360044 0.134535
Si Si5 0.284970 0.812192 0.601286
Si Si6 0.318217 0.338311 0.404838
Si Si7 0.085081 0.332803 0.406435
Si Si8 0.155744 0.970438 0.343589
O O1 0.420934 0.604592 0.628729
O O2 0.224360 0.570386 0.640976
O O3 0.346421 0.441271 0.591948
O O4 0.358137 0.488479 0.743796
O O5 0.551777 0.325660 0.769060
O O6 0.606953 0.226585 0.639214
O O7 0.410997 0.293280 0.648332
O O8 0.305145 0.238068 0.122856
O O9 0.476278 0.130647 0.131974
O O10 0.354163 0.134335 0.000000
O O11 0.561429 0.270760 0.084551
O O12 0.645780 0.431184 0.119144
O O13 0.444544 0.414096 0.123130
O O14 0.291266 0.815631 0.500000
O O15 0.253576 0.907694 0.636430
O O16 0.313770 0.301727 0.500000
O O17 0.200521 0.336846 0.364675
O O18 0.097896 0.373768 0.500000
#
# Coordination Sequence:
#
# PCOD9443179 Si02
#       8
#     8   8   8   8   8   8   8   8
#     4  10  20  35  55  85 118 148 187 240 292 344
#     4  10  21  36  57  84 117 153 195 241 287 345
#     4   9  18  35  56  82 116 150 186 232 289 345
#     4  10  20  36  59  85 117 149 189 245 293 340
#     4  10  20  35  59  87 114 150 193 241 290 341
#     4  11  22  35  56  84 115 155 194 234 287 347
#     4  10  22  38  57  84 118 156 196 237 288 351
#     4  10  20  35  57  89 115 148 190 240 297 342
#
# _framework density 21.094704
#
# number of rings (size 3 to 8) (size 9 to 14) (size 15 to 20)
#    0.000    2.000    2.500    1.125    1.750    3.000 
#    2.250    3.125    0.000    0.750    0.000    2.625 
#    0.000    0.000    0.000    0.000    0.000    0.000 
#
# Total GULP energy -357137.846038 kJ/mol
# GULP energy per Si atom -5580.278844 kJ/mol
# Density = 2.104669 g / cm^3
# Si number density = 21.094704 Si / 1000 Ang^3
#
#
#
# Elastic Constant Matrix: (Units=GPa)
#
#
# Indices 1 2 3 4 5 6 
#
# 1 157.4414 20.5136 9.9850 0.0000 0.0000 0.0000
# 2 20.5136 46.0755 4.3906 0.0000 0.0000 0.0000
# 3 9.9850 4.3906 28.7335 0.0000 0.0000 0.0000
# 4 0.0000 0.0000 0.0000 0.0141 0.0000 0.0000
# 5 0.0000 0.0000 0.0000 0.0000 18.0199 0.0000
# 6 0.0000 0.0000 0.0000 0.0000 0.0000 26.9672
#
#
#
# Elastic Compliance Matrix: (Units=1/GPa)
#
#
# Indices 1 2 3 4 5 6 
#
# 1 0.006848 -0.002864 -0.001942 0.000000 0.000000 0.000000
# 2 -0.002864 0.023222 -0.002553 0.000000 0.000000 0.000000
# 3 -0.001942 -0.002553 0.035868 0.000000 0.000000 0.000000
# 4 0.000000 0.000000 0.000000 71.097192 0.000000 0.000000
# 5 0.000000 0.000000 0.000000 0.000000 0.055494 0.000000
# 6 0.000000 0.000000 0.000000 0.000000 0.000000 0.037082
#
#
# Mechanical properties :
#
#
# Convention : Reuss Voigt Hill
#
# Bulk Modulus (GPa) = 19.52394 33.55875 26.54134
# Shear Modulus (GPa) = 0.07014 22.15764 11.11389
#
# Velocity S-wave (km/s) = 0.18254 3.24449 2.29783
# Velocity P-wave (km/s) = 3.05285 5.47528 4.43276
#
# Compressibility (1/GPa) = 0.05121917
#
# Stress axis : x y z
#
# Youngs Moduli (GPa) = 146.03108 43.06298 27.88032
#
# Poissons Ratio (x) = 0.12332 0.05415
# Poissons Ratio (y) = 0.41819 0.07119
# Poissons Ratio (z) = 0.28360 0.10995
#
# Static dielectric constant tensor:
#      x y z
#    x 1.814880 0.000000 0.000000 
#    y 0.000000 1.756190 0.000000 
#    z 0.000000 0.000000 1.791350 
# 
# From -- ./inp_files/26367.got.cif
#   From: 2010.05.17/outbox.cif.g08.bks.cpg/sg58_14_cif.got.tgz:26367.got - 2010.06.03 14:20:14.
