data_PCOD9443184
_publ_section_title
;
Structure prediction by ZEFSAII (Michael W. Deem and Ramdas Pophale) SiO2 
 PCOD9443184
Probable space group: P N N M
;
_chemical_formula_sum "Si O2"
_cell_formula_units_Z 48
_cell_length_a 8.257919
_cell_length_b 28.990916
_cell_length_c 9.240655
_cell_angle_alpha 90.000000
_cell_angle_beta 90.000000
_cell_angle_gamma 90.000000
_cell_volume 2212.255647
_symmetry_space_group_name_H-M "P N N M"
_symmetry_group_IT_number 58
_symmetry_cell_setting 'orthorhombic'
loop_
_space_group_symop_operation_xyz
x,y,z
-x,-y,z
1/2+x,1/2-y,1/2-z
1/2-x,1/2+y,1/2-z
-x,-y,-z
x,y,-z
1/2-x,1/2+y,1/2+z
1/2+x,1/2-y,1/2+z
loop_
_atom_site_type_symbol
_atom_site_label
_atom_site_fract_x
_atom_site_fract_y
_atom_site_fract_z
Si Si1 0.266012 0.182405 0.672640
Si Si2 0.741000 0.648372 0.333288
Si Si3 0.588955 0.902297 0.168605
Si Si4 0.917866 0.070594 0.328572
Si Si5 0.240224 0.519201 0.827926
Si Si6 0.443579 0.765666 0.173697
O O1 0.277754 0.175512 0.500000
O O2 0.292089 0.134222 0.753011
O O3 0.412072 0.214315 0.731629
O O4 0.107577 0.213220 0.702332
O O5 0.690377 0.648377 0.500000
O O6 0.613562 0.619602 0.242153
O O7 0.792250 0.700132 0.293062
O O8 0.910965 0.620139 0.320263
O O9 0.606069 0.951564 0.245360
O O10 0.630119 0.906262 0.000000
O O11 0.897715 0.075292 0.500000
O O12 0.093129 0.048098 0.305254
O O13 0.787047 0.032164 0.278248
O O14 0.206787 0.518209 0.000000
O O15 0.476728 0.771045 0.000000
#
# Coordination Sequence:
#
# PCOD9443184 Si02
#       6
#     8   8   8   8   8   8
#     4  10  20  35  56  79 104 137 175 213 255 304
#     4   9  19  35  52  73 104 136 168 209 255 305
#     4  10  21  36  53  76 106 137 171 213 258 304
#     4   9  19  35  54  76 103 134 170 213 256 303
#     4   9  19  36  54  75 104 135 170 212 257 306
#     4   9  20  37  53  75 107 137 169 212 257 302
#
# _framework density 21.697310999999999
#
# number of rings (size 3 to 8) (size 9 to 14) (size 15 to 20)
#    0.000    2.667    0.000    3.000    0.000    8.000 
#    0.000    8.333    0.000    0.000    0.000    0.000 
#    0.000    0.000    0.000    0.000    0.000    0.000 
#
# Total GULP energy -268107.959153 kJ/mol
# GULP energy per Si atom -5585.582482 kJ/mol
# Density = 2.164793 g / cm^3
# Si number density = 21.697311 Si / 1000 Ang^3
#
#
#
# Elastic Constant Matrix: (Units=GPa)
#
#
# Indices 1 2 3 4 5 6 
#
# 1 30.4277 14.0442 10.3045 0.0000 0.0000 0.0000
# 2 14.0442 104.6218 22.1248 0.0000 0.0000 0.0000
# 3 10.3045 22.1248 25.2019 0.0000 0.0000 0.0000
# 4 0.0000 0.0000 0.0000 60.6830 0.0000 0.0000
# 5 0.0000 0.0000 0.0000 0.0000 106.7164 0.0000
# 6 0.0000 0.0000 0.0000 0.0000 0.0000 41.7434
#
#
#
# Elastic Compliance Matrix: (Units=1/GPa)
#
#
# Indices 1 2 3 4 5 6 
#
# 1 0.038578 -0.002263 -0.013787 0.000000 0.000000 0.000000
# 2 -0.002263 0.011870 -0.009495 0.000000 0.000000 0.000000
# 3 -0.013787 -0.009495 0.053653 0.000000 0.000000 0.000000
# 4 0.000000 0.000000 0.000000 0.016479 0.000000 0.000000
# 5 0.000000 0.000000 0.000000 0.000000 0.009371 0.000000
# 6 0.000000 0.000000 0.000000 0.000000 0.000000 0.023956
#
#
# Mechanical properties :
#
#
# Convention : Reuss Voigt Hill
#
# Bulk Modulus (GPa) = 18.86432 28.13314 23.49873
# Shear Modulus (GPa) = 22.45493 49.41375 35.93434
#
# Velocity S-wave (km/s) = 3.22050 4.77740 4.07402
# Velocity P-wave (km/s) = 4.74785 6.58982 5.74316
#
# Compressibility (1/GPa) = 0.05301014
#
# Stress axis : x y z
#
# Youngs Moduli (GPa) = 25.92124 84.24563 18.63832
#
# Poissons Ratio (x) = 0.19065 0.25697
# Poissons Ratio (y) = 0.05866 0.17698
# Poissons Ratio (z) = 0.35738 0.79995
#
# Static dielectric constant tensor:
#      x y z
#    x 1.878290 0.000000 0.000000 
#    y 0.000000 1.781100 0.000000 
#    z 0.000000 0.000000 1.722080 
# 
# From -- ./inp_files/2900.got.cif
#   From: 2010.05.17/outbox.cif.g08.bks.cpg/sg58_2_cif.got.tgz:2900.got - 2010.06.03 14:20:14.
