data_PCOD9443336
_publ_section_title
;
Structure prediction by ZEFSAII (Michael W. Deem and Ramdas Pophale) SiO2 
 PCOD9443336
Probable space group: P N N M
;
_chemical_formula_sum "Si O2"
_cell_formula_units_Z 48
_cell_length_a 5.223762
_cell_length_b 22.414387
_cell_length_c 23.576580
_cell_angle_alpha 90.000000
_cell_angle_beta 90.000000
_cell_angle_gamma 90.000000
_cell_volume 2760.520997
_symmetry_space_group_name_H-M "P N N M"
_symmetry_group_IT_number 58
_symmetry_cell_setting 'orthorhombic'
loop_
_space_group_symop_operation_xyz
x,y,z
-x,-y,z
1/2+x,1/2-y,1/2-z
1/2-x,1/2+y,1/2-z
-x,-y,-z
x,y,-z
1/2-x,1/2+y,1/2+z
1/2+x,1/2-y,1/2+z
loop_
_atom_site_type_symbol
_atom_site_label
_atom_site_fract_x
_atom_site_fract_y
_atom_site_fract_z
Si Si1 0.748325 0.541355 0.601379
Si Si2 0.892820 0.247114 0.621263
Si Si3 0.249278 0.459373 0.268244
Si Si4 0.250029 0.714552 0.500000
Si Si5 0.900537 0.233249 0.181692
Si Si6 0.754248 0.634812 0.500000
Si Si7 0.780619 0.663010 0.208133
O O1 0.500000 0.500000 0.594340
O O2 0.746091 0.564081 0.666493
O O3 0.734072 0.593453 0.555535
O O4 0.000000 0.500000 0.593311
O O5 0.811085 0.248423 0.556542
O O6 0.672026 0.284552 0.654291
O O7 0.867461 0.182677 0.651315
O O8 0.171139 0.271526 0.636955
O O9 0.500000 0.500000 0.259921
O O10 0.224777 0.405183 0.224663
O O11 0.000000 0.500000 0.263671
O O12 0.530607 0.684711 0.500000
O O13 0.035790 0.663006 0.500000
O O14 0.840721 0.197815 0.238379
O O15 0.948405 0.302880 0.198900
#
# Coordination Sequence:
#
# PCOD9443336 Si02
#       7
#     8   8   8   4   8   4   8
#     4  10  21  39  53  74 107 150 202 239 275 320
#     4  10  22  37  53  85 113 149 179 237 287 346
#     4  10  24  36  55  86 117 149 188 244 289 342
#     4  12  26  37  54  88 120 138 201 234 292 345
#     4  10  20  35  60  86 108 149 190 231 290 355
#     4  12  24  37  58  76 106 163 191 245 274 337
#     4  10  21  36  62  82 117 146 190 235 299 353
#
# _framework density 17.388023
#
# number of rings (size 3 to 8) (size 9 to 14) (size 15 to 20)
#    1.000    0.667    1.667    2.500    7.000    0.000 
#    0.000    0.000    0.000    0.000    0.000    1.167 
#    0.000    0.000    0.000    0.000    0.000    0.000 
#
# Total GULP energy -267632.378971 kJ/mol
# GULP energy per Si atom -5575.674562 kJ/mol
# Density = 1.734845 g / cm^3
# Si number density = 17.388023 Si / 1000 Ang^3
#
#
#
# Elastic Constant Matrix: (Units=GPa)
#
#
# Indices 1 2 3 4 5 6 
#
# 1 104.5445 5.8619 6.0688 0.0000 0.0000 0.0000
# 2 5.8619 52.1650 27.2120 0.0000 0.0000 0.0000
# 3 6.0688 27.2120 83.4780 0.0000 0.0000 0.0000
# 4 0.0000 0.0000 0.0000 -5.8620 0.0000 0.0000
# 5 0.0000 0.0000 0.0000 0.0000 27.0119 0.0000
# 6 0.0000 0.0000 0.0000 0.0000 0.0000 16.2033
#
#
#
# Elastic Compliance Matrix: (Units=1/GPa)
#
#
# Indices 1 2 3 4 5 6 
#
# 1 0.009638 -0.000865 -0.000419 0.000000 0.000000 0.000000
# 2 -0.000865 0.023175 -0.007492 0.000000 0.000000 0.000000
# 3 -0.000419 -0.007492 0.014452 0.000000 0.000000 0.000000
# 4 0.000000 0.000000 0.000000 -0.170590 0.000000 0.000000
# 5 0.000000 0.000000 0.000000 0.000000 0.037021 0.000000
# 6 0.000000 0.000000 0.000000 0.000000 0.000000 0.061716
#
#
# Mechanical properties :
#
#
# Convention : Reuss Voigt Hill
#
# Bulk Modulus (GPa) = 33.65331 35.38587 34.51959
# Shear Modulus (GPa) = 1743.99692 20.87363 882.43527
#
# Velocity S-wave (km/s) = 31.70434 3.46853 22.55211
# Velocity P-wave (km/s) = 36.87297 6.03621 26.42018
#
# Compressibility (1/GPa) = 0.02971476
#
# Stress axis : x y z
#
# Youngs Moduli (GPa) = 103.75498 43.14964 69.19556
#
# Poissons Ratio (x) = 0.03731 0.02898
# Poissons Ratio (y) = 0.08970 0.51840
# Poissons Ratio (z) = 0.04346 0.32327
#
# Static dielectric constant tensor:
#      x y z
#    x 1.620590 0.000000 0.000000 
#    y 0.000000 1.581410 0.000000 
#    z 0.000000 0.000000 1.607190 
# 
# From -- ./inp_files/31020.got.cif
#   From: 2010.05.17/outbox.cif.g08.bks.cpg/sg58_16_cif.got.tgz:31020.got - 2010.06.03 14:20:14.
