data_PCOD9443673
_publ_section_title
;
Structure prediction by ZEFSAII (Michael W. Deem and Ramdas Pophale) SiO2 
 PCOD9443673
Probable space group: P N N M
;
_chemical_formula_sum "Si O2"
_cell_formula_units_Z 58
_cell_length_a 18.878538
_cell_length_b 18.544861
_cell_length_c 7.871093
_cell_angle_alpha 90.000000
_cell_angle_beta 90.000000
_cell_angle_gamma 90.000000
_cell_volume 2755.668582
_symmetry_space_group_name_H-M "P N N M"
_symmetry_group_IT_number 58
_symmetry_cell_setting 'orthorhombic'
loop_
_space_group_symop_operation_xyz
x,y,z
-x,-y,z
1/2+x,1/2-y,1/2-z
1/2-x,1/2+y,1/2-z
-x,-y,-z
x,y,-z
1/2-x,1/2+y,1/2+z
1/2+x,1/2-y,1/2+z
loop_
_atom_site_type_symbol
_atom_site_label
_atom_site_fract_x
_atom_site_fract_y
_atom_site_fract_z
Si Si1 0.174361 0.153826 0.804640
Si Si2 0.012851 0.394875 0.694113
Si Si3 0.190713 0.992307 0.794613
Si Si4 0.000000 0.500000 0.000000
Si Si5 0.396781 0.354578 0.295303
Si Si6 0.465903 0.727782 0.195082
Si Si7 0.834963 0.582414 0.810002
Si Si8 0.751046 0.213091 0.805868
O O1 0.098717 0.192943 0.795865
O O2 0.228451 0.205077 0.707815
O O3 0.171782 0.072517 0.737841
O O4 0.197678 0.150533 0.000000
O O5 0.985179 0.403801 0.500000
O O6 0.013480 0.309654 0.741252
O O7 0.096035 0.417856 0.694850
O O8 0.979541 0.441046 0.845971
O O9 0.133130 0.932539 0.740014
O O10 0.268890 0.968274 0.735521
O O11 0.190656 0.990111 0.000000
O O12 0.407300 0.355815 0.500000
O O13 0.467247 0.324586 0.212981
O O14 0.331472 0.301373 0.255372
O O15 0.441429 0.731764 0.000000
O O16 0.801079 0.662335 0.801380
O O17 0.862128 0.565453 0.000000
O O18 0.743752 0.186707 0.000000
#
# Coordination Sequence:
#
# PCOD9443673 Si02
#       8
#     8   8   8   2   8   8   8   8
#     4  11  22  37  62  92 124 162 214 264 311 387
#     4  11  24  44  65  93 131 172 213 270 323 386
#     4   9  21  40  59  89 127 165 206 264 333 375
#     4  12  26  44  68  94 124 162 226 254 324 388
#     4   9  20  39  62  84 121 169 211 263 323 389
#     4  11  24  40  63  91 126 167 212 262 323 382
#     4  11  20  36  64  91 117 162 213 254 314 390
#     4  10  20  37  60  89 120 158 206 262 320 374
#
# _framework density 21.047526000000001
#
# number of rings (size 3 to 8) (size 9 to 14) (size 15 to 20)
#    0.000    1.655    2.069    3.517    1.931    4.414 
#    2.483    2.759    0.000    0.000    0.000    0.000 
#    0.000    0.000    0.000    0.000    0.000    0.000 
#
# Total GULP energy -323438.805800 kJ/mol
# GULP energy per Si atom -5576.531134 kJ/mol
# Density = 2.099962 g / cm^3
# Si number density = 21.047526 Si / 1000 Ang^3
#
#
#
# Elastic Constant Matrix: (Units=GPa)
#
#
# Indices 1 2 3 4 5 6 
#
# 1 23.3563 16.0223 -1.3886 0.0000 0.0000 0.0000
# 2 16.0223 136.5584 22.2121 0.0000 0.0000 0.0000
# 3 -1.3886 22.2121 66.1642 0.0000 0.0000 0.0000
# 4 0.0000 0.0000 0.0000 4.4122 0.0000 0.0000
# 5 0.0000 0.0000 0.0000 0.0000 -2.6752 0.0000
# 6 0.0000 0.0000 0.0000 0.0000 0.0000 4.9249
#
#
#
# Elastic Compliance Matrix: (Units=1/GPa)
#
#
# Indices 1 2 3 4 5 6 
#
# 1 0.047122 -0.006018 0.003009 0.000000 0.000000 0.000000
# 2 -0.006018 0.008514 -0.002985 0.000000 0.000000 0.000000
# 3 0.003009 -0.002985 0.016179 0.000000 0.000000 0.000000
# 4 0.000000 0.000000 0.000000 0.226644 0.000000 0.000000
# 5 0.000000 0.000000 0.000000 0.000000 -0.373806 0.000000
# 6 0.000000 0.000000 0.000000 0.000000 0.000000 0.203052
#
#
# Mechanical properties :
#
#
# Convention : Reuss Voigt Hill
#
# Bulk Modulus (GPa) = 16.71439 33.30782 25.01111
# Shear Modulus (GPa) = 31.32123 13.94791 22.63457
#
# Velocity S-wave (km/s) = 3.86180 2.57706 3.28289
# Velocity P-wave (km/s) = 5.27666 4.97136 5.12628
#
# Compressibility (1/GPa) = 0.05982868
#
# Stress axis : x y z
#
# Youngs Moduli (GPa) = 21.22131 117.44691 61.80819
#
# Poissons Ratio (x) = 0.70683 -0.18601
# Poissons Ratio (y) = 0.12772 0.18448
# Poissons Ratio (z) = -0.06386 0.35055
#
# Static dielectric constant tensor:
#      x y z
#    x 1.773860 0.000000 0.000000 
#    y 0.000000 1.784310 0.000000 
#    z 0.000000 0.000000 1.768450 
# 
# From -- ./inp_files/8007.got.cif
#   From: 2010.05.17/outbox.cif.g08.bks.cpg/sg58_5_cif.got.tgz:8007.got - 2010.06.03 14:20:14.
