data_PCOD9443574
_publ_section_title
;
Structure prediction by ZEFSAII (Michael W. Deem and Ramdas Pophale) SiO2 
 PCOD9443574
Probable space group: P N N M
;
_chemical_formula_sum "Si O2"
_cell_formula_units_Z 40
_cell_length_a 10.702478
_cell_length_b 12.570271
_cell_length_c 12.734559
_cell_angle_alpha 90.000000
_cell_angle_beta 90.000000
_cell_angle_gamma 90.000000
_cell_volume 1713.219048
_symmetry_space_group_name_H-M "P N N M"
_symmetry_group_IT_number 58
_symmetry_cell_setting 'orthorhombic'
loop_
_space_group_symop_operation_xyz
x,y,z
-x,-y,z
1/2+x,1/2-y,1/2-z
1/2-x,1/2+y,1/2-z
-x,-y,-z
x,y,-z
1/2-x,1/2+y,1/2+z
1/2+x,1/2-y,1/2+z
loop_
_atom_site_type_symbol
_atom_site_label
_atom_site_fract_x
_atom_site_fract_y
_atom_site_fract_z
Si Si1 0.034745 0.378524 0.885016
Si Si2 0.872134 0.065947 0.726887
Si Si3 0.381032 0.201624 0.879504
Si Si4 0.352476 0.839337 0.829135
Si Si5 0.764793 0.367910 0.169214
O O1 0.895495 0.334239 0.881896
O O2 0.000000 0.500000 0.857553
O O3 0.117188 0.330222 0.795208
O O4 0.089727 0.372528 0.000000
O O5 0.899037 0.178334 0.668507
O O6 0.776752 0.094330 0.823993
O O7 0.790864 0.984705 0.654403
O O8 0.000000 0.000000 0.751758
O O9 0.511839 0.134573 0.875062
O O10 0.291520 0.145078 0.794272
O O11 0.338994 0.205688 0.000000
O O12 0.327050 0.721979 0.869988
#
# Coordination Sequence:
#
# PCOD9443574 Si02
#       5
#     8   8   8   8   8
#     4  10  20  36  63  92 114 152 205 258 313 366
#     4  11  21  39  65  90 122 164 211 258 314 373
#     4  10  23  40  65  97 125 164 213 266 319 375
#     4  10  21  39  60  88 129 163 203 260 320 374
#     4  10  21  39  60  91 129 166 201 259 324 376
#
# _framework density 23.347860000000001
#
# number of rings (size 3 to 8) (size 9 to 14) (size 15 to 20)
#    0.000    1.800    4.000    0.000    0.000    5.200 
#    0.000    2.000    0.000    6.000    0.000    0.000 
#    0.000    0.000    0.000    0.000    0.000    0.000 
#
# Total GULP energy -222790.299211 kJ/mol
# GULP energy per Si atom -5569.757480 kJ/mol
# Density = 2.329472 g / cm^3
# Si number density = 23.347860 Si / 1000 Ang^3
#
#
#
# Elastic Constant Matrix: (Units=GPa)
#
#
# Indices 1 2 3 4 5 6 
#
# 1 108.9874 12.8119 3.9914 0.0000 0.0000 0.0000
# 2 12.8119 81.8350 23.3349 0.0000 0.0000 0.0000
# 3 3.9914 23.3349 85.5109 0.0000 0.0000 0.0000
# 4 0.0000 0.0000 0.0000 3.1542 0.0000 0.0000
# 5 0.0000 0.0000 0.0000 0.0000 -17.0432 0.0000
# 6 0.0000 0.0000 0.0000 0.0000 0.0000 44.5051
#
#
#
# Elastic Compliance Matrix: (Units=1/GPa)
#
#
# Indices 1 2 3 4 5 6 
#
# 1 0.009348 -0.001452 -0.000040 0.000000 0.000000 0.000000
# 2 -0.001452 0.013476 -0.003610 0.000000 0.000000 0.000000
# 3 -0.000040 -0.003610 0.012681 0.000000 0.000000 0.000000
# 4 0.000000 0.000000 0.000000 0.317040 0.000000 0.000000
# 5 0.000000 0.000000 0.000000 0.000000 -0.058674 0.000000
# 6 0.000000 0.000000 0.000000 0.000000 0.000000 0.022469
#
#
# Mechanical properties :
#
#
# Convention : Reuss Voigt Hill
#
# Bulk Modulus (GPa) = 39.52327 39.62328 39.57328
# Shear Modulus (GPa) = 14.92635 21.86956 18.39796
#
# Velocity S-wave (km/s) = 2.53119 3.06385 2.81017
# Velocity P-wave (km/s) = 5.05047 5.43359 5.24553
#
# Compressibility (1/GPa) = 0.02530155
#
# Stress axis : x y z
#
# Youngs Moduli (GPa) = 106.98011 74.20411 78.85597
#
# Poissons Ratio (x) = 0.10774 0.00316
# Poissons Ratio (y) = 0.15533 0.28465
# Poissons Ratio (z) = 0.00429 0.26786
#
# Static dielectric constant tensor:
#      x y z
#    x 2.066920 0.000000 0.000000 
#    y 0.000000 1.925960 0.000000 
#    z 0.000000 0.000000 1.859200 
# 
# From -- ./inp_files/14122.got.cif
#   From: 2010.05.17/outbox.cif.g08.bks.cpg/sg58_8_cif.got.tgz:14122.got - 2010.06.03 14:20:14.
