data_PCOD9443657
_publ_section_title
;
Structure prediction by ZEFSAII (Michael W. Deem and Ramdas Pophale) SiO2 
 PCOD9443657
Probable space group: P N N M
;
_chemical_formula_sum "Si O2"
_cell_formula_units_Z 64
_cell_length_a 15.761271
_cell_length_b 21.673827
_cell_length_c 8.780278
_cell_angle_alpha 90.000000
_cell_angle_beta 90.000000
_cell_angle_gamma 90.000000
_cell_volume 2999.404962
_symmetry_space_group_name_H-M "P N N M"
_symmetry_group_IT_number 58
_symmetry_cell_setting 'orthorhombic'
loop_
_space_group_symop_operation_xyz
x,y,z
-x,-y,z
1/2+x,1/2-y,1/2-z
1/2-x,1/2+y,1/2-z
-x,-y,-z
x,y,-z
1/2-x,1/2+y,1/2+z
1/2+x,1/2-y,1/2+z
loop_
_atom_site_type_symbol
_atom_site_label
_atom_site_fract_x
_atom_site_fract_y
_atom_site_fract_z
Si Si1 0.112576 0.062125 0.683374
Si Si2 0.426411 0.420903 0.814992
Si Si3 0.653966 0.701021 0.820726
Si Si4 0.711329 0.945143 0.181570
Si Si5 0.537570 0.904442 0.673358
Si Si6 0.494900 0.758996 0.327201
Si Si7 0.676221 0.215217 0.180556
Si Si8 0.861847 0.573047 0.682697
O O1 0.116871 0.066041 0.500000
O O2 0.202317 0.082226 0.750114
O O3 0.023674 0.092904 0.733330
O O4 0.099017 0.990057 0.727577
O O5 0.361183 0.369034 0.763699
O O6 0.427183 0.419414 0.000000
O O7 0.563874 0.731489 0.786370
O O8 0.730034 0.733527 0.732125
O O9 0.673029 0.701173 0.000000
O O10 0.624624 0.913573 0.236325
O O11 0.698783 0.017029 0.231140
O O12 0.716658 0.942834 0.000000
O O13 0.549605 0.925636 0.500000
O O14 0.513742 0.832172 0.671123
O O15 0.455213 0.936049 0.747449
O O16 0.505557 0.735690 0.500000
O O17 0.399530 0.750771 0.267216
O O18 0.668090 0.142128 0.221971
O O19 0.665129 0.221813 0.000000
O O20 0.869111 0.570555 0.500000
#
# Coordination Sequence:
#
# PCOD9443657 Si02
#       8
#     8   8   8   8   8   8   8   8
#     4   9  17  34  56  78 109 146 182 219 263 319
#     4   8  17  34  57  82 108 141 180 224 270 319
#     4  11  21  36  60  88 113 144 186 233 284 336
#     4  11  21  32  49  79 114 146 179 217 272 333
#     4  10  21  36  54  75 103 141 185 230 274 324
#     4  10  22  41  59  80 110 146 190 239 285 333
#     4  10  20  37  60  85 112 146 185 230 282 334
#     4   9  19  34  53  78 111 145 178 222 275 328
#
# _framework density 21.337567
#
# number of rings (size 3 to 8) (size 9 to 14) (size 15 to 20)
#    0.000    2.250    0.000    3.750    0.000    4.500 
#    2.250    3.125    0.000    0.000    0.000    0.000 
#    0.000    0.000    0.000    0.000    0.000    0.000 
#
# Total GULP energy -357414.419912 kJ/mol
# GULP energy per Si atom -5584.600311 kJ/mol
# Density = 2.128900 g / cm^3
# Si number density = 21.337567 Si / 1000 Ang^3
#
#
#
# Elastic Constant Matrix: (Units=GPa)
#
#
# Indices 1 2 3 4 5 6 
#
# 1 139.3979 -9.1273 14.2427 0.0000 0.0000 0.0000
# 2 -9.1273 4.1498 -3.0327 0.0000 0.0000 0.0000
# 3 14.2427 -3.0327 14.0682 0.0000 0.0000 0.0000
# 4 0.0000 0.0000 0.0000 17.5531 0.0000 0.0000
# 5 0.0000 0.0000 0.0000 0.0000 33.3759 0.0000
# 6 0.0000 0.0000 0.0000 0.0000 0.0000 22.6978
#
#
#
# Elastic Compliance Matrix: (Units=1/GPa)
#
#
# Indices 1 2 3 4 5 6 
#
# 1 0.008735 0.015133 -0.005581 0.000000 0.000000 0.000000
# 2 0.015133 0.312257 0.051993 0.000000 0.000000 0.000000
# 3 -0.005581 0.051993 0.087941 0.000000 0.000000 0.000000
# 4 0.000000 0.000000 0.000000 0.056970 0.000000 0.000000
# 5 0.000000 0.000000 0.000000 0.000000 0.029962 0.000000
# 6 0.000000 0.000000 0.000000 0.000000 0.000000 0.044057
#
#
# Mechanical properties :
#
#
# Convention : Reuss Voigt Hill
#
# Bulk Modulus (GPa) = 1.87962 17.97569 9.92766
# Shear Modulus (GPa) = 8.41508 25.09423 16.75465
#
# Velocity S-wave (km/s) = 1.98805 3.43309 2.80522
# Velocity P-wave (km/s) = 2.48044 4.91503 3.89295
#
# Compressibility (1/GPa) = 0.53202191
#
# Stress axis : x y z
#
# Youngs Moduli (GPa) = 114.48473 3.20250 11.37131
#
# Poissons Ratio (x) = -0.04846 0.06346
# Poissons Ratio (y) = -1.73252 -0.59122
# Poissons Ratio (z) = 0.63892 -0.16651
#
# Static dielectric constant tensor:
#      x y z
#    x 1.759870 0.000000 0.000000 
#    y 0.000000 1.829630 0.000000 
#    z 0.000000 0.000000 1.716290 
# 
# From -- ./inp_files/6729.got.cif
#   From: 2010.05.17/outbox.cif.g08.bks.cpg/sg58_4_cif.got.tgz:6729.got - 2010.06.03 14:20:14.
