data_PCOD9443381
_publ_section_title
;
Structure prediction by ZEFSAII (Michael W. Deem and Ramdas Pophale) SiO2 
 PCOD9443381
Probable space group: P N N M
;
_chemical_formula_sum "Si O2"
_cell_formula_units_Z 52
_cell_length_a 8.304742
_cell_length_b 14.393807
_cell_length_c 23.827426
_cell_angle_alpha 90.000000
_cell_angle_beta 90.000000
_cell_angle_gamma 90.000000
_cell_volume 2848.255532
_symmetry_space_group_name_H-M "P N N M"
_symmetry_group_IT_number 58
_symmetry_cell_setting 'orthorhombic'
loop_
_space_group_symop_operation_xyz
x,y,z
-x,-y,z
1/2+x,1/2-y,1/2-z
1/2-x,1/2+y,1/2-z
-x,-y,-z
x,y,-z
1/2-x,1/2+y,1/2+z
1/2+x,1/2-y,1/2+z
loop_
_atom_site_type_symbol
_atom_site_label
_atom_site_fract_x
_atom_site_fract_y
_atom_site_fract_z
Si Si1 0.689102 0.989565 0.729178
Si Si2 0.224749 0.318963 0.821862
Si Si3 0.812150 0.781533 0.064210
Si Si4 0.610409 0.650603 0.379605
Si Si5 0.000000 0.000000 0.805234
Si Si6 0.822061 0.490608 0.434004
Si Si7 0.640966 0.777705 0.285826
O O1 0.709814 0.881692 0.713758
O O2 0.832053 0.010096 0.772716
O O3 0.500000 0.000000 0.747591
O O4 0.719777 0.069047 0.682544
O O5 0.252173 0.281481 0.884615
O O6 0.336991 0.272633 0.774030
O O7 0.046650 0.288302 0.801506
O O8 0.003914 0.793063 0.075993
O O9 0.738885 0.885163 0.069872
O O10 0.783122 0.750246 0.000000
O O11 0.485221 0.593346 0.341019
O O12 0.711148 0.568397 0.406813
O O13 0.708840 0.715328 0.336846
O O14 0.827805 0.512973 0.500000
O O15 0.000000 0.500000 0.409454
#
# Coordination Sequence:
#
# PCOD9443381 Si02
#       7
#     8   8   8   8   4   8   8
#     4  10  22  38  54  78 121 149 183 233 283 339
#     4  10  21  36  54  82 111 143 186 232 284 343
#     4  10  20  36  57  78 107 150 192 232 277 338
#     4  11  20  34  54  82 111 143 187 229 283 346
#     4  12  20  36  55  86 115 150 186 228 288 356
#     4  10  21  35  51  77 112 147 185 231 280 333
#     4  10  21  34  53  79 113 144 178 227 288 343
#
# _framework density 18.256789999999999
#
# number of rings (size 3 to 8) (size 9 to 14) (size 15 to 20)
#    0.000    1.692    3.077    2.308    0.000    3.077 
#    0.000    0.000    0.000   12.462    0.000    0.538 
#    0.000    0.000    0.000    0.000    0.000    0.000 
#
# Total GULP energy -289734.485518 kJ/mol
# GULP energy per Si atom -5571.817029 kJ/mol
# Density = 1.821524 g / cm^3
# Si number density = 18.256790 Si / 1000 Ang^3
#
#
#
# Elastic Constant Matrix: (Units=GPa)
#
#
# Indices 1 2 3 4 5 6 
#
# 1 39.8275 5.9182 29.3807 0.0000 0.0000 0.0000
# 2 5.9182 102.8992 48.0506 0.0000 0.0000 0.0000
# 3 29.3807 48.0506 115.0805 0.0000 0.0000 0.0000
# 4 0.0000 0.0000 0.0000 33.0195 0.0000 0.0000
# 5 0.0000 0.0000 0.0000 0.0000 20.8216 0.0000
# 6 0.0000 0.0000 0.0000 0.0000 0.0000 12.1440
#
#
#
# Elastic Compliance Matrix: (Units=1/GPa)
#
#
# Indices 1 2 3 4 5 6 
#
# 1 0.031407 0.002407 -0.009024 0.000000 0.000000 0.000000
# 2 0.002407 0.012257 -0.005732 0.000000 0.000000 0.000000
# 3 -0.009024 -0.005732 0.013387 0.000000 0.000000 0.000000
# 4 0.000000 0.000000 0.000000 0.030285 0.000000 0.000000
# 5 0.000000 0.000000 0.000000 0.000000 0.048027 0.000000
# 6 0.000000 0.000000 0.000000 0.000000 0.000000 0.082346
#
#
# Mechanical properties :
#
#
# Convention : Reuss Voigt Hill
#
# Bulk Modulus (GPa) = 30.90839 47.16734 39.03786
# Shear Modulus (GPa) = 19.74804 24.82753 22.28779
#
# Velocity S-wave (km/s) = 3.29246 3.69169 3.49778
# Velocity P-wave (km/s) = 5.60538 6.63800 6.14342
#
# Compressibility (1/GPa) = 0.03235368
#
# Stress axis : x y z
#
# Youngs Moduli (GPa) = 31.83978 81.58908 74.70069
#
# Poissons Ratio (x) = -0.19641 0.67407
# Poissons Ratio (y) = -0.07665 0.42820
# Poissons Ratio (z) = 0.28731 0.46768
#
# Static dielectric constant tensor:
#      x y z
#    x 1.676770 0.000000 0.000000 
#    y 0.000000 1.671140 0.000000 
#    z 0.000000 0.000000 1.658310 
# 
# From -- ./inp_files/28903.got.cif
#   From: 2010.05.17/outbox.cif.g08.bks.cpg/sg58_15_cif.got.tgz:28903.got - 2010.06.03 14:20:14.
