data_PCOD9443722
_publ_section_title
;
Structure prediction by ZEFSAII (Michael W. Deem and Ramdas Pophale) SiO2 
 PCOD9443722
Probable space group: P N N M
;
_chemical_formula_sum "Si O2"
_cell_formula_units_Z 48
_cell_length_a 8.468786
_cell_length_b 8.591693
_cell_length_c 28.798980
_cell_angle_alpha 90.000000
_cell_angle_beta 90.000000
_cell_angle_gamma 90.000000
_cell_volume 2095.448614
_symmetry_space_group_name_H-M "P N N M"
_symmetry_group_IT_number 58
_symmetry_cell_setting 'orthorhombic'
loop_
_space_group_symop_operation_xyz
x,y,z
-x,-y,z
1/2+x,1/2-y,1/2-z
1/2-x,1/2+y,1/2-z
-x,-y,-z
x,y,-z
1/2-x,1/2+y,1/2+z
1/2+x,1/2-y,1/2+z
loop_
_atom_site_type_symbol
_atom_site_label
_atom_site_fract_x
_atom_site_fract_y
_atom_site_fract_z
Si Si1 0.000000 0.500000 0.831290
Si Si2 0.500000 0.500000 0.826752
Si Si3 0.665801 0.112997 0.500000
Si Si4 0.251109 0.349083 0.103931
Si Si5 0.745267 0.826759 0.266123
Si Si6 0.187004 0.975955 0.191395
Si Si7 0.191257 0.515930 0.500000
Si Si8 0.311321 0.490551 0.406640
O O1 0.904181 0.609763 0.866403
O O2 0.894932 0.394854 0.797398
O O3 0.612651 0.589568 0.862733
O O4 0.599334 0.389286 0.792273
O O5 0.737987 0.080137 0.448581
O O6 0.710117 0.312209 0.500000
O O7 0.500000 0.000000 0.500000
O O8 0.257587 0.163874 0.098408
O O9 0.736872 0.643582 0.269636
O O10 0.739922 0.868411 0.211957
O O11 0.236373 0.911739 0.141514
O O12 0.000000 0.000000 0.189279
O O13 0.247201 0.426083 0.454216
O O14 0.000000 0.500000 0.500000
O O15 0.500000 0.500000 0.409830
#
# Coordination Sequence:
#
# PCOD9443722 Si02
#       8
#     4   4   4   8   8   8   4   8
#     4  10  20  37  62  92 130 179 222 264 336 402
#     4  10  24  43  64  96 140 173 222 282 348 396
#     4  10  20  40  67 100 132 175 229 286 350 422
#     4  10  21  40  67  95 134 171 224 279 339 405
#     4  11  25  41  66  94 137 178 223 280 335 406
#     4  11  25  42  64  98 135 173 231 272 340 404
#     4  10  23  43  69 104 137 175 227 299 355 416
#     4  10  22  42  70  94 132 178 231 276 338 413
#
# _framework density 22.906790000000001
#
# number of rings (size 3 to 8) (size 9 to 14) (size 15 to 20)
#    0.000    1.667    1.667    2.250    7.000    3.000 
#    1.500    0.000   14.667    0.000    0.000    0.000 
#    0.000    0.000    0.000    0.000    0.000    0.000 
#
# Total GULP energy -267548.593076 kJ/mol
# GULP energy per Si atom -5573.929022 kJ/mol
# Density = 2.285465 g / cm^3
# Si number density = 22.906790 Si / 1000 Ang^3
#
#
#
# Elastic Constant Matrix: (Units=GPa)
#
#
# Indices 1 2 3 4 5 6 
#
# 1 60.6599 3.1511 31.1886 0.0000 0.0000 0.0000
# 2 3.1511 33.9558 0.0347 0.0000 0.0000 0.0000
# 3 31.1886 0.0347 175.4702 0.0000 0.0000 0.0000
# 4 0.0000 0.0000 0.0000 21.1797 0.0000 0.0000
# 5 0.0000 0.0000 0.0000 0.0000 63.6786 0.0000
# 6 0.0000 0.0000 0.0000 0.0000 0.0000 7.7399
#
#
#
# Elastic Compliance Matrix: (Units=1/GPa)
#
#
# Indices 1 2 3 4 5 6 
#
# 1 0.018240 -0.001689 -0.003242 0.000000 0.000000 0.000000
# 2 -0.001689 0.029607 0.000294 0.000000 0.000000 0.000000
# 3 -0.003242 0.000294 0.006275 0.000000 0.000000 0.000000
# 4 0.000000 0.000000 0.000000 0.047215 0.000000 0.000000
# 5 0.000000 0.000000 0.000000 0.000000 0.015704 0.000000
# 6 0.000000 0.000000 0.000000 0.000000 0.000000 0.129201
#
#
# Mechanical properties :
#
#
# Convention : Reuss Voigt Hill
#
# Bulk Modulus (GPa) = 22.29739 37.64827 29.97283
# Shear Modulus (GPa) = 18.48676 34.23373 26.36024
#
# Velocity S-wave (km/s) = 2.84393 3.87004 3.39597
# Velocity P-wave (km/s) = 4.53200 6.03662 5.33759
#
# Compressibility (1/GPa) = 0.04484829
#
# Stress axis : x y z
#
# Youngs Moduli (GPa) = 54.82506 33.77633 159.36005
#
# Poissons Ratio (x) = 0.05706 0.51659
# Poissons Ratio (y) = 0.09262 -0.04692
# Poissons Ratio (z) = 0.17772 -0.00994
#
# Static dielectric constant tensor:
#      x y z
#    x 1.880580 0.000000 0.000000 
#    y 0.000000 1.647600 0.000000 
#    z 0.000000 0.000000 1.897850 
# 
# From -- ./inp_files/34660.got.cif
#   From: 2010.05.17/outbox.cif.g08.bks.cpg/sg58_18_cif.got.tgz:34660.got - 2010.06.03 14:20:14.
