data_PCOD9443874
_publ_section_title
;
Structure prediction by ZEFSAII (Michael W. Deem and Ramdas Pophale) SiO2 
 PCOD9443874
Probable space group: P N N M
;
_chemical_formula_sum "Si O2"
_cell_formula_units_Z 36
_cell_length_a 7.181248
_cell_length_b 15.921731
_cell_length_c 13.740968
_cell_angle_alpha 90.000000
_cell_angle_beta 90.000000
_cell_angle_gamma 90.000000
_cell_volume 1571.113410
_symmetry_space_group_name_H-M "P N N M"
_symmetry_group_IT_number 58
_symmetry_cell_setting 'orthorhombic'
loop_
_space_group_symop_operation_xyz
x,y,z
-x,-y,z
1/2+x,1/2-y,1/2-z
1/2-x,1/2+y,1/2-z
-x,-y,-z
x,y,-z
1/2-x,1/2+y,1/2+z
1/2+x,1/2-y,1/2+z
loop_
_atom_site_type_symbol
_atom_site_label
_atom_site_fract_x
_atom_site_fract_y
_atom_site_fract_z
Si Si1 0.006778 0.398739 0.000000
Si Si2 0.437037 0.599719 0.000000
Si Si3 0.118261 0.175469 0.296721
Si Si4 0.000000 0.500000 0.334371
Si Si5 0.624392 0.417228 0.603329
Si Si6 0.557538 0.146630 0.708465
O O1 0.105879 0.361724 0.904719
O O2 0.000000 0.500000 0.000000
O O3 0.785941 0.383160 0.000000
O O4 0.500000 0.500000 0.000000
O O5 0.482236 0.643140 0.105179
O O6 0.052931 0.133944 0.195845
O O7 0.333281 0.148331 0.297919
O O8 0.113083 0.274169 0.273460
O O9 0.841462 0.446409 0.388741
O O10 0.112685 0.437153 0.264681
O O11 0.500000 0.500000 0.600248
O O12 0.601147 0.370836 0.500000
#
# Coordination Sequence:
#
# PCOD9443874 Si02
#       6
#     4   4   8   4   8   8
#     4  10  20  38  64  90 119 168 210 252 321 387
#     4  10  22  42  64  91 122 158 212 271 317 389
#     4  10  23  40  60  92 122 157 214 258 321 375
#     4  10  21  41  62  88 130 165 210 257 312 382
#     4  10  22  40  63  92 121 164 206 252 320 382
#     4  10  22  39  61  89 125 164 208 265 314 380
#
# _framework density 22.913688
#
# number of rings (size 3 to 8) (size 9 to 14) (size 15 to 20)
#    0.000    2.000    1.111    1.000    4.667    1.778 
#   10.000    0.000    0.000    0.000    0.000    0.000 
#    0.000    0.000    0.000    0.000    0.000    0.000 
#
# Total GULP energy -200684.579683 kJ/mol
# GULP energy per Si atom -5574.571658 kJ/mol
# Density = 2.286154 g / cm^3
# Si number density = 22.913688 Si / 1000 Ang^3
#
#
#
# Elastic Constant Matrix: (Units=GPa)
#
#
# Indices 1 2 3 4 5 6 
#
# 1 77.0992 -25.5795 -0.7936 0.0000 0.0000 0.0000
# 2 -25.5795 106.6410 77.6601 0.0000 0.0000 0.0000
# 3 -0.7936 77.6601 227.6466 0.0000 0.0000 0.0000
# 4 0.0000 0.0000 0.0000 36.0878 0.0000 0.0000
# 5 0.0000 0.0000 0.0000 0.0000 -30.0944 0.0000
# 6 0.0000 0.0000 0.0000 0.0000 0.0000 20.1879
#
#
#
# Elastic Compliance Matrix: (Units=1/GPa)
#
#
# Indices 1 2 3 4 5 6 
#
# 1 0.014471 0.004570 -0.001508 0.000000 0.000000 0.000000
# 2 0.004570 0.013920 -0.004733 0.000000 0.000000 0.000000
# 3 -0.001508 -0.004733 0.006002 0.000000 0.000000 0.000000
# 4 0.000000 0.000000 0.000000 0.027710 0.000000 0.000000
# 5 0.000000 0.000000 0.000000 0.000000 -0.033229 0.000000
# 6 0.000000 0.000000 0.000000 0.000000 0.000000 0.049535
#
#
# Mechanical properties :
#
#
# Convention : Reuss Voigt Hill
#
# Bulk Modulus (GPa) = 32.20662 57.10677 44.65670
# Shear Modulus (GPa) = 54.28769 29.24293 41.76531
#
# Velocity S-wave (km/s) = 4.87275 3.57630 4.27397
# Velocity P-wave (km/s) = 6.76346 6.48305 6.62474
#
# Compressibility (1/GPa) = 0.03104951
#
# Stress axis : x y z
#
# Youngs Moduli (GPa) = 69.10458 71.83964 166.60953
#
# Poissons Ratio (x) = -0.32827 0.25132
# Poissons Ratio (y) = -0.31578 0.78852
# Poissons Ratio (z) = 0.10424 0.34000
#
# Static dielectric constant tensor:
#      x y z
#    x 2.096200 0.000000 0.000000 
#    y 0.000000 1.842460 0.000000 
#    z 0.000000 0.000000 1.968910 
# 
# From -- ./inp_files/19411.got.cif
#   From: 2010.05.17/outbox.cif.g08.bks.cpg/sg58_10_cif.got.tgz:19411.got - 2010.06.03 14:20:14.
