data_PCOD9443759
_publ_section_title
;
Structure prediction by ZEFSAII (Michael W. Deem and Ramdas Pophale) SiO2 
 PCOD9443759
Probable space group: P N N M
;
_chemical_formula_sum "Si O2"
_cell_formula_units_Z 36
_cell_length_a 6.852229
_cell_length_b 25.760908
_cell_length_c 7.156172
_cell_angle_alpha 90.000000
_cell_angle_beta 90.000000
_cell_angle_gamma 90.000000
_cell_volume 1263.204911
_symmetry_space_group_name_H-M "P N N M"
_symmetry_group_IT_number 58
_symmetry_cell_setting 'orthorhombic'
loop_
_space_group_symop_operation_xyz
x,y,z
-x,-y,z
1/2+x,1/2-y,1/2-z
1/2-x,1/2+y,1/2-z
-x,-y,-z
x,y,-z
1/2-x,1/2+y,1/2+z
1/2+x,1/2-y,1/2+z
loop_
_atom_site_type_symbol
_atom_site_label
_atom_site_fract_x
_atom_site_fract_y
_atom_site_fract_z
Si Si1 0.029502 0.370928 0.000000
Si Si2 0.723779 0.200144 0.210430
Si Si3 0.773730 0.546106 0.276616
Si Si4 0.186402 0.068342 0.776986
Si Si5 0.330246 0.680158 0.724536
O O1 0.063330 0.323803 0.841261
O O2 0.096635 0.414683 0.838008
O O3 0.729586 0.262393 0.216605
O O4 0.937288 0.179930 0.265382
O O5 0.685158 0.183359 0.000000
O O6 0.811987 0.548908 0.500000
O O7 0.545652 0.561173 0.248612
O O8 0.782565 0.485615 0.218224
O O9 0.240780 0.124594 0.689974
O O10 0.215900 0.071419 0.000000
O O11 0.305367 0.678461 0.500000
#
# Coordination Sequence:
#
# PCOD9443759 Si02
#       5
#     4   8   8   8   8
#     4  12  20  33  52  80 113 145 190 220 282 339
#     4  11  24  37  55  81 114 151 187 233 273 328
#     4   9  17  30  49  76 110 143 174 227 286 327
#     4   8  15  29  50  76 111 139 175 232 280 325
#     4  10  20  38  56  81 115 148 188 227 275 335
#
# _framework density 28.498937000000002
#
# number of rings (size 3 to 8) (size 9 to 14) (size 15 to 20)
#    0.000    2.222    3.333    2.000    1.556    1.778 
#    2.000    0.000    0.000    0.000    0.000    3.111 
#    0.000    7.111    0.000    0.000    0.000    0.000 
#
# Total GULP energy -201054.698797 kJ/mol
# GULP energy per Si atom -5584.852744 kJ/mol
# Density = 2.843407 g / cm^3
# Si number density = 28.498937 Si / 1000 Ang^3
#
#
#
# Elastic Constant Matrix: (Units=GPa)
#
#
# Indices 1 2 3 4 5 6 
#
# 1 88.0170 51.6851 -48.4692 0.0000 0.0000 0.0000
# 2 51.6851 271.4612 13.0135 0.0000 0.0000 0.0000
# 3 -48.4692 13.0135 121.0822 0.0000 0.0000 0.0000
# 4 0.0000 0.0000 0.0000 13.3200 0.0000 0.0000
# 5 0.0000 0.0000 0.0000 0.0000 -105.1066 0.0000
# 6 0.0000 0.0000 0.0000 0.0000 0.0000 80.2569
#
#
#
# Elastic Compliance Matrix: (Units=1/GPa)
#
#
# Indices 1 2 3 4 5 6 
#
# 1 0.017659 -0.003720 0.007469 0.000000 0.000000 0.000000
# 2 -0.003720 0.004487 -0.001971 0.000000 0.000000 0.000000
# 3 0.007469 -0.001971 0.011460 0.000000 0.000000 0.000000
# 4 0.000000 0.000000 0.000000 0.075075 0.000000 0.000000
# 5 0.000000 0.000000 0.000000 0.000000 -0.009514 0.000000
# 6 0.000000 0.000000 0.000000 0.000000 0.000000 0.012460
#
#
# Mechanical properties :
#
#
# Convention : Reuss Voigt Hill
#
# Bulk Modulus (GPa) = 26.91061 57.00211 41.95636
# Shear Modulus (GPa) = 41.50784 28.64946 35.07865
#
# Velocity S-wave (km/s) = 3.82051 3.17406 3.51219
# Velocity P-wave (km/s) = 5.37819 5.78600 5.58582
#
# Compressibility (1/GPa) = 0.03716007
#
# Stress axis : x y z
#
# Youngs Moduli (GPa) = 56.62871 222.88647 87.25659
#
# Poissons Ratio (x) = 0.82919 -0.65169
# Poissons Ratio (y) = 0.21067 0.17202
# Poissons Ratio (z) = -0.42294 0.43940
#
# Static dielectric constant tensor:
#      x y z
#    x 2.425100 0.000000 0.000000 
#    y 0.000000 2.131170 0.000000 
#    z 0.000000 0.000000 2.202040 
# 
# From -- ./inp_files/4081.got.cif
#   From: 2010.05.17/outbox.cif.g08.bks.cpg/sg58_3_cif.got.tgz:4081.got - 2010.06.03 14:20:14.
