data_PCOD9443451
_publ_section_title
;
Structure prediction by ZEFSAII (Michael W. Deem and Ramdas Pophale) SiO2 
 PCOD9443451
Probable space group: P N N M
;
_chemical_formula_sum "Si O2"
_cell_formula_units_Z 58
_cell_length_a 18.189300
_cell_length_b 19.342559
_cell_length_c 8.339371
_cell_angle_alpha 90.000000
_cell_angle_beta 90.000000
_cell_angle_gamma 90.000000
_cell_volume 2934.020955
_symmetry_space_group_name_H-M "P N N M"
_symmetry_group_IT_number 58
_symmetry_cell_setting 'orthorhombic'
loop_
_space_group_symop_operation_xyz
x,y,z
-x,-y,z
1/2+x,1/2-y,1/2-z
1/2-x,1/2+y,1/2-z
-x,-y,-z
x,y,-z
1/2-x,1/2+y,1/2+z
1/2+x,1/2-y,1/2+z
loop_
_atom_site_type_symbol
_atom_site_label
_atom_site_fract_x
_atom_site_fract_y
_atom_site_fract_z
Si Si1 0.715969 0.190257 0.312226
Si Si2 0.142590 0.177893 0.311620
Si Si3 0.017543 0.828988 0.180596
Si Si4 0.791811 0.396773 0.188739
Si Si5 0.135255 0.734072 0.686157
Si Si6 0.095900 0.978026 0.811932
Si Si7 0.729824 0.041773 0.814516
Si Si8 0.000000 0.000000 0.500000
O O1 0.706512 0.204985 0.500000
O O2 0.663228 0.241977 0.217435
O O3 0.799250 0.212906 0.265423
O O4 0.706226 0.109509 0.281542
O O5 0.133625 0.165704 0.500000
O O6 0.213264 0.134399 0.251487
O O7 0.067063 0.161384 0.224314
O O8 0.059003 0.773192 0.288882
O O9 0.059687 0.901694 0.191998
O O10 0.024260 0.803436 0.000000
O O11 0.850831 0.336690 0.220288
O O12 0.807943 0.469799 0.268973
O O13 0.784287 0.407931 0.000000
O O14 0.145338 0.717965 0.500000
O O15 0.183011 0.971069 0.790412
O O16 0.061991 0.010874 0.648223
O O17 0.083474 0.004400 0.000000
O O18 0.718173 0.057741 0.000000
#
# Coordination Sequence:
#
# PCOD9443451 Si02
#       8
#     8   8   8   8   8   8   8   2
#     4  10  20  36  59  83 111 148 195 240 292 350
#     4  10  22  37  57  84 115 150 193 240 294 349
#     4  11  22  37  57  82 117 152 196 244 290 345
#     4  10  22  37  57  84 115 150 193 240 294 349
#     4  10  20  36  59  83 111 148 195 240 292 350
#     4  10  25  39  55  85 118 164 204 240 287 357
#     4  11  22  37  57  82 117 152 196 244 290 345
#     4  12  26  36  60  70 128 160 202 232 300 336
#
# _framework density 19.768093
#
# number of rings (size 3 to 8) (size 9 to 14) (size 15 to 20)
#    0.000    1.655    1.379    2.690    5.793    2.759 
#    0.000    0.000    0.000    0.828    0.000    5.793 
#    0.000    0.000    0.000    0.000    0.000    0.000 
#
# Total GULP energy -323350.569255 kJ/mol
# GULP energy per Si atom -5575.009815 kJ/mol
# Density = 1.972310 g / cm^3
# Si number density = 19.768093 Si / 1000 Ang^3
#
#
#
# Elastic Constant Matrix: (Units=GPa)
#
#
# Indices 1 2 3 4 5 6 
#
# 1 22.3821 0.8080 7.7607 0.0000 0.0000 0.0000
# 2 0.8080 80.3476 9.8972 0.0000 0.0000 0.0000
# 3 7.7607 9.8972 72.4423 0.0000 0.0000 0.0000
# 4 0.0000 0.0000 0.0000 28.3439 0.0000 0.0000
# 5 0.0000 0.0000 0.0000 0.0000 25.4020 0.0000
# 6 0.0000 0.0000 0.0000 0.0000 0.0000 18.8014
#
#
#
# Elastic Compliance Matrix: (Units=1/GPa)
#
#
# Indices 1 2 3 4 5 6 
#
# 1 0.046404 0.000148 -0.004991 0.000000 0.000000 0.000000
# 2 0.000148 0.012659 -0.001745 0.000000 0.000000 0.000000
# 3 -0.004991 -0.001745 0.014577 0.000000 0.000000 0.000000
# 4 0.000000 0.000000 0.000000 0.035281 0.000000 0.000000
# 5 0.000000 0.000000 0.000000 0.000000 0.039367 0.000000
# 6 0.000000 0.000000 0.000000 0.000000 0.000000 0.053188
#
#
# Mechanical properties :
#
#
# Convention : Reuss Voigt Hill
#
# Bulk Modulus (GPa) = 16.53899 23.56711 20.05305
# Shear Modulus (GPa) = 21.29398 24.95652 23.12525
#
# Velocity S-wave (km/s) = 3.28562 3.55697 3.42398
# Velocity P-wave (km/s) = 4.77267 5.36815 5.07915
#
# Compressibility (1/GPa) = 0.06046319
#
# Stress axis : x y z
#
# Youngs Moduli (GPa) = 21.54989 78.99250 68.59980
#
# Poissons Ratio (x) = -0.01171 0.34242
# Poissons Ratio (y) = -0.00319 0.11974
# Poissons Ratio (z) = 0.10757 0.13788
#
# Static dielectric constant tensor:
#      x y z
#    x 1.687030 0.000000 0.000000 
#    y 0.000000 1.707650 0.000000 
#    z 0.000000 0.000000 1.687920 
# 
# From -- ./inp_files/8005.got.cif
#   From: 2010.05.17/outbox.cif.g08.bks.cpg/sg58_5_cif.got.tgz:8005.got - 2010.06.03 14:20:14.
