data_PCOD9443174
_publ_section_title
;
Structure prediction by ZEFSAII (Michael W. Deem and Ramdas Pophale) SiO2 
 PCOD9443174
Probable space group: P N N M
;
_chemical_formula_sum "Si O2"
_cell_formula_units_Z 64
_cell_length_a 20.163458
_cell_length_b 18.867893
_cell_length_c 7.783422
_cell_angle_alpha 90.000000
_cell_angle_beta 90.000000
_cell_angle_gamma 90.000000
_cell_volume 2961.140384
_symmetry_space_group_name_H-M "P N N M"
_symmetry_group_IT_number 58
_symmetry_cell_setting 'orthorhombic'
loop_
_space_group_symop_operation_xyz
x,y,z
-x,-y,z
1/2+x,1/2-y,1/2-z
1/2-x,1/2+y,1/2-z
-x,-y,-z
x,y,-z
1/2-x,1/2+y,1/2+z
1/2+x,1/2-y,1/2+z
loop_
_atom_site_type_symbol
_atom_site_label
_atom_site_fract_x
_atom_site_fract_y
_atom_site_fract_z
Si Si1 0.335605 0.038015 0.199499
Si Si2 0.049823 0.442190 0.198600
Si Si3 0.972457 0.199241 0.296821
Si Si4 0.143346 0.696949 0.290161
Si Si5 0.590943 0.208565 0.291714
Si Si6 0.711849 0.539348 0.200336
Si Si7 0.062363 0.957668 0.801368
Si Si8 0.242777 0.304914 0.209845
O O1 0.352145 0.115994 0.268662
O O2 0.377923 0.977879 0.293984
O O3 0.258388 0.018872 0.212814
O O4 0.355311 0.035007 0.000000
O O5 0.056180 0.363863 0.274380
O O6 0.000000 0.500000 0.277794
O O7 0.029137 0.432910 0.000000
O O8 0.961394 0.189566 0.500000
O O9 0.922507 0.261122 0.236433
O O10 0.954234 0.125366 0.210881
O O11 0.046764 0.225430 0.263967
O O12 0.143893 0.694669 0.500000
O O13 0.206298 0.743935 0.235637
O O14 0.591506 0.205943 0.500000
O O15 0.667353 0.208647 0.235131
O O16 0.633700 0.528639 0.219516
O O17 0.731312 0.617887 0.266911
O O18 0.728815 0.537595 0.000000
O O19 0.068707 0.979031 0.000000
O O20 0.000000 0.000000 0.724857
O O21 0.243775 0.305574 0.000000
#
# Coordination Sequence:
#
# PCOD9443174 Si02
#       8
#     8   8   8   8   8   8   8   8
#     4  11  22  35  57  89 125 159 200 251 309 372
#     4  10  20  35  55  81 118 162 207 251 300 358
#     4  11  22  39  63  90 123 162 208 256 303 361
#     4   9  19  36  58  85 115 157 201 245 303 364
#     4  10  20  35  57  85 118 160 201 243 303 364
#     4  11  21  40  67  90 120 160 205 256 307 362
#     4  11  25  44  66  93 125 162 205 253 313 376
#     4   9  17  35  61  82 109 156 203 241 295 360
#
# _framework density 21.613294
#
# number of rings (size 3 to 8) (size 9 to 14) (size 15 to 20)
#    0.000    1.750    2.500    2.250    0.000    2.750 
#    0.000    4.375    0.000    0.000    0.000    0.000 
#    0.000    0.000    0.000    0.000    0.000    0.000 
#
# Total GULP energy -357700.670197 kJ/mol
# GULP energy per Si atom -5589.072972 kJ/mol
# Density = 2.156410 g / cm^3
# Si number density = 21.613294 Si / 1000 Ang^3
#
#
#
# Elastic Constant Matrix: (Units=GPa)
#
#
# Indices 1 2 3 4 5 6 
#
# 1 116.5933 14.2791 -8.3494 0.0000 0.0000 0.0000
# 2 14.2791 62.9885 -8.3856 0.0000 0.0000 0.0000
# 3 -8.3494 -8.3856 34.5269 0.0000 0.0000 0.0000
# 4 0.0000 0.0000 0.0000 16.2725 0.0000 0.0000
# 5 0.0000 0.0000 0.0000 0.0000 -0.8181 0.0000
# 6 0.0000 0.0000 0.0000 0.0000 0.0000 43.5914
#
#
#
# Elastic Compliance Matrix: (Units=1/GPa)
#
#
# Indices 1 2 3 4 5 6 
#
# 1 0.008920 -0.001793 0.001722 0.000000 0.000000 0.000000
# 2 -0.001793 0.016767 0.003639 0.000000 0.000000 0.000000
# 3 0.001722 0.003639 0.030263 0.000000 0.000000 0.000000
# 4 0.000000 0.000000 0.000000 0.061453 0.000000 0.000000
# 5 0.000000 0.000000 0.000000 0.000000 -1.222389 0.000000
# 6 0.000000 0.000000 0.000000 0.000000 0.000000 0.022940
#
#
# Mechanical properties :
#
#
# Convention : Reuss Voigt Hill
#
# Bulk Modulus (GPa) = 15.85188 23.24411 19.54799
# Shear Modulus (GPa) = -4.68098 26.24679 10.78291
#
# Velocity S-wave (km/s) = -1.47326 3.48858 2.23603
# Velocity P-wave (km/s) = 2.11098 5.19661 3.96617
#
# Compressibility (1/GPa) = 0.06308401
#
# Stress axis : x y z
#
# Youngs Moduli (GPa) = 112.11175 59.64190 33.04367
#
# Poissons Ratio (x) = 0.10693 -0.05689
# Poissons Ratio (y) = 0.20100 -0.12023
# Poissons Ratio (z) = -0.19301 -0.21701
#
# Static dielectric constant tensor:
#      x y z
#    x 1.779210 0.000000 0.000000 
#    y 0.000000 1.758860 0.000000 
#    z 0.000000 0.000000 1.789760 
# 
# From -- ./inp_files/9226.got.cif
#   From: 2010.05.17/outbox.cif.g08.bks.cpg/sg58_5_cif.got.tgz:9226.got - 2010.06.03 14:20:14.
