data_PCOD9443052
_publ_section_title
;
Structure prediction by ZEFSAII (Michael W. Deem and Ramdas Pophale) SiO2 
 PCOD9443052
Probable space group: P N N M
;
_chemical_formula_sum "Si O2"
_cell_formula_units_Z 64
_cell_length_a 19.600224
_cell_length_b 20.236968
_cell_length_c 9.275395
_cell_angle_alpha 90.000000
_cell_angle_beta 90.000000
_cell_angle_gamma 90.000000
_cell_volume 3679.077133
_symmetry_space_group_name_H-M "P N N M"
_symmetry_group_IT_number 58
_symmetry_cell_setting 'orthorhombic'
loop_
_space_group_symop_operation_xyz
x,y,z
-x,-y,z
1/2+x,1/2-y,1/2-z
1/2-x,1/2+y,1/2-z
-x,-y,-z
x,y,-z
1/2-x,1/2+y,1/2+z
1/2+x,1/2-y,1/2+z
loop_
_atom_site_type_symbol
_atom_site_label
_atom_site_fract_x
_atom_site_fract_y
_atom_site_fract_z
Si Si1 0.205408 0.007153 0.827169
Si Si2 0.539257 0.067321 0.328249
Si Si3 0.074282 0.676512 0.827987
Si Si4 0.593150 0.688883 0.829541
Si Si5 0.821910 0.599473 0.328633
Si Si6 0.246113 0.286113 0.832033
Si Si7 0.713244 0.860544 0.827754
Si Si8 0.068999 0.961222 0.673605
O O1 0.259376 0.949448 0.792073
O O2 0.134808 0.993642 0.747218
O O3 0.241662 0.076290 0.788790
O O4 0.194345 0.006807 0.000000
O O5 0.552838 0.065820 0.500000
O O6 0.489519 0.128978 0.298266
O O7 0.609336 0.073933 0.243737
O O8 0.500000 0.000000 0.290285
O O9 0.065375 0.749195 0.760061
O O10 0.142172 0.645016 0.757012
O O11 0.083407 0.681210 0.000000
O O12 0.675380 0.690683 0.811482
O O13 0.566614 0.616592 0.786635
O O14 0.579733 0.699278 0.000000
O O15 0.829156 0.600693 0.500000
O O16 0.802377 0.670966 0.267207
O O17 0.246977 0.208052 0.801860
O O18 0.228591 0.296712 0.000000
O O19 0.698400 0.863351 0.000000
O O20 0.077149 0.963745 0.500000
O O21 0.000000 0.000000 0.711855
#
# Coordination Sequence:
#
# PCOD9443052 Si02
#       8
#     8   8   8   8   8   8   8   8
#     4  10  21  37  57  84 114 143 181 227 277 328
#     4  10  22  39  56  78 111 150 188 225 273 332
#     4  10  20  34  56  85 111 143 189 234 271 321
#     4   9  18  35  58  80 108 147 182 220 275 331
#     4  11  22  34  55  84 111 142 182 231 277 321
#     4   9  17  33  56  77 103 144 183 216 264 327
#     4   9  19  36  57  81 112 149 182 220 275 330
#     4  10  21  38  59  82 109 143 185 228 274 332
#
# _framework density 17.395665999999999
#
# number of rings (size 3 to 8) (size 9 to 14) (size 15 to 20)
#    0.000    2.250    1.250    2.250    0.000    5.000 
#    2.250    0.000    0.000    0.000    0.000    0.000 
#    0.000    0.000    0.000    0.000    0.000    0.000 
#
# Total GULP energy -357203.274170 kJ/mol
# GULP energy per Si atom -5581.301159 kJ/mol
# Density = 1.735607 g / cm^3
# Si number density = 17.395666 Si / 1000 Ang^3
#
#
#
# Elastic Constant Matrix: (Units=GPa)
#
#
# Indices 1 2 3 4 5 6 
#
# 1 110.9303 60.5343 58.8458 0.0000 0.0000 0.0000
# 2 60.5343 111.5497 46.5986 0.0000 0.0000 0.0000
# 3 58.8458 46.5986 42.8001 0.0000 0.0000 0.0000
# 4 0.0000 0.0000 0.0000 26.0867 0.0000 0.0000
# 5 0.0000 0.0000 0.0000 0.0000 28.1218 0.0000
# 6 0.0000 0.0000 0.0000 0.0000 0.0000 20.4970
#
#
#
# Elastic Compliance Matrix: (Units=1/GPa)
#
#
# Indices 1 2 3 4 5 6 
#
# 1 0.033537 0.001949 -0.048231 0.000000 0.000000 0.000000
# 2 0.001949 0.016556 -0.020705 0.000000 0.000000 0.000000
# 3 -0.048231 -0.020705 0.112220 0.000000 0.000000 0.000000
# 4 0.000000 0.000000 0.000000 0.038334 0.000000 0.000000
# 5 0.000000 0.000000 0.000000 0.000000 0.035560 0.000000
# 6 0.000000 0.000000 0.000000 0.000000 0.000000 0.048788
#
#
# Mechanical properties :
#
#
# Convention : Reuss Voigt Hill
#
# Bulk Modulus (GPa) = 35.28828 66.35970 50.82399
# Shear Modulus (GPa) = 11.67091 21.56120 16.61606
#
# Velocity S-wave (km/s) = 2.59300 3.52441 3.09396
# Velocity P-wave (km/s) = 5.41245 7.40217 6.48408
#
# Compressibility (1/GPa) = 0.02833802
#
# Stress axis : x y z
#
# Youngs Moduli (GPa) = 29.81805 60.39962 8.91106
#
# Poissons Ratio (x) = -0.11771 0.42979
# Poissons Ratio (y) = -0.05811 0.18450
# Poissons Ratio (z) = 1.43816 1.25058
#
# Static dielectric constant tensor:
#      x y z
#    x 1.553720 0.000000 0.000000 
#    y 0.000000 1.580320 0.000000 
#    z 0.000000 0.000000 1.577910 
# 
# From -- ./inp_files/8323.got.cif
#   From: 2010.05.17/outbox.cif.g08.bks.cpg/sg58_5_cif.got.tgz:8323.got - 2010.06.03 14:20:14.
