data_PCOD9443046
_publ_section_title
;
Structure prediction by ZEFSAII (Michael W. Deem and Ramdas Pophale) SiO2 
 PCOD9443046
Probable space group: P N N M
;
_chemical_formula_sum "Si O2"
_cell_formula_units_Z 48
_cell_length_a 12.378853
_cell_length_b 11.683393
_cell_length_c 18.519825
_cell_angle_alpha 90.000000
_cell_angle_beta 90.000000
_cell_angle_gamma 90.000000
_cell_volume 2678.466813
_symmetry_space_group_name_H-M "P N N M"
_symmetry_group_IT_number 58
_symmetry_cell_setting 'orthorhombic'
loop_
_space_group_symop_operation_xyz
x,y,z
-x,-y,z
1/2+x,1/2-y,1/2-z
1/2-x,1/2+y,1/2-z
-x,-y,-z
x,y,-z
1/2-x,1/2+y,1/2+z
1/2+x,1/2-y,1/2+z
loop_
_atom_site_type_symbol
_atom_site_label
_atom_site_fract_x
_atom_site_fract_y
_atom_site_fract_z
Si Si1 0.500000 0.000000 0.226808
Si Si2 0.467442 0.363263 0.000000
Si Si3 0.376076 0.969627 0.500000
Si Si4 0.993482 0.264447 0.652322
Si Si5 0.108464 0.068715 0.738497
Si Si6 0.189782 0.470078 0.160790
Si Si7 0.255896 0.710882 0.655745
Si Si8 0.740924 0.246933 0.500000
O O1 0.524944 0.106253 0.173518
O O2 0.601326 0.983049 0.282143
O O3 0.500000 0.500000 0.000000
O O4 0.501194 0.291079 0.928293
O O5 0.337115 0.348353 0.000000
O O6 0.328857 0.008937 0.422235
O O7 0.363960 0.831808 0.500000
O O8 0.500000 0.000000 0.500000
O O9 0.867638 0.263190 0.676388
O O10 0.066084 0.181810 0.699659
O O11 0.183299 0.111420 0.803196
O O12 0.189295 0.002126 0.685163
O O13 0.000000 0.000000 0.757837
O O14 0.182343 0.331913 0.162539
O O15 0.249766 0.681220 0.571506
#
# Coordination Sequence:
#
# PCOD9443046 Si02
#       8
#     4   4   4   8   8   8   8   4
#     4  12  22  38  60  88 124 168 204 254 314 386
#     4  10  22  39  61  90 123 153 202 257 314 374
#     4  10  20  34  56  83 115 164 207 249 300 360
#     4  11  23  37  61  88 122 163 203 256 316 378
#     4  12  23  36  62  95 124 158 215 269 321 379
#     4  11  22  37  58  88 126 162 210 261 312 380
#     4  10  20  39  57  86 119 161 202 252 318 380
#     4   8  20  36  58  81 116 156 201 243 307 375
#
# _framework density 17.920698999999999
#
# number of rings (size 3 to 8) (size 9 to 14) (size 15 to 20)
#    0.000    1.333    5.833    0.500    4.667    0.333 
#    0.000    0.833    0.000    0.000    0.000    0.000 
#    0.000    0.000    0.000    0.000    0.000    0.000 
#
# Total GULP energy -267231.839931 kJ/mol
# GULP energy per Si atom -5567.329999 kJ/mol
# Density = 1.787991 g / cm^3
# Si number density = 17.920699 Si / 1000 Ang^3
#
#
#
# Elastic Constant Matrix: (Units=GPa)
#
#
# Indices 1 2 3 4 5 6 
#
# 1 89.4354 14.3595 45.3775 0.0000 0.0000 0.0000
# 2 14.3595 85.9576 54.7901 0.0000 0.0000 0.0000
# 3 45.3775 54.7901 119.9645 0.0000 0.0000 0.0000
# 4 0.0000 0.0000 0.0000 5.2614 0.0000 0.0000
# 5 0.0000 0.0000 0.0000 0.0000 22.3818 0.0000
# 6 0.0000 0.0000 0.0000 0.0000 0.0000 25.4573
#
#
#
# Elastic Compliance Matrix: (Units=1/GPa)
#
#
# Indices 1 2 3 4 5 6 
#
# 1 0.013965 0.001459 -0.005949 0.000000 0.000000 0.000000
# 2 0.001459 0.016564 -0.008117 0.000000 0.000000 0.000000
# 3 -0.005949 -0.008117 0.014293 0.000000 0.000000 0.000000
# 4 0.000000 0.000000 0.000000 0.190062 0.000000 0.000000
# 5 0.000000 0.000000 0.000000 0.000000 0.044679 0.000000
# 6 0.000000 0.000000 0.000000 0.000000 0.000000 0.039281
#
#
# Mechanical properties :
#
#
# Convention : Reuss Voigt Hill
#
# Bulk Modulus (GPa) = 50.99794 58.26797 54.63296
# Shear Modulus (GPa) = 14.26149 22.67547 18.46848
#
# Velocity S-wave (km/s) = 2.82407 3.56100 3.21373
# Velocity P-wave (km/s) = 6.25725 7.03509 6.65754
#
# Compressibility (1/GPa) = 0.01960863
#
# Stress axis : x y z
#
# Youngs Moduli (GPa) = 71.60607 60.37327 69.96411
#
# Poissons Ratio (x) = -0.08808 0.41620
# Poissons Ratio (y) = -0.10446 0.56788
# Poissons Ratio (z) = 0.42597 0.49003
#
# Static dielectric constant tensor:
#      x y z
#    x 1.662110 0.000000 0.000000 
#    y 0.000000 1.621930 0.000000 
#    z 0.000000 0.000000 1.677920 
# 
# From -- ./inp_files/29584.got.cif
#   From: 2010.05.17/outbox.cif.g08.bks.cpg/sg58_15_cif.got.tgz:29584.got - 2010.06.03 14:20:14.
