data_PCOD9443914
_publ_section_title
;
Structure prediction by ZEFSAII (Michael W. Deem and Ramdas Pophale) SiO2 
 PCOD9443914
Probable space group: P N N M
;
_chemical_formula_sum "Si O2"
_cell_formula_units_Z 24
_cell_length_a 8.550285
_cell_length_b 10.965238
_cell_length_c 12.164693
_cell_angle_alpha 90.000000
_cell_angle_beta 90.000000
_cell_angle_gamma 90.000000
_cell_volume 1140.511862
_symmetry_space_group_name_H-M "P N N M"
_symmetry_group_IT_number 58
_symmetry_cell_setting 'orthorhombic'
loop_
_space_group_symop_operation_xyz
x,y,z
-x,-y,z
1/2+x,1/2-y,1/2-z
1/2-x,1/2+y,1/2-z
-x,-y,-z
x,y,-z
1/2-x,1/2+y,1/2+z
1/2+x,1/2-y,1/2+z
loop_
_atom_site_type_symbol
_atom_site_label
_atom_site_fract_x
_atom_site_fract_y
_atom_site_fract_z
Si Si1 0.183871 0.494888 0.000000
Si Si2 0.452865 0.647028 0.000000
Si Si3 0.301874 0.298459 0.829219
Si Si4 0.495985 0.357538 0.370846
O O1 0.232165 0.418821 0.890168
O O2 0.000000 0.500000 0.000000
O O3 0.269181 0.625256 0.000000
O O4 0.500000 0.500000 0.000000
O O5 0.535056 0.712676 0.102584
O O6 0.359202 0.304310 0.705012
O O7 0.166283 0.200218 0.846841
O O8 0.500000 0.500000 0.342187
O O9 0.467287 0.344633 0.500000
#
# Coordination Sequence:
#
# PCOD9443914 Si02
#       4
#     4   4   8   8
#     4  10  20  38  70  99 129 175 240 292 342 405
#     4   8  16  36  62  91 122 165 229 280 328 401
#     4  10  21  41  62  97 131 181 227 286 344 416
#     4  11  23  43  68  97 140 182 226 290 364 422
#
# _framework density 21.043185000000001
#
# number of rings (size 3 to 8) (size 9 to 14) (size 15 to 20)
#    0.000    2.333    3.333    3.000    0.000    5.333 
#    6.000    0.000    0.000    5.000    0.000    0.000 
#    0.000    0.000    0.000    0.000    0.000    0.000 
#
# Total GULP energy -133781.372128 kJ/mol
# GULP energy per Si atom -5574.223839 kJ/mol
# Density = 2.099529 g / cm^3
# Si number density = 21.043185 Si / 1000 Ang^3
#
#
#
# Elastic Constant Matrix: (Units=GPa)
#
#
# Indices 1 2 3 4 5 6 
#
# 1 125.7495 44.9716 18.5986 0.0000 0.0000 0.0000
# 2 44.9716 81.1555 16.6107 0.0000 0.0000 0.0000
# 3 18.5986 16.6107 78.6169 0.0000 0.0000 0.0000
# 4 0.0000 0.0000 0.0000 14.3162 0.0000 0.0000
# 5 0.0000 0.0000 0.0000 0.0000 40.2648 0.0000
# 6 0.0000 0.0000 0.0000 0.0000 0.0000 53.9642
#
#
#
# Elastic Compliance Matrix: (Units=1/GPa)
#
#
# Indices 1 2 3 4 5 6 
#
# 1 0.010035 -0.005304 -0.001253 0.000000 0.000000 0.000000
# 2 -0.005304 0.015683 -0.002059 0.000000 0.000000 0.000000
# 3 -0.001253 -0.002059 0.013451 0.000000 0.000000 0.000000
# 4 0.000000 0.000000 0.000000 0.069851 0.000000 0.000000
# 5 0.000000 0.000000 0.000000 0.000000 0.024836 0.000000
# 6 0.000000 0.000000 0.000000 0.000000 0.000000 0.018531
#
#
# Mechanical properties :
#
#
# Convention : Reuss Voigt Hill
#
# Bulk Modulus (GPa) = 45.58611 49.54264 47.56438
# Shear Modulus (GPa) = 28.25976 35.39844 31.82910
#
# Velocity S-wave (km/s) = 3.66859 4.10589 3.89338
# Velocity P-wave (km/s) = 6.29721 6.78765 6.54703
#
# Compressibility (1/GPa) = 0.02193651
#
# Stress axis : x y z
#
# Youngs Moduli (GPa) = 99.65572 63.76498 74.34180
#
# Poissons Ratio (x) = 0.33821 0.09317
# Poissons Ratio (y) = 0.52858 0.15305
# Poissons Ratio (z) = 0.12489 0.13128
#
# Static dielectric constant tensor:
#      x y z
#    x 1.863430 0.000000 0.000000 
#    y 0.000000 1.776870 0.000000 
#    z 0.000000 0.000000 1.810130 
# 
# From -- ./inp_files/12149.got.cif
#   From: 2010.05.17/outbox.cif.g08.bks.cpg/sg58_7_cif.got.tgz:12149.got - 2010.06.03 14:20:14.
