data_PCOD9443444
_publ_section_title
;
Structure prediction by ZEFSAII (Michael W. Deem and Ramdas Pophale) SiO2 
 PCOD9443444
Probable space group: P N N M
;
_chemical_formula_sum "Si O2"
_cell_formula_units_Z 64
_cell_length_a 19.398346
_cell_length_b 8.826841
_cell_length_c 21.215755
_cell_angle_alpha 90.000000
_cell_angle_beta 90.000000
_cell_angle_gamma 90.000000
_cell_volume 3632.691323
_symmetry_space_group_name_H-M "P N N M"
_symmetry_group_IT_number 58
_symmetry_cell_setting 'orthorhombic'
loop_
_space_group_symop_operation_xyz
x,y,z
-x,-y,z
1/2+x,1/2-y,1/2-z
1/2-x,1/2+y,1/2-z
-x,-y,-z
x,y,-z
1/2-x,1/2+y,1/2+z
1/2+x,1/2-y,1/2+z
loop_
_atom_site_type_symbol
_atom_site_label
_atom_site_fract_x
_atom_site_fract_y
_atom_site_fract_z
Si Si1 0.705471 0.415554 0.074792
Si Si2 0.430953 0.561277 0.273044
Si Si3 0.927979 0.587584 0.257335
Si Si4 0.206000 0.464912 0.816179
Si Si5 0.560806 0.880294 0.930931
Si Si6 0.829754 0.578212 0.619867
Si Si7 0.719877 0.395540 0.303834
Si Si8 0.428210 0.426443 0.866389
O O1 0.769880 0.475814 0.115981
O O2 0.690252 0.242055 0.094396
O O3 0.638038 0.509799 0.097170
O O4 0.714958 0.429011 0.000000
O O5 0.500000 0.500000 0.304901
O O6 0.442062 0.737437 0.257729
O O7 0.359110 0.552919 0.308894
O O8 0.422074 0.471467 0.206908
O O9 0.873880 0.521995 0.205398
O O10 0.883895 0.590414 0.321943
O O11 0.000000 0.500000 0.261211
O O12 0.251090 0.557089 0.764831
O O13 0.223565 0.285891 0.810505
O O14 0.565194 0.751780 0.878428
O O15 0.500000 0.000000 0.920529
O O16 0.630345 0.976339 0.930000
O O17 0.549964 0.808737 0.000000
O O18 0.765607 0.485227 0.646489
O O19 0.500000 0.500000 0.889193
#
# Coordination Sequence:
#
# PCOD9443444 Si02
#       8
#     8   8   8   8   8   8   8   8
#     4  12  23  39  58  79 116 157 199 238 282 340
#     4  10  21  34  53  82 112 141 181 220 284 349
#     4  10  21  35  57  85 113 143 180 234 295 345
#     4  10  20  38  56  85 111 145 193 234 292 343
#     4  11  24  38  52  74 109 153 198 234 271 322
#     4  11  22  35  55  82 112 147 190 233 284 336
#     4  10  20  36  59  80 115 146 182 243 291 342
#     4  11  22  36  53  75 109 147 192 233 274 330
#
# _framework density 17.617792000000001
#
# number of rings (size 3 to 8) (size 9 to 14) (size 15 to 20)
#    0.000    1.375    2.500    4.125    5.250    4.000 
#    0.000    0.625    0.000    0.375    0.000    0.000 
#    0.000    6.000    0.000    0.000    0.000    0.000 
#
# Total GULP energy -357489.912161 kJ/mol
# GULP energy per Si atom -5585.779878 kJ/mol
# Density = 1.757769 g / cm^3
# Si number density = 17.617792 Si / 1000 Ang^3
#
#
#
# Elastic Constant Matrix: (Units=GPa)
#
#
# Indices 1 2 3 4 5 6 
#
# 1 108.0629 39.2470 37.8301 0.0000 0.0000 0.0000
# 2 39.2470 75.1719 15.5852 0.0000 0.0000 0.0000
# 3 37.8301 15.5852 71.8256 0.0000 0.0000 0.0000
# 4 0.0000 0.0000 0.0000 -393.7518 0.0000 0.0000
# 5 0.0000 0.0000 0.0000 0.0000 33.8089 0.0000
# 6 0.0000 0.0000 0.0000 0.0000 0.0000 28.3110
#
#
#
# Elastic Compliance Matrix: (Units=1/GPa)
#
#
# Indices 1 2 3 4 5 6 
#
# 1 0.013384 -0.005786 -0.005793 0.000000 0.000000 0.000000
# 2 -0.005786 0.016431 -0.000518 0.000000 0.000000 0.000000
# 3 -0.005793 -0.000518 0.017086 0.000000 0.000000 0.000000
# 4 0.000000 0.000000 0.000000 -0.002540 0.000000 0.000000
# 5 0.000000 0.000000 0.000000 0.000000 0.029578 0.000000
# 6 0.000000 0.000000 0.000000 0.000000 0.000000 0.035322
#
#
# Mechanical properties :
#
#
# Convention : Reuss Voigt Hill
#
# Bulk Modulus (GPa) = 44.04121 48.93168 46.48645
# Shear Modulus (GPa) = 35.45467 -55.49983 -10.02258
#
# Velocity S-wave (km/s) = 4.49088 -5.61877 -2.38773
# Velocity P-wave (km/s) = 7.20716 3.77621 4.34070
#
# Compressibility (1/GPa) = 0.02270600
#
# Stress axis : x y z
#
# Youngs Moduli (GPa) = 74.71866 60.85973 58.52629
#
# Poissons Ratio (x) = 0.35216 0.33907
# Poissons Ratio (y) = 0.43235 0.03030
# Poissons Ratio (z) = 0.43288 0.03151
#
# Static dielectric constant tensor:
#      x y z
#    x 1.618530 0.000000 0.000000 
#    y 0.000000 1.600370 0.000000 
#    z 0.000000 0.000000 1.600530 
# 
# From -- ./inp_files/32345.got.cif
#   From: 2010.05.17/outbox.cif.g08.bks.cpg/sg58_17_cif.got.tgz:32345.got - 2010.06.03 14:20:14.
