data_PCOD9443505
_publ_section_title
;
Structure prediction by ZEFSAII (Michael W. Deem and Ramdas Pophale) SiO2 
 PCOD9443505
Probable space group: P N N M
;
_chemical_formula_sum "Si O2"
_cell_formula_units_Z 40
_cell_length_a 12.855284
_cell_length_b 8.923696
_cell_length_c 18.546350
_cell_angle_alpha 90.000000
_cell_angle_beta 90.000000
_cell_angle_gamma 90.000000
_cell_volume 2127.575075
_symmetry_space_group_name_H-M "P N N M"
_symmetry_group_IT_number 58
_symmetry_cell_setting 'orthorhombic'
loop_
_space_group_symop_operation_xyz
x,y,z
-x,-y,z
1/2+x,1/2-y,1/2-z
1/2-x,1/2+y,1/2-z
-x,-y,-z
x,y,-z
1/2-x,1/2+y,1/2+z
1/2+x,1/2-y,1/2+z
loop_
_atom_site_type_symbol
_atom_site_label
_atom_site_fract_x
_atom_site_fract_y
_atom_site_fract_z
Si Si1 0.618235 0.013511 0.778498
Si Si2 0.881857 0.968027 0.085008
Si Si3 0.311322 0.828648 0.916332
Si Si4 0.121984 0.990818 0.585518
Si Si5 0.248362 0.260866 0.180591
O O1 0.678250 0.855943 0.777390
O O2 0.500000 0.000000 0.753746
O O3 0.621544 0.074024 0.860848
O O4 0.682523 0.133929 0.732906
O O5 0.828773 0.838504 0.131664
O O6 0.806757 0.112578 0.092798
O O7 0.882241 0.927754 0.000000
O O8 0.000000 0.000000 0.107218
O O9 0.327162 0.653538 0.901376
O O10 0.340701 0.854746 0.000000
O O11 0.129255 0.958438 0.500000
O O12 0.179995 0.864702 0.630573
O O13 0.000000 0.000000 0.604429
#
# Coordination Sequence:
#
# PCOD9443505 Si02
#       5
#     8   8   8   8   8
#     4  11  24  39  57  82 113 151 189 230 282 336
#     4   9  19  37  60  84 111 147 188 231 280 331
#     4   9  19  37  59  83 111 143 187 237 280 330
#     4  10  20  36  60  87 114 145 183 231 283 332
#     4  11  23  37  56  82 115 149 189 231 277 338
#
# _framework density 18.800746
#
# number of rings (size 3 to 8) (size 9 to 14) (size 15 to 20)
#    0.000    2.000    0.000    3.000    0.000    6.000 
#    0.000    2.000    0.000    6.000    0.000    0.000 
#    0.000    0.000    0.000    0.000    0.000    0.000 
#
# Total GULP energy -223452.386929 kJ/mol
# GULP energy per Si atom -5586.309673 kJ/mol
# Density = 1.875796 g / cm^3
# Si number density = 18.800746 Si / 1000 Ang^3
#
#
#
# Elastic Constant Matrix: (Units=GPa)
#
#
# Indices 1 2 3 4 5 6 
#
# 1 155.4230 96.3903 63.9685 0.0000 0.0000 0.0000
# 2 96.3903 145.3341 62.0375 0.0000 0.0000 0.0000
# 3 63.9685 62.0375 55.2443 0.0000 0.0000 0.0000
# 4 0.0000 0.0000 0.0000 15.9605 0.0000 0.0000
# 5 0.0000 0.0000 0.0000 0.0000 18.7282 0.0000
# 6 0.0000 0.0000 0.0000 0.0000 0.0000 14.6701
#
#
#
# Elastic Compliance Matrix: (Units=1/GPa)
#
#
# Indices 1 2 3 4 5 6 
#
# 1 0.013627 -0.004422 -0.010813 0.000000 0.000000 0.000000
# 2 -0.004422 0.014651 -0.011332 0.000000 0.000000 0.000000
# 3 -0.010813 -0.011332 0.043347 0.000000 0.000000 0.000000
# 4 0.000000 0.000000 0.000000 0.062655 0.000000 0.000000
# 5 0.000000 0.000000 0.000000 0.000000 0.053395 0.000000
# 6 0.000000 0.000000 0.000000 0.000000 0.000000 0.068166
#
#
# Mechanical properties :
#
#
# Convention : Reuss Voigt Hill
#
# Bulk Modulus (GPa) = 54.08021 88.97710 71.52866
# Shear Modulus (GPa) = 15.86605 18.77877 17.32241
#
# Velocity S-wave (km/s) = 2.90816 3.16386 3.03870
# Velocity P-wave (km/s) = 6.33276 7.79588 7.10210
#
# Compressibility (1/GPa) = 0.01849105
#
# Stress axis : x y z
#
# Youngs Moduli (GPa) = 73.38380 68.25601 23.06959
#
# Poissons Ratio (x) = 0.30184 0.24945
# Poissons Ratio (y) = 0.32452 0.26142
# Poissons Ratio (z) = 0.79350 0.77346
#
# Static dielectric constant tensor:
#      x y z
#    x 1.625880 0.000000 0.000000 
#    y 0.000000 1.620940 0.000000 
#    z 0.000000 0.000000 1.658840 
# 
# From -- ./inp_files/24927.got.cif
#   From: 2010.05.17/outbox.cif.g08.bks.cpg/sg58_13_cif.got.tgz:24927.got - 2010.06.03 14:20:14.
