data_PCOD9443745
_publ_section_title
;
Structure prediction by ZEFSAII (Michael W. Deem and Ramdas Pophale) SiO2 
 PCOD9443745
Probable space group: P N N M
;
_chemical_formula_sum "Si O2"
_cell_formula_units_Z 56
_cell_length_a 11.948414
_cell_length_b 14.287004
_cell_length_c 16.550874
_cell_angle_alpha 90.000000
_cell_angle_beta 90.000000
_cell_angle_gamma 90.000000
_cell_volume 2825.350687
_symmetry_space_group_name_H-M "P N N M"
_symmetry_group_IT_number 58
_symmetry_cell_setting 'orthorhombic'
loop_
_space_group_symop_operation_xyz
x,y,z
-x,-y,z
1/2+x,1/2-y,1/2-z
1/2-x,1/2+y,1/2-z
-x,-y,-z
x,y,-z
1/2-x,1/2+y,1/2+z
1/2+x,1/2-y,1/2+z
loop_
_atom_site_type_symbol
_atom_site_label
_atom_site_fract_x
_atom_site_fract_y
_atom_site_fract_z
Si Si1 0.197305 0.638638 0.088136
Si Si2 0.134403 0.761412 0.328297
Si Si3 0.389529 0.060168 0.243220
Si Si4 0.441419 0.593354 0.852255
Si Si5 0.896811 0.184143 0.150505
Si Si6 0.154911 0.022362 0.821013
Si Si7 0.137830 0.212048 0.093800
O O1 0.134230 0.593024 0.164670
O O2 0.327346 0.617936 0.103376
O O3 0.175633 0.750081 0.093021
O O4 0.161880 0.603820 0.000000
O O5 0.102922 0.653469 0.311920
O O6 0.154082 0.801052 0.238872
O O7 0.250930 0.765350 0.376599
O O8 0.030994 0.823192 0.358832
O O9 0.280095 0.005205 0.212049
O O10 0.500000 0.000000 0.238382
O O11 0.500000 0.500000 0.884405
O O12 0.407401 0.567225 0.758441
O O13 0.022224 0.226646 0.142487
O O14 0.896176 0.072253 0.141905
O O15 0.161302 0.102946 0.887839
O O16 0.116856 0.229696 0.000000
#
# Coordination Sequence:
#
# PCOD9443745 Si02
#       7
#     8   8   8   8   8   8   8
#     4  10  24  39  55  92 129 159 205 254 316 381
#     4  10  22  38  65  89 122 161 212 258 302 372
#     4   9  21  38  62  91 118 164 207 255 309 371
#     4  11  20  41  67  89 117 165 219 263 302 364
#     4  11  21  37  67  89 125 163 210 263 312 370
#     4  10  20  37  63  96 119 157 213 266 309 370
#     4  11  23  39  59  94 132 162 203 258 325 379
#
# _framework density 19.820549
#
# number of rings (size 3 to 8) (size 9 to 14) (size 15 to 20)
#    0.000    1.714    2.857    1.714    2.000    4.000 
#    0.000    0.000    0.000    1.714    0.000    0.000 
#    0.000    0.000    0.000    0.000    0.000    0.000 
#
# Total GULP energy -312288.358489 kJ/mol
# GULP energy per Si atom -5576.577830 kJ/mol
# Density = 1.977544 g / cm^3
# Si number density = 19.820549 Si / 1000 Ang^3
#
#
#
# Elastic Constant Matrix: (Units=GPa)
#
#
# Indices 1 2 3 4 5 6 
#
# 1 128.3701 56.7189 14.6629 0.0000 0.0000 0.0000
# 2 56.7189 68.8491 0.3324 0.0000 0.0000 0.0000
# 3 14.6629 0.3324 45.8590 0.0000 0.0000 0.0000
# 4 0.0000 0.0000 0.0000 96.2731 0.0000 0.0000
# 5 0.0000 0.0000 0.0000 0.0000 -21.4638 0.0000
# 6 0.0000 0.0000 0.0000 0.0000 0.0000 43.7407
#
#
#
# Elastic Compliance Matrix: (Units=1/GPa)
#
#
# Indices 1 2 3 4 5 6 
#
# 1 0.012965 -0.010661 -0.004068 0.000000 0.000000 0.000000
# 2 -0.010661 0.023292 0.003240 0.000000 0.000000 0.000000
# 3 -0.004068 0.003240 0.023083 0.000000 0.000000 0.000000
# 4 0.000000 0.000000 0.000000 0.010387 0.000000 0.000000
# 5 0.000000 0.000000 0.000000 0.000000 -0.046590 0.000000
# 6 0.000000 0.000000 0.000000 0.000000 0.000000 0.022862
#
#
# Mechanical properties :
#
#
# Convention : Reuss Voigt Hill
#
# Bulk Modulus (GPa) = 27.50176 42.94516 35.22346
# Shear Modulus (GPa) = 61.65308 35.13426 48.39367
#
# Velocity S-wave (km/s) = 5.58329 4.21481 4.94661
# Velocity P-wave (km/s) = 7.44780 6.73797 7.10176
#
# Compressibility (1/GPa) = 0.03636131
#
# Stress axis : x y z
#
# Youngs Moduli (GPa) = 77.12924 42.93350 43.32143
#
# Poissons Ratio (x) = 0.45773 0.17624
# Poissons Ratio (y) = 0.82230 -0.14036
# Poissons Ratio (z) = 0.31378 -0.13911
#
# Static dielectric constant tensor:
#      x y z
#    x 1.709930 0.000000 0.000000 
#    y 0.000000 1.741960 0.000000 
#    z 0.000000 0.000000 1.699980 
# 
# From -- ./inp_files/21266.got.cif
#   From: 2010.05.17/outbox.cif.g08.bks.cpg/sg58_11_cif.got.tgz:21266.got - 2010.06.03 14:20:14.
