data_PCOD9443946
_publ_section_title
;
Structure prediction by ZEFSAII (Michael W. Deem and Ramdas Pophale) SiO2 
 PCOD9443946
Probable space group: P N N M
;
_chemical_formula_sum "Si O2"
_cell_formula_units_Z 48
_cell_length_a 9.277147
_cell_length_b 28.426155
_cell_length_c 9.570485
_cell_angle_alpha 90.000000
_cell_angle_beta 90.000000
_cell_angle_gamma 90.000000
_cell_volume 2523.867231
_symmetry_space_group_name_H-M "P N N M"
_symmetry_group_IT_number 58
_symmetry_cell_setting 'orthorhombic'
loop_
_space_group_symop_operation_xyz
x,y,z
-x,-y,z
1/2+x,1/2-y,1/2-z
1/2-x,1/2+y,1/2-z
-x,-y,-z
x,y,-z
1/2-x,1/2+y,1/2+z
1/2+x,1/2-y,1/2+z
loop_
_atom_site_type_symbol
_atom_site_label
_atom_site_fract_x
_atom_site_fract_y
_atom_site_fract_z
Si Si1 0.164011 0.016818 0.841058
Si Si2 0.020992 0.802291 0.335065
Si Si3 0.310918 0.784833 0.165402
Si Si4 0.677355 0.387686 0.166297
Si Si5 0.626376 0.038762 0.343283
Si Si6 0.997332 0.357084 0.162999
O O1 0.177298 0.064266 0.751564
O O2 0.258579 0.976306 0.770311
O O3 0.211269 0.025453 0.000000
O O4 0.000000 0.000000 0.841156
O O5 0.060523 0.802085 0.500000
O O6 0.157761 0.788238 0.242827
O O7 0.891551 0.765012 0.316750
O O8 0.956409 0.853613 0.300492
O O9 0.416267 0.822915 0.236093
O O10 0.293395 0.793081 0.000000
O O11 0.827363 0.360457 0.193422
O O12 0.675336 0.397913 0.000000
O O13 0.690116 0.036824 0.500000
O O14 0.559970 0.090178 0.323432
O O15 0.500000 0.000000 0.337726
O O16 0.014998 0.342654 0.000000
#
# Coordination Sequence:
#
# PCOD9443946 Si02
#       6
#     8   8   8   8   8   8
#     4  11  25  40  56  86 127 161 196 251 309 355
#     4  10  23  42  64  90 120 158 201 243 294 355
#     4  11  24  41  64  93 124 157 195 245 302 357
#     4  10  21  41  65  87 115 158 208 248 289 355
#     4  10  20  39  64  88 115 159 210 248 288 351
#     4  10  21  39  64  91 121 156 201 250 296 353
#
# _framework density 19.018433000000002
#
# number of rings (size 3 to 8) (size 9 to 14) (size 15 to 20)
#    0.000    1.667    1.667    2.000    2.333    6.333 
#    0.000    0.000    0.000    0.000    0.000    0.000 
#    0.000    0.000    0.000    0.000    0.000    0.000 
#
# Total GULP energy -268245.271803 kJ/mol
# GULP energy per Si atom -5588.443163 kJ/mol
# Density = 1.897515 g / cm^3
# Si number density = 19.018433 Si / 1000 Ang^3
#
#
#
# Elastic Constant Matrix: (Units=GPa)
#
#
# Indices 1 2 3 4 5 6 
#
# 1 79.2753 5.8408 52.1409 0.0000 0.0000 0.0000
# 2 5.8408 47.4385 26.9831 0.0000 0.0000 0.0000
# 3 52.1409 26.9831 78.9287 0.0000 0.0000 0.0000
# 4 0.0000 0.0000 0.0000 31.6233 0.0000 0.0000
# 5 0.0000 0.0000 0.0000 0.0000 35.2809 0.0000
# 6 0.0000 0.0000 0.0000 0.0000 0.0000 27.4635
#
#
#
# Elastic Compliance Matrix: (Units=1/GPa)
#
#
# Indices 1 2 3 4 5 6 
#
# 1 0.024347 0.007636 -0.018694 0.000000 0.000000 0.000000
# 2 0.007636 0.028563 -0.014809 0.000000 0.000000 0.000000
# 3 -0.018694 -0.014809 0.030082 0.000000 0.000000 0.000000
# 4 0.000000 0.000000 0.000000 0.031622 0.000000 0.000000
# 5 0.000000 0.000000 0.000000 0.000000 0.028344 0.000000
# 6 0.000000 0.000000 0.000000 0.000000 0.000000 0.036412
#
#
# Mechanical properties :
#
#
# Convention : Reuss Voigt Hill
#
# Bulk Modulus (GPa) = 31.99273 41.73024 36.86148
# Shear Modulus (GPa) = 20.70176 26.91871 23.81024
#
# Velocity S-wave (km/s) = 3.30284 3.76626 3.54214
# Velocity P-wave (km/s) = 5.60388 6.39552 6.01274
#
# Compressibility (1/GPa) = 0.03125710
#
# Stress axis : x y z
#
# Youngs Moduli (GPa) = 41.07214 35.01016 33.24241
#
# Poissons Ratio (x) = -0.26733 0.62145
# Poissons Ratio (y) = -0.31361 0.49229
# Poissons Ratio (z) = 0.76782 0.51846
#
# Static dielectric constant tensor:
#      x y z
#    x 1.668020 0.000000 0.000000 
#    y 0.000000 1.639760 0.000000 
#    z 0.000000 0.000000 1.642390 
# 
# From -- ./inp_files/2995.got.cif
#   From: 2010.05.17/outbox.cif.g08.bks.cpg/sg58_2_cif.got.tgz:2995.got - 2010.06.03 14:20:14.
