data_PCOD9443302
_publ_section_title
;
Structure prediction by ZEFSAII (Michael W. Deem and Ramdas Pophale) SiO2 
 PCOD9443302
Probable space group: P N N M
;
_chemical_formula_sum "Si O2"
_cell_formula_units_Z 64
_cell_length_a 10.583194
_cell_length_b 34.160264
_cell_length_c 7.721398
_cell_angle_alpha 90.000000
_cell_angle_beta 90.000000
_cell_angle_gamma 90.000000
_cell_volume 2791.476103
_symmetry_space_group_name_H-M "P N N M"
_symmetry_group_IT_number 58
_symmetry_cell_setting 'orthorhombic'
loop_
_space_group_symop_operation_xyz
x,y,z
-x,-y,z
1/2+x,1/2-y,1/2-z
1/2-x,1/2+y,1/2-z
-x,-y,-z
x,y,-z
1/2-x,1/2+y,1/2+z
1/2+x,1/2-y,1/2+z
loop_
_atom_site_type_symbol
_atom_site_label
_atom_site_fract_x
_atom_site_fract_y
_atom_site_fract_z
Si Si1 0.529162 0.714191 0.696467
Si Si2 0.269791 0.829494 0.298128
Si Si3 0.949553 0.299644 0.798504
Si Si4 0.075161 0.133978 0.209554
Si Si5 0.814154 0.091740 0.702708
Si Si6 0.899117 0.467904 0.704310
Si Si7 0.857550 0.007431 0.292368
Si Si8 0.355679 0.118326 0.701993
O O1 0.483016 0.721919 0.500000
O O2 0.664553 0.693333 0.693995
O O3 0.555504 0.756258 0.781468
O O4 0.439984 0.679535 0.769329
O O5 0.226521 0.830686 0.500000
O O6 0.402909 0.809321 0.297114
O O7 0.275653 0.873929 0.230827
O O8 0.888499 0.338873 0.719373
O O9 0.903535 0.296204 0.000000
O O10 0.205292 0.115427 0.271445
O O11 0.955316 0.109367 0.276279
O O12 0.070479 0.133945 0.000000
O O13 0.784045 0.087141 0.500000
O O14 0.810342 0.048998 0.781654
O O15 0.900109 0.472841 0.500000
O O16 0.755729 0.477350 0.762490
O O17 0.921758 0.421860 0.739634
O O18 0.000000 0.500000 0.777381
O O19 0.870785 0.010862 0.500000
O O20 0.000000 0.000000 0.225683
O O21 0.387976 0.121631 0.500000
#
# Coordination Sequence:
#
# PCOD9443302 Si02
#       8
#     8   8   8   8   8   8   8   8
#     4   9  19  36  55  81 115 152 188 232 288 339
#     4   9  18  34  55  79 108 145 189 234 279 332
#     4   9  20  36  56  81 112 149 191 238 284 336
#     4  10  20  35  58  86 122 158 190 235 292 349
#     4   9  18  33  57  86 116 148 191 239 284 340
#     4  11  26  45  63  89 126 162 198 246 306 369
#     4  10  21  37  62  94 121 152 200 252 297 352
#     4  11  23  39  62  86 114 154 200 243 288 344
#
# _framework density 22.926938
#
# number of rings (size 3 to 8) (size 9 to 14) (size 15 to 20)
#    0.000    2.250    0.000    1.875    3.500    3.250 
#    0.000    2.500    0.000    0.000    0.000    0.000 
#    0.000    0.000    0.000    0.000    0.000    0.000 
#
# Total GULP energy -356929.924218 kJ/mol
# GULP energy per Si atom -5577.030066 kJ/mol
# Density = 2.287476 g / cm^3
# Si number density = 22.926938 Si / 1000 Ang^3
#
#
#
# Elastic Constant Matrix: (Units=GPa)
#
#
# Indices 1 2 3 4 5 6 
#
# 1 38.8978 20.3007 -7.1430 0.0000 0.0000 0.0000
# 2 20.3007 154.7690 -11.2530 0.0000 0.0000 0.0000
# 3 -7.1430 -11.2530 22.7765 0.0000 0.0000 0.0000
# 4 0.0000 0.0000 0.0000 10.0540 0.0000 0.0000
# 5 0.0000 0.0000 0.0000 0.0000 6.0154 0.0000
# 6 0.0000 0.0000 0.0000 0.0000 0.0000 18.0829
#
#
#
# Elastic Compliance Matrix: (Units=1/GPa)
#
#
# Indices 1 2 3 4 5 6 
#
# 1 0.028758 -0.003233 0.007422 0.000000 0.000000 0.000000
# 2 -0.003233 0.007065 0.002477 0.000000 0.000000 0.000000
# 3 0.007422 0.002477 0.047456 0.000000 0.000000 0.000000
# 4 0.000000 0.000000 0.000000 0.099463 0.000000 0.000000
# 5 0.000000 0.000000 0.000000 0.000000 0.166240 0.000000
# 6 0.000000 0.000000 0.000000 0.000000 0.000000 0.055301
#
#
# Mechanical properties :
#
#
# Convention : Reuss Voigt Hill
#
# Bulk Modulus (GPa) = 10.35060 24.47252 17.41156
# Shear Modulus (GPa) = 11.81600 21.13305 16.47452
#
# Velocity S-wave (km/s) = 2.27265 3.03934 2.68352
# Velocity P-wave (km/s) = 3.37802 4.79730 4.14880
#
# Compressibility (1/GPa) = 0.09661279
#
# Stress axis : x y z
#
# Youngs Moduli (GPa) = 34.77246 141.53597 21.07198
#
# Poissons Ratio (x) = 0.45752 -0.15639
# Poissons Ratio (y) = 0.11240 -0.05219
# Poissons Ratio (z) = -0.25808 -0.35058
#
# Static dielectric constant tensor:
#      x y z
#    x 1.828480 0.000000 0.000000 
#    y 0.000000 1.934040 0.000000 
#    z 0.000000 0.000000 1.858350 
# 
# From -- ./inp_files/4797.got.cif
#   From: 2010.05.17/outbox.cif.g08.bks.cpg/sg58_3_cif.got.tgz:4797.got - 2010.06.03 14:20:14.
