data_PCOD9443899
_publ_section_title
;
Structure prediction by ZEFSAII (Michael W. Deem and Ramdas Pophale) SiO2 
 PCOD9443899
Probable space group: P N N M
;
_chemical_formula_sum "Si O2"
_cell_formula_units_Z 56
_cell_length_a 14.813990
_cell_length_b 13.584104
_cell_length_c 14.338162
_cell_angle_alpha 90.000000
_cell_angle_beta 90.000000
_cell_angle_gamma 90.000000
_cell_volume 2885.336887
_symmetry_space_group_name_H-M "P N N M"
_symmetry_group_IT_number 58
_symmetry_cell_setting 'orthorhombic'
loop_
_space_group_symop_operation_xyz
x,y,z
-x,-y,z
1/2+x,1/2-y,1/2-z
1/2-x,1/2+y,1/2-z
-x,-y,-z
x,y,-z
1/2-x,1/2+y,1/2+z
1/2+x,1/2-y,1/2+z
loop_
_atom_site_type_symbol
_atom_site_label
_atom_site_fract_x
_atom_site_fract_y
_atom_site_fract_z
Si Si1 0.500035 0.731138 0.735966
Si Si2 0.267293 0.007064 0.611280
Si Si3 0.425813 0.413888 0.109485
Si Si4 0.086557 0.071847 0.892311
Si Si5 0.674229 0.773926 0.612244
Si Si6 0.742190 0.063649 0.889397
Si Si7 0.910985 0.564590 0.748580
O O1 0.544719 0.672869 0.821840
O O2 0.435377 0.658502 0.678178
O O3 0.580089 0.766273 0.666899
O O4 0.443156 0.824683 0.767079
O O5 0.276052 0.000332 0.500000
O O6 0.276661 0.123166 0.635335
O O7 0.171027 0.959805 0.636285
O O8 0.347861 0.949483 0.661348
O O9 0.500000 0.500000 0.117792
O O10 0.422620 0.384192 0.000000
O O11 0.174011 0.007779 0.867571
O O12 0.095575 0.106037 0.000000
O O13 0.000000 0.000000 0.889131
O O14 0.658595 0.771348 0.500000
O O15 0.730396 0.675658 0.636233
O O16 0.653353 0.031872 0.835562
O O17 0.728838 0.061114 0.000000
O O18 0.000000 0.500000 0.757800
#
# Coordination Sequence:
#
# PCOD9443899 Si02
#       7
#     8   8   8   8   8   8   8
#     4  12  23  39  66  98 128 168 211 278 322 381
#     4  10  23  44  67  92 133 174 214 267 321 386
#     4  10  24  44  67  98 130 169 217 263 321 387
#     4  10  20  38  65  98 129 159 203 267 331 380
#     4  10  20  38  68  99 127 166 213 262 326 390
#     4  10  23  42  64  93 131 170 214 264 322 393
#     4  12  27  43  61  91 130 174 223 261 324 392
#
# _framework density 19.408477999999999
#
# number of rings (size 3 to 8) (size 9 to 14) (size 15 to 20)
#    0.000    1.429    2.857    1.714    4.000    2.286 
#    2.571    0.000    0.000    0.000    0.000    0.000 
#    0.000    0.000    0.000    0.000    0.000    0.000 
#
# Total GULP energy -313080.713464 kJ/mol
# GULP energy per Si atom -5590.727026 kJ/mol
# Density = 1.936430 g / cm^3
# Si number density = 19.408478 Si / 1000 Ang^3
#
#
#
# Elastic Constant Matrix: (Units=GPa)
#
#
# Indices 1 2 3 4 5 6 
#
# 1 156.2878 62.0148 56.9190 0.0000 0.0000 0.0000
# 2 62.0148 107.8463 53.3613 0.0000 0.0000 0.0000
# 3 56.9190 53.3613 73.4160 0.0000 0.0000 0.0000
# 4 0.0000 0.0000 0.0000 13.9881 0.0000 0.0000
# 5 0.0000 0.0000 0.0000 0.0000 40.4939 0.0000
# 6 0.0000 0.0000 0.0000 0.0000 0.0000 26.4888
#
#
#
# Elastic Compliance Matrix: (Units=1/GPa)
#
#
# Indices 1 2 3 4 5 6 
#
# 1 0.009435 -0.002820 -0.005265 0.000000 0.000000 0.000000
# 2 -0.002820 0.015323 -0.008951 0.000000 0.000000 0.000000
# 3 -0.005265 -0.008951 0.024209 0.000000 0.000000 0.000000
# 4 0.000000 0.000000 0.000000 0.071489 0.000000 0.000000
# 5 0.000000 0.000000 0.000000 0.000000 0.024695 0.000000
# 6 0.000000 0.000000 0.000000 0.000000 0.000000 0.037752
#
#
# Mechanical properties :
#
#
# Convention : Reuss Voigt Hill
#
# Bulk Modulus (GPa) = 67.13860 75.79336 71.46598
# Shear Modulus (GPa) = 22.52866 27.21117 24.86991
#
# Velocity S-wave (km/s) = 3.41069 3.74842 3.58354
# Velocity P-wave (km/s) = 7.08364 7.60728 7.35012
#
# Compressibility (1/GPa) = 0.01489456
#
# Stress axis : x y z
#
# Youngs Moduli (GPa) = 105.98778 65.26166 41.30765
#
# Poissons Ratio (x) = 0.18406 0.21749
# Poissons Ratio (y) = 0.29892 0.36973
# Poissons Ratio (z) = 0.55803 0.58413
#
# Static dielectric constant tensor:
#      x y z
#    x 1.652250 0.000000 0.000000 
#    y 0.000000 1.668570 0.000000 
#    z 0.000000 0.000000 1.686220 
# 
# From -- ./inp_files/21269.got.cif
#   From: 2010.05.17/outbox.cif.g08.bks.cpg/sg58_11_cif.got.tgz:21269.got - 2010.06.03 14:20:14.
