data_PCOD9443216
_publ_section_title
;
Structure prediction by ZEFSAII (Michael W. Deem and Ramdas Pophale) SiO2 
 PCOD9443216
Probable space group: P N N M
;
_chemical_formula_sum "Si O2"
_cell_formula_units_Z 56
_cell_length_a 22.685127
_cell_length_b 9.037242
_cell_length_c 15.081899
_cell_angle_alpha 90.000000
_cell_angle_beta 90.000000
_cell_angle_gamma 90.000000
_cell_volume 3091.954932
_symmetry_space_group_name_H-M "P N N M"
_symmetry_group_IT_number 58
_symmetry_cell_setting 'orthorhombic'
loop_
_space_group_symop_operation_xyz
x,y,z
-x,-y,z
1/2+x,1/2-y,1/2-z
1/2-x,1/2+y,1/2-z
-x,-y,-z
x,y,-z
1/2-x,1/2+y,1/2+z
1/2+x,1/2-y,1/2+z
loop_
_atom_site_type_symbol
_atom_site_label
_atom_site_fract_x
_atom_site_fract_y
_atom_site_fract_z
Si Si1 0.204718 0.986422 0.101521
Si Si2 0.932241 0.498446 0.105422
Si Si3 0.933213 0.566848 0.500000
Si Si4 0.863428 0.757555 0.799871
Si Si5 0.863223 0.257604 0.784944
Si Si6 0.163299 0.482247 0.652735
Si Si7 0.429949 0.499196 0.809457
Si Si8 0.064183 0.077618 0.500000
O O1 0.182258 0.138853 0.147061
O O2 0.180143 0.850891 0.161125
O O3 0.275242 0.979254 0.101626
O O4 0.182816 0.977347 0.000000
O O5 0.898167 0.644839 0.136960
O O6 0.899253 0.358559 0.146853
O O7 0.000000 0.500000 0.136923
O O8 0.931848 0.489616 0.000000
O O9 0.893258 0.523462 0.586372
O O10 0.940314 0.744975 0.500000
O O11 0.000000 0.500000 0.500000
O O12 0.838127 0.656357 0.720569
O O13 0.908312 0.870506 0.753808
O O14 0.836213 0.371908 0.714373
O O15 0.906539 0.152341 0.730075
O O16 0.500000 0.500000 0.812973
O O17 0.406047 0.526933 0.908746
O O18 0.000000 0.000000 0.500000
#
# Coordination Sequence:
#
# PCOD9443216 Si02
#       8
#     8   8   4   8   8   8   8   4
#     4  11  22  41  62  85 118 160 210 263 307 358
#     4  10  20  36  58  87 121 152 194 253 311 362
#     4  12  26  40  66  98 128 166 201 255 317 380
#     4  10  21  37  60  85 117 159 205 247 309 366
#     4  10  23  37  60  86 116 159 205 250 303 371
#     4  11  23  41  61  87 123 158 205 254 312 371
#     4  10  20  35  56  83 118 155 195 241 303 366
#     4  10  22  38  58  86 126 162 194 249 299 370
#
# _framework density 18.111519000000001
#
# number of rings (size 3 to 8) (size 9 to 14) (size 15 to 20)
#    0.000    1.571    2.143    2.571    4.000    2.286 
#    0.000    0.000    0.000    6.857    0.000    0.000 
#    0.000    0.000    0.000    0.000    0.000    0.000 
#
# Total GULP energy -312450.806241 kJ/mol
# GULP energy per Si atom -5579.478683 kJ/mol
# Density = 1.807030 g / cm^3
# Si number density = 18.111519 Si / 1000 Ang^3
#
#
#
# Elastic Constant Matrix: (Units=GPa)
#
#
# Indices 1 2 3 4 5 6 
#
# 1 101.8438 41.4261 41.6873 0.0000 0.0000 0.0000
# 2 41.4261 127.5756 47.4486 0.0000 0.0000 0.0000
# 3 41.6873 47.4486 109.9250 0.0000 0.0000 0.0000
# 4 0.0000 0.0000 0.0000 31.4503 0.0000 0.0000
# 5 0.0000 0.0000 0.0000 0.0000 27.0668 0.0000
# 6 0.0000 0.0000 0.0000 0.0000 0.0000 3.0085
#
#
#
# Elastic Compliance Matrix: (Units=1/GPa)
#
#
# Indices 1 2 3 4 5 6 
#
# 1 0.012360 -0.002704 -0.003520 0.000000 0.000000 0.000000
# 2 -0.002704 0.009929 -0.003260 0.000000 0.000000 0.000000
# 3 -0.003520 -0.003260 0.011839 0.000000 0.000000 0.000000
# 4 0.000000 0.000000 0.000000 0.031796 0.000000 0.000000
# 5 0.000000 0.000000 0.000000 0.000000 0.036946 0.000000
# 6 0.000000 0.000000 0.000000 0.000000 0.000000 0.332395
#
#
# Mechanical properties :
#
#
# Convention : Reuss Voigt Hill
#
# Bulk Modulus (GPa) = 65.96683 66.71873 66.34278
# Shear Modulus (GPa) = 10.88644 26.22392 18.55518
#
# Velocity S-wave (km/s) = 2.45435 3.80927 3.20425
# Velocity P-wave (km/s) = 6.67334 7.50101 7.09925
#
# Compressibility (1/GPa) = 0.01515913
#
# Stress axis : x y z
#
# Youngs Moduli (GPa) = 80.90768 100.71283 84.46431
#
# Poissons Ratio (x) = 0.27236 0.29731
# Poissons Ratio (y) = 0.21880 0.27538
# Poissons Ratio (z) = 0.28479 0.32836
#
# Static dielectric constant tensor:
#      x y z
#    x 1.602690 0.000000 0.000000 
#    y 0.000000 1.603990 0.000000 
#    z 0.000000 0.000000 1.624720 
# 
# From -- ./inp_files/23279.got.cif
#   From: 2010.05.17/outbox.cif.g08.bks.cpg/sg58_12_cif.got.tgz:23279.got - 2010.06.03 14:20:14.
