data_PCOD9443353
_publ_section_title
;
Structure prediction by ZEFSAII (Michael W. Deem and Ramdas Pophale) SiO2 
 PCOD9443353
Probable space group: P N N M
;
_chemical_formula_sum "Si O2"
_cell_formula_units_Z 64
_cell_length_a 18.165544
_cell_length_b 7.441269
_cell_length_c 23.126741
_cell_angle_alpha 90.000000
_cell_angle_beta 90.000000
_cell_angle_gamma 90.000000
_cell_volume 3126.150264
_symmetry_space_group_name_H-M "P N N M"
_symmetry_group_IT_number 58
_symmetry_cell_setting 'orthorhombic'
loop_
_space_group_symop_operation_xyz
x,y,z
-x,-y,z
1/2+x,1/2-y,1/2-z
1/2-x,1/2+y,1/2-z
-x,-y,-z
x,y,-z
1/2-x,1/2+y,1/2+z
1/2+x,1/2-y,1/2+z
loop_
_atom_site_type_symbol
_atom_site_label
_atom_site_fract_x
_atom_site_fract_y
_atom_site_fract_z
Si Si1 0.938838 0.740775 0.657152
Si Si2 0.240349 0.518651 0.680809
Si Si3 0.897296 0.333254 0.366220
Si Si4 0.397352 0.862143 0.609942
Si Si5 0.818388 0.982110 0.933225
Si Si6 0.849781 0.720012 0.767217
Si Si7 0.589227 0.511766 0.937528
Si Si8 0.551443 0.762430 0.566734
O O1 0.916904 0.544961 0.631202
O O2 0.915519 0.753530 0.723254
O O3 0.027095 0.754635 0.656435
O O4 0.896773 0.884122 0.617142
O O5 0.175550 0.667287 0.672816
O O6 0.259840 0.459083 0.615506
O O7 0.209155 0.375276 0.725426
O O8 0.313548 0.602807 0.706914
O O9 0.885112 0.214277 0.423302
O O10 0.340652 0.724145 0.580380
O O11 0.374323 0.890752 0.676500
O O12 0.478462 0.771609 0.605659
O O13 0.405588 0.051332 0.577838
O O14 0.892171 0.100473 0.924343
O O15 0.795442 0.002759 0.000000
O O16 0.500000 0.500000 0.941771
O O17 0.618519 0.452564 0.000000
O O18 0.525723 0.755655 0.500000
#
# Coordination Sequence:
#
# PCOD9443353 Si02
#       8
#     8   8   8   8   8   8   8   8
#     4   9  19  38  57  83 115 148 194 245 290 349
#     4  10  23  39  59  84 118 165 194 248 299 358
#     4   9  19  36  57  81 111 149 192 238 294 337
#     4  10  20  36  58  90 117 155 196 247 297 352
#     4  10  21  39  58  84 122 159 199 244 298 363
#     4  10  23  39  57  83 119 155 200 241 295 367
#     4   9  18  33  56  85 112 143 188 243 297 344
#     4  10  20  35  62  93 122 154 195 248 302 356
#
# _framework density 20.472466000000001
#
# number of rings (size 3 to 8) (size 9 to 14) (size 15 to 20)
#    0.000    2.375    0.000    1.875    3.500    6.000 
#    0.000    6.875    0.000    4.500    0.000    0.000 
#    0.000    0.000    0.000    0.000    0.000    0.000 
#
# Total GULP energy -356620.722309 kJ/mol
# GULP energy per Si atom -5572.198786 kJ/mol
# Density = 2.042587 g / cm^3
# Si number density = 20.472466 Si / 1000 Ang^3
#
#
#
# Elastic Constant Matrix: (Units=GPa)
#
#
# Indices 1 2 3 4 5 6 
#
# 1 17.6645 5.7233 9.6490 0.0000 0.0000 0.0000
# 2 5.7233 45.3591 29.7381 0.0000 0.0000 0.0000
# 3 9.6490 29.7381 109.5894 0.0000 0.0000 0.0000
# 4 0.0000 0.0000 0.0000 14.3801 0.0000 0.0000
# 5 0.0000 0.0000 0.0000 0.0000 18.4119 0.0000
# 6 0.0000 0.0000 0.0000 0.0000 0.0000 18.9469
#
#
#
# Elastic Compliance Matrix: (Units=1/GPa)
#
#
# Indices 1 2 3 4 5 6 
#
# 1 0.060399 -0.005029 -0.003953 0.000000 0.000000 0.000000
# 2 -0.005029 0.027236 -0.006948 0.000000 0.000000 0.000000
# 3 -0.003953 -0.006948 0.011358 0.000000 0.000000 0.000000
# 4 0.000000 0.000000 0.000000 0.069541 0.000000 0.000000
# 5 0.000000 0.000000 0.000000 0.000000 0.054313 0.000000
# 6 0.000000 0.000000 0.000000 0.000000 0.000000 0.052779
#
#
# Mechanical properties :
#
#
# Convention : Reuss Voigt Hill
#
# Bulk Modulus (GPa) = 14.89577 29.20375 22.04976
# Shear Modulus (GPa) = 15.15772 18.84795 17.00284
#
# Velocity S-wave (km/s) = 2.72397 3.03751 2.88500
# Velocity P-wave (km/s) = 4.14550 5.15731 4.67884
#
# Compressibility (1/GPa) = 0.06713315
#
# Stress axis : x y z
#
# Youngs Moduli (GPa) = 16.55645 36.71602 88.04031
#
# Poissons Ratio (x) = 0.18465 0.34804
# Poissons Ratio (y) = 0.08327 0.61170
# Poissons Ratio (z) = 0.06545 0.25510
#
# Static dielectric constant tensor:
#      x y z
#    x 1.766930 0.000000 0.000000 
#    y 0.000000 1.751750 0.000000 
#    z 0.000000 0.000000 1.732720 
# 
# From -- ./inp_files/30256.got.cif
#   From: 2010.05.17/outbox.cif.g08.bks.cpg/sg58_16_cif.got.tgz:30256.got - 2010.06.03 14:20:14.
