data_PCOD9443956
_publ_section_title
;
Structure prediction by ZEFSAII (Michael W. Deem and Ramdas Pophale) SiO2 
 PCOD9443956
Probable space group: P N N M
;
_chemical_formula_sum "Si O2"
_cell_formula_units_Z 58
_cell_length_a 11.258400
_cell_length_b 15.467581
_cell_length_c 16.934180
_cell_angle_alpha 90.000000
_cell_angle_beta 90.000000
_cell_angle_gamma 90.000000
_cell_volume 2948.921728
_symmetry_space_group_name_H-M "P N N M"
_symmetry_group_IT_number 58
_symmetry_cell_setting 'orthorhombic'
loop_
_space_group_symop_operation_xyz
x,y,z
-x,-y,z
1/2+x,1/2-y,1/2-z
1/2-x,1/2+y,1/2-z
-x,-y,-z
x,y,-z
1/2-x,1/2+y,1/2+z
1/2+x,1/2-y,1/2+z
loop_
_atom_site_type_symbol
_atom_site_label
_atom_site_fract_x
_atom_site_fract_y
_atom_site_fract_z
Si Si1 0.749239 0.002152 0.585845
Si Si2 0.991973 0.096232 0.090271
Si Si3 0.274288 0.656485 0.349334
Si Si4 0.880194 0.181114 0.405484
Si Si5 0.140131 0.497228 0.591618
Si Si6 0.500000 0.000000 0.500000
Si Si7 0.363637 0.654642 0.173999
Si Si8 0.263567 0.314392 0.406614
O O1 0.805051 0.978005 0.500000
O O2 0.792802 0.098965 0.603214
O O3 0.608049 0.998834 0.567933
O O4 0.801921 0.934588 0.647218
O O5 0.117705 0.142408 0.090196
O O6 0.892446 0.158210 0.125789
O O7 0.950332 0.081333 0.000000
O O8 0.000000 0.000000 0.126891
O O9 0.187666 0.734577 0.372379
O O10 0.201282 0.567343 0.353126
O O11 0.342637 0.665690 0.266826
O O12 0.904514 0.192882 0.500000
O O13 0.001712 0.161803 0.358138
O O14 0.168703 0.520110 0.500000
O O15 0.185630 0.400452 0.604359
O O16 0.000000 0.500000 0.600854
O O17 0.292006 0.732680 0.134332
O O18 0.270472 0.294485 0.500000
#
# Coordination Sequence:
#
# PCOD9443956 Si02
#       8
#     8   8   8   8   8   2   8   8
#     4   9  21  45  71  96 126 170 227 277 332 391
#     4  10  20  39  66  92 123 164 220 266 327 401
#     4  12  26  40  63  99 138 173 213 278 345 401
#     4  11  24  46  70  96 131 185 238 278 326 412
#     4  10  20  40  67  93 125 168 220 274 331 403
#     4   8  20  44  74 108 116 162 238 290 320 400
#     4  12  26  41  64  99 137 176 219 276 345 411
#     4  10  21  38  64  92 122 168 218 270 318 391
#
# _framework density 19.668206999999999
#
# number of rings (size 3 to 8) (size 9 to 14) (size 15 to 20)
#    0.414    1.103    1.379    3.724    1.931    5.517 
#    3.724    0.000    0.000    0.000    0.000    0.000 
#    0.000    0.000    0.000    0.000    0.000    0.000 
#
# Total GULP energy -323087.819159 kJ/mol
# GULP energy per Si atom -5570.479641 kJ/mol
# Density = 1.962344 g / cm^3
# Si number density = 19.668207 Si / 1000 Ang^3
#
#
#
# Elastic Constant Matrix: (Units=GPa)
#
#
# Indices 1 2 3 4 5 6 
#
# 1 -593.8072 -187.8320 -110.8114 0.0000 0.0000 0.0000
# 2 -187.8320 -5.4436 -15.9030 0.0000 0.0000 0.0000
# 3 -110.8114 -15.9030 44.9019 0.0000 0.0000 0.0000
# 4 0.0000 0.0000 0.0000 -101.2045 0.0000 0.0000
# 5 0.0000 0.0000 0.0000 0.0000 24.1400 0.0000
# 6 0.0000 0.0000 0.0000 0.0000 0.0000 23.8202
#
#
#
# Elastic Compliance Matrix: (Units=1/GPa)
#
#
# Indices 1 2 3 4 5 6 
#
# 1 0.000264 -0.005412 -0.001265 0.000000 0.000000 0.000000
# 2 -0.005412 0.020670 -0.006035 0.000000 0.000000 0.000000
# 3 -0.001265 -0.006035 0.017011 0.000000 0.000000 0.000000
# 4 0.000000 0.000000 0.000000 -0.009881 0.000000 0.000000
# 5 0.000000 0.000000 0.000000 0.000000 0.041425 0.000000
# 6 0.000000 0.000000 0.000000 0.000000 0.000000 0.041981
#
#
# Mechanical properties :
#
#
# Convention : Reuss Voigt Hill
#
# Bulk Modulus (GPa) = 79.87717 -131.49352 -25.80818
# Shear Modulus (GPa) = 35.44394 -26.63571 4.40412
#
# Velocity S-wave (km/s) = 4.24971 -3.68401 1.49802
# Velocity P-wave (km/s) = 8.04864 9.22480 3.18719
#
# Compressibility (1/GPa) = 0.01251922
#
# Stress axis : x y z
#
# Youngs Moduli (GPa) = 3788.26073 48.37997 58.78677
#
# Poissons Ratio (x) = 0.26183 0.07438
# Poissons Ratio (y) = 20.50189 0.35479
# Poissons Ratio (z) = 4.79334 0.29199
#
# Static dielectric constant tensor:
#      x y z
#    x 1.691800 0.000000 0.000000 
#    y 0.000000 1.685680 0.000000 
#    z 0.000000 0.000000 1.706310 
# 
# From -- ./inp_files/26331.got.cif
#   From: 2010.05.17/outbox.cif.g08.bks.cpg/sg58_14_cif.got.tgz:26331.got - 2010.06.03 14:20:14.
