data_PCOD9443633
_publ_section_title
;
Structure prediction by ZEFSAII (Michael W. Deem and Ramdas Pophale) SiO2 
 PCOD9443633
Probable space group: P N N M
;
_chemical_formula_sum "Si O2"
_cell_formula_units_Z 58
_cell_length_a 9.291673
_cell_length_b 18.765105
_cell_length_c 16.985688
_cell_angle_alpha 90.000000
_cell_angle_beta 90.000000
_cell_angle_gamma 90.000000
_cell_volume 2961.611302
_symmetry_space_group_name_H-M "P N N M"
_symmetry_group_IT_number 58
_symmetry_cell_setting 'orthorhombic'
loop_
_space_group_symop_operation_xyz
x,y,z
-x,-y,z
1/2+x,1/2-y,1/2-z
1/2-x,1/2+y,1/2-z
-x,-y,-z
x,y,-z
1/2-x,1/2+y,1/2+z
1/2+x,1/2-y,1/2+z
loop_
_atom_site_type_symbol
_atom_site_label
_atom_site_fract_x
_atom_site_fract_y
_atom_site_fract_z
Si Si1 0.916450 0.231378 0.835654
Si Si2 0.848405 0.337193 0.405924
Si Si3 0.591529 0.568863 0.323413
Si Si4 0.907054 0.105572 0.641023
Si Si5 0.162535 0.299610 0.091672
Si Si6 0.000000 0.000000 0.500000
Si Si7 0.828382 0.494067 0.591485
Si Si8 0.423910 0.745741 0.169058
O O1 0.940441 0.147960 0.856362
O O2 0.747205 0.246783 0.827627
O O3 0.995156 0.285637 0.894425
O O4 0.000221 0.244852 0.754082
O O5 0.853096 0.342491 0.500000
O O6 0.740004 0.274216 0.383721
O O7 0.798209 0.414087 0.377568
O O8 0.003557 0.311486 0.376658
O O9 0.500000 0.500000 0.351136
O O10 0.574982 0.575350 0.229092
O O11 0.751099 0.549646 0.352374
O O12 0.746434 0.139028 0.637453
O O13 0.931745 0.051504 0.570251
O O14 0.019059 0.171794 0.630782
O O15 0.192320 0.310875 0.000000
O O16 0.780002 0.502360 0.500000
O O17 0.000000 0.500000 0.591380
#
# Coordination Sequence:
#
# PCOD9443633 Si02
#       8
#     8   8   8   8   8   2   8   8
#     4  11  22  37  58  84 122 155 197 261 303 360
#     4   9  18  34  57  81 111 150 193 236 290 357
#     4  11  22  36  57  90 122 160 212 244 306 372
#     4  10  22  40  66  91 117 164 207 258 312 377
#     4  10  20  37  59  85 114 152 198 248 306 359
#     4  12  20  44  72  90 126 164 210 262 306 400
#     4  10  21  36  55  82 120 159 194 240 298 363
#     4  10  21  37  58  87 115 153 205 247 308 360
#
# _framework density 19.583933999999999
#
# number of rings (size 3 to 8) (size 9 to 14) (size 15 to 20)
#    0.000    1.793    1.379    4.138    0.966    2.483 
#    0.000    0.000    0.000    0.828    0.000    0.000 
#    0.000    0.000    0.000    0.000    0.000    0.000 
#
# Total GULP energy -323070.093244 kJ/mol
# GULP energy per Si atom -5570.174021 kJ/mol
# Density = 1.953936 g / cm^3
# Si number density = 19.583934 Si / 1000 Ang^3
#
#
#
# Elastic Constant Matrix: (Units=GPa)
#
#
# Indices 1 2 3 4 5 6 
#
# 1 112.4039 27.9383 3.1418 0.0000 0.0000 0.0000
# 2 27.9383 81.8218 15.1856 0.0000 0.0000 0.0000
# 3 3.1418 15.1856 19.1822 0.0000 0.0000 0.0000
# 4 0.0000 0.0000 0.0000 19.0939 0.0000 0.0000
# 5 0.0000 0.0000 0.0000 0.0000 19.1234 0.0000
# 6 0.0000 0.0000 0.0000 0.0000 0.0000 28.1265
#
#
#
# Elastic Compliance Matrix: (Units=1/GPa)
#
#
# Indices 1 2 3 4 5 6 
#
# 1 0.009746 -0.003554 0.001217 0.000000 0.000000 0.000000
# 2 -0.003554 0.015622 -0.011785 0.000000 0.000000 0.000000
# 3 0.001217 -0.011785 0.061262 0.000000 0.000000 0.000000
# 4 0.000000 0.000000 0.000000 0.052373 0.000000 0.000000
# 5 0.000000 0.000000 0.000000 0.000000 0.052292 0.000000
# 6 0.000000 0.000000 0.000000 0.000000 0.000000 0.035554
#
#
# Mechanical properties :
#
#
# Convention : Reuss Voigt Hill
#
# Bulk Modulus (GPa) = 17.12730 33.99325 25.56028
# Shear Modulus (GPa) = 18.21130 24.41156 21.31143
#
# Velocity S-wave (km/s) = 3.05275 3.53442 3.30238
# Velocity P-wave (km/s) = 4.60329 5.83538 5.25556
#
# Compressibility (1/GPa) = 0.05838631
#
# Stress axis : x y z
#
# Youngs Moduli (GPa) = 102.60907 64.01086 16.32326
#
# Poissons Ratio (x) = 0.22747 -0.01986
# Poissons Ratio (y) = 0.36463 0.19238
# Poissons Ratio (z) = -0.12487 0.75439
#
# Static dielectric constant tensor:
#      x y z
#    x 1.722190 0.000000 0.000000 
#    y 0.000000 1.707830 0.000000 
#    z 0.000000 0.000000 1.682370 
# 
# From -- ./inp_files/25553.got.cif
#   From: 2010.05.17/outbox.cif.g08.bks.cpg/sg58_13_cif.got.tgz:25553.got - 2010.06.03 14:20:14.
