data_PCOD9443768
_publ_section_title
;
Structure prediction by ZEFSAII (Michael W. Deem and Ramdas Pophale) SiO2 
 PCOD9443768
Probable space group: P N N M
;
_chemical_formula_sum "Si O2"
_cell_formula_units_Z 48
_cell_length_a 13.189177
_cell_length_b 17.632622
_cell_length_c 10.761487
_cell_angle_alpha 90.000000
_cell_angle_beta 90.000000
_cell_angle_gamma 90.000000
_cell_volume 2502.688969
_symmetry_space_group_name_H-M "P N N M"
_symmetry_group_IT_number 58
_symmetry_cell_setting 'orthorhombic'
loop_
_space_group_symop_operation_xyz
x,y,z
-x,-y,z
1/2+x,1/2-y,1/2-z
1/2-x,1/2+y,1/2-z
-x,-y,-z
x,y,-z
1/2-x,1/2+y,1/2+z
1/2+x,1/2-y,1/2+z
loop_
_atom_site_type_symbol
_atom_site_label
_atom_site_fract_x
_atom_site_fract_y
_atom_site_fract_z
Si Si1 0.266788 0.035631 0.145414
Si Si2 0.684509 0.734846 0.867313
Si Si3 0.117567 0.158139 0.138895
Si Si4 0.978901 0.709711 0.720375
Si Si5 0.427913 0.073833 0.641320
Si Si6 0.264543 0.854525 0.861677
O O1 0.157961 0.074743 0.171150
O O2 0.344722 0.064205 0.250310
O O3 0.264024 0.944992 0.151254
O O4 0.293353 0.054906 0.000000
O O5 0.777748 0.793445 0.863630
O O6 0.579364 0.779334 0.859599
O O7 0.699780 0.682530 0.747892
O O8 0.691014 0.693397 0.000000
O O9 0.048003 0.206915 0.228486
O O10 0.074080 0.157084 0.000000
O O11 0.879796 0.675876 0.654231
O O12 0.008132 0.649561 0.827915
O O13 0.387108 0.078139 0.500000
O O14 0.500000 0.000000 0.648341
O O15 0.228371 0.833899 0.000000
#
# Coordination Sequence:
#
# PCOD9443768 Si02
#       6
#     8   8   8   8   8   8
#     4  10  20  38  59  82 113 151 193 239 286 338
#     4  10  21  37  58  82 116 153 187 232 290 347
#     4   9  19  35  56  82 112 149 190 233 284 339
#     4  11  20  36  57  86 116 151 190 238 287 342
#     4  11  22  34  53  86 121 151 185 235 295 348
#     4  10  22  37  59  86 114 147 192 241 285 336
#
# _framework density 19.179369999999999
#
# number of rings (size 3 to 8) (size 9 to 14) (size 15 to 20)
#    0.000    1.833    3.333    1.000    0.000    3.667 
#    0.000    1.667    0.000    4.000    0.000    0.000 
#    0.000    0.000    0.000    0.000    0.000    0.000 
#
# Total GULP energy -267630.943710 kJ/mol
# GULP energy per Si atom -5575.644661 kJ/mol
# Density = 1.913572 g / cm^3
# Si number density = 19.179370 Si / 1000 Ang^3
#
#
#
# Elastic Constant Matrix: (Units=GPa)
#
#
# Indices 1 2 3 4 5 6 
#
# 1 43.4570 10.6814 22.2960 0.0000 0.0000 0.0000
# 2 10.6814 51.9334 47.9921 0.0000 0.0000 0.0000
# 3 22.2960 47.9921 134.0525 0.0000 0.0000 0.0000
# 4 0.0000 0.0000 0.0000 23.4039 0.0000 0.0000
# 5 0.0000 0.0000 0.0000 0.0000 8.8530 0.0000
# 6 0.0000 0.0000 0.0000 0.0000 0.0000 22.0170
#
#
#
# Elastic Compliance Matrix: (Units=1/GPa)
#
#
# Indices 1 2 3 4 5 6 
#
# 1 0.025291 -0.001964 -0.003503 0.000000 0.000000 0.000000
# 2 -0.001964 0.028928 -0.010030 0.000000 0.000000 0.000000
# 3 -0.003503 -0.010030 0.011633 0.000000 0.000000 0.000000
# 4 0.000000 0.000000 0.000000 0.042728 0.000000 0.000000
# 5 0.000000 0.000000 0.000000 0.000000 0.112957 0.000000
# 6 0.000000 0.000000 0.000000 0.000000 0.000000 0.045419
#
#
# Mechanical properties :
#
#
# Convention : Reuss Voigt Hill
#
# Bulk Modulus (GPa) = 28.68804 43.48689 36.08746
# Shear Modulus (GPa) = 16.15138 20.75300 18.45219
#
# Velocity S-wave (km/s) = 2.90508 3.29302 3.10511
# Velocity P-wave (km/s) = 5.12278 6.09767 5.63136
#
# Compressibility (1/GPa) = 0.03485774
#
# Stress axis : x y z
#
# Youngs Moduli (GPa) = 39.53905 34.56842 85.96080
#
# Poissons Ratio (x) = 0.06791 0.30114
# Poissons Ratio (y) = 0.07767 0.86217
# Poissons Ratio (z) = 0.13852 0.34672
#
# Static dielectric constant tensor:
#      x y z
#    x 1.661380 0.000000 0.000000 
#    y 0.000000 1.680400 0.000000 
#    z 0.000000 0.000000 1.692920 
# 
# From -- ./inp_files/5913.got.cif
#   From: 2010.05.17/outbox.cif.g08.bks.cpg/sg58_3_cif.got.tgz:5913.got - 2010.06.03 14:20:14.
