data_PCOD9443022
_publ_section_title
;
Structure prediction by ZEFSAII (Michael W. Deem and Ramdas Pophale) SiO2 
 PCOD9443022
Probable space group: P N N M
;
_chemical_formula_sum "Si O2"
_cell_formula_units_Z 64
_cell_length_a 11.095581
_cell_length_b 33.496938
_cell_length_c 7.479809
_cell_angle_alpha 90.000000
_cell_angle_beta 90.000000
_cell_angle_gamma 90.000000
_cell_volume 2780.005568
_symmetry_space_group_name_H-M "P N N M"
_symmetry_group_IT_number 58
_symmetry_cell_setting 'orthorhombic'
loop_
_space_group_symop_operation_xyz
x,y,z
-x,-y,z
1/2+x,1/2-y,1/2-z
1/2-x,1/2+y,1/2-z
-x,-y,-z
x,y,-z
1/2-x,1/2+y,1/2+z
1/2+x,1/2-y,1/2+z
loop_
_atom_site_type_symbol
_atom_site_label
_atom_site_fract_x
_atom_site_fract_y
_atom_site_fract_z
Si Si1 0.538284 0.714593 0.795530
Si Si2 0.275158 0.833166 0.216374
Si Si3 0.963744 0.303351 0.715104
Si Si4 0.070911 0.134857 0.281733
Si Si5 0.828643 0.087069 0.793161
Si Si6 0.895093 0.469363 0.781383
Si Si7 0.864615 0.999632 0.299900
Si Si8 0.331720 0.114831 0.710016
O O1 0.665600 0.692160 0.792490
O O2 0.557462 0.758472 0.715976
O O3 0.448676 0.680795 0.719393
O O4 0.497560 0.721071 0.000000
O O5 0.400627 0.814324 0.265922
O O6 0.262669 0.879075 0.273272
O O7 0.262984 0.832751 0.000000
O O8 0.952899 0.302622 0.500000
O O9 0.884452 0.340907 0.771724
O O10 0.067850 0.135413 0.500000
O O11 0.196022 0.116717 0.217308
O O12 0.958703 0.108387 0.220303
O O13 0.830054 0.046018 0.691117
O O14 0.803086 0.077952 0.000000
O O15 0.757228 0.479934 0.723729
O O16 0.910099 0.422896 0.724724
O O17 0.000000 0.500000 0.720253
O O18 0.895934 0.472427 0.000000
O O19 0.880997 0.981975 0.500000
O O20 0.000000 0.000000 0.216259
O O21 0.318852 0.107288 0.500000
#
# Coordination Sequence:
#
# PCOD9443022 Si02
#       8
#     8   8   8   8   8   8   8   8
#     4   9  19  35  55  79 105 139 181 224 268 314
#     4   9  20  37  55  76 110 147 179 219 270 324
#     4  10  22  37  54  78 112 147 177 219 276 330
#     4   9  18  35  57  81 110 144 184 227 269 322
#     4  10  20  34  55  84 113 144 181 223 274 327
#     4   9  19  35  54  80 112 142 181 234 283 327
#     4  10  20  35  58  83 108 143 185 232 283 332
#     4  10  21  36  58  83 106 142 189 228 270 329
#
# _framework density 23.021536000000001
#
# number of rings (size 3 to 8) (size 9 to 14) (size 15 to 20)
#    0.000    2.500    0.000    1.125    3.500    4.250 
#    0.000    0.625    0.000    0.750    0.000    0.000 
#    0.000    0.000    0.000    0.000    0.000    0.000 
#
# Total GULP energy -357101.146365 kJ/mol
# GULP energy per Si atom -5579.705412 kJ/mol
# Density = 2.296914 g / cm^3
# Si number density = 23.021536 Si / 1000 Ang^3
#
#
#
# Elastic Constant Matrix: (Units=GPa)
#
#
# Indices 1 2 3 4 5 6 
#
# 1 52.9563 12.8321 -4.1089 0.0000 0.0000 0.0000
# 2 12.8321 142.0813 -1.7498 0.0000 0.0000 0.0000
# 3 -4.1089 -1.7498 63.0972 0.0000 0.0000 0.0000
# 4 0.0000 0.0000 0.0000 14.1561 0.0000 0.0000
# 5 0.0000 0.0000 0.0000 0.0000 25.2093 0.0000
# 6 0.0000 0.0000 0.0000 0.0000 0.0000 24.4127
#
#
#
# Elastic Compliance Matrix: (Units=1/GPa)
#
#
# Indices 1 2 3 4 5 6 
#
# 1 0.019399 -0.001737 0.001215 0.000000 0.000000 0.000000
# 2 -0.001737 0.007196 0.000086 0.000000 0.000000 0.000000
# 3 0.001215 0.000086 0.015930 0.000000 0.000000 0.000000
# 4 0.000000 0.000000 0.000000 0.070641 0.000000 0.000000
# 5 0.000000 0.000000 0.000000 0.000000 0.039668 0.000000
# 6 0.000000 0.000000 0.000000 0.000000 0.000000 0.040962
#
#
# Mechanical properties :
#
#
# Convention : Reuss Voigt Hill
#
# Bulk Modulus (GPa) = 24.00735 30.23129 27.11932
# Shear Modulus (GPa) = 23.97487 29.49971 26.73729
#
# Velocity S-wave (km/s) = 3.23059 3.58354 3.41163
# Velocity P-wave (km/s) = 4.93624 5.50296 5.22729
#
# Compressibility (1/GPa) = 0.04165391
#
# Stress axis : x y z
#
# Youngs Moduli (GPa) = 51.54992 138.96282 62.77430
#
# Poissons Ratio (x) = 0.24138 -0.07628
# Poissons Ratio (y) = 0.08954 -0.00543
# Poissons Ratio (z) = -0.06264 -0.01201
#
# Static dielectric constant tensor:
#      x y z
#    x 1.841040 0.000000 0.000000 
#    y 0.000000 1.875210 0.000000 
#    z 0.000000 0.000000 1.956820 
# 
# From -- ./inp_files/4709.got.cif
#   From: 2010.05.17/outbox.cif.g08.bks.cpg/sg58_3_cif.got.tgz:4709.got - 2010.06.03 14:20:14.
