data_PCOD9443857
_publ_section_title
;
Structure prediction by ZEFSAII (Michael W. Deem and Ramdas Pophale) SiO2 
 PCOD9443857
Probable space group: P N N M
;
_chemical_formula_sum "Si O2"
_cell_formula_units_Z 64
_cell_length_a 16.290353
_cell_length_b 22.883947
_cell_length_c 8.991366
_cell_angle_alpha 90.000000
_cell_angle_beta 90.000000
_cell_angle_gamma 90.000000
_cell_volume 3351.869524
_symmetry_space_group_name_H-M "P N N M"
_symmetry_group_IT_number 58
_symmetry_cell_setting 'orthorhombic'
loop_
_space_group_symop_operation_xyz
x,y,z
-x,-y,z
1/2+x,1/2-y,1/2-z
1/2-x,1/2+y,1/2-z
-x,-y,-z
x,y,-z
1/2-x,1/2+y,1/2+z
1/2+x,1/2-y,1/2+z
loop_
_atom_site_type_symbol
_atom_site_label
_atom_site_fract_x
_atom_site_fract_y
_atom_site_fract_z
Si Si1 0.535599 0.720751 0.325425
Si Si2 0.245589 0.448374 0.677107
Si Si3 0.601281 0.351262 0.829596
Si Si4 0.909001 0.973995 0.176797
Si Si5 0.464328 0.828949 0.828592
Si Si6 0.704871 0.245777 0.836565
Si Si7 0.927096 0.546271 0.821449
Si Si8 0.189114 0.833405 0.328387
O O1 0.545432 0.727448 0.500000
O O2 0.454739 0.684392 0.284441
O O3 0.527557 0.784306 0.249246
O O4 0.605604 0.680695 0.254983
O O5 0.233099 0.443589 0.500000
O O6 0.330454 0.483992 0.702172
O O7 0.161165 0.471314 0.750657
O O8 0.262701 0.385400 0.748648
O O9 0.605236 0.416945 0.775460
O O10 0.684708 0.314077 0.830340
O O11 0.568905 0.347095 0.000000
O O12 0.909776 0.959863 0.000000
O O13 0.000000 0.000000 0.210505
O O14 0.379285 0.791770 0.831649
O O15 0.450561 0.889930 0.744343
O O16 0.487184 0.839940 0.000000
O O17 0.758039 0.224486 0.700155
O O18 0.742958 0.233058 0.000000
O O19 0.000000 0.500000 0.788632
O O20 0.918324 0.550401 0.000000
O O21 0.176630 0.846631 0.500000
#
# Coordination Sequence:
#
# PCOD9443857 Si02
#       8
#     8   8   8   8   8   8   8   8
#     4  11  22  37  60  88 123 160 198 247 307 373
#     4  11  23  40  64  93 126 168 215 264 317 376
#     4  10  21  38  60  86 118 156 198 244 301 365
#     4  10  22  40  62  90 126 169 210 253 313 380
#     4  10  20  38  63  89 119 153 199 253 310 371
#     4   9  19  36  58  84 116 153 189 238 304 367
#     4  11  24  42  64  90 121 165 217 267 320 377
#     4  12  23  36  59  90 121 154 202 254 304 369
#
# _framework density 19.093820999999998
#
# number of rings (size 3 to 8) (size 9 to 14) (size 15 to 20)
#    0.000    1.500    1.250    5.250    0.000    5.750 
#    2.250    0.000    0.000    0.000    0.000    0.000 
#    0.000    0.000    0.000    0.000    0.000    0.000 
#
# Total GULP energy -357082.565448 kJ/mol
# GULP energy per Si atom -5579.415085 kJ/mol
# Density = 1.905036 g / cm^3
# Si number density = 19.093821 Si / 1000 Ang^3
#
#
#
# Elastic Constant Matrix: (Units=GPa)
#
#
# Indices 1 2 3 4 5 6 
#
# 1 75.8782 19.0304 43.3793 0.0000 0.0000 0.0000
# 2 19.0304 75.1412 42.3582 0.0000 0.0000 0.0000
# 3 43.3793 42.3582 110.8858 0.0000 0.0000 0.0000
# 4 0.0000 0.0000 0.0000 69.7292 0.0000 0.0000
# 5 0.0000 0.0000 0.0000 0.0000 29.7317 0.0000
# 6 0.0000 0.0000 0.0000 0.0000 0.0000 21.7257
#
#
#
# Elastic Compliance Matrix: (Units=1/GPa)
#
#
# Indices 1 2 3 4 5 6 
#
# 1 0.017005 -0.000709 -0.006382 0.000000 0.000000 0.000000
# 2 -0.000709 0.016990 -0.006213 0.000000 0.000000 0.000000
# 3 -0.006382 -0.006213 0.013888 0.000000 0.000000 0.000000
# 4 0.000000 0.000000 0.000000 0.014341 0.000000 0.000000
# 5 0.000000 0.000000 0.000000 0.000000 0.033634 0.000000
# 6 0.000000 0.000000 0.000000 0.000000 0.000000 0.046028
#
#
# Mechanical properties :
#
#
# Convention : Reuss Voigt Hill
#
# Bulk Modulus (GPa) = 47.00110 52.38235 49.69173
# Shear Modulus (GPa) = 28.47599 34.71314 31.59457
#
# Velocity S-wave (km/s) = 3.86602 4.26846 4.07221
# Velocity P-wave (km/s) = 6.67813 7.19630 6.94205
#
# Compressibility (1/GPa) = 0.02127610
#
# Stress axis : x y z
#
# Youngs Moduli (GPa) = 58.80534 58.85778 72.00441
#
# Poissons Ratio (x) = 0.04175 0.45950
# Poissons Ratio (y) = 0.04172 0.44734
# Poissons Ratio (z) = 0.37527 0.36566
#
# Static dielectric constant tensor:
#      x y z
#    x 1.732970 0.000000 0.000000 
#    y 0.000000 1.668310 0.000000 
#    z 0.000000 0.000000 1.650320 
# 
# From -- ./inp_files/8265.got.cif
#   From: 2010.05.17/outbox.cif.g08.bks.cpg/sg58_5_cif.got.tgz:8265.got - 2010.06.03 14:20:14.
