data_PCOD9443632
_publ_section_title
;
Structure prediction by ZEFSAII (Michael W. Deem and Ramdas Pophale) SiO2 
 PCOD9443632
Probable space group: P N N M
;
_chemical_formula_sum "Si O2"
_cell_formula_units_Z 48
_cell_length_a 8.756016
_cell_length_b 16.171160
_cell_length_c 16.997961
_cell_angle_alpha 90.000000
_cell_angle_beta 90.000000
_cell_angle_gamma 90.000000
_cell_volume 2406.825195
_symmetry_space_group_name_H-M "P N N M"
_symmetry_group_IT_number 58
_symmetry_cell_setting 'orthorhombic'
loop_
_space_group_symop_operation_xyz
x,y,z
-x,-y,z
1/2+x,1/2-y,1/2-z
1/2-x,1/2+y,1/2-z
-x,-y,-z
x,y,-z
1/2-x,1/2+y,1/2+z
1/2+x,1/2-y,1/2+z
loop_
_atom_site_type_symbol
_atom_site_label
_atom_site_fract_x
_atom_site_fract_y
_atom_site_fract_z
Si Si1 0.600834 0.578329 0.409429
Si Si2 0.406664 0.249479 0.816374
Si Si3 0.559161 0.587234 0.910307
Si Si4 0.955232 0.758388 0.145231
Si Si5 0.912695 0.583967 0.684809
Si Si6 0.089918 0.417991 0.875646
O O1 0.500000 0.500000 0.384087
O O2 0.647211 0.565354 0.500000
O O3 0.500529 0.661165 0.402845
O O4 0.748498 0.586001 0.355110
O O5 0.472383 0.329761 0.861382
O O6 0.225413 0.242171 0.832712
O O7 0.444562 0.261010 0.724647
O O8 0.490774 0.164623 0.839374
O O9 0.500000 0.500000 0.876393
O O10 0.741750 0.579930 0.910218
O O11 0.501991 0.595057 0.000000
O O12 0.985010 0.670151 0.103945
O O13 0.897334 0.583766 0.779941
O O14 0.000000 0.500000 0.662774
O O15 0.000000 0.500000 0.898219
#
# Coordination Sequence:
#
# PCOD9443632 Si02
#       6
#     8   8   8   8   8   8
#     4  11  24  39  56  82 116 154 192 233 286 344
#     4  10  21  37  60  86 113 146 188 236 286 339
#     4  10  22  37  53  78 112 148 183 221 271 329
#     4  10  20  37  59  85 114 145 187 235 283 338
#     4  10  21  39  61  86 111 144 190 238 289 343
#     4   9  20  37  59  83 108 141 182 229 279 329
#
# _framework density 19.943286000000001
#
# number of rings (size 3 to 8) (size 9 to 14) (size 15 to 20)
#    0.000    2.000    0.000    4.000    0.000   12.000 
#    0.000    1.667    0.000    0.000    0.000    0.000 
#    0.000    0.000    0.000    0.000    0.000    0.000 
#
# Total GULP energy -268075.964051 kJ/mol
# GULP energy per Si atom -5584.915918 kJ/mol
# Density = 1.989789 g / cm^3
# Si number density = 19.943286 Si / 1000 Ang^3
#
#
#
# Elastic Constant Matrix: (Units=GPa)
#
#
# Indices 1 2 3 4 5 6 
#
# 1 57.6634 48.0211 16.4308 0.0000 0.0000 0.0000
# 2 48.0211 196.6478 30.3460 0.0000 0.0000 0.0000
# 3 16.4308 30.3460 28.3773 0.0000 0.0000 0.0000
# 4 0.0000 0.0000 0.0000 -35.6212 0.0000 0.0000
# 5 0.0000 0.0000 0.0000 0.0000 38.7771 0.0000
# 6 0.0000 0.0000 0.0000 0.0000 0.0000 40.6817
#
#
#
# Elastic Compliance Matrix: (Units=1/GPa)
#
#
# Indices 1 2 3 4 5 6 
#
# 1 0.023528 -0.004363 -0.008957 0.000000 0.000000 0.000000
# 2 -0.004363 0.006899 -0.004852 0.000000 0.000000 0.000000
# 3 -0.008957 -0.004852 0.045614 0.000000 0.000000 0.000000
# 4 0.000000 0.000000 0.000000 -0.028073 0.000000 0.000000
# 5 0.000000 0.000000 0.000000 0.000000 0.025788 0.000000
# 6 0.000000 0.000000 0.000000 0.000000 0.000000 0.024581
#
#
# Mechanical properties :
#
#
# Convention : Reuss Voigt Hill
#
# Bulk Modulus (GPa) = 25.19061 52.47605 38.83333
# Shear Modulus (GPa) = 33.80349 21.29357 27.54853
#
# Velocity S-wave (km/s) = 4.12148 3.27112 3.72068
# Velocity P-wave (km/s) = 5.94200 6.37470 6.16215
#
# Compressibility (1/GPa) = 0.03969733
#
# Stress axis : x y z
#
# Youngs Moduli (GPa) = 42.50272 144.93943 21.92318
#
# Poissons Ratio (x) = 0.63241 0.19636
# Poissons Ratio (y) = 0.18545 0.10636
# Poissons Ratio (z) = 0.38070 0.70320
#
# Static dielectric constant tensor:
#      x y z
#    x 1.666290 0.000000 0.000000 
#    y 0.000000 1.727040 0.000000 
#    z 0.000000 0.000000 1.708500 
# 
# From -- ./inp_files/25283.got.cif
#   From: 2010.05.17/outbox.cif.g08.bks.cpg/sg58_13_cif.got.tgz:25283.got - 2010.06.03 14:20:14.
