data_PCOD9443314
_publ_section_title
;
Structure prediction by ZEFSAII (Michael W. Deem and Ramdas Pophale) SiO2 
 PCOD9443314
Probable space group: P N N M
;
_chemical_formula_sum "Si O2"
_cell_formula_units_Z 44
_cell_length_a 14.357170
_cell_length_b 8.566312
_cell_length_c 17.704972
_cell_angle_alpha 90.000000
_cell_angle_beta 90.000000
_cell_angle_gamma 90.000000
_cell_volume 2177.499055
_symmetry_space_group_name_H-M "P N N M"
_symmetry_group_IT_number 58
_symmetry_cell_setting 'orthorhombic'
loop_
_space_group_symop_operation_xyz
x,y,z
-x,-y,z
1/2+x,1/2-y,1/2-z
1/2-x,1/2+y,1/2-z
-x,-y,-z
x,y,-z
1/2-x,1/2+y,1/2+z
1/2+x,1/2-y,1/2+z
loop_
_atom_site_type_symbol
_atom_site_label
_atom_site_fract_x
_atom_site_fract_y
_atom_site_fract_z
Si Si1 0.491686 0.332749 0.265402
Si Si2 0.000000 0.500000 0.322298
Si Si3 0.707015 0.788216 0.295137
Si Si4 0.390500 0.001500 0.415612
Si Si5 0.381173 0.644740 0.416182
Si Si6 0.795587 0.498344 0.649457
O O1 0.500000 0.500000 0.222265
O O2 0.512088 0.161573 0.227375
O O3 0.382262 0.320396 0.281725
O O4 0.550081 0.356938 0.343443
O O5 0.095562 0.526262 0.368464
O O6 0.672212 0.904287 0.359024
O O7 0.787308 0.676159 0.323011
O O8 0.726396 0.885096 0.220274
O O9 0.388858 0.069581 0.500000
O O10 0.500000 0.000000 0.393042
O O11 0.353572 0.826369 0.417402
O O12 0.422808 0.614964 0.500000
O O13 0.288755 0.540324 0.406682
#
# Coordination Sequence:
#
# PCOD9443314 Si02
#       6
#     8   4   8   8   8   8
#     4  11  20  36  58  93 120 156 192 247 318 376
#     4  10  24  42  62  82 126 162 212 262 308 352
#     4  11  21  34  60  84 124 156 200 246 301 376
#     4  10  20  35  58  90 128 160 180 233 318 386
#     4  11  22  38  58  87 126 161 200 246 310 380
#     4  11  23  38  56  84 114 164 210 256 298 352
#
# _framework density 20.206669999999999
#
# number of rings (size 3 to 8) (size 9 to 14) (size 15 to 20)
#    0.000    1.273    3.636    4.364    1.273    1.091 
#    0.000    0.455    0.000    0.000    0.000    2.545 
#    0.000    0.000    0.000    0.000    0.000    0.000 
#
# Total GULP energy -245224.108422 kJ/mol
# GULP energy per Si atom -5573.275191 kJ/mol
# Density = 2.016068 g / cm^3
# Si number density = 20.206670 Si / 1000 Ang^3
#
#
#
# Elastic Constant Matrix: (Units=GPa)
#
#
# Indices 1 2 3 4 5 6 
#
# 1 62.4107 8.6720 0.7876 0.0000 0.0000 0.0000
# 2 8.6720 106.5389 5.6809 0.0000 0.0000 0.0000
# 3 0.7876 5.6809 22.8560 0.0000 0.0000 0.0000
# 4 0.0000 0.0000 0.0000 25.3994 0.0000 0.0000
# 5 0.0000 0.0000 0.0000 0.0000 10.4059 0.0000
# 6 0.0000 0.0000 0.0000 0.0000 0.0000 36.6111
#
#
#
# Elastic Compliance Matrix: (Units=1/GPa)
#
#
# Indices 1 2 3 4 5 6 
#
# 1 0.016207 -0.001307 -0.000234 0.000000 0.000000 0.000000
# 2 -0.001307 0.009618 -0.002345 0.000000 0.000000 0.000000
# 3 -0.000234 -0.002345 0.044343 0.000000 0.000000 0.000000
# 4 0.000000 0.000000 0.000000 0.039371 0.000000 0.000000
# 5 0.000000 0.000000 0.000000 0.000000 0.096099 0.000000
# 6 0.000000 0.000000 0.000000 0.000000 0.000000 0.027314
#
#
# Mechanical properties :
#
#
# Convention : Reuss Voigt Hill
#
# Bulk Modulus (GPa) = 16.02659 24.67630 20.35144
# Shear Modulus (GPa) = 19.11876 26.26095 22.68985
#
# Velocity S-wave (km/s) = 3.07931 3.60893 3.35459
# Velocity P-wave (km/s) = 4.53778 5.44099 5.00978
#
# Compressibility (1/GPa) = 0.06239632
#
# Stress axis : x y z
#
# Youngs Moduli (GPa) = 61.70015 103.97522 22.55141
#
# Poissons Ratio (x) = 0.13587 0.00527
# Poissons Ratio (y) = 0.08063 0.05289
# Poissons Ratio (z) = 0.01442 0.24387
#
# Static dielectric constant tensor:
#      x y z
#    x 1.741230 0.000000 0.000000 
#    y 0.000000 1.735360 0.000000 
#    z 0.000000 0.000000 1.747900 
# 
# From -- ./inp_files/25197.got.cif
#   From: 2010.05.17/outbox.cif.g08.bks.cpg/sg58_13_cif.got.tgz:25197.got - 2010.06.03 14:20:14.
