data_PCOD9443845
_publ_section_title
;
Structure prediction by ZEFSAII (Michael W. Deem and Ramdas Pophale) SiO2 
 PCOD9443845
Probable space group: P N N M
;
_chemical_formula_sum "Si O2"
_cell_formula_units_Z 48
_cell_length_a 17.101160
_cell_length_b 9.000328
_cell_length_c 15.053389
_cell_angle_alpha 90.000000
_cell_angle_beta 90.000000
_cell_angle_gamma 90.000000
_cell_volume 2316.958162
_symmetry_space_group_name_H-M "P N N M"
_symmetry_group_IT_number 58
_symmetry_cell_setting 'orthorhombic'
loop_
_space_group_symop_operation_xyz
x,y,z
-x,-y,z
1/2+x,1/2-y,1/2-z
1/2-x,1/2+y,1/2-z
-x,-y,-z
x,y,-z
1/2-x,1/2+y,1/2+z
1/2+x,1/2-y,1/2+z
loop_
_atom_site_type_symbol
_atom_site_label
_atom_site_fract_x
_atom_site_fract_y
_atom_site_fract_z
Si Si1 0.368359 0.752487 0.398990
Si Si2 0.313181 0.734244 0.103686
Si Si3 0.693736 0.619412 0.096473
Si Si4 0.086706 0.934092 0.100066
Si Si5 0.839543 0.279136 0.225292
Si Si6 0.417610 0.920250 0.768279
O O1 0.401134 0.761458 0.500000
O O2 0.285866 0.838271 0.400211
O O3 0.358241 0.576617 0.379094
O O4 0.419910 0.821858 0.321269
O O5 0.322286 0.555800 0.102188
O O6 0.238966 0.754352 0.169286
O O7 0.383897 0.821571 0.151084
O O8 0.301215 0.780233 0.000000
O O9 0.658562 0.699515 0.180498
O O10 0.664886 0.672565 0.000000
O O11 0.095517 0.797808 0.164985
O O12 0.104129 0.885211 0.000000
O O13 0.000000 0.000000 0.103489
O O14 0.855574 0.450288 0.244327
O O15 0.500000 0.000000 0.786777
#
# Coordination Sequence:
#
# PCOD9443845 Si02
#       6
#     8   8   8   8   8   8
#     4  10  20  38  62  91 129 166 211 262 316 380
#     4  11  23  42  65  90 126 169 220 272 319 380
#     4  10  22  40  64  93 121 159 216 275 319 367
#     4  10  22  38  60  93 133 171 205 256 324 389
#     4  12  22  39  65  95 123 167 219 262 322 387
#     4  12  26  41  63  98 136 173 212 266 333 396
#
# _framework density 20.716816999999999
#
# number of rings (size 3 to 8) (size 9 to 14) (size 15 to 20)
#    0.000    1.167    3.333    2.500    2.333    2.000 
#    0.000    0.000    0.000    2.500    0.000    0.000 
#    0.000    0.000    0.000    0.000    0.000    0.000 
#
# Total GULP energy -268059.871875 kJ/mol
# GULP energy per Si atom -5584.580664 kJ/mol
# Density = 2.066966 g / cm^3
# Si number density = 20.716817 Si / 1000 Ang^3
#
#
#
# Elastic Constant Matrix: (Units=GPa)
#
#
# Indices 1 2 3 4 5 6 
#
# 1 38.8754 9.3977 10.0616 0.0000 0.0000 0.0000
# 2 9.3977 85.1132 56.5991 0.0000 0.0000 0.0000
# 3 10.0616 56.5991 138.7031 0.0000 0.0000 0.0000
# 4 0.0000 0.0000 0.0000 4.9725 0.0000 0.0000
# 5 0.0000 0.0000 0.0000 0.0000 23.3511 0.0000
# 6 0.0000 0.0000 0.0000 0.0000 0.0000 34.2019
#
#
#
# Elastic Compliance Matrix: (Units=1/GPa)
#
#
# Indices 1 2 3 4 5 6 
#
# 1 0.026529 -0.002264 -0.001001 0.000000 0.000000 0.000000
# 2 -0.002264 0.016318 -0.006494 0.000000 0.000000 0.000000
# 3 -0.001001 -0.006494 0.009932 0.000000 0.000000 0.000000
# 4 0.000000 0.000000 0.000000 0.201105 0.000000 0.000000
# 5 0.000000 0.000000 0.000000 0.000000 0.042824 0.000000
# 6 0.000000 0.000000 0.000000 0.000000 0.000000 0.029238
#
#
# Mechanical properties :
#
#
# Convention : Reuss Voigt Hill
#
# Bulk Modulus (GPa) = 30.06456 46.08984 38.07720
# Shear Modulus (GPa) = 14.02322 24.94733 19.48527
#
# Velocity S-wave (km/s) = 2.60455 3.47393 3.07017
# Velocity P-wave (km/s) = 4.85681 6.19571 5.56666
#
# Compressibility (1/GPa) = 0.03326176
#
# Stress axis : x y z
#
# Youngs Moduli (GPa) = 37.69397 61.28324 100.68134
#
# Poissons Ratio (x) = 0.13873 0.10075
# Poissons Ratio (y) = 0.08533 0.65386
# Poissons Ratio (z) = 0.03772 0.39800
#
# Static dielectric constant tensor:
#      x y z
#    x 1.775510 0.000000 0.000000 
#    y 0.000000 1.733100 0.000000 
#    z 0.000000 0.000000 1.731350 
# 
# From -- ./inp_files/19836.got.cif
#   From: 2010.05.17/outbox.cif.g08.bks.cpg/sg58_10_cif.got.tgz:19836.got - 2010.06.03 14:20:14.
