data_PCOD9443348
_publ_section_title
;
Structure prediction by ZEFSAII (Michael W. Deem and Ramdas Pophale) SiO2 
 PCOD9443348
Probable space group: P N N M
;
_chemical_formula_sum "Si O2"
_cell_formula_units_Z 52
_cell_length_a 18.658972
_cell_length_b 14.991390
_cell_length_c 7.288882
_cell_angle_alpha 90.000000
_cell_angle_beta 90.000000
_cell_angle_gamma 90.000000
_cell_volume 2038.874691
_symmetry_space_group_name_H-M "P N N M"
_symmetry_group_IT_number 58
_symmetry_cell_setting 'orthorhombic'
loop_
_space_group_symop_operation_xyz
x,y,z
-x,-y,z
1/2+x,1/2-y,1/2-z
1/2-x,1/2+y,1/2-z
-x,-y,-z
x,y,-z
1/2-x,1/2+y,1/2+z
1/2+x,1/2-y,1/2+z
loop_
_atom_site_type_symbol
_atom_site_label
_atom_site_fract_x
_atom_site_fract_y
_atom_site_fract_z
Si Si1 0.838301 0.802893 0.286162
Si Si2 0.977813 0.255021 0.000000
Si Si3 0.225857 0.370015 0.278141
Si Si4 0.799526 0.427490 0.279015
Si Si5 0.382918 0.356104 0.210967
Si Si6 0.465911 0.097820 0.218484
Si Si7 0.426274 0.541707 0.221303
O O1 0.855287 0.791928 0.500000
O O2 0.829208 0.704576 0.210674
O O3 0.764960 0.861913 0.278893
O O4 0.899629 0.865358 0.201566
O O5 0.937087 0.193254 0.841300
O O6 0.001805 0.326435 0.838842
O O7 0.223721 0.373014 0.500000
O O8 0.213259 0.470679 0.213889
O O9 0.301661 0.325406 0.225226
O O10 0.798209 0.427751 0.500000
O O11 0.880790 0.400215 0.227295
O O12 0.373384 0.460662 0.262512
O O13 0.407747 0.351312 0.000000
O O14 0.500000 0.000000 0.250720
O O15 0.470918 0.114692 0.000000
O O16 0.500000 0.500000 0.286264
O O17 0.430227 0.550084 0.000000
#
# Coordination Sequence:
#
# PCOD9443348 Si02
#       7
#     8   4   8   8   8   8   8
#     4  10  20  35  61  90 117 162 214 260 323 388
#     4  12  23  40  65  94 128 172 216 269 323 389
#     4  10  20  36  59  91 127 163 209 272 331 385
#     4  10  21  37  61  89 126 164 205 268 330 385
#     4  11  22  38  63  95 128 167 220 271 324 394
#     4  10  23  44  67  95 129 171 217 267 336 406
#     4   9  19  39  63  89 126 172 218 270 330 394
#
# _framework density 25.504265
#
# number of rings (size 3 to 8) (size 9 to 14) (size 15 to 20)
#    0.000    1.846    2.308    1.615    3.231    1.846 
#    2.769    0.385    0.000    0.000    0.000    0.000 
#    0.000    0.000    0.000    0.000    0.000    0.000 
#
# Total GULP energy -289915.629274 kJ/mol
# GULP energy per Si atom -5575.300563 kJ/mol
# Density = 2.544622 g / cm^3
# Si number density = 25.504265 Si / 1000 Ang^3
#
#
#
# Elastic Constant Matrix: (Units=GPa)
#
#
# Indices 1 2 3 4 5 6 
#
# 1 86.0988 3.3892 -18.7215 0.0000 0.0000 0.0000
# 2 3.3892 100.6722 8.6539 0.0000 0.0000 0.0000
# 3 -18.7215 8.6539 137.9067 0.0000 0.0000 0.0000
# 4 0.0000 0.0000 0.0000 410.2836 0.0000 0.0000
# 5 0.0000 0.0000 0.0000 0.0000 7.0089 0.0000
# 6 0.0000 0.0000 0.0000 0.0000 0.0000 37.4655
#
#
#
# Elastic Compliance Matrix: (Units=1/GPa)
#
#
# Indices 1 2 3 4 5 6 
#
# 1 0.011998 -0.000547 0.001663 0.000000 0.000000 0.000000
# 2 -0.000547 0.010012 -0.000703 0.000000 0.000000 0.000000
# 3 0.001663 -0.000703 0.007521 0.000000 0.000000 0.000000
# 4 0.000000 0.000000 0.000000 0.002437 0.000000 0.000000
# 5 0.000000 0.000000 0.000000 0.000000 0.142677 0.000000
# 6 0.000000 0.000000 0.000000 0.000000 0.000000 0.026691
#
#
# Mechanical properties :
#
#
# Convention : Reuss Voigt Hill
#
# Bulk Modulus (GPa) = 32.94000 34.59121 33.76561
# Shear Modulus (GPa) = 23.73852 113.04201 68.39026
#
# Velocity S-wave (km/s) = 3.05416 6.66476 5.18396
# Velocity P-wave (km/s) = 5.03792 8.53333 7.00708
#
# Compressibility (1/GPa) = 0.03035823
#
# Stress axis : x y z
#
# Youngs Moduli (GPa) = 83.34920 99.87986 132.95874
#
# Poissons Ratio (x) = 0.05462 -0.22112
# Poissons Ratio (y) = 0.04558 0.09341
# Poissons Ratio (z) = -0.13861 0.07017
#
# Static dielectric constant tensor:
#      x y z
#    x 2.121740 0.000000 0.000000 
#    y 0.000000 2.042220 0.000000 
#    z 0.000000 0.000000 1.903070 
# 
# From -- ./inp_files/8907.got.cif
#   From: 2010.05.17/outbox.cif.g08.bks.cpg/sg58_5_cif.got.tgz:8907.got - 2010.06.03 14:20:14.
