data_PCOD9443053
_publ_section_title
;
Structure prediction by ZEFSAII (Michael W. Deem and Ramdas Pophale) SiO2 
 PCOD9443053
Probable space group: P N N M
;
_chemical_formula_sum "Si O2"
_cell_formula_units_Z 40
_cell_length_a 9.051077
_cell_length_b 13.450630
_cell_length_c 15.501468
_cell_angle_alpha 90.000000
_cell_angle_beta 90.000000
_cell_angle_gamma 90.000000
_cell_volume 1887.190380
_symmetry_space_group_name_H-M "P N N M"
_symmetry_group_IT_number 58
_symmetry_cell_setting 'orthorhombic'
loop_
_space_group_symop_operation_xyz
x,y,z
-x,-y,z
1/2+x,1/2-y,1/2-z
1/2-x,1/2+y,1/2-z
-x,-y,-z
x,y,-z
1/2-x,1/2+y,1/2+z
1/2+x,1/2-y,1/2+z
loop_
_atom_site_type_symbol
_atom_site_label
_atom_site_fract_x
_atom_site_fract_y
_atom_site_fract_z
Si Si1 0.614038 0.363470 0.235622
Si Si2 0.977744 0.659817 0.096202
Si Si3 0.241233 0.498344 0.098691
Si Si4 0.176606 0.016881 0.097529
Si Si5 0.819176 0.181739 0.810267
O O1 0.653276 0.443074 0.162309
O O2 0.687658 0.402927 0.325465
O O3 0.690365 0.257830 0.214758
O O4 0.436881 0.357696 0.240381
O O5 0.835494 0.602734 0.133983
O O6 0.104684 0.576265 0.092213
O O7 0.059772 0.752222 0.137420
O O8 0.933663 0.689222 0.000000
O O9 0.294942 0.482813 0.000000
O O10 0.237243 0.911768 0.133949
O O11 0.229146 0.040367 0.000000
O O12 0.000000 0.000000 0.091755
#
# Coordination Sequence:
#
# PCOD9443053 Si02
#       5
#     8   8   8   8   8
#     4  10  21  35  56  83 117 148 190 234 284 336
#     4   8  14  27  51  79 101 131 184 233 268 315
#     4   8  15  29  50  78 109 139 174 226 280 326
#     4   9  19  37  59  82 114 154 197 242 286 336
#     4  10  20  34  56  85 112 149 189 233 283 338
#
# _framework density 21.195529000000001
#
# number of rings (size 3 to 8) (size 9 to 14) (size 15 to 20)
#    0.000    3.000    0.000    1.800    2.800    1.600 
#    0.000    1.000    0.000    6.600    0.000    0.000 
#    0.000    0.000    0.000    0.000    0.000    0.000 
#
# Total GULP energy -222784.458801 kJ/mol
# GULP energy per Si atom -5569.611470 kJ/mol
# Density = 2.114729 g / cm^3
# Si number density = 21.195529 Si / 1000 Ang^3
#
#
#
# Elastic Constant Matrix: (Units=GPa)
#
#
# Indices 1 2 3 4 5 6 
#
# 1 45.7145 0.2381 22.1997 0.0000 0.0000 0.0000
# 2 0.2381 75.9660 19.8499 0.0000 0.0000 0.0000
# 3 22.1997 19.8499 72.1523 0.0000 0.0000 0.0000
# 4 0.0000 0.0000 0.0000 -4.9052 0.0000 0.0000
# 5 0.0000 0.0000 0.0000 0.0000 20.0708 0.0000
# 6 0.0000 0.0000 0.0000 0.0000 0.0000 39.0897
#
#
#
# Elastic Compliance Matrix: (Units=1/GPa)
#
#
# Indices 1 2 3 4 5 6 
#
# 1 0.026045 0.002168 -0.008610 0.000000 0.000000 0.000000
# 2 0.002168 0.014364 -0.004619 0.000000 0.000000 0.000000
# 3 -0.008610 -0.004619 0.017779 0.000000 0.000000 0.000000
# 4 0.000000 0.000000 0.000000 -0.203867 0.000000 0.000000
# 5 0.000000 0.000000 0.000000 0.000000 0.049824 0.000000
# 6 0.000000 0.000000 0.000000 0.000000 0.000000 0.025582
#
#
# Mechanical properties :
#
#
# Convention : Reuss Voigt Hill
#
# Bulk Modulus (GPa) = 27.72623 30.93423 29.33023
# Shear Modulus (GPa) = -138.38997 20.95408 -58.71795
#
# Velocity S-wave (km/s) = -8.08912 3.14763 -5.26907
# Velocity P-wave (km/s) = 8.61020 5.27602 4.81140
#
# Compressibility (1/GPa) = 0.03606693
#
# Stress axis : x y z
#
# Youngs Moduli (GPa) = 38.39550 69.61917 56.24516
#
# Poissons Ratio (x) = -0.15094 0.48426
# Poissons Ratio (y) = -0.08325 0.25978
# Poissons Ratio (z) = 0.33058 0.32155
#
# Static dielectric constant tensor:
#      x y z
#    x 1.743610 0.000000 0.000000 
#    y 0.000000 1.847020 0.000000 
#    z 0.000000 0.000000 1.870990 
# 
# From -- ./inp_files/19491.got.cif
#   From: 2010.05.17/outbox.cif.g08.bks.cpg/sg58_10_cif.got.tgz:19491.got - 2010.06.03 14:20:14.
