data_PCOD9443754
_publ_section_title
;
Structure prediction by ZEFSAII (Michael W. Deem and Ramdas Pophale) SiO2 
 PCOD9443754
Probable space group: P N N M
;
_chemical_formula_sum "Si O2"
_cell_formula_units_Z 40
_cell_length_a 16.668451
_cell_length_b 7.893700
_cell_length_c 13.632919
_cell_angle_alpha 90.000000
_cell_angle_beta 90.000000
_cell_angle_gamma 90.000000
_cell_volume 1793.761565
_symmetry_space_group_name_H-M "P N N M"
_symmetry_group_IT_number 58
_symmetry_cell_setting 'orthorhombic'
loop_
_space_group_symop_operation_xyz
x,y,z
-x,-y,z
1/2+x,1/2-y,1/2-z
1/2-x,1/2+y,1/2-z
-x,-y,-z
x,y,-z
1/2-x,1/2+y,1/2+z
1/2+x,1/2-y,1/2+z
loop_
_atom_site_type_symbol
_atom_site_label
_atom_site_fract_x
_atom_site_fract_y
_atom_site_fract_z
Si Si1 0.939639 0.658725 0.611832
Si Si2 0.983269 0.807134 0.191632
Si Si3 0.767977 0.506489 0.619362
Si Si4 0.313468 0.826553 0.382884
Si Si5 0.349629 0.194072 0.618928
O O1 0.934014 0.723564 0.500000
O O2 0.969114 0.791180 0.692013
O O3 0.853518 0.586018 0.644440
O O4 0.000000 0.500000 0.611947
O O5 0.903043 0.736810 0.141524
O O6 0.061203 0.699692 0.162065
O O7 0.000000 0.000000 0.161646
O O8 0.768090 0.500900 0.500000
O O9 0.747849 0.316878 0.653703
O O10 0.698415 0.637570 0.648005
O O11 0.305094 0.830352 0.500000
O O12 0.304976 0.020954 0.350631
O O13 0.355756 0.194376 0.500000
#
# Coordination Sequence:
#
# PCOD9443754 Si02
#       5
#     8   8   8   8   8
#     4  10  23  46  67  85 122 173 223 271 309 361
#     4  12  23  39  61  96 131 170 211 257 321 386
#     4   9  19  40  65  92 124 163 212 263 315 369
#     4  10  20  37  64  98 132 166 203 254 323 389
#     4  10  20  37  66 100 135 165 200 259 324 388
#
# _framework density 22.299506999999998
#
# number of rings (size 3 to 8) (size 9 to 14) (size 15 to 20)
#    0.000    1.800    2.000    2.400    0.000    2.800 
#   10.800    0.000    0.000    0.000    0.000    0.000 
#    0.000    0.000    0.000    0.000    0.000    0.000 
#
# Total GULP energy -223754.465637 kJ/mol
# GULP energy per Si atom -5593.861641 kJ/mol
# Density = 2.224875 g / cm^3
# Si number density = 22.299507 Si / 1000 Ang^3
#
#
#
# Elastic Constant Matrix: (Units=GPa)
#
#
# Indices 1 2 3 4 5 6 
#
# 1 76.2849 3.4787 2.4241 0.0000 0.0000 0.0000
# 2 3.4787 106.9259 16.9747 0.0000 0.0000 0.0000
# 3 2.4241 16.9747 72.5288 0.0000 0.0000 0.0000
# 4 0.0000 0.0000 0.0000 21.2299 0.0000 0.0000
# 5 0.0000 0.0000 0.0000 0.0000 8.3171 0.0000
# 6 0.0000 0.0000 0.0000 0.0000 0.0000 27.9395
#
#
#
# Elastic Compliance Matrix: (Units=1/GPa)
#
#
# Indices 1 2 3 4 5 6 
#
# 1 0.013137 -0.000371 -0.000352 0.000000 0.000000 0.000000
# 2 -0.000371 0.009724 -0.002263 0.000000 0.000000 0.000000
# 3 -0.000352 -0.002263 0.014329 0.000000 0.000000 0.000000
# 4 0.000000 0.000000 0.000000 0.047103 0.000000 0.000000
# 5 0.000000 0.000000 0.000000 0.000000 0.120234 0.000000
# 6 0.000000 0.000000 0.000000 0.000000 0.000000 0.035792
#
#
# Mechanical properties :
#
#
# Convention : Reuss Voigt Hill
#
# Bulk Modulus (GPa) = 32.03507 33.49939 32.76723
# Shear Modulus (GPa) = 19.47818 27.02144 23.24981
#
# Velocity S-wave (km/s) = 2.95868 3.48480 3.23246
# Velocity P-wave (km/s) = 5.10575 5.58989 5.35330
#
# Compressibility (1/GPa) = 0.03121579
#
# Stress axis : x y z
#
# Youngs Moduli (GPa) = 76.12157 102.84187 69.78799
#
# Poissons Ratio (x) = 0.03820 0.02457
# Poissons Ratio (y) = 0.02828 0.15795
# Poissons Ratio (z) = 0.02680 0.23276
#
# Static dielectric constant tensor:
#      x y z
#    x 1.770580 0.000000 0.000000 
#    y 0.000000 1.812440 0.000000 
#    z 0.000000 0.000000 1.853300 
# 
# From -- ./inp_files/21895.got.cif
#   From: 2010.05.17/outbox.cif.g08.bks.cpg/sg58_11_cif.got.tgz:21895.got - 2010.06.03 14:20:14.
