data_PCOD9443829
_publ_section_title
;
Structure prediction by ZEFSAII (Michael W. Deem and Ramdas Pophale) SiO2 
 PCOD9443829
Probable space group: P N N M
;
_chemical_formula_sum "Si O2"
_cell_formula_units_Z 48
_cell_length_a 9.908653
_cell_length_b 28.112764
_cell_length_c 8.014369
_cell_angle_alpha 90.000000
_cell_angle_beta 90.000000
_cell_angle_gamma 90.000000
_cell_volume 2232.479610
_symmetry_space_group_name_H-M "P N N M"
_symmetry_group_IT_number 58
_symmetry_cell_setting 'orthorhombic'
loop_
_space_group_symop_operation_xyz
x,y,z
-x,-y,z
1/2+x,1/2-y,1/2-z
1/2-x,1/2+y,1/2-z
-x,-y,-z
x,y,-z
1/2-x,1/2+y,1/2+z
1/2+x,1/2-y,1/2+z
loop_
_atom_site_type_symbol
_atom_site_label
_atom_site_fract_x
_atom_site_fract_y
_atom_site_fract_z
Si Si1 0.048448 0.052020 0.704180
Si Si2 0.346657 0.209074 0.300605
Si Si3 0.183213 0.603509 0.202667
Si Si4 0.699549 0.610749 0.806903
Si Si5 0.158140 0.293402 0.303302
Si Si6 0.929444 0.547797 0.304834
O O1 0.044638 0.051722 0.500000
O O2 0.943339 0.092594 0.760637
O O3 0.198253 0.067576 0.753470
O O4 0.000000 0.000000 0.760385
O O5 0.333370 0.210510 0.500000
O O6 0.289441 0.157796 0.246589
O O7 0.259066 0.252959 0.232903
O O8 0.506564 0.210196 0.265748
O O9 0.042908 0.587799 0.281963
O O10 0.170198 0.601781 0.000000
O O11 0.772398 0.655407 0.723950
O O12 0.798129 0.565311 0.790665
O O13 0.682766 0.623408 0.000000
O O14 0.144267 0.286282 0.500000
O O15 0.896404 0.541553 0.500000
O O16 0.000000 0.500000 0.240180
#
# Coordination Sequence:
#
# PCOD9443829 Si02
#       6
#     8   8   8   8   8   8
#     4   9  19  35  58  89 119 152 199 249 294 344
#     4  10  23  41  62  90 119 158 204 246 298 361
#     4  10  20  38  62  86 117 155 201 250 294 355
#     4  11  22  38  63  90 119 158 202 247 299 359
#     4  11  24  41  63  91 124 157 197 250 304 358
#     4  11  23  38  58  87 122 158 197 246 304 360
#
# _framework density 21.500758000000001
#
# number of rings (size 3 to 8) (size 9 to 14) (size 15 to 20)
#    0.000    1.667    1.667    2.500    2.333    4.000 
#    0.000    1.667    0.000    4.500    0.000    0.000 
#    0.000    0.000    0.000    0.000    0.000    0.000 
#
# Total GULP energy -268195.977749 kJ/mol
# GULP energy per Si atom -5587.416203 kJ/mol
# Density = 2.145182 g / cm^3
# Si number density = 21.500758 Si / 1000 Ang^3
#
#
#
# Elastic Constant Matrix: (Units=GPa)
#
#
# Indices 1 2 3 4 5 6 
#
# 1 71.2677 -0.6312 -7.7723 0.0000 0.0000 0.0000
# 2 -0.6312 80.3522 0.6615 0.0000 0.0000 0.0000
# 3 -7.7723 0.6615 14.5154 0.0000 0.0000 0.0000
# 4 0.0000 0.0000 0.0000 27.5505 0.0000 0.0000
# 5 0.0000 0.0000 0.0000 0.0000 23.0854 0.0000
# 6 0.0000 0.0000 0.0000 0.0000 0.0000 39.7883
#
#
#
# Elastic Compliance Matrix: (Units=1/GPa)
#
#
# Indices 1 2 3 4 5 6 
#
# 1 0.014902 0.000051 0.007977 0.000000 0.000000 0.000000
# 2 0.000051 0.012450 -0.000540 0.000000 0.000000 0.000000
# 3 0.007977 -0.000540 0.073188 0.000000 0.000000 0.000000
# 4 0.000000 0.000000 0.000000 0.036297 0.000000 0.000000
# 5 0.000000 0.000000 0.000000 0.000000 0.043317 0.000000
# 6 0.000000 0.000000 0.000000 0.000000 0.000000 0.025133
#
#
# Mechanical properties :
#
#
# Convention : Reuss Voigt Hill
#
# Bulk Modulus (GPa) = 8.65670 16.73903 12.69786
# Shear Modulus (GPa) = 21.85156 29.67666 25.76411
#
# Velocity S-wave (km/s) = 3.19143 3.71922 3.46539
# Velocity P-wave (km/s) = 4.19705 5.12305 4.68300
#
# Compressibility (1/GPa) = 0.11551740
#
# Stress axis : x y z
#
# Youngs Moduli (GPa) = 67.10504 80.32093 13.66338
#
# Poissons Ratio (x) = -0.00413 -0.10899
# Poissons Ratio (y) = -0.00345 0.00738
# Poissons Ratio (z) = -0.53529 0.04336
#
# Static dielectric constant tensor:
#      x y z
#    x 1.752450 0.000000 0.000000 
#    y 0.000000 1.814580 0.000000 
#    z 0.000000 0.000000 1.756500 
# 
# From -- ./inp_files/2932.got.cif
#   From: 2010.05.17/outbox.cif.g08.bks.cpg/sg58_2_cif.got.tgz:2932.got - 2010.06.03 14:20:14.
