data_PCOD9443757
_publ_section_title
;
Structure prediction by ZEFSAII (Michael W. Deem and Ramdas Pophale) SiO2 
 PCOD9443757
Probable space group: P N N M
;
_chemical_formula_sum "Si O2"
_cell_formula_units_Z 36
_cell_length_a 14.513880
_cell_length_b 5.084185
_cell_length_c 24.754637
_cell_angle_alpha 90.000000
_cell_angle_beta 90.000000
_cell_angle_gamma 90.000000
_cell_volume 1826.675632
_symmetry_space_group_name_H-M "P N N M"
_symmetry_group_IT_number 58
_symmetry_cell_setting 'orthorhombic'
loop_
_space_group_symop_operation_xyz
x,y,z
-x,-y,z
1/2+x,1/2-y,1/2-z
1/2-x,1/2+y,1/2-z
-x,-y,-z
x,y,-z
1/2-x,1/2+y,1/2+z
1/2+x,1/2-y,1/2+z
loop_
_atom_site_type_symbol
_atom_site_label
_atom_site_fract_x
_atom_site_fract_y
_atom_site_fract_z
Si Si1 0.390711 0.991863 0.702597
Si Si2 0.753373 0.827718 0.939845
Si Si3 0.231401 0.154164 0.627385
Si Si4 0.565613 0.252515 0.500000
Si Si5 0.609749 0.506072 0.771028
O O1 0.367729 0.700308 0.723260
O O2 0.500000 0.000000 0.692322
O O3 0.330905 0.080875 0.652155
O O4 0.368055 0.201126 0.750360
O O5 0.711779 0.554955 0.919702
O O6 0.733657 0.055389 0.897039
O O7 0.720142 0.903746 0.000000
O O8 0.862776 0.774883 0.949983
O O9 0.162077 0.094598 0.676318
O O10 0.500000 0.500000 0.500000
O O11 0.500000 0.000000 0.500000
O O12 0.500000 0.500000 0.780084
#
# Coordination Sequence:
#
# PCOD9443757 Si02
#       5
#     8   8   8   4   8
#     4  10  21  35  54  85 119 144 185 235 284 351
#     4  10  24  37  55  83 111 150 192 239 282 332
#     4  12  20  37  61  81 112 155 194 233 286 349
#     4  10  20  38  56  76 111 148 183 228 282 328
#     4  10  21  37  57  84 115 148 187 238 293 345
#
# _framework density 19.707933000000001
#
# number of rings (size 3 to 8) (size 9 to 14) (size 15 to 20)
#    0.667    0.889    0.000    6.000    0.000    2.667 
#    0.000    0.000    0.000    4.000    0.000    0.000 
#    0.000    0.000    0.000    0.000    0.000    0.000 
#
# Total GULP energy -200959.432205 kJ/mol
# GULP energy per Si atom -5582.206450 kJ/mol
# Density = 1.966308 g / cm^3
# Si number density = 19.707933 Si / 1000 Ang^3
#
#
#
# Elastic Constant Matrix: (Units=GPa)
#
#
# Indices 1 2 3 4 5 6 
#
# 1 29.3756 8.4205 10.4362 0.0000 0.0000 0.0000
# 2 8.4205 99.0038 0.1505 0.0000 0.0000 0.0000
# 3 10.4362 0.1505 57.6139 0.0000 0.0000 0.0000
# 4 0.0000 0.0000 0.0000 29.0458 0.0000 0.0000
# 5 0.0000 0.0000 0.0000 0.0000 16.3416 0.0000
# 6 0.0000 0.0000 0.0000 0.0000 0.0000 18.5743
#
#
#
# Elastic Compliance Matrix: (Units=1/GPa)
#
#
# Indices 1 2 3 4 5 6 
#
# 1 0.037350 -0.003166 -0.006757 0.000000 0.000000 0.000000
# 2 -0.003166 0.010369 0.000546 0.000000 0.000000 0.000000
# 3 -0.006757 0.000546 0.018580 0.000000 0.000000 0.000000
# 4 0.000000 0.000000 0.000000 0.034428 0.000000 0.000000
# 5 0.000000 0.000000 0.000000 0.000000 0.061194 0.000000
# 6 0.000000 0.000000 0.000000 0.000000 0.000000 0.053838
#
#
# Mechanical properties :
#
#
# Convention : Reuss Voigt Hill
#
# Bulk Modulus (GPa) = 21.03303 24.88971 22.96137
# Shear Modulus (GPa) = 19.97114 23.92475 21.94794
#
# Velocity S-wave (km/s) = 3.18678 3.48798 3.34078
# Velocity P-wave (km/s) = 4.92304 5.37383 5.15336
#
# Compressibility (1/GPa) = 0.04754426
#
# Stress axis : x y z
#
# Youngs Moduli (GPa) = 26.77361 96.44032 53.82267
#
# Poissons Ratio (x) = 0.30537 0.36370
# Poissons Ratio (y) = 0.08478 -0.02941
# Poissons Ratio (z) = 0.18092 -0.05270
#
# Static dielectric constant tensor:
#      x y z
#    x 1.735380 0.000000 0.000000 
#    y 0.000000 1.677790 0.000000 
#    z 0.000000 0.000000 1.724250 
# 
# From -- ./inp_files/29834.got.cif
#   From: 2010.05.17/outbox.cif.g08.bks.cpg/sg58_15_cif.got.tgz:29834.got - 2010.06.03 14:20:14.
