data_PCOD9443561
_publ_section_title
;
Structure prediction by ZEFSAII (Michael W. Deem and Ramdas Pophale) SiO2 
 PCOD9443561
Probable space group: P N N M
;
_chemical_formula_sum "Si O2"
_cell_formula_units_Z 64
_cell_length_a 15.318928
_cell_length_b 17.787717
_cell_length_c 10.393605
_cell_angle_alpha 90.000000
_cell_angle_beta 90.000000
_cell_angle_gamma 90.000000
_cell_volume 2832.140497
_symmetry_space_group_name_H-M "P N N M"
_symmetry_group_IT_number 58
_symmetry_cell_setting 'orthorhombic'
loop_
_space_group_symop_operation_xyz
x,y,z
-x,-y,z
1/2+x,1/2-y,1/2-z
1/2-x,1/2+y,1/2-z
-x,-y,-z
x,y,-z
1/2-x,1/2+y,1/2+z
1/2+x,1/2-y,1/2+z
loop_
_atom_site_type_symbol
_atom_site_label
_atom_site_fract_x
_atom_site_fract_y
_atom_site_fract_z
Si Si1 0.125885 0.158750 0.639631
Si Si2 0.112791 0.316346 0.250943
Si Si3 0.896577 0.514779 0.647061
Si Si4 0.499339 0.397794 0.353549
Si Si5 0.284020 0.057749 0.357644
Si Si6 0.300295 0.270992 0.857941
Si Si7 0.873202 0.059892 0.642532
Si Si8 0.929473 0.272322 0.142541
O O1 0.092481 0.132855 0.500000
O O2 0.108056 0.247398 0.648412
O O3 0.079833 0.119238 0.759452
O O4 0.225849 0.132919 0.646075
O O5 0.020585 0.313665 0.175877
O O6 0.123439 0.399357 0.308702
O O7 0.198876 0.289413 0.172991
O O8 0.866293 0.504984 0.500000
O O9 0.851162 0.457391 0.744855
O O10 0.000000 0.500000 0.650653
O O11 0.519768 0.420949 0.500000
O O12 0.432641 0.447327 0.269083
O O13 0.454882 0.315616 0.364737
O O14 0.323964 0.049127 0.500000
O O15 0.210995 0.992419 0.345734
O O16 0.344163 0.353393 0.860640
O O17 0.357372 0.225187 0.754454
O O18 0.306312 0.236422 0.000000
O O19 0.911420 0.044136 0.500000
O O20 0.898692 0.294872 0.000000
#
# Coordination Sequence:
#
# PCOD9443561 Si02
#       8
#     8   8   8   8   8   8   8   8
#     4  10  22  39  61  90 126 167 214 268 325 388
#     4  11  22  41  68  97 129 177 228 277 335 404
#     4  11  26  46  68  96 131 173 223 278 337 400
#     4   9  18  33  54  86 125 165 205 252 314 381
#     4  10  22  42  65  93 125 163 216 270 324 390
#     4  10  20  36  62  92 125 168 219 273 335 400
#     4   9  17  33  58  86 118 158 207 258 312 380
#     4   9  20  36  58  92 132 169 218 274 328 394
#
# _framework density 22.597749
#
# number of rings (size 3 to 8) (size 9 to 14) (size 15 to 20)
#    0.000    2.125    1.250    1.125    0.000    8.250 
#    0.000    5.000    0.000    0.000    0.000    0.000 
#    0.000    0.000    0.000    0.000    0.000    0.000 
#
# Total GULP energy -357358.555026 kJ/mol
# GULP energy per Si atom -5583.727422 kJ/mol
# Density = 2.254632 g / cm^3
# Si number density = 22.597749 Si / 1000 Ang^3
#
#
#
# Elastic Constant Matrix: (Units=GPa)
#
#
# Indices 1 2 3 4 5 6 
#
# 1 101.8685 14.8253 95.0815 0.0000 0.0000 0.0000
# 2 14.8253 72.3374 22.0916 0.0000 0.0000 0.0000
# 3 95.0815 22.0916 225.3786 0.0000 0.0000 0.0000
# 4 0.0000 0.0000 0.0000 14.5096 0.0000 0.0000
# 5 0.0000 0.0000 0.0000 0.0000 -0.3641 0.0000
# 6 0.0000 0.0000 0.0000 0.0000 0.0000 41.6407
#
#
#
# Elastic Compliance Matrix: (Units=1/GPa)
#
#
# Indices 1 2 3 4 5 6 
#
# 1 0.016307 -0.001279 -0.006754 0.000000 0.000000 0.000000
# 2 -0.001279 0.014351 -0.000867 0.000000 0.000000 0.000000
# 3 -0.006754 -0.000867 0.007371 0.000000 0.000000 0.000000
# 4 0.000000 0.000000 0.000000 0.068920 0.000000 0.000000
# 5 0.000000 0.000000 0.000000 0.000000 -2.746278 0.000000
# 6 0.000000 0.000000 0.000000 0.000000 0.000000 0.024015
#
#
# Mechanical properties :
#
#
# Convention : Reuss Voigt Hill
#
# Bulk Modulus (GPa) = 49.43525 73.73127 61.58326
# Shear Modulus (GPa) = -1.92993 28.99630 13.53319
#
# Velocity S-wave (km/s) = -0.92514 3.58599 2.44984
# Velocity P-wave (km/s) = 4.55878 7.06005 5.94251
#
# Compressibility (1/GPa) = 0.02022848
#
# Stress axis : x y z
#
# Youngs Moduli (GPa) = 61.32408 69.68122 135.66107
#
# Poissons Ratio (x) = 0.08915 0.91626
# Poissons Ratio (y) = 0.07846 0.11761
# Poissons Ratio (z) = 0.41418 0.06041
#
# Static dielectric constant tensor:
#      x y z
#    x 1.836860 0.000000 0.000000 
#    y 0.000000 1.851130 0.000000 
#    z 0.000000 0.000000 1.842010 
# 
# From -- ./inp_files/16673.got.cif
#   From: 2010.05.17/outbox.cif.g08.bks.cpg/sg58_9_cif.got.tgz:16673.got - 2010.06.03 14:20:14.
