data_PCOD9443248
_publ_section_title
;
Structure prediction by ZEFSAII (Michael W. Deem and Ramdas Pophale) SiO2 
 PCOD9443248
Probable space group: P N N M
;
_chemical_formula_sum "Si O2"
_cell_formula_units_Z 64
_cell_length_a 28.832759
_cell_length_b 13.097138
_cell_length_c 8.681233
_cell_angle_alpha 90.000000
_cell_angle_beta 90.000000
_cell_angle_gamma 90.000000
_cell_volume 3278.264706
_symmetry_space_group_name_H-M "P N N M"
_symmetry_group_IT_number 58
_symmetry_cell_setting 'orthorhombic'
loop_
_space_group_symop_operation_xyz
x,y,z
-x,-y,z
1/2+x,1/2-y,1/2-z
1/2-x,1/2+y,1/2-z
-x,-y,-z
x,y,-z
1/2-x,1/2+y,1/2+z
1/2+x,1/2-y,1/2+z
loop_
_atom_site_type_symbol
_atom_site_label
_atom_site_fract_x
_atom_site_fract_y
_atom_site_fract_z
Si Si1 0.292572 0.140949 0.313873
Si Si2 0.090845 0.130820 0.813684
Si Si3 0.614079 0.956531 0.684428
Si Si4 0.562486 0.590112 0.315303
Si Si5 0.040630 0.699767 0.683601
Si Si6 0.169169 0.855579 0.186015
Si Si7 0.561050 0.150806 0.816057
Si Si8 0.196366 0.071714 0.814388
O O1 0.291277 0.141487 0.500000
O O2 0.332301 0.059813 0.267196
O O3 0.311771 0.249450 0.255982
O O4 0.241107 0.125130 0.253432
O O5 0.075686 0.237713 0.743668
O O6 0.145102 0.112332 0.772627
O O7 0.061143 0.029346 0.767684
O O8 0.088017 0.135214 0.000000
O O9 0.612704 0.957523 0.500000
O O10 0.583411 0.859908 0.739984
O O11 0.591474 0.059842 0.747128
O O12 0.554745 0.593353 0.500000
O O13 0.534847 0.682869 0.238806
O O14 0.615582 0.622829 0.280531
O O15 0.046699 0.698986 0.500000
O O16 0.993357 0.640153 0.723395
O O17 0.197592 0.953836 0.237894
O O18 0.171678 0.852465 0.000000
O O19 0.565153 0.147952 0.000000
O O20 0.198550 0.075303 0.000000
#
# Coordination Sequence:
#
# PCOD9443248 Si02
#       8
#     8   8   8   8   8   8   8   8
#     4  10  20  35  57  84 111 142 186 237 287 342
#     4   9  20  39  61  85 116 154 197 243 287 341
#     4  11  23  40  62  85 113 150 198 249 291 345
#     4   9  17  35  62  85 109 147 195 241 283 335
#     4  11  23  38  58  87 119 152 192 242 298 353
#     4   8  15  33  55  75 105 143 180 226 281 328
#     4  11  25  41  57  82 122 161 192 236 297 358
#     4   9  19  35  57  83 112 146 186 233 285 340
#
# _framework density 19.522524000000001
#
# number of rings (size 3 to 8) (size 9 to 14) (size 15 to 20)
#    0.000    2.250    1.250    3.000    0.000    7.000 
#    0.000    7.500    0.000    0.000    0.000    0.000 
#    0.000    0.000    0.000    0.000    0.000    0.000 
#
# Total GULP energy -357071.871920 kJ/mol
# GULP energy per Si atom -5579.247999 kJ/mol
# Density = 1.947809 g / cm^3
# Si number density = 19.522524 Si / 1000 Ang^3
#
#
#
# Elastic Constant Matrix: (Units=GPa)
#
#
# Indices 1 2 3 4 5 6 
#
# 1 48.4523 13.5423 13.4566 0.0000 0.0000 0.0000
# 2 13.5423 91.9542 11.7290 0.0000 0.0000 0.0000
# 3 13.4566 11.7290 18.2717 0.0000 0.0000 0.0000
# 4 0.0000 0.0000 0.0000 17.1223 0.0000 0.0000
# 5 0.0000 0.0000 0.0000 0.0000 27.1995 0.0000
# 6 0.0000 0.0000 0.0000 0.0000 0.0000 28.0660
#
#
#
# Elastic Compliance Matrix: (Units=1/GPa)
#
#
# Indices 1 2 3 4 5 6 
#
# 1 0.026139 -0.001518 -0.018276 0.000000 0.000000 0.000000
# 2 -0.001518 0.011933 -0.006542 0.000000 0.000000 0.000000
# 3 -0.018276 -0.006542 0.072388 0.000000 0.000000 0.000000
# 4 0.000000 0.000000 0.000000 0.058403 0.000000 0.000000
# 5 0.000000 0.000000 0.000000 0.000000 0.036765 0.000000
# 6 0.000000 0.000000 0.000000 0.000000 0.000000 0.035630
#
#
# Mechanical properties :
#
#
# Convention : Reuss Voigt Hill
#
# Bulk Modulus (GPa) = 17.30458 26.23712 21.77085
# Shear Modulus (GPa) = 15.96455 22.47427 19.21941
#
# Velocity S-wave (km/s) = 2.86274 3.39661 3.14104
# Velocity P-wave (km/s) = 4.45086 5.37133 4.93261
#
# Compressibility (1/GPa) = 0.05778816
#
# Stress axis : x y z
#
# Youngs Moduli (GPa) = 38.25708 83.80111 13.81439
#
# Poissons Ratio (x) = 0.12725 0.25247
# Poissons Ratio (y) = 0.05809 0.09037
# Poissons Ratio (z) = 0.69918 0.54821
#
# Static dielectric constant tensor:
#      x y z
#    x 1.690450 0.000000 0.000000 
#    y 0.000000 1.696080 0.000000 
#    z 0.000000 0.000000 1.660610 
# 
# From -- ./inp_files/11041.got.cif
#   From: 2010.05.17/outbox.cif.g08.bks.cpg/sg58_6_cif.got.tgz:11041.got - 2010.06.03 14:20:14.
