data_PCOD9443887
_publ_section_title
;
Structure prediction by ZEFSAII (Michael W. Deem and Ramdas Pophale) SiO2 
 PCOD9443887
Probable space group: P N N M
;
_chemical_formula_sum "Si O2"
_cell_formula_units_Z 48
_cell_length_a 16.432687
_cell_length_b 5.102136
_cell_length_c 21.813011
_cell_angle_alpha 90.000000
_cell_angle_beta 90.000000
_cell_angle_gamma 90.000000
_cell_volume 1828.842191
_symmetry_space_group_name_H-M "P N N M"
_symmetry_group_IT_number 58
_symmetry_cell_setting 'orthorhombic'
loop_
_space_group_symop_operation_xyz
x,y,z
-x,-y,z
1/2+x,1/2-y,1/2-z
1/2-x,1/2+y,1/2-z
-x,-y,-z
x,y,-z
1/2-x,1/2+y,1/2+z
1/2+x,1/2-y,1/2+z
loop_
_atom_site_type_symbol
_atom_site_label
_atom_site_fract_x
_atom_site_fract_y
_atom_site_fract_z
Si Si1 0.769446 0.928785 0.788928
Si Si2 0.124224 0.939623 0.427603
Si Si3 0.811649 0.544250 0.070338
Si Si4 0.886432 0.554098 0.641998
Si Si5 0.947129 0.739490 0.774571
Si Si6 0.586479 0.575442 0.570854
O O1 0.724893 0.679967 0.756412
O O2 0.710101 0.029657 0.842203
O O3 0.859652 0.820845 0.803684
O O4 0.114932 0.885888 0.500000
O O5 0.219733 0.929811 0.408847
O O6 0.084345 0.721545 0.384613
O O7 0.098903 0.229315 0.409436
O O8 0.866201 0.318284 0.100381
O O9 0.858147 0.818627 0.067769
O O10 0.799914 0.452267 0.000000
O O11 0.922525 0.639898 0.706703
O O12 0.000000 0.500000 0.802232
O O13 0.000000 0.000000 0.768452
O O14 0.500000 0.500000 0.599559
O O15 0.566624 0.657432 0.500000
#
# Coordination Sequence:
#
# PCOD9443887 Si02
#       6
#     8   8   8   8   8   8
#     4  10  20  38  64  98 132 164 205 260 332 404
#     4  11  22  37  59  86 120 167 223 273 305 349
#     4   9  17  28  43  66  94 132 189 249 294 330
#     4  11  22  39  64  93 129 170 213 261 317 385
#     4  11  22  39  67 101 133 163 203 261 333 410
#     4   9  15  24  40  61  85 117 164 230 302 356
#
# _framework density 26.246116000000001
#
# number of rings (size 3 to 8) (size 9 to 14) (size 15 to 20)
#    0.000    1.833    0.000    7.000    0.000    4.667 
#    0.000    0.000    0.000   20.000    0.000    0.000 
#    0.000    0.667    0.000    0.000    0.000    0.000 
#
# Total GULP energy -268974.508740 kJ/mol
# GULP energy per Si atom -5603.635599 kJ/mol
# Density = 2.618638 g / cm^3
# Si number density = 26.246116 Si / 1000 Ang^3
#
#
#
# Elastic Constant Matrix: (Units=GPa)
#
#
# Indices 1 2 3 4 5 6 
#
# 1 144.6152 32.3138 18.6985 0.0000 0.0000 0.0000
# 2 32.3138 157.1766 29.5282 0.0000 0.0000 0.0000
# 3 18.6985 29.5282 106.1525 0.0000 0.0000 0.0000
# 4 0.0000 0.0000 0.0000 33.4685 0.0000 0.0000
# 5 0.0000 0.0000 0.0000 0.0000 22.3040 0.0000
# 6 0.0000 0.0000 0.0000 0.0000 0.0000 37.2815
#
#
#
# Elastic Compliance Matrix: (Units=1/GPa)
#
#
# Indices 1 2 3 4 5 6 
#
# 1 0.007332 -0.001335 -0.000920 0.000000 0.000000 0.000000
# 2 -0.001335 0.006956 -0.001700 0.000000 0.000000 0.000000
# 3 -0.000920 -0.001700 0.010055 0.000000 0.000000 0.000000
# 4 0.000000 0.000000 0.000000 0.029879 0.000000 0.000000
# 5 0.000000 0.000000 0.000000 0.000000 0.044835 0.000000
# 6 0.000000 0.000000 0.000000 0.000000 0.000000 0.026823
#
#
# Mechanical properties :
#
#
# Convention : Reuss Voigt Hill
#
# Bulk Modulus (GPa) = 60.84915 63.22503 62.03709
# Shear Modulus (GPa) = 35.90212 40.43773 38.16992
#
# Velocity S-wave (km/s) = 3.70253 3.92945 3.81768
# Velocity P-wave (km/s) = 6.44303 6.68798 6.56665
#
# Compressibility (1/GPa) = 0.01643408
#
# Stress axis : x y z
#
# Youngs Moduli (GPa) = 136.38681 143.76133 99.44938
#
# Poissons Ratio (x) = 0.19185 0.09152
# Poissons Ratio (y) = 0.18201 0.16905
# Poissons Ratio (z) = 0.12552 0.24437
#
# Static dielectric constant tensor:
#      x y z
#    x 2.113800 0.000000 0.000000 
#    y 0.000000 2.008010 0.000000 
#    z 0.000000 0.000000 2.040980 
# 
# From -- ./inp_files/32309.got.cif
#   From: 2010.05.17/outbox.cif.g08.bks.cpg/sg58_17_cif.got.tgz:32309.got - 2010.06.03 14:20:14.
