data_PCOD9443109
_publ_section_title
;
Structure prediction by ZEFSAII (Michael W. Deem and Ramdas Pophale) SiO2 
 PCOD9443109
Probable space group: P N N M
;
_chemical_formula_sum "Si O2"
_cell_formula_units_Z 32
_cell_length_a 19.595495
_cell_length_b 9.400917
_cell_length_c 8.036137
_cell_angle_alpha 90.000000
_cell_angle_beta 90.000000
_cell_angle_gamma 90.000000
_cell_volume 1480.381976
_symmetry_space_group_name_H-M "P N N M"
_symmetry_group_IT_number 58
_symmetry_cell_setting 'orthorhombic'
loop_
_space_group_symop_operation_xyz
x,y,z
-x,-y,z
1/2+x,1/2-y,1/2-z
1/2-x,1/2+y,1/2-z
-x,-y,-z
x,y,-z
1/2-x,1/2+y,1/2+z
1/2+x,1/2-y,1/2+z
loop_
_atom_site_type_symbol
_atom_site_label
_atom_site_fract_x
_atom_site_fract_y
_atom_site_fract_z
Si Si1 0.517804 0.668269 0.000000
Si Si2 0.427654 0.924457 0.000000
Si Si3 0.928097 0.085200 0.818943
Si Si4 0.694357 0.383490 0.199769
Si Si5 0.670445 0.065096 0.692539
O O1 0.500000 0.500000 0.000000
O O2 0.449493 0.758512 0.000000
O O3 0.560730 0.692904 0.832972
O O4 0.386277 0.957769 0.833275
O O5 0.500000 0.000000 0.000000
O O6 0.868048 0.977228 0.770395
O O7 0.914054 0.149459 0.000000
O O8 0.000000 0.000000 0.831430
O O9 0.693068 0.229205 0.282964
O O10 0.764997 0.465305 0.229876
O O11 0.688277 0.369758 0.000000
O O12 0.648893 0.044353 0.500000
#
# Coordination Sequence:
#
# PCOD9443109 Si02
#       5
#     4   4   8   8   8
#     4  10  20  38  64  94 130 173 233 274 320 409
#     4  12  28  48  70 100 147 185 226 290 359 413
#     4  10  20  34  61  98 132 171 221 282 338 390
#     4  11  23  43  70 102 143 179 235 288 345 421
#     4  11  26  45  70 103 138 187 231 286 349 415
#
# _framework density 21.616040999999999
#
# number of rings (size 3 to 8) (size 9 to 14) (size 15 to 20)
#    0.000    1.250    2.500    3.750    3.500    5.500 
#    0.000    2.500    0.000    0.000    0.000    0.000 
#    0.000    0.000    0.000    0.000    0.000    0.000 
#
# Total GULP energy -178925.215434 kJ/mol
# GULP energy per Si atom -5591.412982 kJ/mol
# Density = 2.156684 g / cm^3
# Si number density = 21.616041 Si / 1000 Ang^3
#
#
#
# Elastic Constant Matrix: (Units=GPa)
#
#
# Indices 1 2 3 4 5 6 
#
# 1 139.0321 68.1544 73.7012 0.0000 0.0000 0.0000
# 2 68.1544 54.2992 33.0261 0.0000 0.0000 0.0000
# 3 73.7012 33.0261 200.1355 0.0000 0.0000 0.0000
# 4 0.0000 0.0000 0.0000 152.6380 0.0000 0.0000
# 5 0.0000 0.0000 0.0000 0.0000 -55.4817 0.0000
# 6 0.0000 0.0000 0.0000 0.0000 0.0000 37.4631
#
#
#
# Elastic Compliance Matrix: (Units=1/GPa)
#
#
# Indices 1 2 3 4 5 6 
#
# 1 0.020959 -0.024024 -0.003754 0.000000 0.000000 0.000000
# 2 -0.024024 0.048008 0.000925 0.000000 0.000000 0.000000
# 3 -0.003754 0.000925 0.006226 0.000000 0.000000 0.000000
# 4 0.000000 0.000000 0.000000 0.006551 0.000000 0.000000
# 5 0.000000 0.000000 0.000000 0.000000 -0.018024 0.000000
# 6 0.000000 0.000000 0.000000 0.000000 0.000000 0.026693
#
#
# Mechanical properties :
#
#
# Convention : Reuss Voigt Hill
#
# Bulk Modulus (GPa) = 46.53901 82.58113 64.56007
# Shear Modulus (GPa) = 33.05046 41.49622 37.27334
#
# Velocity S-wave (km/s) = 3.91446 4.38619 4.15702
# Velocity P-wave (km/s) = 6.48130 7.99613 7.27823
#
# Compressibility (1/GPa) = 0.02148735
#
# Stress axis : x y z
#
# Youngs Moduli (GPa) = 47.71128 20.82973 160.60549
#
# Poissons Ratio (x) = 0.50042 0.60291
# Poissons Ratio (y) = 1.14623 -0.14853
# Poissons Ratio (z) = 0.17911 -0.01926
#
# Static dielectric constant tensor:
#      x y z
#    x 1.795380 0.000000 0.000000 
#    y 0.000000 1.870430 0.000000 
#    z 0.000000 0.000000 1.846940 
# 
# From -- ./inp_files/5075.got.cif
#   From: 2010.05.17/outbox.cif.g08.bks.cpg/sg58_3_cif.got.tgz:5075.got - 2010.06.03 14:20:14.
