data_PCOD9443103
_publ_section_title
;
Structure prediction by ZEFSAII (Michael W. Deem and Ramdas Pophale) SiO2 
 PCOD9443103
Probable space group: P N N M
;
_chemical_formula_sum "Si O2"
_cell_formula_units_Z 56
_cell_length_a 15.492192
_cell_length_b 5.063701
_cell_length_c 29.908594
_cell_angle_alpha 90.000000
_cell_angle_beta 90.000000
_cell_angle_gamma 90.000000
_cell_volume 2346.264242
_symmetry_space_group_name_H-M "P N N M"
_symmetry_group_IT_number 58
_symmetry_cell_setting 'orthorhombic'
loop_
_space_group_symop_operation_xyz
x,y,z
-x,-y,z
1/2+x,1/2-y,1/2-z
1/2-x,1/2+y,1/2-z
-x,-y,-z
x,y,-z
1/2-x,1/2+y,1/2+z
1/2+x,1/2-y,1/2+z
loop_
_atom_site_type_symbol
_atom_site_label
_atom_site_fract_x
_atom_site_fract_y
_atom_site_fract_z
Si Si1 0.334275 0.006538 0.874646
Si Si2 0.576850 0.712451 0.950921
Si Si3 0.241663 0.146466 0.452164
Si Si4 0.143309 0.765566 0.231658
Si Si5 0.148139 0.256430 0.281804
Si Si6 0.909402 0.413668 0.906488
Si Si7 0.641595 0.399581 0.355650
O O1 0.409747 0.136273 0.904282
O O2 0.369320 0.855083 0.831608
O O3 0.246194 0.152737 0.856972
O O4 0.288922 0.821307 0.911159
O O5 0.500000 0.500000 0.948068
O O6 0.668083 0.569124 0.954172
O O7 0.569129 0.849292 0.000000
O O8 0.245951 0.287647 0.500000
O O9 0.332482 0.020690 0.440100
O O10 0.119348 0.959871 0.272390
O O11 0.247417 0.747566 0.224803
O O12 0.116872 0.938382 0.188744
O O13 0.115069 0.472756 0.245830
O O14 0.898106 0.612347 0.864174
O O15 0.000000 0.500000 0.926104
O O16 0.893956 0.108432 0.892823
#
# Coordination Sequence:
#
# PCOD9443103 Si02
#       7
#     8   8   8   8   8   8   8
#     4  10  20  34  59  86 123 160 206 253 313 372
#     4  10  21  38  61  88 119 156 202 256 312 372
#     4  10  22  39  61  89 124 162 206 259 312 374
#     4   9  17  31  50  86 117 155 200 250 301 357
#     4   9  18  28  53  84 121 153 200 249 300 362
#     4  11  22  38  61  93 124 166 210 255 310 367
#     4  10  20  36  61  87 126 163 207 258 304 366
#
# _framework density 23.867730000000002
#
# number of rings (size 3 to 8) (size 9 to 14) (size 15 to 20)
#    0.000    2.143    1.429    1.714    2.000    4.286 
#    0.000    2.143    0.000    6.000    0.000    0.000 
#    0.000    0.000    0.000    0.000    0.000    0.000 
#
# Total GULP energy -312347.273342 kJ/mol
# GULP energy per Si atom -5577.629881 kJ/mol
# Density = 2.381341 g / cm^3
# Si number density = 23.867730 Si / 1000 Ang^3
#
#
#
# Elastic Constant Matrix: (Units=GPa)
#
#
# Indices 1 2 3 4 5 6 
#
# 1 107.7003 7.9027 14.4735 0.0000 0.0000 0.0000
# 2 7.9027 63.7085 -7.5647 0.0000 0.0000 0.0000
# 3 14.4735 -7.5647 88.5886 0.0000 0.0000 0.0000
# 4 0.0000 0.0000 0.0000 22.1150 0.0000 0.0000
# 5 0.0000 0.0000 0.0000 0.0000 20.6507 0.0000
# 6 0.0000 0.0000 0.0000 0.0000 0.0000 24.7751
#
#
#
# Elastic Compliance Matrix: (Units=1/GPa)
#
#
# Indices 1 2 3 4 5 6 
#
# 1 0.009614 -0.001393 -0.001690 0.000000 0.000000 0.000000
# 2 -0.001393 0.016059 0.001599 0.000000 0.000000 0.000000
# 3 -0.001690 0.001599 0.011701 0.000000 0.000000 0.000000
# 4 0.000000 0.000000 0.000000 0.045218 0.000000 0.000000
# 5 0.000000 0.000000 0.000000 0.000000 0.048424 0.000000
# 6 0.000000 0.000000 0.000000 0.000000 0.000000 0.040363
#
#
# Mechanical properties :
#
#
# Convention : Reuss Voigt Hill
#
# Bulk Modulus (GPa) = 29.06461 32.18007 30.62234
# Shear Modulus (GPa) = 26.90822 29.85389 28.38105
#
# Velocity S-wave (km/s) = 3.36130 3.54051 3.45207
# Velocity P-wave (km/s) = 5.22190 5.49778 5.36162
#
# Compressibility (1/GPa) = 0.03440610
#
# Stress axis : x y z
#
# Youngs Moduli (GPa) = 104.01134 62.26974 85.46474
#
# Poissons Ratio (x) = 0.08676 0.14441
# Poissons Ratio (y) = 0.14491 -0.13665
# Poissons Ratio (z) = 0.17575 -0.09957
#
# Static dielectric constant tensor:
#      x y z
#    x 2.016050 0.000000 0.000000 
#    y 0.000000 1.908190 0.000000 
#    z 0.000000 0.000000 2.015920 
# 
# From -- ./inp_files/35047.got.cif
#   From: 2010.05.17/outbox.cif.g08.bks.cpg/sg58_18_cif.got.tgz:35047.got - 2010.06.03 14:20:14.
