data_PCOD9443878
_publ_section_title
;
Structure prediction by ZEFSAII (Michael W. Deem and Ramdas Pophale) SiO2 
 PCOD9443878
Probable space group: P N N M
;
_chemical_formula_sum "Si O2"
_cell_formula_units_Z 64
_cell_length_a 22.674842
_cell_length_b 17.019695
_cell_length_c 8.778605
_cell_angle_alpha 90.000000
_cell_angle_beta 90.000000
_cell_angle_gamma 90.000000
_cell_volume 3387.829541
_symmetry_space_group_name_H-M "P N N M"
_symmetry_group_IT_number 58
_symmetry_cell_setting 'orthorhombic'
loop_
_space_group_symop_operation_xyz
x,y,z
-x,-y,z
1/2+x,1/2-y,1/2-z
1/2-x,1/2+y,1/2-z
-x,-y,-z
x,y,-z
1/2-x,1/2+y,1/2+z
1/2+x,1/2-y,1/2+z
loop_
_atom_site_type_symbol
_atom_site_label
_atom_site_fract_x
_atom_site_fract_y
_atom_site_fract_z
Si Si1 0.358203 0.352336 0.181486
Si Si2 0.116546 0.683476 0.183922
Si Si3 0.001861 0.409214 0.816127
Si Si4 0.361489 0.643888 0.816761
Si Si5 0.569164 0.503088 0.318025
Si Si6 0.268042 0.083573 0.682940
Si Si7 0.764221 0.590571 0.682554
Si Si8 0.115040 0.321965 0.316226
O O1 0.380743 0.268919 0.242253
O O2 0.399286 0.422630 0.241657
O O3 0.292678 0.368536 0.244675
O O4 0.357294 0.353363 0.000000
O O5 0.174672 0.633773 0.226378
O O6 0.057900 0.635983 0.228106
O O7 0.116871 0.692018 0.000000
O O8 0.058805 0.365463 0.751821
O O9 0.000000 0.500000 0.765968
O O10 0.004997 0.408758 0.000000
O O11 0.398925 0.575701 0.738608
O O12 0.292440 0.629530 0.782984
O O13 0.381169 0.730826 0.769474
O O14 0.368312 0.637383 0.000000
O O15 0.500000 0.500000 0.279790
O O16 0.575250 0.509811 0.500000
O O17 0.270156 0.070819 0.500000
O O18 0.266598 0.999456 0.763507
O O19 0.758688 0.594259 0.500000
O O20 0.824530 0.634148 0.727887
O O21 0.111529 0.324095 0.500000
#
# Coordination Sequence:
#
# PCOD9443878 Si02
#       8
#     8   8   8   8   8   8   8   8
#     4  12  25  41  63  92 124 162 207 254 307 367
#     4  10  22  40  63  90 126 165 204 254 307 362
#     4  10  22  41  64  91 123 163 207 250 301 362
#     4  10  21  39  62  90 122 158 203 250 304 363
#     4  11  25  43  64  90 124 163 202 248 306 368
#     4  10  20  38  64  91 122 163 205 251 309 368
#     4  11  22  39  63  91 125 163 205 255 311 365
#     4  10  23  40  61  90 124 163 203 253 309 360
#
# _framework density 18.891151000000001
#
# number of rings (size 3 to 8) (size 9 to 14) (size 15 to 20)
#    0.000    1.500    1.250    3.375    1.750    6.750 
#    0.000    1.250    0.000    0.000    0.000    0.000 
#    0.000    0.000    0.000    0.000    0.000    0.000 
#
# Total GULP energy -357881.286021 kJ/mol
# GULP energy per Si atom -5591.895094 kJ/mol
# Density = 1.884815 g / cm^3
# Si number density = 18.891151 Si / 1000 Ang^3
#
#
#
# Elastic Constant Matrix: (Units=GPa)
#
#
# Indices 1 2 3 4 5 6 
#
# 1 197.3111 118.0953 63.7043 0.0000 0.0000 0.0000
# 2 118.0953 199.4356 56.8175 0.0000 0.0000 0.0000
# 3 63.7043 56.8175 39.4867 0.0000 0.0000 0.0000
# 4 0.0000 0.0000 0.0000 99.5792 0.0000 0.0000
# 5 0.0000 0.0000 0.0000 0.0000 28.8491 0.0000
# 6 0.0000 0.0000 0.0000 0.0000 0.0000 -0.8675
#
#
#
# Elastic Compliance Matrix: (Units=1/GPa)
#
#
# Indices 1 2 3 4 5 6 
#
# 1 0.011287 -0.002535 -0.014561 0.000000 0.000000 0.000000
# 2 -0.002535 0.009067 -0.008957 0.000000 0.000000 0.000000
# 3 -0.014561 -0.008957 0.061705 0.000000 0.000000 0.000000
# 4 0.000000 0.000000 0.000000 0.010042 0.000000 0.000000
# 5 0.000000 0.000000 0.000000 0.000000 0.034663 0.000000
# 6 0.000000 0.000000 0.000000 0.000000 0.000000 -1.152789
#
#
# Mechanical properties :
#
#
# Convention : Reuss Voigt Hill
#
# Bulk Modulus (GPa) = 33.38645 101.49640 67.44143
# Shear Modulus (GPa) = -5.18707 38.68659 16.74976
#
# Velocity S-wave (km/s) = -1.65883 4.53025 2.98089
# Velocity P-wave (km/s) = 3.74733 9.01154 6.90110
#
# Compressibility (1/GPa) = 0.02995227
#
# Stress axis : x y z
#
# Youngs Moduli (GPa) = 88.59988 110.29103 16.20624
#
# Poissons Ratio (x) = 0.27959 0.23598
# Poissons Ratio (y) = 0.22460 0.14515
# Poissons Ratio (z) = 1.29013 0.98784
#
# Static dielectric constant tensor:
#      x y z
#    x 1.630660 0.000000 0.000000 
#    y 0.000000 1.618650 0.000000 
#    z 0.000000 0.000000 1.640270 
# 
# From -- ./inp_files/10101.got.cif
#   From: 2010.05.17/outbox.cif.g08.bks.cpg/sg58_6_cif.got.tgz:10101.got - 2010.06.03 14:20:14.
