data_PCOD9443665
_publ_section_title
;
Structure prediction by ZEFSAII (Michael W. Deem and Ramdas Pophale) SiO2 
 PCOD9443665
Probable space group: P N N M
;
_chemical_formula_sum "Si O2"
_cell_formula_units_Z 40
_cell_length_a 10.764676
_cell_length_b 18.935146
_cell_length_c 8.972941
_cell_angle_alpha 90.000000
_cell_angle_beta 90.000000
_cell_angle_gamma 90.000000
_cell_volume 1828.960950
_symmetry_space_group_name_H-M "P N N M"
_symmetry_group_IT_number 58
_symmetry_cell_setting 'orthorhombic'
loop_
_space_group_symop_operation_xyz
x,y,z
-x,-y,z
1/2+x,1/2-y,1/2-z
1/2-x,1/2+y,1/2-z
-x,-y,-z
x,y,-z
1/2-x,1/2+y,1/2+z
1/2+x,1/2-y,1/2+z
loop_
_atom_site_type_symbol
_atom_site_label
_atom_site_fract_x
_atom_site_fract_y
_atom_site_fract_z
Si Si1 0.877169 0.708521 0.824617
Si Si2 0.485147 0.327511 0.171329
Si Si3 0.266274 0.410074 0.676146
Si Si4 0.266530 0.175437 0.329516
Si Si5 0.121125 0.546307 0.323749
O O1 0.847374 0.636425 0.740728
O O2 0.759387 0.758324 0.778750
O O3 0.991603 0.754340 0.761241
O O4 0.885960 0.699170 0.000000
O O5 0.389191 0.380457 0.246118
O O6 0.626261 0.357682 0.170552
O O7 0.450727 0.313688 0.000000
O O8 0.273647 0.397698 0.500000
O O9 0.235026 0.491865 0.700390
O O10 0.291710 0.197841 0.500000
O O11 0.358810 0.116194 0.271553
O O12 0.115695 0.564297 0.500000
O O13 0.000000 0.500000 0.288166
#
# Coordination Sequence:
#
# PCOD9443665 Si02
#       5
#     8   8   8   8   8
#     4  10  20  37  60  86 119 158 197 245 303 358
#     4   9  20  38  59  87 118 152 197 247 302 356
#     4  11  22  37  60  90 122 157 204 251 297 362
#     4   9  20  39  61  86 118 155 198 246 298 360
#     4  10  23  41  60  86 121 162 202 245 303 364
#
# _framework density 21.870341
#
# number of rings (size 3 to 8) (size 9 to 14) (size 15 to 20)
#    1.200    1.000    0.000    3.000    0.000    4.400 
#    0.000   10.000    0.000    0.000    0.000    0.000 
#    0.000    0.000    0.000    0.000    0.000    0.000 
#
# Total GULP energy -223353.185799 kJ/mol
# GULP energy per Si atom -5583.829645 kJ/mol
# Density = 2.182056 g / cm^3
# Si number density = 21.870341 Si / 1000 Ang^3
#
#
#
# Elastic Constant Matrix: (Units=GPa)
#
#
# Indices 1 2 3 4 5 6 
#
# 1 62.6723 0.3026 -0.4974 0.0000 0.0000 0.0000
# 2 0.3026 63.5030 28.9284 0.0000 0.0000 0.0000
# 3 -0.4974 28.9284 87.9214 0.0000 0.0000 0.0000
# 4 0.0000 0.0000 0.0000 24.9804 0.0000 0.0000
# 5 0.0000 0.0000 0.0000 0.0000 34.1867 0.0000
# 6 0.0000 0.0000 0.0000 0.0000 0.0000 34.3660
#
#
#
# Elastic Compliance Matrix: (Units=1/GPa)
#
#
# Indices 1 2 3 4 5 6 
#
# 1 0.015958 -0.000138 0.000136 0.000000 0.000000 0.000000
# 2 -0.000138 0.018525 -0.006096 0.000000 0.000000 0.000000
# 3 0.000136 -0.006096 0.013380 0.000000 0.000000 0.000000
# 4 0.000000 0.000000 0.000000 0.040031 0.000000 0.000000
# 5 0.000000 0.000000 0.000000 0.000000 0.029251 0.000000
# 6 0.000000 0.000000 0.000000 0.000000 0.000000 0.029099
#
#
# Mechanical properties :
#
#
# Convention : Reuss Voigt Hill
#
# Bulk Modulus (GPa) = 28.03738 30.17376 29.10557
# Shear Modulus (GPa) = 29.35492 31.06416 30.20954
#
# Velocity S-wave (km/s) = 3.66761 3.77288 3.72062
# Velocity P-wave (km/s) = 5.54823 5.72766 5.63866
#
# Compressibility (1/GPa) = 0.03566667
#
# Stress axis : x y z
#
# Youngs Moduli (GPa) = 62.66548 53.98136 74.73688
#
# Poissons Ratio (x) = 0.00744 -0.01014
# Poissons Ratio (y) = 0.00864 0.45559
# Poissons Ratio (z) = -0.00850 0.32907
#
# Static dielectric constant tensor:
#      x y z
#    x 1.920410 0.000000 0.000000 
#    y 0.000000 1.770710 0.000000 
#    z 0.000000 0.000000 1.730510 
# 
# From -- ./inp_files/3812.got.cif
#   From: 2010.05.17/outbox.cif.g08.bks.cpg/sg58_2_cif.got.tgz:3812.got - 2010.06.03 14:20:14.
