data_PCOD9443341
_publ_section_title
;
Structure prediction by ZEFSAII (Michael W. Deem and Ramdas Pophale) SiO2 
 PCOD9443341
Probable space group: P N N M
;
_chemical_formula_sum "Si O2"
_cell_formula_units_Z 56
_cell_length_a 15.872113
_cell_length_b 20.252318
_cell_length_c 8.367496
_cell_angle_alpha 90.000000
_cell_angle_beta 90.000000
_cell_angle_gamma 90.000000
_cell_volume 2689.707155
_symmetry_space_group_name_H-M "P N N M"
_symmetry_group_IT_number 58
_symmetry_cell_setting 'orthorhombic'
loop_
_space_group_symop_operation_xyz
x,y,z
-x,-y,z
1/2+x,1/2-y,1/2-z
1/2-x,1/2+y,1/2-z
-x,-y,-z
x,y,-z
1/2-x,1/2+y,1/2+z
1/2+x,1/2-y,1/2+z
loop_
_atom_site_type_symbol
_atom_site_label
_atom_site_fract_x
_atom_site_fract_y
_atom_site_fract_z
Si Si1 0.582021 0.959876 0.812650
Si Si2 0.831479 0.085221 0.806597
Si Si3 0.486858 0.173346 0.689313
Si Si4 0.239445 0.046190 0.314734
Si Si5 0.174922 0.180302 0.188815
Si Si6 0.176055 0.321963 0.310926
Si Si7 0.518292 0.677557 0.694124
O O1 0.560857 0.883438 0.783641
O O2 0.665957 0.978182 0.719445
O O3 0.500000 0.000000 0.758205
O O4 0.595394 0.973827 0.000000
O O5 0.749336 0.128074 0.760138
O O6 0.914335 0.124191 0.749870
O O7 0.822335 0.011377 0.743351
O O8 0.832936 0.082830 0.000000
O O9 0.471304 0.165541 0.500000
O O10 0.587108 0.168106 0.722442
O O11 0.460258 0.247151 0.739833
O O12 0.227271 0.059517 0.500000
O O13 0.226854 0.114613 0.221960
O O14 0.203865 0.246476 0.277949
O O15 0.078383 0.165898 0.241899
O O16 0.173852 0.194890 0.000000
O O17 0.161266 0.331028 0.500000
O O18 0.519792 0.676168 0.500000
#
# Coordination Sequence:
#
# PCOD9443341 Si02
#       7
#     8   8   8   8   8   8   8
#     4  11  24  41  61  87 121 159 201 249 304 363
#     4  10  21  39  61  85 117 157 201 245 301 363
#     4  10  20  36  60  88 120 157 200 246 298 360
#     4  12  26  41  59  87 122 159 202 249 305 366
#     4  10  21  40  63  87 119 158 204 252 305 365
#     4  10  20  35  60  90 123 159 198 249 304 359
#     4   8  18  37  61  87 114 153 198 244 296 356
#
# _framework density 20.820111000000001
#
# number of rings (size 3 to 8) (size 9 to 14) (size 15 to 20)
#    0.000    1.857    0.000    4.714    2.000    6.286 
#    0.000    7.143    0.000    0.000    0.000    0.000 
#    0.000    0.000    0.000    0.000    0.000    0.000 
#
# Total GULP energy -313057.133016 kJ/mol
# GULP energy per Si atom -5590.305947 kJ/mol
# Density = 2.077272 g / cm^3
# Si number density = 20.820111 Si / 1000 Ang^3
#
#
#
# Elastic Constant Matrix: (Units=GPa)
#
#
# Indices 1 2 3 4 5 6 
#
# 1 28.5570 10.6631 -2.3228 0.0000 0.0000 0.0000
# 2 10.6631 61.0164 -4.2477 0.0000 0.0000 0.0000
# 3 -2.3228 -4.2477 19.4279 0.0000 0.0000 0.0000
# 4 0.0000 0.0000 0.0000 8.8750 0.0000 0.0000
# 5 0.0000 0.0000 0.0000 0.0000 97.0519 0.0000
# 6 0.0000 0.0000 0.0000 0.0000 0.0000 32.3778
#
#
#
# Elastic Compliance Matrix: (Units=1/GPa)
#
#
# Indices 1 2 3 4 5 6 
#
# 1 0.037646 -0.006362 0.003110 0.000000 0.000000 0.000000
# 2 -0.006362 0.017718 0.003113 0.000000 0.000000 0.000000
# 3 0.003110 0.003113 0.052525 0.000000 0.000000 0.000000
# 4 0.000000 0.000000 0.000000 0.112676 0.000000 0.000000
# 5 0.000000 0.000000 0.000000 0.000000 0.010304 0.000000
# 6 0.000000 0.000000 0.000000 0.000000 0.000000 0.030885
#
#
# Mechanical properties :
#
#
# Convention : Reuss Voigt Hill
#
# Bulk Modulus (GPa) = 9.29282 13.02070 11.15676
# Shear Modulus (GPa) = 16.78396 34.65485 25.71941
#
# Velocity S-wave (km/s) = 2.84234 4.08424 3.51852
# Velocity P-wave (km/s) = 3.90448 5.33937 4.67728
#
# Compressibility (1/GPa) = 0.10760994
#
# Stress axis : x y z
#
# Youngs Moduli (GPa) = 26.56297 56.44084 19.03858
#
# Poissons Ratio (x) = 0.35910 -0.05921
# Poissons Ratio (y) = 0.16901 -0.05927
# Poissons Ratio (z) = -0.08261 -0.17571
#
# Static dielectric constant tensor:
#      x y z
#    x 1.749260 0.000000 0.000000 
#    y 0.000000 1.739060 0.000000 
#    z 0.000000 0.000000 1.700920 
# 
# From -- ./inp_files/6435.got.cif
#   From: 2010.05.17/outbox.cif.g08.bks.cpg/sg58_4_cif.got.tgz:6435.got - 2010.06.03 14:20:14.
