data_PCOD9443930
_publ_section_title
;
Structure prediction by ZEFSAII (Michael W. Deem and Ramdas Pophale) SiO2 
 PCOD9443930
Probable space group: P N N M
;
_chemical_formula_sum "Si O2"
_cell_formula_units_Z 40
_cell_length_a 15.239589
_cell_length_b 7.836066
_cell_length_c 16.065695
_cell_angle_alpha 90.000000
_cell_angle_beta 90.000000
_cell_angle_gamma 90.000000
_cell_volume 1918.539997
_symmetry_space_group_name_H-M "P N N M"
_symmetry_group_IT_number 58
_symmetry_cell_setting 'orthorhombic'
loop_
_space_group_symop_operation_xyz
x,y,z
-x,-y,z
1/2+x,1/2-y,1/2-z
1/2-x,1/2+y,1/2-z
-x,-y,-z
x,y,-z
1/2-x,1/2+y,1/2+z
1/2+x,1/2-y,1/2+z
loop_
_atom_site_type_symbol
_atom_site_label
_atom_site_fract_x
_atom_site_fract_y
_atom_site_fract_z
Si Si1 0.281919 0.852185 0.331251
Si Si2 0.538928 0.278493 0.500000
Si Si3 0.809326 0.480415 0.655252
Si Si4 0.000000 0.500000 0.698110
Si Si5 0.475751 0.690040 0.316084
Si Si6 0.330652 0.027101 0.500000
Si Si7 0.310979 0.424419 0.500000
O O1 0.202876 0.722314 0.343036
O O2 0.277404 0.952755 0.245116
O O3 0.372100 0.738978 0.323309
O O4 0.286586 0.969233 0.413041
O O5 0.492098 0.297697 0.411378
O O6 0.583462 0.092694 0.500000
O O7 0.385423 0.572902 0.500000
O O8 0.749040 0.547891 0.581344
O O9 0.911253 0.529200 0.647335
O O10 0.984831 0.337646 0.758532
O O11 0.500000 0.500000 0.286675
O O12 0.339188 0.228272 0.500000
#
# Coordination Sequence:
#
# PCOD9443930 Si02
#       7
#     8   4   8   4   8   4   4
#     4  10  21  38  63  94 122 165 218 255 319 396
#     4  10  21  39  60 100 122 162 212 255 329 400
#     4  11  22  41  64  93 125 171 217 262 321 372
#     4  10  26  40  58  92 128 166 210 271 314 371
#     4  10  21  38  59  91 129 160 203 256 326 388
#     4  10  20  39  61  97 127 155 213 265 312 371
#     4  12  22  40  67  90 128 170 217 271 307 375
#
# _framework density 20.849187000000001
#
# number of rings (size 3 to 8) (size 9 to 14) (size 15 to 20)
#    0.000    1.600    4.000    1.500    2.800    5.600 
#    0.000    1.000    0.000    1.200    0.000    0.000 
#    0.000    0.000    0.000    0.000    0.000    0.000 
#
# Total GULP energy -223521.719896 kJ/mol
# GULP energy per Si atom -5588.042997 kJ/mol
# Density = 2.080173 g / cm^3
# Si number density = 20.849187 Si / 1000 Ang^3
#
#
#
# Elastic Constant Matrix: (Units=GPa)
#
#
# Indices 1 2 3 4 5 6 
#
# 1 61.7281 41.8859 40.8054 0.0000 0.0000 0.0000
# 2 41.8859 139.8276 53.3818 0.0000 0.0000 0.0000
# 3 40.8054 53.3818 125.1840 0.0000 0.0000 0.0000
# 4 0.0000 0.0000 0.0000 35.0621 0.0000 0.0000
# 5 0.0000 0.0000 0.0000 0.0000 30.1987 0.0000
# 6 0.0000 0.0000 0.0000 0.0000 0.0000 24.3895
#
#
#
# Elastic Compliance Matrix: (Units=1/GPa)
#
#
# Indices 1 2 3 4 5 6 
#
# 1 0.023092 -0.004830 -0.005467 0.000000 0.000000 0.000000
# 2 -0.004830 0.009553 -0.002499 0.000000 0.000000 0.000000
# 3 -0.005467 -0.002499 0.010836 0.000000 0.000000 0.000000
# 4 0.000000 0.000000 0.000000 0.028521 0.000000 0.000000
# 5 0.000000 0.000000 0.000000 0.000000 0.033114 0.000000
# 6 0.000000 0.000000 0.000000 0.000000 0.000000 0.041001
#
#
# Mechanical properties :
#
#
# Convention : Reuss Voigt Hill
#
# Bulk Modulus (GPa) = 55.90506 66.54287 61.22396
# Shear Modulus (GPa) = 28.14176 30.64116 29.39146
#
# Velocity S-wave (km/s) = 3.67792 3.83777 3.75869
# Velocity P-wave (km/s) = 6.70137 7.18495 6.94737
#
# Compressibility (1/GPa) = 0.01788747
#
# Stress axis : x y z
#
# Youngs Moduli (GPa) = 43.30559 104.68400 92.28408
#
# Poissons Ratio (x) = 0.50561 0.50456
# Poissons Ratio (y) = 0.20916 0.23063
# Poissons Ratio (z) = 0.23677 0.26161
#
# Static dielectric constant tensor:
#      x y z
#    x 1.834620 0.000000 0.000000 
#    y 0.000000 1.753760 0.000000 
#    z 0.000000 0.000000 1.755230 
# 
# From -- ./inp_files/19539.got.cif
#   From: 2010.05.17/outbox.cif.g08.bks.cpg/sg58_10_cif.got.tgz:19539.got - 2010.06.03 14:20:14.
