data_PCOD9443096
_publ_section_title
;
Structure prediction by ZEFSAII (Michael W. Deem and Ramdas Pophale) SiO2 
 PCOD9443096
Probable space group: P N N M
;
_chemical_formula_sum "Si O2"
_cell_formula_units_Z 36
_cell_length_a 7.006540
_cell_length_b 22.209783
_cell_length_c 9.684659
_cell_angle_alpha 90.000000
_cell_angle_beta 90.000000
_cell_angle_gamma 90.000000
_cell_volume 1507.065940
_symmetry_space_group_name_H-M "P N N M"
_symmetry_group_IT_number 58
_symmetry_cell_setting 'orthorhombic'
loop_
_space_group_symop_operation_xyz
x,y,z
-x,-y,z
1/2+x,1/2-y,1/2-z
1/2-x,1/2+y,1/2-z
-x,-y,-z
x,y,-z
1/2-x,1/2+y,1/2+z
1/2+x,1/2-y,1/2+z
loop_
_atom_site_type_symbol
_atom_site_label
_atom_site_fract_x
_atom_site_fract_y
_atom_site_fract_z
Si Si1 0.020937 0.429762 0.841109
Si Si2 0.382256 0.290720 0.657127
Si Si3 0.000000 0.000000 0.500000
Si Si4 0.437851 0.175637 0.843784
Si Si5 0.000000 0.000000 0.000000
Si Si6 0.961974 0.086033 0.264559
O O1 0.247495 0.416772 0.828311
O O2 0.000000 0.500000 0.809352
O O3 0.912234 0.387728 0.733254
O O4 0.971230 0.417757 0.000000
O O5 0.446661 0.277708 0.500000
O O6 0.375187 0.231636 0.750854
O O7 0.500734 0.343870 0.732054
O O8 0.167196 0.315612 0.647034
O O9 0.926489 0.952594 0.378536
O O10 0.363274 0.175527 0.000000
O O11 0.966944 0.051162 0.120845
#
# Coordination Sequence:
#
# PCOD9443096 Si02
#       6
#     8   8   2   8   2   8
#     4  10  21  40  61  85 118 157 192 237 296 350
#     4  10  21  41  60  84 118 157 193 242 295 345
#     4  10  20  34  58  90 112 154 198 228 298 348
#     4  10  23  40  62  88 116 154 200 242 293 351
#     4  10  20  38  58  86 120 150 198 232 298 344
#     4  10  20  38  59  86 120 156 189 246 291 344
#
# _framework density 23.887475999999999
#
# number of rings (size 3 to 8) (size 9 to 14) (size 15 to 20)
#    0.000    2.000    2.222    0.667    3.111    2.222 
#    8.000    0.000    0.000    0.000    0.000    0.000 
#    0.000    0.000    0.000    0.000    0.000    0.000 
#
# Total GULP energy -200439.442223 kJ/mol
# GULP energy per Si atom -5567.762284 kJ/mol
# Density = 2.383311 g / cm^3
# Si number density = 23.887476 Si / 1000 Ang^3
#
#
#
# Elastic Constant Matrix: (Units=GPa)
#
#
# Indices 1 2 3 4 5 6 
#
# 1 55.8231 2.4623 19.4826 0.0000 0.0000 0.0000
# 2 2.4623 120.4776 141.1947 0.0000 0.0000 0.0000
# 3 19.4826 141.1947 276.8164 0.0000 0.0000 0.0000
# 4 0.0000 0.0000 0.0000 39.7220 0.0000 0.0000
# 5 0.0000 0.0000 0.0000 0.0000 107.7595 0.0000
# 6 0.0000 0.0000 0.0000 0.0000 0.0000 31.0171
#
#
#
# Elastic Compliance Matrix: (Units=1/GPa)
#
#
# Indices 1 2 3 4 5 6 
#
# 1 0.018762 0.002894 -0.002797 0.000000 0.000000 0.000000
# 2 0.002894 0.021082 -0.010957 0.000000 0.000000 0.000000
# 3 -0.002797 -0.010957 0.009398 0.000000 0.000000 0.000000
# 4 0.000000 0.000000 0.000000 0.025175 0.000000 0.000000
# 5 0.000000 0.000000 0.000000 0.000000 0.009280 0.000000
# 6 0.000000 0.000000 0.000000 0.000000 0.000000 0.032240
#
#
# Mechanical properties :
#
#
# Convention : Reuss Voigt Hill
#
# Bulk Modulus (GPa) = 36.33261 86.59958 61.46610
# Shear Modulus (GPa) = 34.05253 55.03154 44.54203
#
# Velocity S-wave (km/s) = 3.77973 4.80498 4.32286
# Velocity P-wave (km/s) = 5.85588 8.19241 7.12064
#
# Compressibility (1/GPa) = 0.02752348
#
# Stress axis : x y z
#
# Youngs Moduli (GPa) = 53.29875 47.43271 106.40306
#
# Poissons Ratio (x) = -0.13728 0.29758
# Poissons Ratio (y) = -0.15426 1.16588
# Poissons Ratio (z) = 0.14906 0.51973
#
# Static dielectric constant tensor:
#      x y z
#    x 2.100860 0.000000 0.000000 
#    y 0.000000 1.896850 0.000000 
#    z 0.000000 0.000000 1.823090 
# 
# From -- ./inp_files/2316.got.cif
#   From: 2010.05.17/outbox.cif.g08.bks.cpg/sg58_2_cif.got.tgz:2316.got - 2010.06.03 14:20:14.
