data_PCOD9443723
_publ_section_title
;
Structure prediction by ZEFSAII (Michael W. Deem and Ramdas Pophale) SiO2 
 PCOD9443723
Probable space group: P N N M
;
_chemical_formula_sum "Si O2"
_cell_formula_units_Z 40
_cell_length_a 17.208770
_cell_length_b 8.319407
_cell_length_c 12.871512
_cell_angle_alpha 90.000000
_cell_angle_beta 90.000000
_cell_angle_gamma 90.000000
_cell_volume 1842.772690
_symmetry_space_group_name_H-M "P N N M"
_symmetry_group_IT_number 58
_symmetry_cell_setting 'orthorhombic'
loop_
_space_group_symop_operation_xyz
x,y,z
-x,-y,z
1/2+x,1/2-y,1/2-z
1/2-x,1/2+y,1/2-z
-x,-y,-z
x,y,-z
1/2-x,1/2+y,1/2+z
1/2+x,1/2-y,1/2+z
loop_
_atom_site_type_symbol
_atom_site_label
_atom_site_fract_x
_atom_site_fract_y
_atom_site_fract_z
Si Si1 0.469568 0.816792 0.616657
Si Si2 0.677858 0.927560 0.878584
Si Si3 0.121201 0.092157 0.387323
Si Si4 0.803263 0.716681 0.219479
Si Si5 0.533238 0.732910 0.830584
O O1 0.480918 0.753987 0.500000
O O2 0.378684 0.812352 0.647472
O O3 0.516548 0.726303 0.707325
O O4 0.500000 0.000000 0.619591
O O5 0.729197 0.771093 0.846717
O O6 0.588051 0.881301 0.857931
O O7 0.701846 0.071128 0.801564
O O8 0.689579 0.964982 0.000000
O O9 0.158827 0.096232 0.500000
O O10 0.177223 0.132678 0.294010
O O11 0.051846 0.224298 0.381172
O O12 0.078376 0.924015 0.369737
#
# Coordination Sequence:
#
# PCOD9443723 Si02
#       5
#     8   8   8   8   8
#     4  10  20  40  64  91 124 165 210 256 311 369
#     4  12  24  41  62  90 126 165 206 261 322 376
#     4  10  20  38  62  89 124 163 202 256 314 368
#     4  11  24  41  62  92 127 165 215 260 313 387
#     4  10  20  37  62  93 120 157 207 254 303 374
#
# _framework density 21.706420000000001
#
# number of rings (size 3 to 8) (size 9 to 14) (size 15 to 20)
#    0.000    1.400    2.000    4.800    0.000    0.000 
#    0.000   19.000    0.000    0.000    0.000    0.000 
#    0.000    0.000    0.000    0.000    0.000    0.000 
#
# Total GULP energy -223518.579196 kJ/mol
# GULP energy per Si atom -5587.964480 kJ/mol
# Density = 2.165702 g / cm^3
# Si number density = 21.706420 Si / 1000 Ang^3
#
#
#
# Elastic Constant Matrix: (Units=GPa)
#
#
# Indices 1 2 3 4 5 6 
#
# 1 61.3755 -1.5775 13.3225 0.0000 0.0000 0.0000
# 2 -1.5775 46.4220 4.7417 0.0000 0.0000 0.0000
# 3 13.3225 4.7417 139.5627 0.0000 0.0000 0.0000
# 4 0.0000 0.0000 0.0000 35.1716 0.0000 0.0000
# 5 0.0000 0.0000 0.0000 0.0000 8.4990 0.0000
# 6 0.0000 0.0000 0.0000 0.0000 0.0000 23.4588
#
#
#
# Elastic Compliance Matrix: (Units=1/GPa)
#
#
# Indices 1 2 3 4 5 6 
#
# 1 0.016663 0.000731 -0.001615 0.000000 0.000000 0.000000
# 2 0.000731 0.021649 -0.000805 0.000000 0.000000 0.000000
# 3 -0.001615 -0.000805 0.007347 0.000000 0.000000 0.000000
# 4 0.000000 0.000000 0.000000 0.028432 0.000000 0.000000
# 5 0.000000 0.000000 0.000000 0.000000 0.117660 0.000000
# 6 0.000000 0.000000 0.000000 0.000000 0.000000 0.042628
#
#
# Mechanical properties :
#
#
# Convention : Reuss Voigt Hill
#
# Bulk Modulus (GPa) = 23.65244 31.14818 27.40031
# Shear Modulus (GPa) = 19.85305 28.81745 24.33525
#
# Velocity S-wave (km/s) = 3.02754 3.64758 3.35193
# Velocity P-wave (km/s) = 4.81056 5.66751 5.25653
#
# Compressibility (1/GPa) = 0.04227894
#
# Stress axis : x y z
#
# Youngs Moduli (GPa) = 60.01467 46.19233 136.11351
#
# Poissons Ratio (x) = -0.03378 0.21988
# Poissons Ratio (y) = -0.04388 0.10961
# Poissons Ratio (z) = 0.09695 0.03720
#
# Static dielectric constant tensor:
#      x y z
#    x 1.790830 0.000000 0.000000 
#    y 0.000000 1.836900 0.000000 
#    z 0.000000 0.000000 1.767710 
# 
# From -- ./inp_files/12677.got.cif
#   From: 2010.05.17/outbox.cif.g08.bks.cpg/sg58_7_cif.got.tgz:12677.got - 2010.06.03 14:20:14.
