data_PCOD9443934
_publ_section_title
;
Structure prediction by ZEFSAII (Michael W. Deem and Ramdas Pophale) SiO2 
 PCOD9443934
Probable space group: P N N M
;
_chemical_formula_sum "Si O2"
_cell_formula_units_Z 64
_cell_length_a 25.239864
_cell_length_b 14.920747
_cell_length_c 8.122998
_cell_angle_alpha 90.000000
_cell_angle_beta 90.000000
_cell_angle_gamma 90.000000
_cell_volume 3059.101755
_symmetry_space_group_name_H-M "P N N M"
_symmetry_group_IT_number 58
_symmetry_cell_setting 'orthorhombic'
loop_
_space_group_symop_operation_xyz
x,y,z
-x,-y,z
1/2+x,1/2-y,1/2-z
1/2-x,1/2+y,1/2-z
-x,-y,-z
x,y,-z
1/2-x,1/2+y,1/2+z
1/2+x,1/2-y,1/2+z
loop_
_atom_site_type_symbol
_atom_site_label
_atom_site_fract_x
_atom_site_fract_y
_atom_site_fract_z
Si Si1 0.259310 0.654696 0.307468
Si Si2 0.554161 0.737610 0.814137
Si Si3 0.671083 0.514361 0.701244
Si Si4 0.358125 0.147933 0.689950
Si Si5 0.481628 0.900381 0.301141
Si Si6 0.052459 0.954582 0.809026
Si Si7 0.633066 0.054089 0.698205
Si Si8 0.237339 0.351055 0.693018
O O1 0.248469 0.637517 0.500000
O O2 0.301967 0.580506 0.253635
O O3 0.204560 0.645008 0.210497
O O4 0.274782 0.758020 0.283531
O O5 0.613522 0.775417 0.792524
O O6 0.516549 0.820898 0.770585
O O7 0.545780 0.652107 0.700535
O O8 0.545024 0.708405 0.000000
O O9 0.670077 0.518763 0.500000
O O10 0.610808 0.523641 0.761865
O O11 0.710844 0.594498 0.753507
O O12 0.372548 0.163598 0.500000
O O13 0.378005 0.049589 0.738825
O O14 0.486536 0.897863 0.500000
O O15 0.419566 0.891071 0.258961
O O16 0.500000 0.000000 0.248988
O O17 0.054788 0.984029 0.000000
O O18 0.000000 0.000000 0.734404
O O19 0.640838 0.058180 0.500000
O O20 0.686264 0.086352 0.783864
O O21 0.245295 0.331342 0.500000
#
# Coordination Sequence:
#
# PCOD9443934 Si02
#       8
#     8   8   8   8   8   8   8   8
#     4  11  22  38  60  90 124 162 206 257 313 368
#     4  12  25  39  61  94 128 165 205 257 316 374
#     4   9  20  39  62  88 121 158 203 255 305 360
#     4  11  21  38  62  89 121 160 208 256 306 368
#     4  10  20  39  62  87 120 162 206 251 303 365
#     4  10  22  43  69  91 116 162 217 264 307 362
#     4  10  21  37  60  87 119 158 202 253 305 361
#     4  11  22  38  59  88 126 166 204 249 307 372
#
# _framework density 20.921173
#
# number of rings (size 3 to 8) (size 9 to 14) (size 15 to 20)
#    0.000    1.500    2.500    3.000    0.000    3.500 
#    0.000    4.375    0.000    0.000    0.000    0.000 
#    0.000    0.000    0.000    0.000    0.000    0.000 
#
# Total GULP energy -357574.798433 kJ/mol
# GULP energy per Si atom -5587.106226 kJ/mol
# Density = 2.087356 g / cm^3
# Si number density = 20.921173 Si / 1000 Ang^3
#
#
#
# Elastic Constant Matrix: (Units=GPa)
#
#
# Indices 1 2 3 4 5 6 
#
# 1 134.3138 44.1642 5.8515 0.0000 0.0000 0.0000
# 2 44.1642 97.5243 1.2992 0.0000 0.0000 0.0000
# 3 5.8515 1.2992 13.5868 0.0000 0.0000 0.0000
# 4 0.0000 0.0000 0.0000 15.8974 0.0000 0.0000
# 5 0.0000 0.0000 0.0000 0.0000 20.0997 0.0000
# 6 0.0000 0.0000 0.0000 0.0000 0.0000 27.7681
#
#
#
# Elastic Compliance Matrix: (Units=1/GPa)
#
#
# Indices 1 2 3 4 5 6 
#
# 1 0.008907 -0.003987 -0.003455 0.000000 0.000000 0.000000
# 2 -0.003987 0.012052 0.000565 0.000000 0.000000 0.000000
# 3 -0.003455 0.000565 0.075035 0.000000 0.000000 0.000000
# 4 0.000000 0.000000 0.000000 0.062903 0.000000 0.000000
# 5 0.000000 0.000000 0.000000 0.000000 0.049752 0.000000
# 6 0.000000 0.000000 0.000000 0.000000 0.000000 0.036013
#
#
# Mechanical properties :
#
#
# Convention : Reuss Voigt Hill
#
# Bulk Modulus (GPa) = 12.15965 38.67274 25.41620
# Shear Modulus (GPa) = 17.49295 25.69370 21.59333
#
# Velocity S-wave (km/s) = 2.89474 3.50826 3.21616
# Velocity P-wave (km/s) = 4.12279 5.91063 5.09573
#
# Compressibility (1/GPa) = 0.08223918
#
# Stress axis : x y z
#
# Youngs Moduli (GPa) = 112.27248 82.97323 13.32713
#
# Poissons Ratio (x) = 0.33086 0.04604
# Poissons Ratio (y) = 0.44769 -0.00753
# Poissons Ratio (z) = 0.38787 -0.04687
#
# Static dielectric constant tensor:
#      x y z
#    x 1.768020 0.000000 0.000000 
#    y 0.000000 1.738540 0.000000 
#    z 0.000000 0.000000 1.747550 
# 
# From -- ./inp_files/9920.got.cif
#   From: 2010.05.17/outbox.cif.g08.bks.cpg/sg58_5_cif.got.tgz:9920.got - 2010.06.03 14:20:14.
