data_PCOD9443753
_publ_section_title
;
Structure prediction by ZEFSAII (Michael W. Deem and Ramdas Pophale) SiO2 
 PCOD9443753
Probable space group: P N N M
;
_chemical_formula_sum "Si O2"
_cell_formula_units_Z 56
_cell_length_a 10.074343
_cell_length_b 21.276679
_cell_length_c 14.064704
_cell_angle_alpha 90.000000
_cell_angle_beta 90.000000
_cell_angle_gamma 90.000000
_cell_volume 3014.749079
_symmetry_space_group_name_H-M "P N N M"
_symmetry_group_IT_number 58
_symmetry_cell_setting 'orthorhombic'
loop_
_space_group_symop_operation_xyz
x,y,z
-x,-y,z
1/2+x,1/2-y,1/2-z
1/2-x,1/2+y,1/2-z
-x,-y,-z
x,y,-z
1/2-x,1/2+y,1/2+z
1/2+x,1/2-y,1/2+z
loop_
_atom_site_type_symbol
_atom_site_label
_atom_site_fract_x
_atom_site_fract_y
_atom_site_fract_z
Si Si1 0.725086 0.883690 0.777568
Si Si2 0.107534 0.944651 0.389523
Si Si3 0.213019 0.854091 0.111386
Si Si4 0.508318 0.673031 0.231335
Si Si5 0.991600 0.300874 0.386485
Si Si6 0.856257 0.470145 0.112341
Si Si7 0.654556 0.501227 0.613214
O O1 0.857764 0.842852 0.761371
O O2 0.615771 0.845733 0.836384
O O3 0.670008 0.909673 0.677306
O O4 0.767981 0.946250 0.834513
O O5 0.112434 0.925183 0.500000
O O6 0.064151 0.886721 0.326243
O O7 0.246768 0.976844 0.364272
O O8 0.000000 0.000000 0.380842
O O9 0.360301 0.828257 0.127663
O O10 0.103802 0.821172 0.177352
O O11 0.208646 0.928943 0.130780
O O12 0.179541 0.845810 0.000000
O O13 0.514548 0.733648 0.164715
O O14 0.967767 0.296558 0.500000
O O15 0.000000 0.500000 0.128687
O O16 0.841655 0.455317 0.000000
O O17 0.500000 0.500000 0.642939
O O18 0.659013 0.489683 0.500000
#
# Coordination Sequence:
#
# PCOD9443753 Si02
#       7
#     8   8   8   8   8   8   8
#     4  12  24  38  67  95 124 167 210 260 310 378
#     4  10  20  37  64  96 124 157 207 262 311 366
#     4  10  23  42  65  93 129 164 207 258 313 372
#     4  12  23  41  67  92 124 167 214 253 311 370
#     4  11  27  46  61  89 129 170 211 258 306 369
#     4  10  23  40  60  94 132 162 200 258 320 374
#     4  10  20  37  64  97 127 160 202 259 316 368
#
# _framework density 18.575344000000001
#
# number of rings (size 3 to 8) (size 9 to 14) (size 15 to 20)
#    0.000    1.286    2.857    2.571    4.000    1.143 
#    0.000    2.857    0.000    0.000    0.000    0.000 
#    0.000    0.000    0.000    0.000    0.000    0.000 
#
# Total GULP energy -313112.357773 kJ/mol
# GULP energy per Si atom -5591.292103 kJ/mol
# Density = 1.853307 g / cm^3
# Si number density = 18.575344 Si / 1000 Ang^3
#
#
#
# Elastic Constant Matrix: (Units=GPa)
#
#
# Indices 1 2 3 4 5 6 
#
# 1 144.3527 68.1984 82.5899 0.0000 0.0000 0.0000
# 2 68.1984 106.8684 71.8045 0.0000 0.0000 0.0000
# 3 82.5899 71.8045 127.4692 0.0000 0.0000 0.0000
# 4 0.0000 0.0000 0.0000 47.0899 0.0000 0.0000
# 5 0.0000 0.0000 0.0000 0.0000 -9.5530 0.0000
# 6 0.0000 0.0000 0.0000 0.0000 0.0000 20.7751
#
#
#
# Elastic Compliance Matrix: (Units=1/GPa)
#
#
# Indices 1 2 3 4 5 6 
#
# 1 0.011938 -0.003896 -0.005540 0.000000 0.000000 0.000000
# 2 -0.003896 0.016327 -0.006673 0.000000 0.000000 0.000000
# 3 -0.005540 -0.006673 0.015194 0.000000 0.000000 0.000000
# 4 0.000000 0.000000 0.000000 0.021236 0.000000 0.000000
# 5 0.000000 0.000000 0.000000 0.000000 -0.104679 0.000000
# 6 0.000000 0.000000 0.000000 0.000000 0.000000 0.048135
#
#
# Mechanical properties :
#
#
# Convention : Reuss Voigt Hill
#
# Bulk Modulus (GPa) = 88.96434 91.54176 90.25305
# Shear Modulus (GPa) = 113.34104 22.06888 67.70496
#
# Velocity S-wave (km/s) = 7.81981 3.45058 6.04384
# Velocity P-wave (km/s) = 11.38114 8.07859 9.86899
#
# Compressibility (1/GPa) = 0.01124046
#
# Stress axis : x y z
#
# Youngs Moduli (GPa) = 83.76793 61.24870 65.81701
#
# Poissons Ratio (x) = 0.23860 0.36464
# Poissons Ratio (y) = 0.32633 0.43920
# Poissons Ratio (z) = 0.46410 0.40871
#
# Static dielectric constant tensor:
#      x y z
#    x 1.579160 0.000000 0.000000 
#    y 0.000000 1.598680 0.000000 
#    z 0.000000 0.000000 1.663350 
# 
# From -- ./inp_files/20123.got.cif
#   From: 2010.05.17/outbox.cif.g08.bks.cpg/sg58_11_cif.got.tgz:20123.got - 2010.06.03 14:20:14.
