data_PCOD9443876
_publ_section_title
;
Structure prediction by ZEFSAII (Michael W. Deem and Ramdas Pophale) SiO2 
 PCOD9443876
Probable space group: P N N M
;
_chemical_formula_sum "Si O2"
_cell_formula_units_Z 34
_cell_length_a 20.549409
_cell_length_b 8.620438
_cell_length_c 9.627705
_cell_angle_alpha 90.000000
_cell_angle_beta 90.000000
_cell_angle_gamma 90.000000
_cell_volume 1705.498899
_symmetry_space_group_name_H-M "P N N M"
_symmetry_group_IT_number 58
_symmetry_cell_setting 'orthorhombic'
loop_
_space_group_symop_operation_xyz
x,y,z
-x,-y,z
1/2+x,1/2-y,1/2-z
1/2-x,1/2+y,1/2-z
-x,-y,-z
x,y,-z
1/2-x,1/2+y,1/2+z
1/2+x,1/2-y,1/2+z
loop_
_atom_site_type_symbol
_atom_site_label
_atom_site_fract_x
_atom_site_fract_y
_atom_site_fract_z
Si Si1 0.797975 0.572905 0.154686
Si Si2 0.067776 0.908400 0.665173
Si Si3 0.683990 0.441526 0.337772
Si Si4 0.935540 0.442173 0.228690
Si Si5 0.500000 0.000000 0.000000
O O1 0.748856 0.513856 0.271366
O O2 0.810209 0.755929 0.169493
O O3 0.867024 0.486920 0.165593
O O4 0.770001 0.544996 0.000000
O O5 0.081395 0.887165 0.500000
O O6 0.061374 0.739277 0.734174
O O7 0.124056 0.998949 0.745490
O O8 0.000000 0.000000 0.676399
O O9 0.676133 0.485128 0.500000
O O10 0.000000 0.500000 0.149550
O O11 0.945731 0.527113 0.377098
#
# Coordination Sequence:
#
# PCOD9443876 Si02
#       5
#     8   8   8   8   2
#     4  11  25  44  62  89 123 159 205 250 304 362
#     4  11  22  39  64  94 125 159 203 248 298 360
#     4  11  26  42  63  89 122 161 201 253 304 360
#     4  10  20  38  64  90 124 159 201 244 300 353
#     4   8  20  36  60 100 116 164 198 248 296 360
#
# _framework density 19.935516
#
# number of rings (size 3 to 8) (size 9 to 14) (size 15 to 20)
#    0.706    0.706    1.176    3.529    1.647    7.529 
#    0.000    0.000    0.000    0.000    0.000    0.000 
#    0.000    0.000    0.000    0.000    0.000    0.000 
#
# Total GULP energy -189273.042386 kJ/mol
# GULP energy per Si atom -5566.854188 kJ/mol
# Density = 1.989014 g / cm^3
# Si number density = 19.935516 Si / 1000 Ang^3
#
#
#
# Elastic Constant Matrix: (Units=GPa)
#
#
# Indices 1 2 3 4 5 6 
#
# 1 132.1178 52.6951 55.8605 0.0000 0.0000 0.0000
# 2 52.6951 103.2362 59.9723 0.0000 0.0000 0.0000
# 3 55.8605 59.9723 115.6179 0.0000 0.0000 0.0000
# 4 0.0000 0.0000 0.0000 -182.0921 0.0000 0.0000
# 5 0.0000 0.0000 0.0000 0.0000 212.9222 0.0000
# 6 0.0000 0.0000 0.0000 0.0000 0.0000 32.3753
#
#
#
# Elastic Compliance Matrix: (Units=1/GPa)
#
#
# Indices 1 2 3 4 5 6 
#
# 1 0.010274 -0.003379 -0.003211 0.000000 0.000000 0.000000
# 2 -0.003379 0.014975 -0.006135 0.000000 0.000000 0.000000
# 3 -0.003211 -0.006135 0.013383 0.000000 0.000000 0.000000
# 4 0.000000 0.000000 0.000000 -0.005492 0.000000 0.000000
# 5 0.000000 0.000000 0.000000 0.000000 0.004697 0.000000
# 6 0.000000 0.000000 0.000000 0.000000 0.000000 0.030888
#
#
# Mechanical properties :
#
#
# Convention : Reuss Voigt Hill
#
# Bulk Modulus (GPa) = 75.86243 76.44752 76.15498
# Shear Modulus (GPa) = 50.72481 24.80401 37.76441
#
# Velocity S-wave (km/s) = 5.04972 3.53117 4.35711
# Velocity P-wave (km/s) = 8.49330 7.41998 7.97472
#
# Compressibility (1/GPa) = 0.01318176
#
# Stress axis : x y z
#
# Youngs Moduli (GPa) = 97.32857 66.77624 74.71996
#
# Poissons Ratio (x) = 0.22562 0.23996
# Poissons Ratio (y) = 0.32885 0.45844
# Poissons Ratio (z) = 0.31257 0.40970
#
# Static dielectric constant tensor:
#      x y z
#    x 1.735070 0.000000 0.000000 
#    y 0.000000 1.705660 0.000000 
#    z 0.000000 0.000000 1.678540 
# 
# From -- ./inp_files/8666.got.cif
#   From: 2010.05.17/outbox.cif.g08.bks.cpg/sg58_5_cif.got.tgz:8666.got - 2010.06.03 14:20:14.
