data_PCOD9443851
_publ_section_title
;
Structure prediction by ZEFSAII (Michael W. Deem and Ramdas Pophale) SiO2 
 PCOD9443851
Probable space group: P N N M
;
_chemical_formula_sum "Si O2"
_cell_formula_units_Z 64
_cell_length_a 14.670054
_cell_length_b 25.453992
_cell_length_c 7.508734
_cell_angle_alpha 90.000000
_cell_angle_beta 90.000000
_cell_angle_gamma 90.000000
_cell_volume 2803.847154
_symmetry_space_group_name_H-M "P N N M"
_symmetry_group_IT_number 58
_symmetry_cell_setting 'orthorhombic'
loop_
_space_group_symop_operation_xyz
x,y,z
-x,-y,z
1/2+x,1/2-y,1/2-z
1/2-x,1/2+y,1/2-z
-x,-y,-z
x,y,-z
1/2-x,1/2+y,1/2+z
1/2+x,1/2-y,1/2+z
loop_
_atom_site_type_symbol
_atom_site_label
_atom_site_fract_x
_atom_site_fract_y
_atom_site_fract_z
Si Si1 0.528475 0.351754 0.716148
Si Si2 0.442922 0.952831 0.799651
Si Si3 0.236168 0.171953 0.785844
Si Si4 0.248619 0.904889 0.290662
Si Si5 0.070304 0.957804 0.296611
Si Si6 0.004032 0.262078 0.215743
Si Si7 0.581316 0.865982 0.707738
Si Si8 0.286409 0.787902 0.283520
O O1 0.522847 0.355494 0.500000
O O2 0.634522 0.345208 0.765293
O O3 0.482204 0.402492 0.795255
O O4 0.483742 0.296739 0.776145
O O5 0.348582 0.930874 0.722814
O O6 0.516402 0.906417 0.802851
O O7 0.500000 0.000000 0.710324
O O8 0.419427 0.970206 0.000000
O O9 0.310758 0.130153 0.724680
O O10 0.254330 0.232007 0.720704
O O11 0.237175 0.173793 0.000000
O O12 0.227432 0.899404 0.500000
O O13 0.168955 0.942525 0.215845
O O14 0.251891 0.844766 0.218056
O O15 0.087054 0.976398 0.500000
O O16 0.000000 0.000000 0.214243
O O17 0.106456 0.280646 0.260224
O O18 0.939457 0.307901 0.279507
O O19 0.000507 0.259890 0.000000
O O20 0.555555 0.868750 0.500000
O O21 0.280240 0.788889 0.500000
#
# Coordination Sequence:
#
# PCOD9443851 Si02
#       8
#     8   8   8   8   8   8   8   8
#     4   9  19  37  59  81 111 155 196 236 289 348
#     4  11  25  43  61  86 120 154 196 250 299 351
#     4   9  19  34  55  85 123 161 195 237 292 348
#     4  10  20  38  63  86 113 155 199 241 295 354
#     4  10  23  40  58  85 119 151 193 250 294 334
#     4   8  15  30  53  81 113 144 182 236 285 336
#     4  11  21  35  58  87 121 157 193 237 292 355
#     4   8  14  30  55  80 111 152 193 231 280 344
#
# _framework density 22.825782
#
# number of rings (size 3 to 8) (size 9 to 14) (size 15 to 20)
#    0.000    2.500    1.250    2.250    1.750    3.250 
#    0.000    3.750    0.000    0.000    0.000    0.000 
#    0.000    0.000    0.000    0.000    0.000    0.000 
#
# Total GULP energy -357106.632150 kJ/mol
# GULP energy per Si atom -5579.791127 kJ/mol
# Density = 2.277383 g / cm^3
# Si number density = 22.825782 Si / 1000 Ang^3
#
#
#
# Elastic Constant Matrix: (Units=GPa)
#
#
# Indices 1 2 3 4 5 6 
#
# 1 105.0784 56.2080 -2.7315 0.0000 0.0000 0.0000
# 2 56.2080 98.2377 -2.5892 0.0000 0.0000 0.0000
# 3 -2.7315 -2.5892 62.9506 0.0000 0.0000 0.0000
# 4 0.0000 0.0000 0.0000 15.9415 0.0000 0.0000
# 5 0.0000 0.0000 0.0000 0.0000 34.9841 0.0000
# 6 0.0000 0.0000 0.0000 0.0000 0.0000 35.5361
#
#
#
# Elastic Compliance Matrix: (Units=1/GPa)
#
#
# Indices 1 2 3 4 5 6 
#
# 1 0.013719 -0.007842 0.000273 0.000000 0.000000 0.000000
# 2 -0.007842 0.014673 0.000263 0.000000 0.000000 0.000000
# 3 0.000273 0.000263 0.015908 0.000000 0.000000 0.000000
# 4 0.000000 0.000000 0.000000 0.062729 0.000000 0.000000
# 5 0.000000 0.000000 0.000000 0.000000 0.028584 0.000000
# 6 0.000000 0.000000 0.000000 0.000000 0.000000 0.028140
#
#
# Mechanical properties :
#
#
# Convention : Reuss Voigt Hill
#
# Bulk Modulus (GPa) = 33.68387 40.89345 37.28866
# Shear Modulus (GPa) = 26.55865 31.65095 29.10480
#
# Velocity S-wave (km/s) = 3.41477 3.72779 3.57471
# Velocity P-wave (km/s) = 5.50786 6.04011 5.78011
#
# Compressibility (1/GPa) = 0.02968780
#
# Stress axis : x y z
#
# Youngs Moduli (GPa) = 72.89340 68.15097 62.86088
#
# Poissons Ratio (x) = 0.53445 -0.01714
# Poissons Ratio (y) = 0.57164 -0.01655
# Poissons Ratio (z) = -0.01988 -0.01794
#
# Static dielectric constant tensor:
#      x y z
#    x 1.868140 0.000000 0.000000 
#    y 0.000000 1.850720 0.000000 
#    z 0.000000 0.000000 1.875090 
# 
# From -- ./inp_files/6972.got.cif
#   From: 2010.05.17/outbox.cif.g08.bks.cpg/sg58_4_cif.got.tgz:6972.got - 2010.06.03 14:20:14.
