data_PCOD9443334
_publ_section_title
;
Structure prediction by ZEFSAII (Michael W. Deem and Ramdas Pophale) SiO2 
 PCOD9443334
Probable space group: P N N M
;
_chemical_formula_sum "Si O2"
_cell_formula_units_Z 64
_cell_length_a 15.687881
_cell_length_b 24.210440
_cell_length_c 9.002404
_cell_angle_alpha 90.000000
_cell_angle_beta 90.000000
_cell_angle_gamma 90.000000
_cell_volume 3419.207580
_symmetry_space_group_name_H-M "P N N M"
_symmetry_group_IT_number 58
_symmetry_cell_setting 'orthorhombic'
loop_
_space_group_symop_operation_xyz
x,y,z
-x,-y,z
1/2+x,1/2-y,1/2-z
1/2-x,1/2+y,1/2-z
-x,-y,-z
x,y,-z
1/2-x,1/2+y,1/2+z
1/2+x,1/2-y,1/2+z
loop_
_atom_site_type_symbol
_atom_site_label
_atom_site_fract_x
_atom_site_fract_y
_atom_site_fract_z
Si Si1 0.601946 0.124382 0.677877
Si Si2 0.249447 0.447014 0.677601
Si Si3 0.648656 0.748449 0.824160
Si Si4 0.148354 0.249472 0.175648
Si Si5 0.753170 0.933070 0.678578
Si Si6 0.905549 0.133260 0.177830
Si Si7 0.082119 0.140474 0.677235
Si Si8 0.589635 0.860050 0.321638
O O1 0.614269 0.118584 0.500000
O O2 0.666623 0.084237 0.759951
O O3 0.622457 0.188210 0.716055
O O4 0.502736 0.114695 0.712465
O O5 0.245178 0.449806 0.500000
O O6 0.255972 0.507770 0.745134
O O7 0.332144 0.410391 0.718561
O O8 0.750184 0.756343 0.801535
O O9 0.620323 0.692751 0.743000
O O10 0.601559 0.801483 0.757797
O O11 0.633040 0.743256 0.000000
O O12 0.099963 0.202565 0.266517
O O13 0.130129 0.241980 0.000000
O O14 0.752140 0.940027 0.500000
O O15 0.835551 0.896257 0.716963
O O16 0.667683 0.899735 0.720267
O O17 0.996889 0.118477 0.245995
O O18 0.910999 0.136424 0.000000
O O19 0.072346 0.140288 0.500000
O O20 0.593188 0.851003 0.500000
#
# Coordination Sequence:
#
# PCOD9443334 Si02
#       8
#     8   8   8   8   8   8   8   8
#     4  10  21  39  63  88 120 158 197 241 293 357
#     4  11  25  42  62  86 115 156 203 252 304 352
#     4  11  21  35  61  94 124 158 198 243 296 354
#     4  10  20  35  59  92 126 160 194 238 299 358
#     4  10  23  42  62  86 119 158 202 247 298 359
#     4  11  24  41  61  87 121 159 199 249 306 361
#     4  11  23  39  63  92 121 158 201 247 298 358
#     4  10  21  39  63  91 122 161 200 240 298 357
#
# _framework density 18.717787999999999
#
# number of rings (size 3 to 8) (size 9 to 14) (size 15 to 20)
#    0.000    1.500    2.500    2.250    0.000    6.500 
#    0.000    5.000    0.000    0.000    0.000    0.000 
#    0.000    0.000    0.000    0.000    0.000    0.000 
#
# Total GULP energy -357820.517368 kJ/mol
# GULP energy per Si atom -5590.945584 kJ/mol
# Density = 1.867519 g / cm^3
# Si number density = 18.717788 Si / 1000 Ang^3
#
#
#
# Elastic Constant Matrix: (Units=GPa)
#
#
# Indices 1 2 3 4 5 6 
#
# 1 104.0854 40.2115 36.6897 0.0000 0.0000 0.0000
# 2 40.2115 108.8039 33.8182 0.0000 0.0000 0.0000
# 3 36.6897 33.8182 32.8479 0.0000 0.0000 0.0000
# 4 0.0000 0.0000 0.0000 35.5086 0.0000 0.0000
# 5 0.0000 0.0000 0.0000 0.0000 95.9198 0.0000
# 6 0.0000 0.0000 0.0000 0.0000 0.0000 1.0663
#
#
#
# Elastic Compliance Matrix: (Units=1/GPa)
#
#
# Indices 1 2 3 4 5 6 
#
# 1 0.015867 -0.000523 -0.017184 0.000000 0.000000 0.000000
# 2 -0.000523 0.013533 -0.013349 0.000000 0.000000 0.000000
# 3 -0.017184 -0.013349 0.063381 0.000000 0.000000 0.000000
# 4 0.000000 0.000000 0.000000 0.028162 0.000000 0.000000
# 5 0.000000 0.000000 0.000000 0.000000 0.010425 0.000000
# 6 0.000000 0.000000 0.000000 0.000000 0.000000 0.937788
#
#
# Mechanical properties :
#
#
# Convention : Reuss Voigt Hill
#
# Bulk Modulus (GPa) = 32.60662 51.90844 42.25753
# Shear Modulus (GPa) = 4.38023 35.50015 19.94019
#
# Velocity S-wave (km/s) = 1.53141 4.35972 3.26744
# Velocity P-wave (km/s) = 4.53706 7.28939 6.07125
#
# Compressibility (1/GPa) = 0.03066862
#
# Stress axis : x y z
#
# Youngs Moduli (GPa) = 63.02425 73.89257 15.77764
#
# Poissons Ratio (x) = 0.03863 0.27113
# Poissons Ratio (y) = 0.03295 0.21061
# Poissons Ratio (z) = 1.08303 0.98639
#
# Static dielectric constant tensor:
#      x y z
#    x 1.654120 0.000000 0.000000 
#    y 0.000000 1.602990 0.000000 
#    z 0.000000 0.000000 1.623690 
# 
# From -- ./inp_files/6866.got.cif
#   From: 2010.05.17/outbox.cif.g08.bks.cpg/sg58_4_cif.got.tgz:6866.got - 2010.06.03 14:20:14.
