data_PCOD9443176
_publ_section_title
;
Structure prediction by ZEFSAII (Michael W. Deem and Ramdas Pophale) SiO2 
 PCOD9443176
Probable space group: P N N M
;
_chemical_formula_sum "Si O2"
_cell_formula_units_Z 32
_cell_length_a 8.539160
_cell_length_b 9.320223
_cell_length_c 18.230648
_cell_angle_alpha 90.000000
_cell_angle_beta 90.000000
_cell_angle_gamma 90.000000
_cell_volume 1450.920311
_symmetry_space_group_name_H-M "P N N M"
_symmetry_group_IT_number 58
_symmetry_cell_setting 'orthorhombic'
loop_
_space_group_symop_operation_xyz
x,y,z
-x,-y,z
1/2+x,1/2-y,1/2-z
1/2-x,1/2+y,1/2-z
-x,-y,-z
x,y,-z
1/2-x,1/2+y,1/2+z
1/2+x,1/2-y,1/2+z
loop_
_atom_site_type_symbol
_atom_site_label
_atom_site_fract_x
_atom_site_fract_y
_atom_site_fract_z
Si Si1 0.341648 0.912251 0.626310
Si Si2 0.064863 0.839754 0.718101
Si Si3 0.539105 0.667313 0.613085
Si Si4 0.643825 0.312679 0.919765
O O1 0.244937 0.850999 0.694875
O O2 0.404596 0.773320 0.583162
O O3 0.500000 0.000000 0.642132
O O4 0.221771 0.028037 0.590745
O O5 0.050940 0.786468 0.800690
O O6 0.968588 0.776976 0.648975
O O7 0.000000 0.000000 0.723428
O O8 0.500000 0.500000 0.605712
O O9 0.707925 0.706662 0.581617
O O10 0.566917 0.307205 0.000000
#
# Coordination Sequence:
#
# PCOD9443176 Si02
#       4
#     8   8   8   8
#     4   9  19  34  55  81 109 145 189 232 280 332
#     4   9  18  34  57  84 112 147 190 236 286 337
#     4  10  20  35  55  82 115 150 190 232 282 343
#     4  10  21  37  58  84 113 147 190 239 288 339
#
# _framework density 22.054966
#
# number of rings (size 3 to 8) (size 9 to 14) (size 15 to 20)
#    0.000    2.500    0.000    1.500    0.000   11.500 
#    0.000    1.250    0.000    1.500    0.000    0.000 
#    0.000    0.000    0.000    0.000    0.000    0.000 
#
# Total GULP energy -178360.480511 kJ/mol
# GULP energy per Si atom -5573.765016 kJ/mol
# Density = 2.200477 g / cm^3
# Si number density = 22.054966 Si / 1000 Ang^3
#
#
#
# Elastic Constant Matrix: (Units=GPa)
#
#
# Indices 1 2 3 4 5 6 
#
# 1 69.2647 9.6453 32.0134 0.0000 0.0000 0.0000
# 2 9.6453 111.6520 11.1145 0.0000 0.0000 0.0000
# 3 32.0134 11.1145 153.9619 0.0000 0.0000 0.0000
# 4 0.0000 0.0000 0.0000 2.2118 0.0000 0.0000
# 5 0.0000 0.0000 0.0000 0.0000 2.6086 0.0000
# 6 0.0000 0.0000 0.0000 0.0000 0.0000 20.1061
#
#
#
# Elastic Compliance Matrix: (Units=1/GPa)
#
#
# Indices 1 2 3 4 5 6 
#
# 1 0.016097 -0.001065 -0.003270 0.000000 0.000000 0.000000
# 2 -0.001065 0.009092 -0.000435 0.000000 0.000000 0.000000
# 3 -0.003270 -0.000435 0.007206 0.000000 0.000000 0.000000
# 4 0.000000 0.000000 0.000000 0.452127 0.000000 0.000000
# 5 0.000000 0.000000 0.000000 0.000000 0.383354 0.000000
# 6 0.000000 0.000000 0.000000 0.000000 0.000000 0.049736
#
#
# Mechanical properties :
#
#
# Convention : Reuss Voigt Hill
#
# Bulk Modulus (GPa) = 43.75397 48.93611 46.34504
# Shear Modulus (GPa) = 5.34891 23.79231 14.57061
#
# Velocity S-wave (km/s) = 1.55901 3.28803 2.57310
# Velocity P-wave (km/s) = 4.80857 6.05403 5.46688
#
# Compressibility (1/GPa) = 0.02285507
#
# Stress axis : x y z
#
# Youngs Moduli (GPa) = 62.12283 109.99045 138.76389
#
# Poissons Ratio (x) = 0.11714 0.45379
# Poissons Ratio (y) = 0.06616 0.06034
# Poissons Ratio (z) = 0.20315 0.04783
#
# Static dielectric constant tensor:
#      x y z
#    x 1.842140 0.000000 0.000000 
#    y 0.000000 1.801600 0.000000 
#    z 0.000000 0.000000 1.895550 
# 
# From -- ./inp_files/24868.got.cif
#   From: 2010.05.17/outbox.cif.g08.bks.cpg/sg58_13_cif.got.tgz:24868.got - 2010.06.03 14:20:14.
