data_PCOD9443587
_publ_section_title
;
Structure prediction by ZEFSAII (Michael W. Deem and Ramdas Pophale) SiO2 
 PCOD9443587
Probable space group: P N N M
;
_chemical_formula_sum "Si O2"
_cell_formula_units_Z 48
_cell_length_a 8.450492
_cell_length_b 18.579729
_cell_length_c 14.947480
_cell_angle_alpha 90.000000
_cell_angle_beta 90.000000
_cell_angle_gamma 90.000000
_cell_volume 2346.871717
_symmetry_space_group_name_H-M "P N N M"
_symmetry_group_IT_number 58
_symmetry_cell_setting 'orthorhombic'
loop_
_space_group_symop_operation_xyz
x,y,z
-x,-y,z
1/2+x,1/2-y,1/2-z
1/2-x,1/2+y,1/2-z
-x,-y,-z
x,y,-z
1/2-x,1/2+y,1/2+z
1/2+x,1/2-y,1/2+z
loop_
_atom_site_type_symbol
_atom_site_label
_atom_site_fract_x
_atom_site_fract_y
_atom_site_fract_z
Si Si1 0.092147 0.825776 0.000000
Si Si2 0.902666 0.806113 0.815389
Si Si3 0.571935 0.579643 0.194528
Si Si4 0.683883 0.030844 0.000000
Si Si5 0.026075 0.701599 0.668656
Si Si6 0.971407 0.084686 0.500000
Si Si7 0.867789 0.779251 0.500000
Si Si8 0.365597 0.949186 0.813750
O O1 0.220375 0.891580 0.000000
O O2 0.988868 0.824378 0.909279
O O3 0.194678 0.753399 0.000000
O O4 0.715542 0.799971 0.829984
O O5 0.950126 0.868891 0.745669
O O6 0.966517 0.735132 0.763069
O O7 0.500000 0.500000 0.192380
O O8 0.609346 0.603058 0.093393
O O9 0.733239 0.577173 0.247938
O O10 0.719456 0.009901 0.897226
O O11 0.500000 0.000000 0.000000
O O12 0.957178 0.748974 0.587499
O O13 0.956218 0.621971 0.652195
O O14 0.126878 0.134587 0.500000
O O15 0.000000 0.000000 0.500000
O O16 0.500000 0.000000 0.773541
#
# Coordination Sequence:
#
# PCOD9443587 Si02
#       8
#     4   8   8   4   8   4   4   8
#     4  12  23  44  65  97 135 167 219 268 326 406
#     4  12  25  41  64  96 129 171 219 268 328 390
#     4  11  22  42  66  95 127 172 221 267 324 392
#     4  10  20  36  66  94 131 171 204 259 335 400
#     4  12  24  41  65  96 130 173 220 272 327 388
#     4  10  24  41  67  90 130 168 218 263 325 374
#     4  12  21  41  69  94 128 173 212 269 332 376
#     4  11  22  42  66  94 134 174 214 267 331 392
#
# _framework density 20.452756999999998
#
# number of rings (size 3 to 8) (size 9 to 14) (size 15 to 20)
#    0.000    0.667    5.000    3.500    0.000    0.000 
#    0.000    3.750    0.000    0.000    0.000    0.000 
#    0.000    0.000    0.000    0.000    0.000    0.000 
#
# Total GULP energy -267574.156319 kJ/mol
# GULP energy per Si atom -5574.461590 kJ/mol
# Density = 2.040621 g / cm^3
# Si number density = 20.452757 Si / 1000 Ang^3
#
#
#
# Elastic Constant Matrix: (Units=GPa)
#
#
# Indices 1 2 3 4 5 6 
#
# 1 108.4322 13.5197 43.1733 0.0000 0.0000 0.0000
# 2 13.5197 72.3578 -2.0687 0.0000 0.0000 0.0000
# 3 43.1733 -2.0687 149.3431 0.0000 0.0000 0.0000
# 4 0.0000 0.0000 0.0000 -48.0115 0.0000 0.0000
# 5 0.0000 0.0000 0.0000 0.0000 13.2861 0.0000
# 6 0.0000 0.0000 0.0000 0.0000 0.0000 19.2930
#
#
#
# Elastic Compliance Matrix: (Units=1/GPa)
#
#
# Indices 1 2 3 4 5 6 
#
# 1 0.010730 -0.002094 -0.003131 0.000000 0.000000 0.000000
# 2 -0.002094 0.014234 0.000803 0.000000 0.000000 0.000000
# 3 -0.003131 0.000803 0.007612 0.000000 0.000000 0.000000
# 4 0.000000 0.000000 0.000000 -0.020828 0.000000 0.000000
# 5 0.000000 0.000000 0.000000 0.000000 0.075266 0.000000
# 6 0.000000 0.000000 0.000000 0.000000 0.000000 0.051832
#
#
# Mechanical properties :
#
#
# Convention : Reuss Voigt Hill
#
# Bulk Modulus (GPa) = 42.13824 48.82019 45.47921
# Shear Modulus (GPa) = 32.13308 15.28080 23.70694
#
# Velocity S-wave (km/s) = 3.96800 2.73633 3.40826
# Velocity P-wave (km/s) = 6.45297 5.82279 6.14596
#
# Compressibility (1/GPa) = 0.02373141
#
# Stress axis : x y z
#
# Youngs Moduli (GPa) = 93.19579 70.25199 131.36755
#
# Poissons Ratio (x) = 0.14713 0.41131
# Poissons Ratio (y) = 0.19519 -0.10544
# Poissons Ratio (z) = 0.29179 -0.05639
#
# Static dielectric constant tensor:
#      x y z
#    x 1.708470 0.000000 0.000000 
#    y 0.000000 1.813210 0.000000 
#    z 0.000000 0.000000 1.762290 
# 
# From -- ./inp_files/19912.got.cif
#   From: 2010.05.17/outbox.cif.g08.bks.cpg/sg58_10_cif.got.tgz:19912.got - 2010.06.03 14:20:14.
