data_PCOD9443787
_publ_section_title
;
Structure prediction by ZEFSAII (Michael W. Deem and Ramdas Pophale) SiO2 
 PCOD9443787
Probable space group: P N N M
;
_chemical_formula_sum "Si O2"
_cell_formula_units_Z 48
_cell_length_a 8.145203
_cell_length_b 23.417423
_cell_length_c 12.582464
_cell_angle_alpha 90.000000
_cell_angle_beta 90.000000
_cell_angle_gamma 90.000000
_cell_volume 2399.974957
_symmetry_space_group_name_H-M "P N N M"
_symmetry_group_IT_number 58
_symmetry_cell_setting 'orthorhombic'
loop_
_space_group_symop_operation_xyz
x,y,z
-x,-y,z
1/2+x,1/2-y,1/2-z
1/2-x,1/2+y,1/2-z
-x,-y,-z
x,y,-z
1/2-x,1/2+y,1/2+z
1/2+x,1/2-y,1/2+z
loop_
_atom_site_type_symbol
_atom_site_label
_atom_site_fract_x
_atom_site_fract_y
_atom_site_fract_z
Si Si1 0.325710 0.409978 0.201231
Si Si2 0.745104 0.290683 0.733690
Si Si3 0.820729 0.473387 0.220031
Si Si4 0.052454 0.798724 0.380068
Si Si5 0.097145 0.098351 0.125795
Si Si6 0.477587 0.134127 0.625940
O O1 0.291931 0.475840 0.173784
O O2 0.434785 0.367224 0.130682
O O3 0.421079 0.407152 0.314002
O O4 0.145761 0.382639 0.185604
O O5 0.796642 0.234697 0.671220
O O6 0.602262 0.277851 0.815403
O O7 0.675821 0.340091 0.655827
O O8 0.889705 0.316607 0.806861
O O9 0.720992 0.446776 0.318765
O O10 0.861076 0.421790 0.139918
O O11 0.000000 0.500000 0.249212
O O12 0.038526 0.781915 0.500000
O O13 0.083478 0.090859 0.000000
O O14 0.503470 0.145790 0.500000
#
# Coordination Sequence:
#
# PCOD9443787 Si02
#       6
#     8   8   8   8   8   8
#     4  10  21  35  55  86 115 146 191 231 273 340
#     4  10  22  40  59  88 114 142 194 238 277 344
#     4   9  20  36  57  87 117 146 192 239 279 341
#     4  11  22  38  60  83 114 150 184 232 288 336
#     4  10  21  39  60  82 117 157 191 235 285 331
#     4  10  20  38  61  82 113 150 183 233 292 337
#
# _framework density 20.000211
#
# number of rings (size 3 to 8) (size 9 to 14) (size 15 to 20)
#    0.000    2.000    0.000    3.000    0.000    5.333 
#    0.000   19.167    0.000   14.000    0.000    0.000 
#    0.000    0.000    0.000    0.000    0.000    0.000 
#
# Total GULP energy -267632.666434 kJ/mol
# GULP energy per Si atom -5575.680551 kJ/mol
# Density = 1.995469 g / cm^3
# Si number density = 20.000211 Si / 1000 Ang^3
#
#
#
# Elastic Constant Matrix: (Units=GPa)
#
#
# Indices 1 2 3 4 5 6 
#
# 1 82.9891 13.3117 55.1745 0.0000 0.0000 0.0000
# 2 13.3117 85.9093 35.7543 0.0000 0.0000 0.0000
# 3 55.1745 35.7543 122.2682 0.0000 0.0000 0.0000
# 4 0.0000 0.0000 0.0000 5.4697 0.0000 0.0000
# 5 0.0000 0.0000 0.0000 0.0000 4.7407 0.0000
# 6 0.0000 0.0000 0.0000 0.0000 0.0000 28.3479
#
#
#
# Elastic Compliance Matrix: (Units=1/GPa)
#
#
# Indices 1 2 3 4 5 6 
#
# 1 0.017246 0.000645 -0.007971 0.000000 0.000000 0.000000
# 2 0.000645 0.013277 -0.004174 0.000000 0.000000 0.000000
# 3 -0.007971 -0.004174 0.012996 0.000000 0.000000 0.000000
# 4 0.000000 0.000000 0.000000 0.182826 0.000000 0.000000
# 5 0.000000 0.000000 0.000000 0.000000 0.210941 0.000000
# 6 0.000000 0.000000 0.000000 0.000000 0.000000 0.035276
#
#
# Mechanical properties :
#
#
# Convention : Reuss Voigt Hill
#
# Bulk Modulus (GPa) = 48.73260 55.51640 52.12450
# Shear Modulus (GPa) = 9.95221 20.17338 15.06279
#
# Velocity S-wave (km/s) = 2.23313 3.17938 2.74730
# Velocity P-wave (km/s) = 5.57387 6.42621 6.01516
#
# Compressibility (1/GPa) = 0.02052014
#
# Stress axis : x y z
#
# Youngs Moduli (GPa) = 57.98554 75.31667 76.94561
#
# Poissons Ratio (x) = -0.04859 0.61333
# Poissons Ratio (y) = -0.03741 0.32115
# Poissons Ratio (z) = 0.46220 0.31435
#
# Static dielectric constant tensor:
#      x y z
#    x 1.758640 0.000000 0.000000 
#    y 0.000000 1.739830 0.000000 
#    z 0.000000 0.000000 1.639870 
# 
# From -- ./inp_files/13067.got.cif
#   From: 2010.05.17/outbox.cif.g08.bks.cpg/sg58_7_cif.got.tgz:13067.got - 2010.06.03 14:20:14.
