data_PCOD9443898
_publ_section_title
;
Structure prediction by ZEFSAII (Michael W. Deem and Ramdas Pophale) SiO2 
 PCOD9443898
Probable space group: P N N M
;
_chemical_formula_sum "Si O2"
_cell_formula_units_Z 64
_cell_length_a 15.979588
_cell_length_b 11.944629
_cell_length_c 15.494487
_cell_angle_alpha 90.000000
_cell_angle_beta 90.000000
_cell_angle_gamma 90.000000
_cell_volume 2957.436611
_symmetry_space_group_name_H-M "P N N M"
_symmetry_group_IT_number 58
_symmetry_cell_setting 'orthorhombic'
loop_
_space_group_symop_operation_xyz
x,y,z
-x,-y,z
1/2+x,1/2-y,1/2-z
1/2-x,1/2+y,1/2-z
-x,-y,-z
x,y,-z
1/2-x,1/2+y,1/2+z
1/2+x,1/2-y,1/2+z
loop_
_atom_site_type_symbol
_atom_site_label
_atom_site_fract_x
_atom_site_fract_y
_atom_site_fract_z
Si Si1 0.181596 0.168463 0.197601
Si Si2 0.967817 0.199605 0.602606
Si Si3 0.912693 0.040013 0.245357
Si Si4 0.114789 0.585725 0.895902
Si Si5 0.782491 0.209784 0.832361
Si Si6 0.427907 0.841854 0.603927
Si Si7 0.655388 0.908538 0.897781
Si Si8 0.886833 0.642485 0.401517
O O1 0.142549 0.071279 0.256320
O O2 0.228205 0.267833 0.247384
O O3 0.110416 0.230405 0.143071
O O4 0.253673 0.109905 0.141471
O O5 0.972071 0.168634 0.500000
O O6 0.938809 0.100884 0.665651
O O7 0.054809 0.258133 0.633261
O O8 0.900091 0.298537 0.613671
O O9 0.857633 0.124927 0.187623
O O10 0.000000 0.000000 0.203458
O O11 0.181579 0.669774 0.857775
O O12 0.121416 0.455694 0.870904
O O13 0.023490 0.633049 0.870507
O O14 0.118665 0.589720 0.000000
O O15 0.711574 0.170272 0.898757
O O16 0.425343 0.834805 0.500000
O O17 0.609150 0.018831 0.860944
O O18 0.664374 0.926393 0.000000
O O19 0.917986 0.632800 0.500000
#
# Coordination Sequence:
#
# PCOD9443898 Si02
#       8
#     8   8   8   8   8   8   8   8
#     4  12  24  40  62  93 135 171 216 269 332 391
#     4  10  22  44  69  94 127 175 229 276 325 386
#     4  12  26  44  62  95 138 177 215 269 333 409
#     4   9  20  40  66  94 123 163 219 273 323 391
#     4  12  24  39  63  93 135 173 212 265 334 394
#     4   9  20  42  69  93 121 166 223 275 324 383
#     4  10  20  38  65  95 126 166 220 272 321 388
#     4  10  21  40  66  96 130 170 219 273 323 391
#
# _framework density 21.640362
#
# number of rings (size 3 to 8) (size 9 to 14) (size 15 to 20)
#    0.000    1.500    2.500    3.375    1.750    1.750 
#    0.000    2.500    0.000    3.000    0.000    0.000 
#    0.000    0.000    0.000    0.000    0.000    0.000 
#
# Total GULP energy -357479.514037 kJ/mol
# GULP energy per Si atom -5585.617407 kJ/mol
# Density = 2.159111 g / cm^3
# Si number density = 21.640362 Si / 1000 Ang^3
#
#
#
# Elastic Constant Matrix: (Units=GPa)
#
#
# Indices 1 2 3 4 5 6 
#
# 1 100.5793 55.0058 30.1897 0.0000 0.0000 0.0000
# 2 55.0058 119.3630 38.1798 0.0000 0.0000 0.0000
# 3 30.1897 38.1798 40.6934 0.0000 0.0000 0.0000
# 4 0.0000 0.0000 0.0000 26.3768 0.0000 0.0000
# 5 0.0000 0.0000 0.0000 0.0000 24.5519 0.0000
# 6 0.0000 0.0000 0.0000 0.0000 0.0000 51.6656
#
#
#
# Elastic Compliance Matrix: (Units=1/GPa)
#
#
# Indices 1 2 3 4 5 6 
#
# 1 0.014355 -0.004585 -0.006348 0.000000 0.000000 0.000000
# 2 -0.004585 0.013434 -0.009203 0.000000 0.000000 0.000000
# 3 -0.006348 -0.009203 0.037919 0.000000 0.000000 0.000000
# 4 0.000000 0.000000 0.000000 0.037912 0.000000 0.000000
# 5 0.000000 0.000000 0.000000 0.000000 0.040730 0.000000
# 6 0.000000 0.000000 0.000000 0.000000 0.000000 0.019355
#
#
# Mechanical properties :
#
#
# Convention : Reuss Voigt Hill
#
# Bulk Modulus (GPa) = 39.31515 56.37626 47.84570
# Shear Modulus (GPa) = 23.53422 29.66956 26.60189
#
# Velocity S-wave (km/s) = 3.30133 3.70676 3.50990
# Velocity P-wave (km/s) = 5.72177 6.66544 6.21155
#
# Compressibility (1/GPa) = 0.02543549
#
# Stress axis : x y z
#
# Youngs Moduli (GPa) = 69.66093 74.43631 26.37235
#
# Poissons Ratio (x) = 0.34127 0.16742
# Poissons Ratio (y) = 0.31937 0.24271
# Poissons Ratio (z) = 0.44224 0.68505
#
# Static dielectric constant tensor:
#      x y z
#    x 1.797140 0.000000 0.000000 
#    y 0.000000 1.811280 0.000000 
#    z 0.000000 0.000000 1.799920 
# 
# From -- ./inp_files/26988.got.cif
#   From: 2010.05.17/outbox.cif.g08.bks.cpg/sg58_14_cif.got.tgz:26988.got - 2010.06.03 14:20:14.
