data_PCOD9443320
_publ_section_title
;
Structure prediction by ZEFSAII (Michael W. Deem and Ramdas Pophale) SiO2 
 PCOD9443320
Probable space group: P N N M
;
_chemical_formula_sum "Si O2"
_cell_formula_units_Z 34
_cell_length_a 23.754733
_cell_length_b 7.257005
_cell_length_c 7.368468
_cell_angle_alpha 90.000000
_cell_angle_beta 90.000000
_cell_angle_gamma 90.000000
_cell_volume 1270.237054
_symmetry_space_group_name_H-M "P N N M"
_symmetry_group_IT_number 58
_symmetry_cell_setting 'orthorhombic'
loop_
_space_group_symop_operation_xyz
x,y,z
-x,-y,z
1/2+x,1/2-y,1/2-z
1/2-x,1/2+y,1/2-z
-x,-y,-z
x,y,-z
1/2-x,1/2+y,1/2+z
1/2+x,1/2-y,1/2+z
loop_
_atom_site_type_symbol
_atom_site_label
_atom_site_fract_x
_atom_site_fract_y
_atom_site_fract_z
Si Si1 0.204911 0.136526 0.279596
Si Si2 0.942938 0.576324 0.710625
Si Si3 0.088222 0.008731 0.281643
Si Si4 0.500000 0.500000 0.500000
Si Si5 0.827047 0.448740 0.205355
O O1 0.206619 0.140873 0.500000
O O2 0.155153 0.989831 0.237954
O O3 0.184420 0.332257 0.210669
O O4 0.268446 0.117903 0.209650
O O5 0.954004 0.612640 0.500000
O O6 0.925603 0.778175 0.779951
O O7 0.889713 0.437688 0.716534
O O8 0.000000 0.500000 0.793613
O O9 0.081382 0.986442 0.500000
O O10 0.042161 0.912035 0.159685
O O11 0.829735 0.383147 0.000000
#
# Coordination Sequence:
#
# PCOD9443320 Si02
#       5
#     8   8   8   2   8
#     4   9  20  39  56  81 115 151 185 236 297 341
#     4   9  19  38  59  80 111 152 186 230 299 349
#     4   9  20  39  58  80 121 153 188 241 287 345
#     4  12  22  36  58  90 104 164 200 218 302 340
#     4  10  20  35  59  86 111 145 192 239 286 342
#
# _framework density 26.766656999999999
#
# number of rings (size 3 to 8) (size 9 to 14) (size 15 to 20)
#    0.000    2.588    0.000    2.471    6.588    2.353 
#    4.235    0.000    0.000    0.000    0.000    0.000 
#    0.000    0.000    0.000    0.000    0.000    0.000 
#
# Total GULP energy -189357.319024 kJ/mol
# GULP energy per Si atom -5569.332912 kJ/mol
# Density = 2.670573 g / cm^3
# Si number density = 26.766657 Si / 1000 Ang^3
#
#
#
# Elastic Constant Matrix: (Units=GPa)
#
#
# Indices 1 2 3 4 5 6 
#
# 1 219.5500 40.5340 26.7931 0.0000 0.0000 0.0000
# 2 40.5340 34.4699 11.1704 0.0000 0.0000 0.0000
# 3 26.7931 11.1704 118.0490 0.0000 0.0000 0.0000
# 4 0.0000 0.0000 0.0000 7.0141 0.0000 0.0000
# 5 0.0000 0.0000 0.0000 0.0000 33.8988 0.0000
# 6 0.0000 0.0000 0.0000 0.0000 0.0000 41.2644
#
#
#
# Elastic Compliance Matrix: (Units=1/GPa)
#
#
# Indices 1 2 3 4 5 6 
#
# 1 0.005874 -0.006680 -0.000701 0.000000 0.000000 0.000000
# 2 -0.006680 0.037525 -0.002035 0.000000 0.000000 0.000000
# 3 -0.000701 -0.002035 0.008823 0.000000 0.000000 0.000000
# 4 0.000000 0.000000 0.000000 0.142571 0.000000 0.000000
# 5 0.000000 0.000000 0.000000 0.000000 0.029500 0.000000
# 6 0.000000 0.000000 0.000000 0.000000 0.000000 0.024234
#
#
# Mechanical properties :
#
#
# Convention : Reuss Voigt Hill
#
# Bulk Modulus (GPa) = 29.94874 58.78486 44.36680
# Shear Modulus (GPa) = 17.95419 36.00688 26.98054
#
# Velocity S-wave (km/s) = 2.59273 3.67169 3.17833
# Velocity P-wave (km/s) = 4.49178 6.32335 5.48456
#
# Compressibility (1/GPa) = 0.03339038
#
# Stress axis : x y z
#
# Youngs Moduli (GPa) = 170.25494 26.64889 113.34387
#
# Poissons Ratio (x) = 0.17801 0.07946
# Poissons Ratio (y) = 1.13725 0.23063
# Poissons Ratio (z) = 0.11935 0.05422
#
# Static dielectric constant tensor:
#      x y z
#    x 2.256300 0.000000 0.000000 
#    y 0.000000 2.252980 0.000000 
#    z 0.000000 0.000000 2.043580 
# 
# From -- ./inp_files/8662.got.cif
#   From: 2010.05.17/outbox.cif.g08.bks.cpg/sg58_5_cif.got.tgz:8662.got - 2010.06.03 14:20:14.
