data_PCOD9443818
_publ_section_title
;
Structure prediction by ZEFSAII (Michael W. Deem and Ramdas Pophale) SiO2 
 PCOD9443818
Probable space group: P N N M
;
_chemical_formula_sum "Si O2"
_cell_formula_units_Z 64
_cell_length_a 11.086669
_cell_length_b 9.011263
_cell_length_c 29.826649
_cell_angle_alpha 90.000000
_cell_angle_beta 90.000000
_cell_angle_gamma 90.000000
_cell_volume 2979.828092
_symmetry_space_group_name_H-M "P N N M"
_symmetry_group_IT_number 58
_symmetry_cell_setting 'orthorhombic'
loop_
_space_group_symop_operation_xyz
x,y,z
-x,-y,z
1/2+x,1/2-y,1/2-z
1/2-x,1/2+y,1/2-z
-x,-y,-z
x,y,-z
1/2-x,1/2+y,1/2+z
1/2+x,1/2-y,1/2+z
loop_
_atom_site_type_symbol
_atom_site_label
_atom_site_fract_x
_atom_site_fract_y
_atom_site_fract_z
Si Si1 0.822760 0.595336 0.123736
Si Si2 0.268482 0.899813 0.108828
Si Si3 0.866150 0.563195 0.707728
Si Si4 0.977329 0.820463 0.594467
Si Si5 0.406392 0.373234 0.815909
Si Si6 0.210859 0.690691 0.763274
Si Si7 0.428937 0.208698 0.356707
Si Si8 0.797078 0.305674 0.551885
O O1 0.711981 0.569200 0.157643
O O2 0.882195 0.435840 0.116273
O O3 0.774170 0.681349 0.080517
O O4 0.927349 0.697914 0.145126
O O5 0.325242 0.952285 0.156344
O O6 0.346169 0.755134 0.093143
O O7 0.132794 0.848867 0.120032
O O8 0.276509 0.034284 0.074332
O O9 0.778919 0.468697 0.740468
O O10 0.835859 0.730530 0.723170
O O11 0.000000 0.500000 0.714727
O O12 0.026884 0.782452 0.644368
O O13 0.063278 0.739308 0.559251
O O14 0.000000 0.000000 0.590150
O O15 0.500000 0.500000 0.803266
O O16 0.360110 0.279117 0.775065
O O17 0.128567 0.691587 0.807522
O O18 0.764848 0.304785 0.500000
#
# Coordination Sequence:
#
# PCOD9443818 Si02
#       8
#     8   8   8   8   8   8   8   8
#     4  10  22  45  67  88 130 176 220 274 338 392
#     4  11  22  42  64  96 132 172 210 269 350 397
#     4  11  24  40  60  89 133 172 220 272 325 390
#     4  10  21  40  68  95 134 180 215 263 336 398
#     4  10  20  38  61  92 130 173 217 270 320 376
#     4  11  24  37  59  94 126 173 230 274 314 379
#     4  10  23  42  65  91 125 178 225 271 326 401
#     4  11  24  42  68  98 128 165 217 281 345 412
#
# _framework density 21.47775
#
# number of rings (size 3 to 8) (size 9 to 14) (size 15 to 20)
#    0.000    1.500    0.000    6.375    3.500    5.750 
#    4.500    4.375    0.000    0.000    0.000    0.000 
#    0.000    0.000    0.000    0.000    0.000    0.000 
#
# Total GULP energy -357711.300482 kJ/mol
# GULP energy per Si atom -5589.239070 kJ/mol
# Density = 2.142887 g / cm^3
# Si number density = 21.477750 Si / 1000 Ang^3
#
#
#
# Elastic Constant Matrix: (Units=GPa)
#
#
# Indices 1 2 3 4 5 6 
#
# 1 84.8569 22.1864 5.7746 0.0000 0.0000 0.0000
# 2 22.1864 84.2050 50.5038 0.0000 0.0000 0.0000
# 3 5.7746 50.5038 102.1289 0.0000 0.0000 0.0000
# 4 0.0000 0.0000 0.0000 10.5687 0.0000 0.0000
# 5 0.0000 0.0000 0.0000 0.0000 2.4308 0.0000
# 6 0.0000 0.0000 0.0000 0.0000 0.0000 36.2671
#
#
#
# Elastic Compliance Matrix: (Units=1/GPa)
#
#
# Indices 1 2 3 4 5 6 
#
# 1 0.012784 -0.004172 0.001340 0.000000 0.000000 0.000000
# 2 -0.004172 0.018245 -0.008786 0.000000 0.000000 0.000000
# 3 0.001340 -0.008786 0.014061 0.000000 0.000000 0.000000
# 4 0.000000 0.000000 0.000000 0.094619 0.000000 0.000000
# 5 0.000000 0.000000 0.000000 0.000000 0.411385 0.000000
# 6 0.000000 0.000000 0.000000 0.000000 0.000000 0.027573
#
#
# Mechanical properties :
#
#
# Convention : Reuss Voigt Hill
#
# Bulk Modulus (GPa) = 45.75983 47.56895 46.66439
# Shear Modulus (GPa) = 8.20764 22.70171 15.45468
#
# Velocity S-wave (km/s) = 1.95698 3.25466 2.68538
# Velocity P-wave (km/s) = 5.14376 6.02660 5.60260
#
# Compressibility (1/GPa) = 0.02185323
#
# Stress axis : x y z
#
# Youngs Moduli (GPa) = 78.22151 54.80968 71.12005
#
# Poissons Ratio (x) = 0.22868 -0.09533
# Poissons Ratio (y) = 0.32637 0.62489
# Poissons Ratio (z) = -0.10485 0.48158
#
# Static dielectric constant tensor:
#      x y z
#    x 1.828850 0.000000 0.000000 
#    y 0.000000 1.899680 0.000000 
#    z 0.000000 0.000000 1.723010 
# 
# From -- ./inp_files/34936.got.cif
#   From: 2010.05.17/outbox.cif.g08.bks.cpg/sg58_18_cif.got.tgz:34936.got - 2010.06.03 14:20:14.
