data_PCOD9443419
_publ_section_title
;
Structure prediction by ZEFSAII (Michael W. Deem and Ramdas Pophale) SiO2 
 PCOD9443419
Probable space group: P N N M
;
_chemical_formula_sum "Si O2"
_cell_formula_units_Z 64
_cell_length_a 12.971546
_cell_length_b 28.219407
_cell_length_c 7.866077
_cell_angle_alpha 90.000000
_cell_angle_beta 90.000000
_cell_angle_gamma 90.000000
_cell_volume 2879.372263
_symmetry_space_group_name_H-M "P N N M"
_symmetry_group_IT_number 58
_symmetry_cell_setting 'orthorhombic'
loop_
_space_group_symop_operation_xyz
x,y,z
-x,-y,z
1/2+x,1/2-y,1/2-z
1/2-x,1/2+y,1/2-z
-x,-y,-z
x,y,-z
1/2-x,1/2+y,1/2+z
1/2+x,1/2-y,1/2+z
loop_
_atom_site_type_symbol
_atom_site_label
_atom_site_fract_x
_atom_site_fract_y
_atom_site_fract_z
Si Si1 0.857074 0.418382 0.302343
Si Si2 0.801688 0.045633 0.800857
Si Si3 0.460226 0.377120 0.198616
Si Si4 0.908012 0.313938 0.199142
Si Si5 0.368543 0.836293 0.296054
Si Si6 0.632781 0.446781 0.802754
Si Si7 0.919720 0.558218 0.696879
Si Si8 0.157657 0.788779 0.294193
O O1 0.845410 0.432525 0.500000
O O2 0.874605 0.361724 0.293575
O O3 0.750274 0.429229 0.211573
O O4 0.962994 0.443039 0.233558
O O5 0.859408 0.089240 0.712738
O O6 0.685539 0.035285 0.732339
O O7 0.868254 0.998294 0.781112
O O8 0.792374 0.057152 0.000000
O O9 0.554440 0.407805 0.272453
O O10 0.430029 0.325563 0.269106
O O11 0.484709 0.369892 0.000000
O O12 0.852440 0.265242 0.240223
O O13 0.028999 0.306104 0.235266
O O14 0.896723 0.324988 0.000000
O O15 0.361087 0.844877 0.500000
O O16 0.388705 0.886498 0.209432
O O17 0.266164 0.810628 0.237569
O O18 0.605086 0.453813 0.000000
O O19 0.928468 0.544093 0.500000
O O20 0.155849 0.789952 0.500000
#
# Coordination Sequence:
#
# PCOD9443419 Si02
#       8
#     8   8   8   8   8   8   8   8
#     4  10  21  40  61  82 114 154 192 237 292 346
#     4  11  22  37  60  89 117 150 195 243 294 349
#     4  10  22  40  60  83 116 154 195 242 291 345
#     4  10  21  36  56  85 115 145 185 236 288 343
#     4   9  18  34  56  79 107 143 187 234 282 336
#     4  11  24  40  58  84 120 159 197 238 290 348
#     4   9  19  35  58  85 112 144 187 237 287 339
#     4  10  20  36  58  83 110 147 191 234 285 344
#
# _framework density 22.227065
#
# number of rings (size 3 to 8) (size 9 to 14) (size 15 to 20)
#    0.000    2.000    1.250    1.875    0.000    6.500 
#    0.000    5.000    0.000    0.000    0.000    0.000 
#    0.000    0.000    0.000    0.000    0.000    0.000 
#
# Total GULP energy -357401.570885 kJ/mol
# GULP energy per Si atom -5584.399545 kJ/mol
# Density = 2.217648 g / cm^3
# Si number density = 22.227065 Si / 1000 Ang^3
#
#
#
# Elastic Constant Matrix: (Units=GPa)
#
#
# Indices 1 2 3 4 5 6 
#
# 1 84.9698 13.7760 -4.4088 0.0000 0.0000 0.0000
# 2 13.7760 71.2707 -6.3551 0.0000 0.0000 0.0000
# 3 -4.4088 -6.3551 23.4556 0.0000 0.0000 0.0000
# 4 0.0000 0.0000 0.0000 -0.9991 0.0000 0.0000
# 5 0.0000 0.0000 0.0000 0.0000 18.1525 0.0000
# 6 0.0000 0.0000 0.0000 0.0000 0.0000 35.9315
#
#
#
# Elastic Compliance Matrix: (Units=1/GPa)
#
#
# Indices 1 2 3 4 5 6 
#
# 1 0.012215 -0.002210 0.001697 0.000000 0.000000 0.000000
# 2 -0.002210 0.014778 0.003589 0.000000 0.000000 0.000000
# 3 0.001697 0.003589 0.043925 0.000000 0.000000 0.000000
# 4 0.000000 0.000000 0.000000 -1.000915 0.000000 0.000000
# 5 0.000000 0.000000 0.000000 0.000000 0.055089 0.000000
# 6 0.000000 0.000000 0.000000 0.000000 0.000000 0.027831
#
#
# Mechanical properties :
#
#
# Convention : Reuss Voigt Hill
#
# Bulk Modulus (GPa) = 12.97506 20.63558 16.80532
# Shear Modulus (GPa) = -6.04201 22.39592 8.17696
#
# Velocity S-wave (km/s) = -1.65052 3.17771 1.92011
# Velocity P-wave (km/s) = 1.48926 4.77158 3.53453
#
# Compressibility (1/GPa) = 0.07707091
#
# Stress axis : x y z
#
# Youngs Moduli (GPa) = 81.86505 67.66762 22.76602
#
# Poissons Ratio (x) = 0.14953 -0.03864
# Poissons Ratio (y) = 0.18090 -0.08170
# Poissons Ratio (z) = -0.13895 -0.24283
#
# Static dielectric constant tensor:
#      x y z
#    x 1.865700 0.000000 0.000000 
#    y 0.000000 1.801650 0.000000 
#    z 0.000000 0.000000 1.832830 
# 
# From -- ./inp_files/4789.got.cif
#   From: 2010.05.17/outbox.cif.g08.bks.cpg/sg58_3_cif.got.tgz:4789.got - 2010.06.03 14:20:14.
