data_PCOD9443431
_publ_section_title
;
Structure prediction by ZEFSAII (Michael W. Deem and Ramdas Pophale) SiO2 
 PCOD9443431
Probable space group: P N N M
;
_chemical_formula_sum "Si O2"
_cell_formula_units_Z 64
_cell_length_a 14.712321
_cell_length_b 24.632892
_cell_length_c 9.639199
_cell_angle_alpha 90.000000
_cell_angle_beta 90.000000
_cell_angle_gamma 90.000000
_cell_volume 3493.313329
_symmetry_space_group_name_H-M "P N N M"
_symmetry_group_IT_number 58
_symmetry_cell_setting 'orthorhombic'
loop_
_space_group_symop_operation_xyz
x,y,z
-x,-y,z
1/2+x,1/2-y,1/2-z
1/2-x,1/2+y,1/2-z
-x,-y,-z
x,y,-z
1/2-x,1/2+y,1/2+z
1/2+x,1/2-y,1/2+z
loop_
_atom_site_type_symbol
_atom_site_label
_atom_site_fract_x
_atom_site_fract_y
_atom_site_fract_z
Si Si1 0.491077 0.829413 0.834662
Si Si2 0.598505 0.527720 0.159796
Si Si3 0.245138 0.562258 0.837152
Si Si4 0.338007 0.770706 0.336753
Si Si5 0.440826 0.372420 0.339148
Si Si6 0.351464 0.644525 0.658695
Si Si7 0.122549 0.770255 0.664982
Si Si8 0.565860 0.948786 0.835915
O O1 0.402061 0.809035 0.753836
O O2 0.573466 0.787140 0.803458
O O3 0.518944 0.891056 0.801017
O O4 0.474705 0.826596 0.000000
O O5 0.500000 0.500000 0.179281
O O6 0.677203 0.483540 0.178085
O O7 0.607528 0.577486 0.264425
O O8 0.601648 0.547576 0.000000
O O9 0.284248 0.616147 0.764697
O O10 0.154940 0.545323 0.756833
O O11 0.228705 0.570577 0.000000
O O12 0.351191 0.782884 0.500000
O O13 0.365039 0.708057 0.313309
O O14 0.230381 0.771972 0.307584
O O15 0.415143 0.366933 0.500000
O O16 0.549320 0.382298 0.333363
O O17 0.420961 0.317738 0.255413
O O18 0.316686 0.639476 0.500000
O O19 0.109398 0.780005 0.500000
O O20 0.500000 0.000000 0.814993
O O21 0.589661 0.946725 0.000000
#
# Coordination Sequence:
#
# PCOD9443431 Si02
#       8
#     8   8   8   8   8   8   8   8
#     4  10  21  39  63  89 118 157 200 242 295 357
#     4  10  21  38  57  82 122 159 190 234 291 355
#     4  11  23  38  62  91 117 156 204 248 293 349
#     4  10  21  38  60  87 120 159 198 244 297 348
#     4  11  22  35  57  86 117 153 195 245 290 342
#     4  10  20  36  58  85 120 155 194 243 296 350
#     4  10  21  37  58  84 121 162 194 235 298 357
#     4  10  23  44  66  87 118 158 198 248 304 352
#
# _framework density 18.320715
#
# number of rings (size 3 to 8) (size 9 to 14) (size 15 to 20)
#    0.000    1.750    2.500    1.500    0.000    6.500 
#    0.000    3.750    0.000    0.000    0.000    0.000 
#    0.000    0.000    0.000    0.000    0.000    0.000 
#
# Total GULP energy -357370.483976 kJ/mol
# GULP energy per Si atom -5583.913812 kJ/mol
# Density = 1.827902 g / cm^3
# Si number density = 18.320715 Si / 1000 Ang^3
#
#
#
# Elastic Constant Matrix: (Units=GPa)
#
#
# Indices 1 2 3 4 5 6 
#
# 1 104.7972 53.9661 69.8409 0.0000 0.0000 0.0000
# 2 53.9661 102.2973 73.9849 0.0000 0.0000 0.0000
# 3 69.8409 73.9849 88.7464 0.0000 0.0000 0.0000
# 4 0.0000 0.0000 0.0000 26.0252 0.0000 0.0000
# 5 0.0000 0.0000 0.0000 0.0000 34.2704 0.0000
# 6 0.0000 0.0000 0.0000 0.0000 0.0000 22.5978
#
#
#
# Elastic Compliance Matrix: (Units=1/GPa)
#
#
# Indices 1 2 3 4 5 6 
#
# 1 0.020248 0.002122 -0.017704 0.000000 0.000000 0.000000
# 2 0.002122 0.024842 -0.022380 0.000000 0.000000 0.000000
# 3 -0.017704 -0.022380 0.043858 0.000000 0.000000 0.000000
# 4 0.000000 0.000000 0.000000 0.038424 0.000000 0.000000
# 5 0.000000 0.000000 0.000000 0.000000 0.029180 0.000000
# 6 0.000000 0.000000 0.000000 0.000000 0.000000 0.044252
#
#
# Mechanical properties :
#
#
# Convention : Reuss Voigt Hill
#
# Bulk Modulus (GPa) = 76.77755 76.82497 76.80126
# Shear Modulus (GPa) = 17.78930 23.11527 20.45228
#
# Velocity S-wave (km/s) = 3.11946 3.55590 3.34480
# Velocity P-wave (km/s) = 7.41439 7.67357 7.54509
#
# Compressibility (1/GPa) = 0.01302464
#
# Stress axis : x y z
#
# Youngs Moduli (GPa) = 49.38821 40.25485 22.80092
#
# Poissons Ratio (x) = -0.08544 0.40366
# Poissons Ratio (y) = -0.10482 0.51028
# Poissons Ratio (z) = 0.87436 0.90090
#
# Static dielectric constant tensor:
#      x y z
#    x 1.643540 0.000000 0.000000 
#    y 0.000000 1.616350 0.000000 
#    z 0.000000 0.000000 1.611530 
# 
# From -- ./inp_files/6801.got.cif
#   From: 2010.05.17/outbox.cif.g08.bks.cpg/sg58_4_cif.got.tgz:6801.got - 2010.06.03 14:20:14.
