data_PCOD9443374
_publ_section_title
;
Structure prediction by ZEFSAII (Michael W. Deem and Ramdas Pophale) SiO2 
 PCOD9443374
Probable space group: P N N M
;
_chemical_formula_sum "Si O2"
_cell_formula_units_Z 64
_cell_length_a 24.532149
_cell_length_b 13.884981
_cell_length_c 9.137323
_cell_angle_alpha 90.000000
_cell_angle_beta 90.000000
_cell_angle_gamma 90.000000
_cell_volume 3112.431922
_symmetry_space_group_name_H-M "P N N M"
_symmetry_group_IT_number 58
_symmetry_cell_setting 'orthorhombic'
loop_
_space_group_symop_operation_xyz
x,y,z
-x,-y,z
1/2+x,1/2-y,1/2-z
1/2-x,1/2+y,1/2-z
-x,-y,-z
x,y,-z
1/2-x,1/2+y,1/2+z
1/2+x,1/2-y,1/2+z
loop_
_atom_site_type_symbol
_atom_site_label
_atom_site_fract_x
_atom_site_fract_y
_atom_site_fract_z
Si Si1 0.440332 0.210181 0.174266
Si Si2 0.228548 0.124066 0.830966
Si Si3 0.771108 0.110982 0.166839
Si Si4 0.836876 0.376685 0.832705
Si Si5 0.892481 0.888269 0.176758
Si Si6 0.549804 0.196467 0.676523
Si Si7 0.336737 0.891326 0.666689
Si Si8 0.895286 0.108312 0.177467
O O1 0.543294 0.185612 0.500000
O O2 0.387082 0.155561 0.233730
O O3 0.495240 0.165896 0.242161
O O4 0.433809 0.316990 0.242191
O O5 0.278975 0.156417 0.732518
O O6 0.167718 0.146122 0.774570
O O7 0.229473 0.006541 0.833006
O O8 0.235634 0.155080 0.000000
O O9 0.718531 0.142760 0.256688
O O10 0.832451 0.135185 0.215766
O O11 0.764908 0.142630 0.000000
O O12 0.835618 0.492846 0.833765
O O13 0.844589 0.343285 0.000000
O O14 0.936905 0.808277 0.210707
O O15 0.904218 0.997378 0.223203
O O16 0.887924 0.892692 0.000000
O O17 0.664757 0.144168 0.500000
O O18 0.604630 0.141439 0.725313
O O19 0.058125 0.711532 0.500000
O O20 0.900927 0.114421 0.000000
#
# Coordination Sequence:
#
# PCOD9443374 Si02
#       8
#     8   8   8   8   8   8   8   8
#     4  12  26  40  53  75 104 140 186 235 278 317
#     4   8  14  29  53  84 115 141 172 212 257 315
#     4   8  15  29  53  82 113 143 173 211 260 315
#     4  10  20  36  56  80 110 145 180 219 267 322
#     4   8  16  33  60  86 110 143 179 211 257 321
#     4  10  21  39  58  78 105 141 183 224 263 317
#     4   9  19  34  56  84 113 143 177 217 266 318
#     4   9  18  36  59  83 110 144 180 215 259 319
#
# _framework density 20.562697
#
# number of rings (size 3 to 8) (size 9 to 14) (size 15 to 20)
#    0.000    2.750    0.000    3.000    0.000    3.500 
#    0.000    9.375    0.000    0.000    0.000    0.000 
#    0.000    0.000    0.000    0.000    0.000    0.000 
#
# Total GULP energy -357332.724163 kJ/mol
# GULP energy per Si atom -5583.323815 kJ/mol
# Density = 2.051590 g / cm^3
# Si number density = 20.562697 Si / 1000 Ang^3
#
#
#
# Elastic Constant Matrix: (Units=GPa)
#
#
# Indices 1 2 3 4 5 6 
#
# 1 114.5591 3.9730 44.4575 0.0000 0.0000 0.0000
# 2 3.9730 42.4337 7.2400 0.0000 0.0000 0.0000
# 3 44.4575 7.2400 61.6915 0.0000 0.0000 0.0000
# 4 0.0000 0.0000 0.0000 -3.6902 0.0000 0.0000
# 5 0.0000 0.0000 0.0000 0.0000 31.1413 0.0000
# 6 0.0000 0.0000 0.0000 0.0000 0.0000 25.3549
#
#
#
# Elastic Compliance Matrix: (Units=1/GPa)
#
#
# Indices 1 2 3 4 5 6 
#
# 1 0.012124 0.000363 -0.008779 0.000000 0.000000 0.000000
# 2 0.000363 0.024059 -0.003085 0.000000 0.000000 0.000000
# 3 -0.008779 -0.003085 0.022899 0.000000 0.000000 0.000000
# 4 0.000000 0.000000 0.000000 -0.270988 0.000000 0.000000
# 5 0.000000 0.000000 0.000000 0.000000 0.032112 0.000000
# 6 0.000000 0.000000 0.000000 0.000000 0.000000 0.039440
#
#
# Mechanical properties :
#
#
# Convention : Reuss Voigt Hill
#
# Bulk Modulus (GPa) = 27.71793 36.66947 32.19370
# Shear Modulus (GPa) = -47.47139 21.42878 -13.02130
#
# Velocity S-wave (km/s) = -4.81002 3.23169 -2.51917
# Velocity P-wave (km/s) = 4.16406 5.63887 2.68862
#
# Compressibility (1/GPa) = 0.03607774
#
# Stress axis : x y z
#
# Youngs Moduli (GPa) = 82.48389 41.56521 43.67096
#
# Poissons Ratio (x) = -0.01508 0.38340
# Poissons Ratio (y) = -0.02993 0.13472
# Poissons Ratio (z) = 0.72415 0.12823
#
# Static dielectric constant tensor:
#      x y z
#    x 1.729470 0.000000 0.000000 
#    y 0.000000 1.796910 0.000000 
#    z 0.000000 0.000000 1.692340 
# 
# From -- ./inp_files/17198.got.cif
#   From: 2010.05.17/outbox.cif.g08.bks.cpg/sg58_9_cif.got.tgz:17198.got - 2010.06.03 14:20:14.
