data_PCOD9443376
_publ_section_title
;
Structure prediction by ZEFSAII (Michael W. Deem and Ramdas Pophale) SiO2 
 PCOD9443376
Probable space group: P N N M
;
_chemical_formula_sum "Si O2"
_cell_formula_units_Z 48
_cell_length_a 9.785376
_cell_length_b 28.221190
_cell_length_c 7.491110
_cell_angle_alpha 90.000000
_cell_angle_beta 90.000000
_cell_angle_gamma 90.000000
_cell_volume 2068.707147
_symmetry_space_group_name_H-M "P N N M"
_symmetry_group_IT_number 58
_symmetry_cell_setting 'orthorhombic'
loop_
_space_group_symop_operation_xyz
x,y,z
-x,-y,z
1/2+x,1/2-y,1/2-z
1/2-x,1/2+y,1/2-z
-x,-y,-z
x,y,-z
1/2-x,1/2+y,1/2+z
1/2+x,1/2-y,1/2+z
loop_
_atom_site_type_symbol
_atom_site_label
_atom_site_fract_x
_atom_site_fract_y
_atom_site_fract_z
Si Si1 0.474926 0.646793 0.295179
Si Si2 0.408524 0.454592 0.783980
Si Si3 0.310110 0.276121 0.716887
Si Si4 0.649816 0.992938 0.712616
Si Si5 0.313127 0.116546 0.216061
Si Si6 0.987132 0.691902 0.708868
O O1 0.456382 0.662173 0.500000
O O2 0.535081 0.593989 0.291086
O O3 0.587861 0.682156 0.219484
O O4 0.323498 0.642809 0.214939
O O5 0.500000 0.500000 0.737538
O O6 0.258346 0.469021 0.720145
O O7 0.411289 0.450169 0.000000
O O8 0.306117 0.275043 0.500000
O O9 0.387401 0.228611 0.774980
O O10 0.155027 0.286393 0.780971
O O11 0.644385 0.000491 0.500000
O O12 0.694690 0.938738 0.738964
O O13 0.500000 0.000000 0.788939
O O14 0.450324 0.142736 0.281833
O O15 0.311410 0.119490 0.000000
O O16 0.959505 0.683691 0.500000
#
# Coordination Sequence:
#
# PCOD9443376 Si02
#       6
#     8   8   8   8   8   8
#     4  10  21  36  57  84 114 147 186 230 278 333
#     4  10  20  36  56  80 111 148 189 230 271 325
#     4  10  22  40  61  87 116 148 187 234 284 339
#     4  10  22  38  55  79 113 149 188 232 278 329
#     4  10  21  37  57  83 114 148 186 230 279 333
#     4  10  22  40  61  86 116 148 188 234 283 340
#
# _framework density 23.202895999999999
#
# number of rings (size 3 to 8) (size 9 to 14) (size 15 to 20)
#    0.000    2.000    1.667    1.000    2.333    4.667 
#    0.000    0.000    0.000    0.000    0.000    0.000 
#    0.000    0.000    0.000    0.000    0.000    0.000 
#
# Total GULP energy -268164.233701 kJ/mol
# GULP energy per Si atom -5586.754869 kJ/mol
# Density = 2.315008 g / cm^3
# Si number density = 23.202896 Si / 1000 Ang^3
#
#
#
# Elastic Constant Matrix: (Units=GPa)
#
#
# Indices 1 2 3 4 5 6 
#
# 1 125.2561 -4.9996 -4.2661 0.0000 0.0000 0.0000
# 2 -4.9996 46.8833 -22.9970 0.0000 0.0000 0.0000
# 3 -4.2661 -22.9970 64.1091 0.0000 0.0000 0.0000
# 4 0.0000 0.0000 0.0000 16.7471 0.0000 0.0000
# 5 0.0000 0.0000 0.0000 0.0000 5.3087 0.0000
# 6 0.0000 0.0000 0.0000 0.0000 0.0000 45.5904
#
#
#
# Elastic Compliance Matrix: (Units=1/GPa)
#
#
# Indices 1 2 3 4 5 6 
#
# 1 0.008073 0.001365 0.001027 0.000000 0.000000 0.000000
# 2 0.001365 0.026115 0.009459 0.000000 0.000000 0.000000
# 3 0.001027 0.009459 0.019060 0.000000 0.000000 0.000000
# 4 0.000000 0.000000 0.000000 0.059712 0.000000 0.000000
# 5 0.000000 0.000000 0.000000 0.000000 0.188370 0.000000
# 6 0.000000 0.000000 0.000000 0.000000 0.000000 0.021934
#
#
# Mechanical properties :
#
#
# Convention : Reuss Voigt Hill
#
# Bulk Modulus (GPa) = 12.99598 19.08035 16.03816
# Shear Modulus (GPa) = 15.37455 31.43000 23.40227
#
# Velocity S-wave (km/s) = 2.57692 3.68444 3.17928
# Velocity P-wave (km/s) = 3.80358 5.13238 4.51711
#
# Compressibility (1/GPa) = 0.07694689
#
# Stress axis : x y z
#
# Youngs Moduli (GPa) = 123.86856 38.29270 52.46683
#
# Poissons Ratio (x) = -0.05225 -0.05387
# Poissons Ratio (y) = -0.16902 -0.49626
# Poissons Ratio (z) = -0.12717 -0.36219
#
# Static dielectric constant tensor:
#      x y z
#    x 1.907370 0.000000 0.000000 
#    y 0.000000 1.822590 0.000000 
#    z 0.000000 0.000000 1.903480 
# 
# From -- ./inp_files/2930.got.cif
#   From: 2010.05.17/outbox.cif.g08.bks.cpg/sg58_2_cif.got.tgz:2930.got - 2010.06.03 14:20:14.
