data_PCOD9443510
_publ_section_title
;
Structure prediction by ZEFSAII (Michael W. Deem and Ramdas Pophale) SiO2 
 PCOD9443510
Probable space group: P N N M
;
_chemical_formula_sum "Si O2"
_cell_formula_units_Z 56
_cell_length_a 18.059189
_cell_length_b 16.663629
_cell_length_c 9.259582
_cell_angle_alpha 90.000000
_cell_angle_beta 90.000000
_cell_angle_gamma 90.000000
_cell_volume 2786.501063
_symmetry_space_group_name_H-M "P N N M"
_symmetry_group_IT_number 58
_symmetry_cell_setting 'orthorhombic'
loop_
_space_group_symop_operation_xyz
x,y,z
-x,-y,z
1/2+x,1/2-y,1/2-z
1/2-x,1/2+y,1/2-z
-x,-y,-z
x,y,-z
1/2-x,1/2+y,1/2+z
1/2+x,1/2-y,1/2+z
loop_
_atom_site_type_symbol
_atom_site_label
_atom_site_fract_x
_atom_site_fract_y
_atom_site_fract_z
Si Si1 0.307871 0.481521 0.832474
Si Si2 0.847840 0.300920 0.332495
Si Si3 0.863871 0.463764 0.833342
Si Si4 0.437864 0.568903 0.670518
Si Si5 0.094472 0.381864 0.332741
Si Si6 0.504801 0.274759 0.831025
Si Si7 0.264657 0.324964 0.333205
O O1 0.223832 0.514351 0.828284
O O2 0.364573 0.540553 0.754067
O O3 0.305933 0.397224 0.748502
O O4 0.328689 0.470008 0.000000
O O5 0.828964 0.313358 0.500000
O O6 0.871741 0.383979 0.260264
O O7 0.782082 0.258185 0.245894
O O8 0.917441 0.240766 0.323404
O O9 0.906700 0.538887 0.763994
O O10 0.884600 0.451335 0.000000
O O11 0.500000 0.500000 0.690332
O O12 0.423169 0.576875 0.500000
O O13 0.468208 0.651332 0.736634
O O14 0.076962 0.402026 0.500000
O O15 0.042668 0.308938 0.285501
O O16 0.178164 0.347432 0.328744
O O17 0.524830 0.288301 0.000000
O O18 0.288166 0.320627 0.500000
#
# Coordination Sequence:
#
# PCOD9443510 Si02
#       7
#     8   8   8   8   8   8   8
#     4  10  21  38  60  85 115 153 197 240 291 356
#     4  11  23  38  59  86 119 157 198 241 291 354
#     4  10  22  39  60  87 117 151 195 245 295 347
#     4  11  24  39  58  87 122 157 195 244 299 352
#     4   9  20  40  62  84 114 152 195 243 295 351
#     4  10  23  41  60  85 117 158 201 240 292 356
#     4  10  20  36  60  87 118 151 192 247 298 347
#
# _framework density 20.096888
#
# number of rings (size 3 to 8) (size 9 to 14) (size 15 to 20)
#    0.000    1.857    0.000    3.000    2.000    8.000 
#    0.000    2.857    0.000    0.000    0.000    0.000 
#    0.000    0.000    0.000    0.000    0.000    0.000 
#
# Total GULP energy -313089.503164 kJ/mol
# GULP energy per Si atom -5590.883985 kJ/mol
# Density = 2.005115 g / cm^3
# Si number density = 20.096888 Si / 1000 Ang^3
#
#
#
# Elastic Constant Matrix: (Units=GPa)
#
#
# Indices 1 2 3 4 5 6 
#
# 1 19.3240 11.2096 22.7866 0.0000 0.0000 0.0000
# 2 11.2096 89.5841 55.9490 0.0000 0.0000 0.0000
# 3 22.7866 55.9490 128.7715 0.0000 0.0000 0.0000
# 4 0.0000 0.0000 0.0000 41.3172 0.0000 0.0000
# 5 0.0000 0.0000 0.0000 0.0000 24.4459 0.0000
# 6 0.0000 0.0000 0.0000 0.0000 0.0000 33.1632
#
#
#
# Elastic Compliance Matrix: (Units=1/GPa)
#
#
# Indices 1 2 3 4 5 6 
#
# 1 0.065507 -0.001314 -0.011021 0.000000 0.000000 0.000000
# 2 -0.001314 0.015346 -0.006435 0.000000 0.000000 0.000000
# 3 -0.011021 -0.006435 0.012512 0.000000 0.000000 0.000000
# 4 0.000000 0.000000 0.000000 0.024203 0.000000 0.000000
# 5 0.000000 0.000000 0.000000 0.000000 0.040907 0.000000
# 6 0.000000 0.000000 0.000000 0.000000 0.000000 0.030154
#
#
# Mechanical properties :
#
#
# Convention : Reuss Voigt Hill
#
# Bulk Modulus (GPa) = 17.91306 46.39666 32.15486
# Shear Modulus (GPa) = 20.42682 29.63424 25.03053
#
# Velocity S-wave (km/s) = 3.19159 3.84418 3.53298
# Velocity P-wave (km/s) = 4.74493 6.54524 5.71640
#
# Compressibility (1/GPa) = 0.05582519
#
# Stress axis : x y z
#
# Youngs Moduli (GPa) = 15.26557 65.16317 79.92447
#
# Poissons Ratio (x) = 0.08561 0.88083
# Poissons Ratio (y) = 0.02006 0.51432
# Poissons Ratio (z) = 0.16824 0.41933
#
# Static dielectric constant tensor:
#      x y z
#    x 1.728080 0.000000 0.000000 
#    y 0.000000 1.680180 0.000000 
#    z 0.000000 0.000000 1.682120 
# 
# From -- ./inp_files/6321.got.cif
#   From: 2010.05.17/outbox.cif.g08.bks.cpg/sg58_4_cif.got.tgz:6321.got - 2010.06.03 14:20:14.
