data_PCOD9443504
_publ_section_title
;
Structure prediction by ZEFSAII (Michael W. Deem and Ramdas Pophale) SiO2 
 PCOD9443504
Probable space group: P N N M
;
_chemical_formula_sum "Si O2"
_cell_formula_units_Z 48
_cell_length_a 15.290197
_cell_length_b 19.211031
_cell_length_c 7.693654
_cell_angle_alpha 90.000000
_cell_angle_beta 90.000000
_cell_angle_gamma 90.000000
_cell_volume 2259.937377
_symmetry_space_group_name_H-M "P N N M"
_symmetry_group_IT_number 58
_symmetry_cell_setting 'orthorhombic'
loop_
_space_group_symop_operation_xyz
x,y,z
-x,-y,z
1/2+x,1/2-y,1/2-z
1/2-x,1/2+y,1/2-z
-x,-y,-z
x,y,-z
1/2-x,1/2+y,1/2+z
1/2+x,1/2-y,1/2+z
loop_
_atom_site_type_symbol
_atom_site_label
_atom_site_fract_x
_atom_site_fract_y
_atom_site_fract_z
Si Si1 0.904253 0.525756 0.286842
Si Si2 0.043179 0.787100 0.705729
Si Si3 0.391500 0.814830 0.212693
Si Si4 0.447754 0.568649 0.289556
Si Si5 0.275215 0.229326 0.701202
Si Si6 0.748509 0.925414 0.797586
O O1 0.904180 0.523777 0.500000
O O2 0.890682 0.605348 0.232669
O O3 0.825651 0.476332 0.224077
O O4 0.000000 0.500000 0.231830
O O5 0.053934 0.778369 0.500000
O O6 0.137868 0.775125 0.786069
O O7 0.977164 0.727142 0.769066
O O8 0.998718 0.861400 0.738516
O O9 0.306845 0.772244 0.272551
O O10 0.390753 0.814774 0.000000
O O11 0.500000 0.500000 0.231368
O O12 0.445639 0.567812 0.500000
O O13 0.347220 0.570016 0.224804
O O14 0.256704 0.214100 0.500000
O O15 0.283736 0.154135 0.787971
O O16 0.756971 0.944857 0.000000
#
# Coordination Sequence:
#
# PCOD9443504 Si02
#       6
#     8   8   8   8   8   8
#     4   9  17  31  55  84 110 142 187 238 284 338
#     4  11  22  39  61  87 116 152 198 247 297 354
#     4   9  19  35  57  84 114 146 190 239 289 347
#     4  10  22  38  58  86 119 157 200 246 296 351
#     4  11  22  37  59  85 117 155 194 240 294 353
#     4  10  20  36  60  86 115 151 195 243 290 347
#
# _framework density 21.239525
#
# number of rings (size 3 to 8) (size 9 to 14) (size 15 to 20)
#    0.000    2.000    1.667    2.000    2.333    3.000 
#    0.000    0.000    0.000    5.500    0.000    0.000 
#    0.000    0.000    0.000    0.000    0.000    0.000 
#
# Total GULP energy -268218.633450 kJ/mol
# GULP energy per Si atom -5587.888197 kJ/mol
# Density = 2.119118 g / cm^3
# Si number density = 21.239525 Si / 1000 Ang^3
#
#
#
# Elastic Constant Matrix: (Units=GPa)
#
#
# Indices 1 2 3 4 5 6 
#
# 1 67.4798 -1.0396 3.8031 0.0000 0.0000 0.0000
# 2 -1.0396 97.7684 -2.9871 0.0000 0.0000 0.0000
# 3 3.8031 -2.9871 36.9697 0.0000 0.0000 0.0000
# 4 0.0000 0.0000 0.0000 42.2929 0.0000 0.0000
# 5 0.0000 0.0000 0.0000 0.0000 9.6655 0.0000
# 6 0.0000 0.0000 0.0000 0.0000 0.0000 44.6018
#
#
#
# Elastic Compliance Matrix: (Units=1/GPa)
#
#
# Indices 1 2 3 4 5 6 
#
# 1 0.014907 0.000112 -0.001524 0.000000 0.000000 0.000000
# 2 0.000112 0.010254 0.000817 0.000000 0.000000 0.000000
# 3 -0.001524 0.000817 0.027272 0.000000 0.000000 0.000000
# 4 0.000000 0.000000 0.000000 0.023645 0.000000 0.000000
# 5 0.000000 0.000000 0.000000 0.000000 0.103461 0.000000
# 6 0.000000 0.000000 0.000000 0.000000 0.000000 0.022421
#
#
# Mechanical properties :
#
#
# Convention : Reuss Voigt Hill
#
# Bulk Modulus (GPa) = 19.51511 22.41897 20.96704
# Shear Modulus (GPa) = 22.70341 32.80814 27.75578
#
# Velocity S-wave (km/s) = 3.27299 3.93450 3.61889
# Velocity P-wave (km/s) = 4.84678 5.58736 5.23020
#
# Compressibility (1/GPa) = 0.05124234
#
# Stress axis : x y z
#
# Youngs Moduli (GPa) = 67.08312 97.51906 36.66761
#
# Poissons Ratio (x) = -0.01092 0.05590
# Poissons Ratio (y) = -0.00751 -0.02996
# Poissons Ratio (z) = 0.10226 -0.07968
#
# Static dielectric constant tensor:
#      x y z
#    x 1.744530 0.000000 0.000000 
#    y 0.000000 1.712640 0.000000 
#    z 0.000000 0.000000 1.807930 
# 
# From -- ./inp_files/5853.got.cif
#   From: 2010.05.17/outbox.cif.g08.bks.cpg/sg58_3_cif.got.tgz:5853.got - 2010.06.03 14:20:14.
