data_PCOD9443889
_publ_section_title
;
Structure prediction by ZEFSAII (Michael W. Deem and Ramdas Pophale) SiO2 
 PCOD9443889
Probable space group: P N N M
;
_chemical_formula_sum "Si O2"
_cell_formula_units_Z 48
_cell_length_a 14.994562
_cell_length_b 14.097111
_cell_length_c 11.898407
_cell_angle_alpha 90.000000
_cell_angle_beta 90.000000
_cell_angle_gamma 90.000000
_cell_volume 2515.085330
_symmetry_space_group_name_H-M "P N N M"
_symmetry_group_IT_number 58
_symmetry_cell_setting 'orthorhombic'
loop_
_space_group_symop_operation_xyz
x,y,z
-x,-y,z
1/2+x,1/2-y,1/2-z
1/2-x,1/2+y,1/2-z
-x,-y,-z
x,y,-z
1/2-x,1/2+y,1/2+z
1/2+x,1/2-y,1/2+z
loop_
_atom_site_type_symbol
_atom_site_label
_atom_site_fract_x
_atom_site_fract_y
_atom_site_fract_z
Si Si1 0.598734 0.381477 0.000000
Si Si2 0.929182 0.640925 0.000000
Si Si3 0.014216 0.193453 0.124984
Si Si4 0.888607 0.109885 0.500000
Si Si5 0.655454 0.660907 0.754039
Si Si6 0.758305 0.838311 0.317760
Si Si7 0.367165 0.065825 0.500000
Si Si8 0.335552 0.540753 0.368456
O O1 0.650593 0.343789 0.890067
O O2 0.493579 0.362239 0.000000
O O3 0.612170 0.495347 0.000000
O O4 0.923723 0.713863 0.894643
O O5 0.867881 0.548779 0.000000
O O6 0.030919 0.601681 0.000000
O O7 0.072085 0.099547 0.141308
O O8 0.940211 0.204347 0.218228
O O9 0.969902 0.184253 0.000000
O O10 0.842628 0.146129 0.613043
O O11 0.728959 0.731905 0.707172
O O12 0.658754 0.559791 0.692327
O O13 0.684667 0.891184 0.393837
O O14 0.767982 0.894599 0.201771
O O15 0.314985 0.531694 0.500000
#
# Coordination Sequence:
#
# PCOD9443889 Si02
#       8
#     4   4   8   4   8   8   4   8
#     4  10  22  44  65  93 126 169 212 264 309 400
#     4   9  18  38  63  92 113 162 208 263 305 368
#     4   9  19  38  60  93 117 154 205 255 308 372
#     4  11  24  42  66  89 125 170 215 248 331 382
#     4  12  23  39  65  90 124 166 203 266 321 375
#     4  11  23  40  61  92 129 162 210 259 320 377
#     4  10  20  38  65  87 122 161 216 256 310 377
#     4  11  24  38  59  91 128 160 204 257 316 376
#
# _framework density 19.084838999999999
#
# number of rings (size 3 to 8) (size 9 to 14) (size 15 to 20)
#    0.500    1.000    3.333    2.000    7.000    2.667 
#    0.000    0.000    0.000    0.000    0.000    3.500 
#    0.000    0.000    0.000    0.000    0.000    0.000 
#
# Total GULP energy -267982.265359 kJ/mol
# GULP energy per Si atom -5582.963862 kJ/mol
# Density = 1.904140 g / cm^3
# Si number density = 19.084839 Si / 1000 Ang^3
#
#
#
# Elastic Constant Matrix: (Units=GPa)
#
#
# Indices 1 2 3 4 5 6 
#
# 1 48.7203 30.9352 27.0252 0.0000 0.0000 0.0000
# 2 30.9352 134.5748 38.9529 0.0000 0.0000 0.0000
# 3 27.0252 38.9529 134.0041 0.0000 0.0000 0.0000
# 4 0.0000 0.0000 0.0000 17.6642 0.0000 0.0000
# 5 0.0000 0.0000 0.0000 0.0000 10.2517 0.0000
# 6 0.0000 0.0000 0.0000 0.0000 0.0000 31.2218
#
#
#
# Elastic Compliance Matrix: (Units=1/GPa)
#
#
# Indices 1 2 3 4 5 6 
#
# 1 0.025675 -0.004808 -0.003780 0.000000 0.000000 0.000000
# 2 -0.004808 0.009014 -0.001651 0.000000 0.000000 0.000000
# 3 -0.003780 -0.001651 0.008705 0.000000 0.000000 0.000000
# 4 0.000000 0.000000 0.000000 0.056612 0.000000 0.000000
# 5 0.000000 0.000000 0.000000 0.000000 0.097545 0.000000
# 6 0.000000 0.000000 0.000000 0.000000 0.000000 0.032029
#
#
# Mechanical properties :
#
#
# Convention : Reuss Voigt Hill
#
# Bulk Modulus (GPa) = 43.63777 56.79174 50.21475
# Shear Modulus (GPa) = 19.40279 26.51995 22.96137
#
# Velocity S-wave (km/s) = 3.19197 3.73175 3.47237
# Velocity P-wave (km/s) = 6.04150 6.95630 6.51497
#
# Compressibility (1/GPa) = 0.02291593
#
# Stress axis : x y z
#
# Youngs Moduli (GPa) = 38.94835 110.94177 114.88090
#
# Poissons Ratio (x) = 0.53338 0.43430
# Poissons Ratio (y) = 0.18725 0.18962
# Poissons Ratio (z) = 0.14724 0.18312
#
# Static dielectric constant tensor:
#      x y z
#    x 1.685430 0.000000 0.000000 
#    y 0.000000 1.673760 0.000000 
#    z 0.000000 0.000000 1.670170 
# 
# From -- ./inp_files/15654.got.cif
#   From: 2010.05.17/outbox.cif.g08.bks.cpg/sg58_8_cif.got.tgz:15654.got - 2010.06.03 14:20:14.
