data_PCOD9443090
_publ_section_title
;
Structure prediction by ZEFSAII (Michael W. Deem and Ramdas Pophale) SiO2 
 PCOD9443090
Probable space group: P N N M
;
_chemical_formula_sum "Si O2"
_cell_formula_units_Z 48
_cell_length_a 7.368309
_cell_length_b 9.345720
_cell_length_c 29.376758
_cell_angle_alpha 90.000000
_cell_angle_beta 90.000000
_cell_angle_gamma 90.000000
_cell_volume 2022.946798
_symmetry_space_group_name_H-M "P N N M"
_symmetry_group_IT_number 58
_symmetry_cell_setting 'orthorhombic'
loop_
_space_group_symop_operation_xyz
x,y,z
-x,-y,z
1/2+x,1/2-y,1/2-z
1/2-x,1/2+y,1/2-z
-x,-y,-z
x,y,-z
1/2-x,1/2+y,1/2+z
1/2+x,1/2-y,1/2+z
loop_
_atom_site_type_symbol
_atom_site_label
_atom_site_fract_x
_atom_site_fract_y
_atom_site_fract_z
Si Si1 0.736648 0.393023 0.000000
Si Si2 0.679274 0.305509 0.815291
Si Si3 0.761868 0.299041 0.686474
Si Si4 0.231843 0.433911 0.751920
Si Si5 0.745688 0.388823 0.588077
Si Si6 0.665313 0.207431 0.086910
Si Si7 0.151388 0.294755 0.000000
O O1 0.664961 0.314296 0.044754
O O2 0.719583 0.564621 0.000000
O O3 0.949224 0.354336 0.000000
O O4 0.463955 0.268492 0.815038
O O5 0.695681 0.456733 0.790549
O O6 0.786217 0.186970 0.785388
O O7 0.729991 0.289919 0.867965
O O8 0.805799 0.441922 0.714983
O O9 0.641541 0.182417 0.713687
O O10 0.679318 0.339898 0.637896
O O11 0.723902 0.559130 0.580747
O O12 0.677464 0.300132 0.545019
O O13 0.959740 0.349438 0.591912
#
# Coordination Sequence:
#
# PCOD9443090 Si02
#       7
#     4   8   8   8   8   8   4
#     4  11  26  45  62  88 128 159 192 247 314 372
#     4  10  20  37  59  87 121 158 201 250 295 348
#     4  10  20  37  59  87 121 158 201 250 295 348
#     4  10  20  34  58  86 122 158 194 242 300 350
#     4  10  21  40  68  94 119 156 207 254 299 356
#     4  10  21  40  68  94 119 156 207 254 299 356
#     4  11  26  45  62  88 128 159 192 247 314 372
#
# _framework density 23.727762999999999
#
# number of rings (size 3 to 8) (size 9 to 14) (size 15 to 20)
#    0.000    1.833    1.667    2.000    2.333    4.000 
#    0.000   10.000    0.000    0.000    0.000    0.000 
#    0.000    0.000    0.000    0.000    0.000    0.000 
#
# Total GULP energy -267293.438216 kJ/mol
# GULP energy per Si atom -5568.613296 kJ/mol
# Density = 2.367376 g / cm^3
# Si number density = 23.727763 Si / 1000 Ang^3
#
#
#
# Elastic Constant Matrix: (Units=GPa)
#
#
# Indices 1 2 3 4 5 6 
#
# 1 37.4225 31.4809 15.4187 0.0000 0.0000 0.0000
# 2 31.4809 171.3834 105.1707 0.0000 0.0000 0.0000
# 3 15.4187 105.1707 228.3590 0.0000 0.0000 0.0000
# 4 0.0000 0.0000 0.0000 66.1342 0.0000 0.0000
# 5 0.0000 0.0000 0.0000 0.0000 56.6697 0.0000
# 6 0.0000 0.0000 0.0000 0.0000 0.0000 24.2182
#
#
#
# Elastic Compliance Matrix: (Units=1/GPa)
#
#
# Indices 1 2 3 4 5 6 
#
# 1 0.031699 -0.006286 0.000755 0.000000 0.000000 0.000000
# 2 -0.006286 0.009380 -0.003896 0.000000 0.000000 0.000000
# 3 0.000755 -0.003896 0.006122 0.000000 0.000000 0.000000
# 4 0.000000 0.000000 0.000000 0.015121 0.000000 0.000000
# 5 0.000000 0.000000 0.000000 0.000000 0.017646 0.000000
# 6 0.000000 0.000000 0.000000 0.000000 0.000000 0.041291
#
#
# Mechanical properties :
#
#
# Convention : Reuss Voigt Hill
#
# Bulk Modulus (GPa) = 35.27634 82.36727 58.82180
# Shear Modulus (GPa) = 33.43104 48.41072 40.92088
#
# Velocity S-wave (km/s) = 3.75766 4.52182 4.15733
# Velocity P-wave (km/s) = 5.80741 7.87726 6.92016
#
# Compressibility (1/GPa) = 0.02834761
#
# Stress axis : x y z
#
# Youngs Moduli (GPa) = 31.54703 106.60979 163.33965
#
# Poissons Ratio (x) = 0.67012 -0.12326
# Poissons Ratio (y) = 0.19830 0.63630
# Poissons Ratio (z) = -0.02381 0.41530
#
# Static dielectric constant tensor:
#      x y z
#    x 2.157480 0.000000 0.000000 
#    y 0.000000 1.857630 0.000000 
#    z 0.000000 0.000000 1.886280 
# 
# From -- ./inp_files/34643.got.cif
#   From: 2010.05.17/outbox.cif.g08.bks.cpg/sg58_18_cif.got.tgz:34643.got - 2010.06.03 14:20:14.
