data_PCOD9443689
_publ_section_title
;
Structure prediction by ZEFSAII (Michael W. Deem and Ramdas Pophale) SiO2 
 PCOD9443689
Probable space group: P N N M
;
_chemical_formula_sum "Si O2"
_cell_formula_units_Z 58
_cell_length_a 9.624094
_cell_length_b 31.637300
_cell_length_c 10.483635
_cell_angle_alpha 90.000000
_cell_angle_beta 90.000000
_cell_angle_gamma 90.000000
_cell_volume 3192.060845
_symmetry_space_group_name_H-M "P N N M"
_symmetry_group_IT_number 58
_symmetry_cell_setting 'orthorhombic'
loop_
_space_group_symop_operation_xyz
x,y,z
-x,-y,z
1/2+x,1/2-y,1/2-z
1/2-x,1/2+y,1/2-z
-x,-y,-z
x,y,-z
1/2-x,1/2+y,1/2+z
1/2+x,1/2-y,1/2+z
loop_
_atom_site_type_symbol
_atom_site_label
_atom_site_fract_x
_atom_site_fract_y
_atom_site_fract_z
Si Si1 0.500000 0.500000 0.500000
Si Si2 0.838536 0.506609 0.153868
Si Si3 0.372340 0.436109 0.711344
Si Si4 0.275470 0.164605 0.651290
Si Si5 0.402723 0.712439 0.646320
Si Si6 0.813599 0.159935 0.144199
Si Si7 0.407423 0.813114 0.645042
Si Si8 0.658471 0.426260 0.848505
O O1 0.426860 0.469862 0.609600
O O2 0.765375 0.546166 0.220706
O O3 0.751830 0.465344 0.197279
O O4 0.000000 0.500000 0.185084
O O5 0.827549 0.510822 0.000000
O O6 0.347169 0.389724 0.654740
O O7 0.499588 0.431801 0.810024
O O8 0.242484 0.171660 0.500000
O O9 0.204763 0.198131 0.745378
O O10 0.441419 0.166295 0.662590
O O11 0.217279 0.118975 0.693378
O O12 0.355422 0.703193 0.500000
O O13 0.545939 0.686888 0.665905
O O14 0.426404 0.762542 0.654574
O O15 0.701246 0.171750 0.250295
O O16 0.765081 0.169515 0.000000
O O17 0.359331 0.822622 0.500000
O O18 0.670248 0.426566 0.000000
#
# Coordination Sequence:
#
# PCOD9443689 Si02
#       8
#     2   8   8   8   8   8   8   8
#     4  12  24  40  64  88 120 168 210 254 296 360
#     4  10  22  38  61  91 121 152 189 248 311 361
#     4  12  22  40  64  87 120 163 209 249 303 364
#     4  10  21  38  61  90 119 157 202 252 305 363
#     4  10  21  40  62  89 119 160 206 251 304 368
#     4  11  24  40  63  92 125 161 207 253 306 373
#     4  10  23  40  61  88 125 160 199 253 314 366
#     4  10  20  37  61  89 116 152 201 247 297 357
#
# _framework density 18.170079999999999
#
# number of rings (size 3 to 8) (size 9 to 14) (size 15 to 20)
#    0.000    1.517    3.448    1.241    1.931    4.966 
#    0.000    0.345    3.034    0.000    0.000    0.000 
#    0.000    0.000    0.000    0.000    0.000    0.000 
#
# Total GULP energy -323208.870550 kJ/mol
# GULP energy per Si atom -5572.566734 kJ/mol
# Density = 1.812872 g / cm^3
# Si number density = 18.170080 Si / 1000 Ang^3
#
#
#
# Elastic Constant Matrix: (Units=GPa)
#
#
# Indices 1 2 3 4 5 6 
#
# 1 84.3655 32.0774 42.5202 0.0000 0.0000 0.0000
# 2 32.0774 66.9730 28.8491 0.0000 0.0000 0.0000
# 3 42.5202 28.8491 44.9150 0.0000 0.0000 0.0000
# 4 0.0000 0.0000 0.0000 33.7983 0.0000 0.0000
# 5 0.0000 0.0000 0.0000 0.0000 163.7948 0.0000
# 6 0.0000 0.0000 0.0000 0.0000 0.0000 19.1987
#
#
#
# Elastic Compliance Matrix: (Units=1/GPa)
#
#
# Indices 1 2 3 4 5 6 
#
# 1 0.022913 -0.002255 -0.020243 0.000000 0.000000 0.000000
# 2 -0.002255 0.020865 -0.011267 0.000000 0.000000 0.000000
# 3 -0.020243 -0.011267 0.048665 0.000000 0.000000 0.000000
# 4 0.000000 0.000000 0.000000 0.029587 0.000000 0.000000
# 5 0.000000 0.000000 0.000000 0.000000 0.006105 0.000000
# 6 0.000000 0.000000 0.000000 0.000000 0.000000 0.052087
#
#
# Mechanical properties :
#
#
# Convention : Reuss Voigt Hill
#
# Bulk Modulus (GPa) = 40.13973 44.79410 42.46692
# Shear Modulus (GPa) = 19.52700 49.54548 34.53624
#
# Velocity S-wave (km/s) = 3.28179 5.22751 4.36445
# Velocity P-wave (km/s) = 6.04146 7.81933 6.98717
#
# Compressibility (1/GPa) = 0.02491297
#
# Stress axis : x y z
#
# Youngs Moduli (GPa) = 43.64344 47.92806 20.54865
#
# Poissons Ratio (x) = 0.10806 0.41597
# Poissons Ratio (y) = 0.09840 0.23152
# Poissons Ratio (z) = 0.88348 0.54001
#
# Static dielectric constant tensor:
#      x y z
#    x 1.585650 0.000000 0.000000 
#    y 0.000000 1.637740 0.000000 
#    z 0.000000 0.000000 1.618460 
# 
# From -- ./inp_files/13307.got.cif
#   From: 2010.05.17/outbox.cif.g08.bks.cpg/sg58_7_cif.got.tgz:13307.got - 2010.06.03 14:20:14.
