data_PCOD9443061
_publ_section_title
;
Structure prediction by ZEFSAII (Michael W. Deem and Ramdas Pophale) SiO2 
 PCOD9443061
Probable space group: P N N M
;
_chemical_formula_sum "Si O2"
_cell_formula_units_Z 40
_cell_length_a 8.697376
_cell_length_b 9.196120
_cell_length_c 21.547539
_cell_angle_alpha 90.000000
_cell_angle_beta 90.000000
_cell_angle_gamma 90.000000
_cell_volume 1723.417707
_symmetry_space_group_name_H-M "P N N M"
_symmetry_group_IT_number 58
_symmetry_cell_setting 'orthorhombic'
loop_
_space_group_symop_operation_xyz
x,y,z
-x,-y,z
1/2+x,1/2-y,1/2-z
1/2-x,1/2+y,1/2-z
-x,-y,-z
x,y,-z
1/2-x,1/2+y,1/2+z
1/2+x,1/2-y,1/2+z
loop_
_atom_site_type_symbol
_atom_site_label
_atom_site_fract_x
_atom_site_fract_y
_atom_site_fract_z
Si Si1 0.896567 0.695963 0.125504
Si Si2 0.872626 0.127157 0.933477
Si Si3 0.658185 0.946437 0.139886
Si Si4 0.168472 0.008410 0.676357
Si Si5 0.133303 0.732357 0.763969
O O1 0.757768 0.810712 0.114293
O O2 0.809227 0.545489 0.134116
O O3 0.028663 0.727815 0.076290
O O4 0.987077 0.729869 0.190150
O O5 0.770441 0.081741 0.874646
O O6 0.790358 0.128102 0.000000
O O7 0.000000 0.000000 0.935418
O O8 0.615203 0.884147 0.207655
O O9 0.500000 0.000000 0.110060
O O10 0.156134 0.888966 0.732067
O O11 0.217527 0.164205 0.701952
O O12 0.000000 0.000000 0.646491
#
# Coordination Sequence:
#
# PCOD9443061 Si02
#       5
#     8   8   8   8   8
#     4  10  21  34  54  83 118 160 199 243 307 371
#     4   9  19  38  62  87 118 160 210 258 304 360
#     4  10  20  34  56  87 121 153 195 253 304 353
#     4  11  22  35  54  82 119 157 201 250 302 369
#     4  11  22  37  57  86 124 163 200 243 311 386
#
# _framework density 23.209696000000001
#
# number of rings (size 3 to 8) (size 9 to 14) (size 15 to 20)
#    0.000    1.800    0.000    5.400    0.000   10.000 
#    0.000    0.000    0.000    3.000    0.000    0.000 
#    0.000    0.000    0.000    0.000    0.000    0.000 
#
# Total GULP energy -223024.018319 kJ/mol
# GULP energy per Si atom -5575.600458 kJ/mol
# Density = 2.315687 g / cm^3
# Si number density = 23.209696 Si / 1000 Ang^3
#
#
#
# Elastic Constant Matrix: (Units=GPa)
#
#
# Indices 1 2 3 4 5 6 
#
# 1 100.5658 34.2109 12.2789 0.0000 0.0000 0.0000
# 2 34.2109 91.0862 32.3150 0.0000 0.0000 0.0000
# 3 12.2789 32.3150 57.7253 0.0000 0.0000 0.0000
# 4 0.0000 0.0000 0.0000 3.8935 0.0000 0.0000
# 5 0.0000 0.0000 0.0000 0.0000 6.6759 0.0000
# 6 0.0000 0.0000 0.0000 0.0000 0.0000 47.3827
#
#
#
# Elastic Compliance Matrix: (Units=1/GPa)
#
#
# Indices 1 2 3 4 5 6 
#
# 1 0.011400 -0.004269 -0.000035 0.000000 0.000000 0.000000
# 2 -0.004269 0.015298 -0.007656 0.000000 0.000000 0.000000
# 3 -0.000035 -0.007656 0.021617 0.000000 0.000000 0.000000
# 4 0.000000 0.000000 0.000000 0.256841 0.000000 0.000000
# 5 0.000000 0.000000 0.000000 0.000000 0.149794 0.000000
# 6 0.000000 0.000000 0.000000 0.000000 0.000000 0.021105
#
#
# Mechanical properties :
#
#
# Convention : Reuss Voigt Hill
#
# Bulk Modulus (GPa) = 40.99241 45.22075 43.10658
# Shear Modulus (GPa) = 9.84045 22.96191 16.40118
#
# Velocity S-wave (km/s) = 2.06131 3.14876 2.66118
# Velocity P-wave (km/s) = 4.83378 5.72237 5.29674
#
# Compressibility (1/GPa) = 0.02439476
#
# Stress axis : x y z
#
# Youngs Moduli (GPa) = 87.71617 65.36678 46.26056
#
# Poissons Ratio (x) = 0.27908 0.00162
# Poissons Ratio (y) = 0.37450 0.35417
# Poissons Ratio (z) = 0.00306 0.50044
#
# Static dielectric constant tensor:
#      x y z
#    x 1.928400 0.000000 0.000000 
#    y 0.000000 1.947300 0.000000 
#    z 0.000000 0.000000 1.896040 
# 
# From -- ./inp_files/31277.got.cif
#   From: 2010.05.17/outbox.cif.g08.bks.cpg/sg58_16_cif.got.tgz:31277.got - 2010.06.03 14:20:14.
