data_PCOD9443535
_publ_section_title
;
Structure prediction by ZEFSAII (Michael W. Deem and Ramdas Pophale) SiO2 
 PCOD9443535
Probable space group: P N N M
;
_chemical_formula_sum "Si O2"
_cell_formula_units_Z 40
_cell_length_a 14.651710
_cell_length_b 10.721715
_cell_length_c 12.750176
_cell_angle_alpha 90.000000
_cell_angle_beta 90.000000
_cell_angle_gamma 90.000000
_cell_volume 2002.943749
_symmetry_space_group_name_H-M "P N N M"
_symmetry_group_IT_number 58
_symmetry_cell_setting 'orthorhombic'
loop_
_space_group_symop_operation_xyz
x,y,z
-x,-y,z
1/2+x,1/2-y,1/2-z
1/2-x,1/2+y,1/2-z
-x,-y,-z
x,y,-z
1/2-x,1/2+y,1/2+z
1/2+x,1/2-y,1/2+z
loop_
_atom_site_type_symbol
_atom_site_label
_atom_site_fract_x
_atom_site_fract_y
_atom_site_fract_z
Si Si1 0.787981 0.868381 0.381349
Si Si2 0.171151 0.424617 0.382036
Si Si3 0.520806 0.699261 0.381144
Si Si4 0.587250 0.939392 0.311664
Si Si5 0.859212 0.957736 0.830967
O O1 0.818144 0.891039 0.500000
O O2 0.795477 0.718325 0.362315
O O3 0.684394 0.918728 0.367811
O O4 0.846631 0.937102 0.292886
O O5 0.132724 0.428286 0.500000
O O6 0.106701 0.477371 0.290846
O O7 0.259804 0.514390 0.376582
O O8 0.540490 0.742681 0.500000
O O9 0.551647 0.799064 0.295773
O O10 0.580416 0.576551 0.361082
O O11 0.415274 0.660681 0.372614
O O12 0.500000 0.000000 0.369243
#
# Coordination Sequence:
#
# PCOD9443535 Si02
#       5
#     8   8   8   8   8
#     4  10  21  39  61  84 120 159 191 239 300 349
#     4  10  20  39  63  85 117 161 199 237 295 354
#     4  11  21  37  61  88 119 152 191 244 301 345
#     4  11  23  37  59  90 121 152 197 246 290 351
#     4  10  20  36  61  87 114 150 203 241 283 357
#
# _framework density 19.970606
#
# number of rings (size 3 to 8) (size 9 to 14) (size 15 to 20)
#    0.000    1.600    2.000    4.200    0.000    2.000 
#    0.000    4.000    0.000    0.000    0.000    0.000 
#    0.000    0.000    0.000    0.000    0.000    0.000 
#
# Total GULP energy -222976.864674 kJ/mol
# GULP energy per Si atom -5574.421617 kJ/mol
# Density = 1.992515 g / cm^3
# Si number density = 19.970606 Si / 1000 Ang^3
#
#
#
# Elastic Constant Matrix: (Units=GPa)
#
#
# Indices 1 2 3 4 5 6 
#
# 1 69.0509 11.0287 28.0221 0.0000 0.0000 0.0000
# 2 11.0287 38.4204 43.8900 0.0000 0.0000 0.0000
# 3 28.0221 43.8900 131.2105 0.0000 0.0000 0.0000
# 4 0.0000 0.0000 0.0000 32.9214 0.0000 0.0000
# 5 0.0000 0.0000 0.0000 0.0000 9.2315 0.0000
# 6 0.0000 0.0000 0.0000 0.0000 0.0000 39.1703
#
#
#
# Elastic Compliance Matrix: (Units=1/GPa)
#
#
# Indices 1 2 3 4 5 6 
#
# 1 0.015885 -0.001108 -0.003022 0.000000 0.000000 0.000000
# 2 -0.001108 0.042202 -0.013880 0.000000 0.000000 0.000000
# 3 -0.003022 -0.013880 0.012910 0.000000 0.000000 0.000000
# 4 0.000000 0.000000 0.000000 0.030375 0.000000 0.000000
# 5 0.000000 0.000000 0.000000 0.000000 0.108325 0.000000
# 6 0.000000 0.000000 0.000000 0.000000 0.000000 0.025530
#
#
# Mechanical properties :
#
#
# Convention : Reuss Voigt Hill
#
# Bulk Modulus (GPa) = 28.58996 44.95150 36.77073
# Shear Modulus (GPa) = 17.67378 26.64736 22.16057
#
# Velocity S-wave (km/s) = 2.97810 3.65681 3.33477
# Velocity P-wave (km/s) = 5.11591 6.35511 5.76888
#
# Compressibility (1/GPa) = 0.03497731
#
# Stress axis : x y z
#
# Youngs Moduli (GPa) = 62.95086 23.69579 77.46188
#
# Poissons Ratio (x) = 0.02625 0.23409
# Poissons Ratio (y) = 0.06973 1.07516
# Poissons Ratio (z) = 0.19024 0.32889
#
# Static dielectric constant tensor:
#      x y z
#    x 1.745350 0.000000 0.000000 
#    y 0.000000 1.745320 0.000000 
#    z 0.000000 0.000000 1.696710 
# 
# From -- ./inp_files/14101.got.cif
#   From: 2010.05.17/outbox.cif.g08.bks.cpg/sg58_8_cif.got.tgz:14101.got - 2010.06.03 14:20:14.
