data_PCOD9443132
_publ_section_title
;
Structure prediction by ZEFSAII (Michael W. Deem and Ramdas Pophale) SiO2 
 PCOD9443132
Probable space group: P N N M
;
_chemical_formula_sum "Si O2"
_cell_formula_units_Z 64
_cell_length_a 19.404129
_cell_length_b 23.710729
_cell_length_c 8.796982
_cell_angle_alpha 90.000000
_cell_angle_beta 90.000000
_cell_angle_gamma 90.000000
_cell_volume 4047.368649
_symmetry_space_group_name_H-M "P N N M"
_symmetry_group_IT_number 58
_symmetry_cell_setting 'orthorhombic'
loop_
_space_group_symop_operation_xyz
x,y,z
-x,-y,z
1/2+x,1/2-y,1/2-z
1/2-x,1/2+y,1/2-z
-x,-y,-z
x,y,-z
1/2-x,1/2+y,1/2+z
1/2+x,1/2-y,1/2+z
loop_
_atom_site_type_symbol
_atom_site_label
_atom_site_fract_x
_atom_site_fract_y
_atom_site_fract_z
Si Si1 0.360229 0.437579 0.681169
Si Si2 0.996908 0.117061 0.682216
Si Si3 0.144761 0.061783 0.682271
Si Si4 0.355631 0.227306 0.681125
Si Si5 0.720829 0.664077 0.817710
Si Si6 0.001377 0.749633 0.319272
Si Si7 0.233472 0.160015 0.817954
Si Si8 0.143195 0.270739 0.181212
O O1 0.356928 0.439555 0.500000
O O2 0.434140 0.413077 0.733786
O O3 0.350885 0.499394 0.750740
O O4 0.303938 0.394068 0.746251
O O5 0.986011 0.111917 0.500000
O O6 0.999221 0.183448 0.719632
O O7 0.069697 0.088181 0.719654
O O8 0.150742 0.060435 0.500000
O O9 0.201999 0.103085 0.751609
O O10 0.351045 0.229933 0.500000
O O11 0.326624 0.285691 0.752092
O O12 0.434045 0.221890 0.735191
O O13 0.305660 0.178825 0.745275
O O14 0.799397 0.682051 0.783778
O O15 0.712215 0.663044 0.000000
O O16 0.010365 0.744903 0.500000
O O17 0.928202 0.724905 0.268553
O O18 0.180098 0.211047 0.781684
O O19 0.239930 0.157450 0.000000
O O20 0.130542 0.271361 0.000000
#
# Coordination Sequence:
#
# PCOD9443132 Si02
#       8
#     8   8   8   8   8   8   8   8
#     4  12  24  35  51  75 102 139 180 219 258 304
#     4  10  21  35  50  71 103 141 179 215 253 301
#     4  11  22  37  54  73 101 140 180 218 258 306
#     4  11  21  33  52  76 103 135 172 212 258 310
#     4  10  20  36  53  73 101 135 172 216 262 306
#     4  11  20  32  52  77 106 138 171 210 258 308
#     4  10  20  35  53  75 103 134 171 216 260 306
#     4   9  19  33  52  75 102 132 167 211 260 308
#
# _framework density 15.812742
#
# number of rings (size 3 to 8) (size 9 to 14) (size 15 to 20)
#    0.000    1.500    2.500    4.875    0.000    5.500 
#    0.000    0.000    0.000    0.000    0.000    0.875 
#    0.000    7.000    0.000    0.000    0.000    0.000 
#
# Total GULP energy -357547.173160 kJ/mol
# GULP energy per Si atom -5586.674581 kJ/mol
# Density = 1.577675 g / cm^3
# Si number density = 15.812742 Si / 1000 Ang^3
#
#
#
# Elastic Constant Matrix: (Units=GPa)
#
#
# Indices 1 2 3 4 5 6 
#
# 1 117.4900 59.5820 58.8188 0.0000 0.0000 0.0000
# 2 59.5820 87.1477 42.1522 0.0000 0.0000 0.0000
# 3 58.8188 42.1522 73.0524 0.0000 0.0000 0.0000
# 4 0.0000 0.0000 0.0000 24.2171 0.0000 0.0000
# 5 0.0000 0.0000 0.0000 0.0000 28.9264 0.0000
# 6 0.0000 0.0000 0.0000 0.0000 0.0000 19.8481
#
#
#
# Elastic Compliance Matrix: (Units=1/GPa)
#
#
# Indices 1 2 3 4 5 6 
#
# 1 0.016760 -0.006841 -0.009547 0.000000 0.000000 0.000000
# 2 -0.006841 0.018709 -0.005288 0.000000 0.000000 0.000000
# 3 -0.009547 -0.005288 0.024427 0.000000 0.000000 0.000000
# 4 0.000000 0.000000 0.000000 0.041293 0.000000 0.000000
# 5 0.000000 0.000000 0.000000 0.000000 0.034570 0.000000
# 6 0.000000 0.000000 0.000000 0.000000 0.000000 0.050383
#
#
# Mechanical properties :
#
#
# Convention : Reuss Voigt Hill
#
# Bulk Modulus (GPa) = 60.44149 66.53288 63.48719
# Shear Modulus (GPa) = 21.27576 22.40745 21.84161
#
# Velocity S-wave (km/s) = 3.67206 3.76846 3.72057
# Velocity P-wave (km/s) = 7.50233 7.81677 7.66116
#
# Compressibility (1/GPa) = 0.01654493
#
# Stress axis : x y z
#
# Youngs Moduli (GPa) = 59.66514 53.44927 40.93841
#
# Poissons Ratio (x) = 0.36564 0.39085
# Poissons Ratio (y) = 0.40816 0.21646
# Poissons Ratio (z) = 0.56964 0.28262
#
# Static dielectric constant tensor:
#      x y z
#    x 1.521680 0.000000 0.000000 
#    y 0.000000 1.503530 0.000000 
#    z 0.000000 0.000000 1.523140 
# 
# From -- ./inp_files/8237.got.cif
#   From: 2010.05.17/outbox.cif.g08.bks.cpg/sg58_5_cif.got.tgz:8237.got - 2010.06.03 14:20:14.
