data_PCOD9443282
_publ_section_title
;
Structure prediction by ZEFSAII (Michael W. Deem and Ramdas Pophale) SiO2 
 PCOD9443282
Probable space group: P N N M
;
_chemical_formula_sum "Si O2"
_cell_formula_units_Z 34
_cell_length_a 18.844407
_cell_length_b 6.953750
_cell_length_c 10.014523
_cell_angle_alpha 90.000000
_cell_angle_beta 90.000000
_cell_angle_gamma 90.000000
_cell_volume 1312.296035
_symmetry_space_group_name_H-M "P N N M"
_symmetry_group_IT_number 58
_symmetry_cell_setting 'orthorhombic'
loop_
_space_group_symop_operation_xyz
x,y,z
-x,-y,z
1/2+x,1/2-y,1/2-z
1/2-x,1/2+y,1/2-z
-x,-y,-z
x,y,-z
1/2-x,1/2+y,1/2+z
1/2+x,1/2-y,1/2+z
loop_
_atom_site_type_symbol
_atom_site_label
_atom_site_fract_x
_atom_site_fract_y
_atom_site_fract_z
Si Si1 0.693217 0.432772 0.000000
Si Si2 0.853540 0.400436 0.000000
Si Si3 0.500000 0.000000 0.000000
Si Si4 0.421567 0.498691 0.208498
Si Si5 0.878758 0.453702 0.709070
Si Si6 0.766167 0.384180 0.500000
Si Si7 0.398194 0.527070 0.500000
O O1 0.641872 0.402206 0.873353
O O2 0.714818 0.658367 0.000000
O O3 0.770416 0.337701 0.000000
O O4 0.870093 0.509312 0.137158
O O5 0.899059 0.205788 0.000000
O O6 0.559846 0.039968 0.882476
O O7 0.500000 0.500000 0.145408
O O8 0.398246 0.275039 0.210599
O O9 0.429182 0.583082 0.357012
O O10 0.804677 0.469933 0.630410
O O11 0.683512 0.413475 0.500000
#
# Coordination Sequence:
#
# PCOD9443282 Si02
#       7
#     4   4   2   8   8   4   4
#     4  10  20  35  58  80 118 146 185 243 278 331
#     4  10  20  37  56  88 109 147 190 236 286 320
#     4  10  20  40  54  78 104 158 176 206 302 336
#     4  10  20  37  57  82 114 151 189 231 281 331
#     4   9  20  37  58  77 120 145 181 239 279 333
#     4   9  18  37  55  79 112 155 181 228 292 328
#     4  10  20  36  59  82 115 150 189 235 280 339
#
# _framework density 25.908788999999999
#
# number of rings (size 3 to 8) (size 9 to 14) (size 15 to 20)
#    0.000    2.353    0.000    2.824    0.000    0.471 
#   12.706    0.000    0.000    0.000    0.000    0.000 
#    0.000    0.000    0.000    0.000    0.000    0.000 
#
# Total GULP energy -189846.730772 kJ/mol
# GULP energy per Si atom -5583.727376 kJ/mol
# Density = 2.584982 g / cm^3
# Si number density = 25.908789 Si / 1000 Ang^3
#
#
#
# Elastic Constant Matrix: (Units=GPa)
#
#
# Indices 1 2 3 4 5 6 
#
# 1 147.8565 -3.0542 70.4129 0.0000 0.0000 0.0000
# 2 -3.0542 79.1444 0.6757 0.0000 0.0000 0.0000
# 3 70.4129 0.6757 241.4701 0.0000 0.0000 0.0000
# 4 0.0000 0.0000 0.0000 -18.1706 0.0000 0.0000
# 5 0.0000 0.0000 0.0000 0.0000 20.5763 0.0000
# 6 0.0000 0.0000 0.0000 0.0000 0.0000 26.4927
#
#
#
# Elastic Compliance Matrix: (Units=1/GPa)
#
#
# Indices 1 2 3 4 5 6 
#
# 1 0.007862 0.000323 -0.002294 0.000000 0.000000 0.000000
# 2 0.000323 0.012649 -0.000130 0.000000 0.000000 0.000000
# 3 -0.002294 -0.000130 0.004810 0.000000 0.000000 0.000000
# 4 0.000000 0.000000 0.000000 -0.055034 0.000000 0.000000
# 5 0.000000 0.000000 0.000000 0.000000 0.048600 0.000000
# 6 0.000000 0.000000 0.000000 0.000000 0.000000 0.037746
#
#
# Mechanical properties :
#
#
# Convention : Reuss Voigt Hill
#
# Bulk Modulus (GPa) = 47.34594 67.17108 57.25851
# Shear Modulus (GPa) = 73.66597 32.47545 53.07071
#
# Velocity S-wave (km/s) = 5.33803 3.54425 4.53080
# Velocity P-wave (km/s) = 7.50376 6.53691 7.03696
#
# Compressibility (1/GPa) = 0.02112114
#
# Stress axis : x y z
#
# Youngs Moduli (GPa) = 127.19046 79.05946 207.88036
#
# Poissons Ratio (x) = -0.02553 0.47678
# Poissons Ratio (y) = -0.04108 0.02694
# Poissons Ratio (z) = 0.29172 0.01024
#
# Static dielectric constant tensor:
#      x y z
#    x 1.925830 0.000000 0.000000 
#    y 0.000000 2.113230 0.000000 
#    z 0.000000 0.000000 2.017100 
# 
# From -- ./inp_files/2328.got.cif
#   From: 2010.05.17/outbox.cif.g08.bks.cpg/sg58_2_cif.got.tgz:2328.got - 2010.06.03 14:20:14.
