data_PCOD9443926
_publ_section_title
;
Structure prediction by ZEFSAII (Michael W. Deem and Ramdas Pophale) SiO2 
 PCOD9443926
Probable space group: P N N M
;
_chemical_formula_sum "Si O2"
_cell_formula_units_Z 40
_cell_length_a 7.975365
_cell_length_b 18.372779
_cell_length_c 12.736338
_cell_angle_alpha 90.000000
_cell_angle_beta 90.000000
_cell_angle_gamma 90.000000
_cell_volume 1866.250749
_symmetry_space_group_name_H-M "P N N M"
_symmetry_group_IT_number 58
_symmetry_cell_setting 'orthorhombic'
loop_
_space_group_symop_operation_xyz
x,y,z
-x,-y,z
1/2+x,1/2-y,1/2-z
1/2-x,1/2+y,1/2-z
-x,-y,-z
x,y,-z
1/2-x,1/2+y,1/2+z
1/2+x,1/2-y,1/2+z
loop_
_atom_site_type_symbol
_atom_site_label
_atom_site_fract_x
_atom_site_fract_y
_atom_site_fract_z
Si Si1 0.306422 0.412275 0.382664
Si Si2 0.803456 0.923078 0.831733
Si Si3 0.885133 0.681635 0.209051
Si Si4 0.630955 0.933393 0.380552
Si Si5 0.605711 0.777262 0.883930
O O1 0.268555 0.384332 0.500000
O O2 0.505721 0.405512 0.361978
O O3 0.263577 0.497988 0.379299
O O4 0.209032 0.372558 0.289432
O O5 0.774683 0.933337 0.707107
O O6 0.679970 0.859073 0.869513
O O7 0.758323 0.722886 0.134715
O O8 0.021911 0.638428 0.142256
O O9 0.977095 0.736132 0.289451
O O10 0.691543 0.936390 0.500000
O O11 0.500000 0.000000 0.364334
O O12 0.535246 0.768594 0.000000
#
# Coordination Sequence:
#
# PCOD9443926 Si02
#       5
#     8   8   8   8   8
#     4  11  21  38  62  89 121 157 194 251 303 352
#     4  10  21  38  61  91 120 153 201 244 298 362
#     4  11  23  40  61  91 120 159 204 247 295 367
#     4  10  20  39  61  86 121 160 201 247 298 350
#     4  11  23  40  61  88 121 159 197 249 304 357
#
# _framework density 21.433349
#
# number of rings (size 3 to 8) (size 9 to 14) (size 15 to 20)
#    0.000    1.400    2.000    4.800    0.000    0.000 
#    0.000   20.000    0.000    0.000    0.000    0.000 
#    0.000    0.000    0.000    0.000    0.000    0.000 
#
# Total GULP energy -223662.503023 kJ/mol
# GULP energy per Si atom -5591.562576 kJ/mol
# Density = 2.138457 g / cm^3
# Si number density = 21.433349 Si / 1000 Ang^3
#
#
#
# Elastic Constant Matrix: (Units=GPa)
#
#
# Indices 1 2 3 4 5 6 
#
# 1 23.0769 0.9271 3.4181 0.0000 0.0000 0.0000
# 2 0.9271 35.3976 7.3187 0.0000 0.0000 0.0000
# 3 3.4181 7.3187 125.6493 0.0000 0.0000 0.0000
# 4 0.0000 0.0000 0.0000 16.4361 0.0000 0.0000
# 5 0.0000 0.0000 0.0000 0.0000 -2.8765 0.0000
# 6 0.0000 0.0000 0.0000 0.0000 0.0000 32.1793
#
#
#
# Elastic Compliance Matrix: (Units=1/GPa)
#
#
# Indices 1 2 3 4 5 6 
#
# 1 0.043537 -0.000906 -0.001132 0.000000 0.000000 0.000000
# 2 -0.000906 0.028614 -0.001642 0.000000 0.000000 0.000000
# 3 -0.001132 -0.001642 0.008085 0.000000 0.000000 0.000000
# 4 0.000000 0.000000 0.000000 0.060842 0.000000 0.000000
# 5 0.000000 0.000000 0.000000 0.000000 -0.347640 0.000000
# 6 0.000000 0.000000 0.000000 0.000000 0.000000 0.031076
#
#
# Mechanical properties :
#
#
# Convention : Reuss Voigt Hill
#
# Bulk Modulus (GPa) = 13.72190 23.05020 18.38605
# Shear Modulus (GPa) = -34.76221 20.64510 -7.05856
#
# Velocity S-wave (km/s) = -4.03162 3.10695 -1.81670
# Velocity P-wave (km/s) = 3.90588 4.86298 2.04849
#
# Compressibility (1/GPa) = 0.07287623
#
# Stress axis : x y z
#
# Youngs Moduli (GPa) = 22.96880 34.94824 123.68456
#
# Poissons Ratio (x) = 0.03168 0.13996
# Poissons Ratio (y) = 0.02082 0.20309
# Poissons Ratio (z) = 0.02599 0.05739
#
# Static dielectric constant tensor:
#      x y z
#    x 1.763750 0.000000 0.000000 
#    y 0.000000 1.781770 0.000000 
#    z 0.000000 0.000000 1.747090 
# 
# From -- ./inp_files/12671.got.cif
#   From: 2010.05.17/outbox.cif.g08.bks.cpg/sg58_7_cif.got.tgz:12671.got - 2010.06.03 14:20:14.
