data_PCOD9443274
_publ_section_title
;
Structure prediction by ZEFSAII (Michael W. Deem and Ramdas Pophale) SiO2 
 PCOD9443274
Probable space group: P N N M
;
_chemical_formula_sum "Si O2"
_cell_formula_units_Z 64
_cell_length_a 24.228130
_cell_length_b 14.988068
_cell_length_c 8.913936
_cell_angle_alpha 90.000000
_cell_angle_beta 90.000000
_cell_angle_gamma 90.000000
_cell_volume 3236.943073
_symmetry_space_group_name_H-M "P N N M"
_symmetry_group_IT_number 58
_symmetry_cell_setting 'orthorhombic'
loop_
_space_group_symop_operation_xyz
x,y,z
-x,-y,z
1/2+x,1/2-y,1/2-z
1/2-x,1/2+y,1/2-z
-x,-y,-z
x,y,-z
1/2-x,1/2+y,1/2+z
1/2+x,1/2-y,1/2+z
loop_
_atom_site_type_symbol
_atom_site_label
_atom_site_fract_x
_atom_site_fract_y
_atom_site_fract_z
Si Si1 0.589519 0.254053 0.820291
Si Si2 0.706927 0.278120 0.677739
Si Si3 0.447611 0.939182 0.180653
Si Si4 0.148599 0.917819 0.826640
Si Si5 0.856246 0.440927 0.173365
Si Si6 0.272381 0.538653 0.829712
Si Si7 0.665627 0.754323 0.820951
Si Si8 0.050642 0.060302 0.823574
O O1 0.652311 0.241806 0.759044
O O2 0.553897 0.165889 0.779279
O O3 0.564495 0.346209 0.755657
O O4 0.591700 0.260644 0.000000
O O5 0.701123 0.264621 0.500000
O O6 0.709047 0.383229 0.717975
O O7 0.768913 0.247554 0.723318
O O8 0.500000 0.000000 0.224830
O O9 0.395313 0.985967 0.255262
O O10 0.443243 0.943771 0.000000
O O11 0.131839 0.822196 0.763208
O O12 0.197891 0.949838 0.720877
O O13 0.102449 0.993601 0.814273
O O14 0.165126 0.910490 0.000000
O O15 0.792902 0.472343 0.176741
O O16 0.856335 0.349826 0.267648
O O17 0.870923 0.423479 0.000000
O O18 0.287774 0.564028 0.000000
O O19 0.662254 0.746480 0.000000
O O20 0.039995 0.079449 0.000000
O O21 0.000000 0.000000 0.764517
#
# Coordination Sequence:
#
# PCOD9443274 Si02
#       8
#     8   8   8   8   8   8   8   8
#     4  11  23  39  63  92 119 157 204 256 309 366
#     4  10  20  36  58  86 121 161 202 248 306 366
#     4  10  24  45  65  89 123 163 210 261 314 370
#     4  11  22  36  58  89 125 165 206 251 305 367
#     4  10  22  40  62  90 122 160 208 257 309 371
#     4  10  20  35  57  87 124 159 197 250 305 366
#     4  10  22  38  59  88 127 170 206 252 312 372
#     4  10  23  43  64  89 124 165 206 254 308 366
#
# _framework density 19.771742
#
# number of rings (size 3 to 8) (size 9 to 14) (size 15 to 20)
#    0.000    1.750    1.250    2.250    1.750    6.000 
#    0.000    2.500    0.000    0.000    0.000    0.000 
#    0.000    0.000    0.000    0.000    0.000    0.000 
#
# Total GULP energy -357284.464625 kJ/mol
# GULP energy per Si atom -5582.569760 kJ/mol
# Density = 1.972674 g / cm^3
# Si number density = 19.771742 Si / 1000 Ang^3
#
#
#
# Elastic Constant Matrix: (Units=GPa)
#
#
# Indices 1 2 3 4 5 6 
#
# 1 34.4995 44.0419 27.9797 0.0000 0.0000 0.0000
# 2 44.0419 105.0329 34.5003 0.0000 0.0000 0.0000
# 3 27.9797 34.5003 42.2383 0.0000 0.0000 0.0000
# 4 0.0000 0.0000 0.0000 27.7991 0.0000 0.0000
# 5 0.0000 0.0000 0.0000 0.0000 21.0988 0.0000
# 6 0.0000 0.0000 0.0000 0.0000 0.0000 23.4473
#
#
#
# Elastic Compliance Matrix: (Units=1/GPa)
#
#
# Indices 1 2 3 4 5 6 
#
# 1 0.098779 -0.027233 -0.043190 0.000000 0.000000 0.000000
# 2 -0.027233 0.020520 0.001279 0.000000 0.000000 0.000000
# 3 -0.043190 0.001279 0.051241 0.000000 0.000000 0.000000
# 4 0.000000 0.000000 0.000000 0.035972 0.000000 0.000000
# 5 0.000000 0.000000 0.000000 0.000000 0.047396 0.000000
# 6 0.000000 0.000000 0.000000 0.000000 0.000000 0.042649
#
#
# Mechanical properties :
#
#
# Convention : Reuss Voigt Hill
#
# Bulk Modulus (GPa) = 31.00576 43.86828 37.43702
# Shear Modulus (GPa) = 11.22095 19.48563 15.35329
#
# Velocity S-wave (km/s) = 2.38486 3.14272 2.78965
# Velocity P-wave (km/s) = 4.82694 5.95016 5.41774
#
# Compressibility (1/GPa) = 0.03225207
#
# Stress axis : x y z
#
# Youngs Moduli (GPa) = 10.12358 48.73320 19.51581
#
# Poissons Ratio (x) = 1.32715 0.84289
# Poissons Ratio (y) = 0.27570 -0.02496
# Poissons Ratio (z) = 0.43724 -0.06234
#
# Static dielectric constant tensor:
#      x y z
#    x 1.724860 0.000000 0.000000 
#    y 0.000000 1.694820 0.000000 
#    z 0.000000 0.000000 1.668650 
# 
# From -- ./inp_files/10049.got.cif
#   From: 2010.05.17/outbox.cif.g08.bks.cpg/sg58_6_cif.got.tgz:10049.got - 2010.06.03 14:20:14.
