data_PCOD9443569
_publ_section_title
;
Structure prediction by ZEFSAII (Michael W. Deem and Ramdas Pophale) SiO2 
 PCOD9443569
Probable space group: P N N M
;
_chemical_formula_sum "Si O2"
_cell_formula_units_Z 36
_cell_length_a 9.720166
_cell_length_b 14.225091
_cell_length_c 14.004703
_cell_angle_alpha 90.000000
_cell_angle_beta 90.000000
_cell_angle_gamma 90.000000
_cell_volume 1936.433727
_symmetry_space_group_name_H-M "P N N M"
_symmetry_group_IT_number 58
_symmetry_cell_setting 'orthorhombic'
loop_
_space_group_symop_operation_xyz
x,y,z
-x,-y,z
1/2+x,1/2-y,1/2-z
1/2-x,1/2+y,1/2-z
-x,-y,-z
x,y,-z
1/2-x,1/2+y,1/2+z
1/2+x,1/2-y,1/2+z
loop_
_atom_site_type_symbol
_atom_site_label
_atom_site_fract_x
_atom_site_fract_y
_atom_site_fract_z
Si Si1 0.687103 0.324051 0.205918
Si Si2 0.365248 0.317163 0.194622
Si Si3 0.810018 0.763037 0.500000
Si Si4 0.072904 0.897542 0.500000
Si Si5 0.159014 0.991960 0.178599
Si Si6 0.656134 0.035745 0.000000
O O1 0.527092 0.292471 0.203787
O O2 0.770689 0.272163 0.288894
O O3 0.750893 0.298765 0.101871
O O4 0.680744 0.432876 0.236333
O O5 0.346355 0.374249 0.096324
O O6 0.326371 0.388828 0.278154
O O7 0.830025 0.650361 0.500000
O O8 0.953828 0.818988 0.500000
O O9 0.000000 0.000000 0.500000
O O10 0.264546 0.002622 0.092804
O O11 0.000000 0.000000 0.145907
O O12 0.500000 0.000000 0.000000
#
# Coordination Sequence:
#
# PCOD9443569 Si02
#       6
#     8   8   4   4   8   4
#     4  10  21  36  61  82 120 152 199 240 294 350
#     4  10  20  37  58  88 114 155 194 244 291 351
#     4  10  20  39  58  87 117 159 192 245 297 349
#     4  10  20  36  63  86 117 150 205 242 289 356
#     4  10  22  39  59  86 119 157 197 242 299 355
#     4  12  25  37  61  89 125 156 198 248 302 356
#
# _framework density 18.590876000000002
#
# number of rings (size 3 to 8) (size 9 to 14) (size 15 to 20)
#    0.000    1.778    2.222    3.667    6.222    0.000 
#    0.000    2.222    0.000    0.000    0.000   10.889 
#    0.000    0.000    0.000    0.000    0.000    0.000 
#
# Total GULP energy -200565.718554 kJ/mol
# GULP energy per Si atom -5571.269960 kJ/mol
# Density = 1.854856 g / cm^3
# Si number density = 18.590876 Si / 1000 Ang^3
#
#
#
# Elastic Constant Matrix: (Units=GPa)
#
#
# Indices 1 2 3 4 5 6 
#
# 1 38.6325 22.1766 29.8154 0.0000 0.0000 0.0000
# 2 22.1766 72.2726 9.7451 0.0000 0.0000 0.0000
# 3 29.8154 9.7451 106.7415 0.0000 0.0000 0.0000
# 4 0.0000 0.0000 0.0000 26.2342 0.0000 0.0000
# 5 0.0000 0.0000 0.0000 0.0000 19.7054 0.0000
# 6 0.0000 0.0000 0.0000 0.0000 0.0000 29.0520
#
#
#
# Elastic Compliance Matrix: (Units=1/GPa)
#
#
# Indices 1 2 3 4 5 6 
#
# 1 0.039996 -0.010901 -0.010177 0.000000 0.000000 0.000000
# 2 -0.010901 0.016980 0.001495 0.000000 0.000000 0.000000
# 3 -0.010177 0.001495 0.012075 0.000000 0.000000 0.000000
# 4 0.000000 0.000000 0.000000 0.038118 0.000000 0.000000
# 5 0.000000 0.000000 0.000000 0.000000 0.050748 0.000000
# 6 0.000000 0.000000 0.000000 0.000000 0.000000 0.034421
#
#
# Mechanical properties :
#
#
# Convention : Reuss Voigt Hill
#
# Bulk Modulus (GPa) = 33.46123 37.90230 35.68177
# Shear Modulus (GPa) = 20.70697 25.39230 23.04963
#
# Velocity S-wave (km/s) = 3.34102 3.69975 3.52495
# Velocity P-wave (km/s) = 5.73769 6.21954 5.98347
#
# Compressibility (1/GPa) = 0.02988533
#
# Stress axis : x y z
#
# Youngs Moduli (GPa) = 25.00229 58.89362 82.81861
#
# Poissons Ratio (x) = 0.64197 0.84282
# Poissons Ratio (y) = 0.27254 -0.12378
# Poissons Ratio (z) = 0.25444 -0.08802
#
# Static dielectric constant tensor:
#      x y z
#    x 1.565850 0.000000 0.000000 
#    y 0.000000 1.625920 0.000000 
#    z 0.000000 0.000000 1.720740 
# 
# From -- ./inp_files/19406.got.cif
#   From: 2010.05.17/outbox.cif.g08.bks.cpg/sg58_10_cif.got.tgz:19406.got - 2010.06.03 14:20:14.
