data_PCOD9443404
_publ_section_title
;
Structure prediction by ZEFSAII (Michael W. Deem and Ramdas Pophale) SiO2 
 PCOD9443404
Probable space group: P N N M
;
_chemical_formula_sum "Si O2"
_cell_formula_units_Z 52
_cell_length_a 9.080266
_cell_length_b 14.033696
_cell_length_c 20.481799
_cell_angle_alpha 90.000000
_cell_angle_beta 90.000000
_cell_angle_gamma 90.000000
_cell_volume 2609.989351
_symmetry_space_group_name_H-M "P N N M"
_symmetry_group_IT_number 58
_symmetry_cell_setting 'orthorhombic'
loop_
_space_group_symop_operation_xyz
x,y,z
-x,-y,z
1/2+x,1/2-y,1/2-z
1/2-x,1/2+y,1/2-z
-x,-y,-z
x,y,-z
1/2-x,1/2+y,1/2+z
1/2+x,1/2-y,1/2+z
loop_
_atom_site_type_symbol
_atom_site_label
_atom_site_fract_x
_atom_site_fract_y
_atom_site_fract_z
Si Si1 0.191164 0.767637 0.000000
Si Si2 0.852823 0.061185 0.388600
Si Si3 0.300809 0.282725 0.357131
Si Si4 0.893103 0.358214 0.253603
Si Si5 0.725985 0.061948 0.244035
Si Si6 0.547943 0.764093 0.883376
Si Si7 0.833148 0.462668 0.000000
Si Si8 0.000744 0.613267 0.500000
O O1 0.125366 0.791369 0.071535
O O2 0.342547 0.831042 0.000000
O O3 0.196717 0.651509 0.000000
O O4 0.796107 0.072484 0.315039
O O5 0.893706 0.166420 0.412914
O O6 0.741023 0.007696 0.435826
O O7 0.000000 0.000000 0.387514
O O8 0.361808 0.196888 0.313224
O O9 0.305072 0.378335 0.313162
O O10 0.127973 0.258618 0.370271
O O11 0.789525 0.448882 0.266149
O O12 0.878565 0.286925 0.314226
O O13 0.060254 0.396201 0.253614
O O14 0.574727 0.849006 0.934007
O O15 0.000000 0.500000 0.000000
O O16 0.000000 0.500000 0.500000
#
# Coordination Sequence:
#
# PCOD9443404 Si02
#       8
#     4   8   8   8   8   8   4   4
#     4  10  22  38  60  89 127 170 214 265 324 398
#     4  12  23  42  65  94 131 167 216 272 331 401
#     4  10  20  39  59  90 126 164 215 264 326 384
#     4  10  20  36  57  86 132 160 219 266 318 394
#     4  10  22  35  61  90 123 169 210 269 327 386
#     4  10  21  36  59  90 123 167 207 270 325 377
#     4  12  28  43  69  97 132 174 214 275 352 411
#     4  10  21  35  62  92 125 166 220 264 321 385
#
# _framework density 19.923452000000001
#
# number of rings (size 3 to 8) (size 9 to 14) (size 15 to 20)
#    0.000    1.538    1.538    4.385   10.769    0.000 
#    0.000    0.000    0.000    0.000    0.000    2.692 
#    0.000    0.000    0.000    0.000    0.000    0.000 
#
# Total GULP energy -290214.791943 kJ/mol
# GULP energy per Si atom -5581.053691 kJ/mol
# Density = 1.987811 g / cm^3
# Si number density = 19.923452 Si / 1000 Ang^3
#
#
#
# Elastic Constant Matrix: (Units=GPa)
#
#
# Indices 1 2 3 4 5 6 
#
# 1 24.9462 27.4488 16.9540 0.0000 0.0000 0.0000
# 2 27.4488 143.4489 58.6422 0.0000 0.0000 0.0000
# 3 16.9540 58.6422 157.7559 0.0000 0.0000 0.0000
# 4 0.0000 0.0000 0.0000 -13.4598 0.0000 0.0000
# 5 0.0000 0.0000 0.0000 0.0000 14.8200 0.0000
# 6 0.0000 0.0000 0.0000 0.0000 0.0000 11.9931
#
#
#
# Elastic Compliance Matrix: (Units=1/GPa)
#
#
# Indices 1 2 3 4 5 6 
#
# 1 0.051419 -0.008938 -0.002203 0.000000 0.000000 0.000000
# 2 -0.008938 0.009774 -0.002673 0.000000 0.000000 0.000000
# 3 -0.002203 -0.002673 0.007569 0.000000 0.000000 0.000000
# 4 0.000000 0.000000 0.000000 -0.074296 0.000000 0.000000
# 5 0.000000 0.000000 0.000000 0.000000 0.067476 0.000000
# 6 0.000000 0.000000 0.000000 0.000000 0.000000 0.083381
#
#
# Mechanical properties :
#
#
# Convention : Reuss Voigt Hill
#
# Bulk Modulus (GPa) = 24.31116 59.13789 41.72453
# Shear Modulus (GPa) = 26.78621 17.54441 22.16531
#
# Velocity S-wave (km/s) = 3.67066 2.97069 3.33907
# Velocity P-wave (km/s) = 5.49489 6.44311 5.98780
#
# Compressibility (1/GPa) = 0.04113337
#
# Stress axis : x y z
#
# Youngs Moduli (GPa) = 19.44823 102.31192 132.11399
#
# Poissons Ratio (x) = 0.91448 0.29110
# Poissons Ratio (y) = 0.17383 0.35310
# Poissons Ratio (z) = 0.04285 0.27345
#
# Static dielectric constant tensor:
#      x y z
#    x 1.702610 0.000000 0.000000 
#    y 0.000000 1.702560 0.000000 
#    z 0.000000 0.000000 1.718520 
# 
# From -- ./inp_files/28926.got.cif
#   From: 2010.05.17/outbox.cif.g08.bks.cpg/sg58_15_cif.got.tgz:28926.got - 2010.06.03 14:20:14.
