data_PCOD9443149
_publ_section_title
;
Structure prediction by ZEFSAII (Michael W. Deem and Ramdas Pophale) SiO2 
 PCOD9443149
Probable space group: P N N M
;
_chemical_formula_sum "Si O2"
_cell_formula_units_Z 28
_cell_length_a 6.549787
_cell_length_b 20.555417
_cell_length_c 7.366981
_cell_angle_alpha 90.000000
_cell_angle_beta 90.000000
_cell_angle_gamma 90.000000
_cell_volume 991.843196
_symmetry_space_group_name_H-M "P N N M"
_symmetry_group_IT_number 58
_symmetry_cell_setting 'orthorhombic'
loop_
_space_group_symop_operation_xyz
x,y,z
-x,-y,z
1/2+x,1/2-y,1/2-z
1/2-x,1/2+y,1/2-z
-x,-y,-z
x,y,-z
1/2-x,1/2+y,1/2+z
1/2+x,1/2-y,1/2+z
loop_
_atom_site_type_symbol
_atom_site_label
_atom_site_fract_x
_atom_site_fract_y
_atom_site_fract_z
Si Si1 0.268806 0.482933 0.719177
Si Si2 0.654597 0.876405 0.211335
Si Si3 0.631542 0.768833 0.500000
Si Si4 0.871765 0.158973 0.290820
O O1 0.500000 0.500000 0.777934
O O2 0.261600 0.482553 0.500000
O O3 0.144041 0.547740 0.770867
O O4 0.246736 0.408257 0.777496
O O5 0.567976 0.822482 0.343884
O O6 0.898902 0.859944 0.224308
O O7 0.596329 0.871008 0.000000
O O8 0.691266 0.716199 0.341264
O O9 0.891612 0.180632 0.500000
#
# Coordination Sequence:
#
# PCOD9443149 Si02
#       4
#     8   8   4   8
#     4   8  15  30  52  78 107 135 163 214 275 330
#     4  10  20  35  54  80 112 139 173 218 270 321
#     4  12  22  34  52  82 110 144 178 214 266 324
#     4  11  20  33  54  81 113 140 171 215 271 325
#
# _framework density 28.230273
#
# number of rings (size 3 to 8) (size 9 to 14) (size 15 to 20)
#    0.000    2.000    4.286    2.571    2.000    1.714 
#    0.000    0.000    0.000    0.000    0.000    6.000 
#    0.000    0.000    0.000    0.000    0.000    0.000 
#
# Total GULP energy -156094.076239 kJ/mol
# GULP energy per Si atom -5574.788437 kJ/mol
# Density = 2.816602 g / cm^3
# Si number density = 28.230273 Si / 1000 Ang^3
#
#
#
# Elastic Constant Matrix: (Units=GPa)
#
#
# Indices 1 2 3 4 5 6 
#
# 1 78.1482 60.7770 15.6794 0.0000 0.0000 0.0000
# 2 60.7770 308.2821 144.3113 0.0000 0.0000 0.0000
# 3 15.6794 144.3113 243.5240 0.0000 0.0000 0.0000
# 4 0.0000 0.0000 0.0000 69.6190 0.0000 0.0000
# 5 0.0000 0.0000 0.0000 0.0000-1602.0868 0.0000
# 6 0.0000 0.0000 0.0000 0.0000 0.0000 10.3659
#
#
#
# Elastic Compliance Matrix: (Units=1/GPa)
#
#
# Indices 1 2 3 4 5 6 
#
# 1 0.015328 -0.003543 0.001112 0.000000 0.000000 0.000000
# 2 -0.003543 0.005308 -0.002917 0.000000 0.000000 0.000000
# 3 0.001112 -0.002917 0.005764 0.000000 0.000000 0.000000
# 4 0.000000 0.000000 0.000000 0.014364 0.000000 0.000000
# 5 0.000000 0.000000 0.000000 0.000000 -0.000624 0.000000
# 6 0.000000 0.000000 0.000000 0.000000 0.000000 0.096470
#
#
# Mechanical properties :
#
#
# Convention : Reuss Voigt Hill
#
# Bulk Modulus (GPa) = 63.67595 119.05441 91.36518
# Shear Modulus (GPa) = 32.77843 -277.14128 -122.18142
#
# Velocity S-wave (km/s) = 3.41120 -9.91891 -6.58591
# Velocity P-wave (km/s) = 6.17413 9.42950 5.03962
#
# Compressibility (1/GPa) = 0.01570452
#
# Stress axis : x y z
#
# Youngs Moduli (GPa) = 65.23932 188.40041 173.50480
#
# Poissons Ratio (x) = 0.66744 -0.19302
# Poissons Ratio (y) = 0.23112 0.50617
# Poissons Ratio (z) = -0.07258 0.54962
#
# Static dielectric constant tensor:
#      x y z
#    x 2.588580 0.000000 0.000000 
#    y 0.000000 2.124090 0.000000 
#    z 0.000000 0.000000 1.975690 
# 
# From -- ./inp_files/3672.got.cif
#   From: 2010.05.17/outbox.cif.g08.bks.cpg/sg58_2_cif.got.tgz:3672.got - 2010.06.03 14:20:14.
