data_PCOD9443402
_publ_section_title
;
Structure prediction by ZEFSAII (Michael W. Deem and Ramdas Pophale) SiO2 
 PCOD9443402
Probable space group: P N N M
;
_chemical_formula_sum "Si O2"
_cell_formula_units_Z 64
_cell_length_a 11.594181
_cell_length_b 28.684199
_cell_length_c 8.618081
_cell_angle_alpha 90.000000
_cell_angle_beta 90.000000
_cell_angle_gamma 90.000000
_cell_volume 2866.113432
_symmetry_space_group_name_H-M "P N N M"
_symmetry_group_IT_number 58
_symmetry_cell_setting 'orthorhombic'
loop_
_space_group_symop_operation_xyz
x,y,z
-x,-y,z
1/2+x,1/2-y,1/2-z
1/2-x,1/2+y,1/2-z
-x,-y,-z
x,y,-z
1/2-x,1/2+y,1/2+z
1/2+x,1/2-y,1/2+z
loop_
_atom_site_type_symbol
_atom_site_label
_atom_site_fract_x
_atom_site_fract_y
_atom_site_fract_z
Si Si1 0.854717 0.731243 0.178365
Si Si2 0.634952 0.491131 0.318594
Si Si3 0.432380 0.259170 0.818363
Si Si4 0.692255 0.817115 0.820788
Si Si5 0.572611 0.644872 0.675098
Si Si6 0.117079 0.473480 0.814251
Si Si7 0.149798 0.107388 0.323684
Si Si8 0.300409 0.876647 0.317046
O O1 0.736348 0.762371 0.181302
O O2 0.835884 0.676914 0.206428
O O3 0.927709 0.761136 0.296882
O O4 0.897186 0.736995 0.000000
O O5 0.500000 0.500000 0.260739
O O6 0.633584 0.503660 0.500000
O O7 0.754055 0.512412 0.245976
O O8 0.654960 0.436316 0.290225
O O9 0.430859 0.202467 0.774224
O O10 0.398752 0.301065 0.702856
O O11 0.414330 0.270854 0.000000
O O12 0.754637 0.854072 0.717521
O O13 0.698947 0.831993 0.000000
O O14 0.531953 0.637465 0.500000
O O15 0.473820 0.630314 0.793382
O O16 0.687045 0.616283 0.713441
O O17 0.109217 0.417717 0.783861
O O18 0.000000 0.500000 0.756796
O O19 0.120066 0.480959 0.000000
O O20 0.162546 0.091357 0.500000
O O21 0.269276 0.880612 0.500000
#
# Coordination Sequence:
#
# PCOD9443402 Si02
#       8
#     8   8   8   8   8   8   8   8
#     4  10  20  36  57  84 121 163 205 254 309 369
#     4  11  25  46  72 103 139 177 223 282 347 410
#     4  11  22  37  57  83 121 166 212 258 312 376
#     4  10  21  38  57  83 123 163 203 253 310 373
#     4  12  23  36  58  89 125 163 211 267 323 388
#     4  10  23  44  71 103 138 177 226 284 342 405
#     4  12  25  40  64  93 126 167 215 266 331 401
#     4  10  21  40  64  89 124 168 215 266 323 387
#
# _framework density 22.329892000000001
#
# number of rings (size 3 to 8) (size 9 to 14) (size 15 to 20)
#    0.000    1.250    2.500    3.750    0.000    6.250 
#    0.000    1.250    0.000    0.000    0.000    0.000 
#    0.000    0.000    0.000    0.000    0.000    0.000 
#
# Total GULP energy -356289.975665 kJ/mol
# GULP energy per Si atom -5567.030870 kJ/mol
# Density = 2.227907 g / cm^3
# Si number density = 22.329892 Si / 1000 Ang^3
#
#
#
# Elastic Constant Matrix: (Units=GPa)
#
#
# Indices 1 2 3 4 5 6 
#
# 1 56.8330 24.3004 11.3311 0.0000 0.0000 0.0000
# 2 24.3004 66.5889 15.3581 0.0000 0.0000 0.0000
# 3 11.3311 15.3581 22.8367 0.0000 0.0000 0.0000
# 4 0.0000 0.0000 0.0000 22.6599 0.0000 0.0000
# 5 0.0000 0.0000 0.0000 0.0000 36.4679 0.0000
# 6 0.0000 0.0000 0.0000 0.0000 0.0000 26.4678
#
#
#
# Elastic Compliance Matrix: (Units=1/GPa)
#
#
# Indices 1 2 3 4 5 6 
#
# 1 0.021614 -0.006408 -0.006415 0.000000 0.000000 0.000000
# 2 -0.006408 0.019674 -0.010052 0.000000 0.000000 0.000000
# 3 -0.006415 -0.010052 0.053732 0.000000 0.000000 0.000000
# 4 0.000000 0.000000 0.000000 0.044131 0.000000 0.000000
# 5 0.000000 0.000000 0.000000 0.000000 0.027421 0.000000
# 6 0.000000 0.000000 0.000000 0.000000 0.000000 0.037782
#
#
# Mechanical properties :
#
#
# Convention : Reuss Voigt Hill
#
# Bulk Modulus (GPa) = 20.29592 27.58199 23.93895
# Shear Modulus (GPa) = 18.75970 23.47038 21.11504
#
# Velocity S-wave (km/s) = 2.90162 3.24554 3.07839
# Velocity P-wave (km/s) = 4.50940 5.14039 4.83520
#
# Compressibility (1/GPa) = 0.04927098
#
# Stress axis : x y z
#
# Youngs Moduli (GPa) = 46.26541 50.82736 18.61082
#
# Poissons Ratio (x) = 0.32571 0.11939
# Poissons Ratio (y) = 0.29648 0.18707
# Poissons Ratio (z) = 0.29679 0.51091
#
# Static dielectric constant tensor:
#      x y z
#    x -1.079410 0.000000 0.000000 
#    y 0.000000 2.074290 0.000000 
#    z 0.000000 0.000000 1.802620 
# 
# From -- ./inp_files/4821.got.cif
#   From: 2010.05.17/outbox.cif.g08.bks.cpg/sg58_3_cif.got.tgz:4821.got - 2010.06.03 14:20:14.
