data_PCOD9443368
_publ_section_title
;
Structure prediction by ZEFSAII (Michael W. Deem and Ramdas Pophale) SiO2 
 PCOD9443368
Probable space group: P N N M
;
_chemical_formula_sum "Si O2"
_cell_formula_units_Z 56
_cell_length_a 23.234311
_cell_length_b 13.137516
_cell_length_c 9.518696
_cell_angle_alpha 90.000000
_cell_angle_beta 90.000000
_cell_angle_gamma 90.000000
_cell_volume 2905.497547
_symmetry_space_group_name_H-M "P N N M"
_symmetry_group_IT_number 58
_symmetry_cell_setting 'orthorhombic'
loop_
_space_group_symop_operation_xyz
x,y,z
-x,-y,z
1/2+x,1/2-y,1/2-z
1/2-x,1/2+y,1/2-z
-x,-y,-z
x,y,-z
1/2-x,1/2+y,1/2+z
1/2+x,1/2-y,1/2+z
loop_
_atom_site_type_symbol
_atom_site_label
_atom_site_fract_x
_atom_site_fract_y
_atom_site_fract_z
Si Si1 0.158955 0.002174 0.337753
Si Si2 0.544153 0.087855 0.837724
Si Si3 0.235187 0.197842 0.332969
Si Si4 0.161636 0.769271 0.664349
Si Si5 0.861768 0.690518 0.838072
Si Si6 0.970863 0.203671 0.660853
Si Si7 0.562828 0.399582 0.659984
O O1 0.141084 0.016453 0.500000
O O2 0.206833 0.087145 0.308384
O O3 0.103980 0.023504 0.241887
O O4 0.179977 0.887450 0.321712
O O5 0.599149 0.106095 0.739050
O O6 0.508222 0.192978 0.838645
O O7 0.500000 0.000000 0.791942
O O8 0.561499 0.066571 0.000000
O O9 0.236023 0.216798 0.500000
O O10 0.297664 0.204701 0.263954
O O11 0.193595 0.278021 0.253239
O O12 0.167502 0.739780 0.500000
O O13 0.094168 0.768841 0.701363
O O14 0.900999 0.793083 0.840299
O O15 0.847579 0.665166 0.000000
O O16 0.969044 0.165021 0.500000
O O17 0.003923 0.125404 0.760267
O O18 0.553989 0.429846 0.500000
#
# Coordination Sequence:
#
# PCOD9443368 Si02
#       7
#     8   8   8   8   8   8   8
#     4   9  19  36  56  76 102 138 177 215 263 322
#     4   9  17  31  51  76 108 139 176 222 267 317
#     4  10  20  36  56  76 101 135 176 221 268 313
#     4  10  21  37  55  76 107 142 179 220 264 318
#     4   9  17  31  52  75 100 134 175 214 259 312
#     4   9  18  33  52  74 104 143 175 211 266 320
#     4   9  17  30  52  79 105 132 167 213 259 308
#
# _framework density 19.273807999999999
#
# number of rings (size 3 to 8) (size 9 to 14) (size 15 to 20)
#    0.000    2.714    0.000    1.286    0.000    6.000 
#    2.571    2.857    0.000    0.000    0.000    0.000 
#    0.000    0.000    0.000    0.000    0.000    0.000 
#
# Total GULP energy -312536.088408 kJ/mol
# GULP energy per Si atom -5581.001579 kJ/mol
# Density = 1.922994 g / cm^3
# Si number density = 19.273808 Si / 1000 Ang^3
#
#
#
# Elastic Constant Matrix: (Units=GPa)
#
#
# Indices 1 2 3 4 5 6 
#
# 1 99.5447 -3.3189 58.2601 0.0000 0.0000 0.0000
# 2 -3.3189 10.1314 8.2004 0.0000 0.0000 0.0000
# 3 58.2601 8.2004 81.3019 0.0000 0.0000 0.0000
# 4 0.0000 0.0000 0.0000 10.6756 0.0000 0.0000
# 5 0.0000 0.0000 0.0000 0.0000 35.5038 0.0000
# 6 0.0000 0.0000 0.0000 0.0000 0.0000 20.5220
#
#
#
# Elastic Compliance Matrix: (Units=1/GPa)
#
#
# Indices 1 2 3 4 5 6 
#
# 1 0.020530 0.020290 -0.016758 0.000000 0.000000 0.000000
# 2 0.020290 0.127530 -0.027403 0.000000 0.000000 0.000000
# 3 -0.016758 -0.027403 0.027073 0.000000 0.000000 0.000000
# 4 0.000000 0.000000 0.000000 0.093671 0.000000 0.000000
# 5 0.000000 0.000000 0.000000 0.000000 0.028166 0.000000
# 6 0.000000 0.000000 0.000000 0.000000 0.000000 0.048728
#
#
# Mechanical properties :
#
#
# Convention : Reuss Voigt Hill
#
# Bulk Modulus (GPa) = 7.84986 35.25125 21.55055
# Shear Modulus (GPa) = 11.47041 21.86271 16.66656
#
# Velocity S-wave (km/s) = 2.44217 3.37162 2.94381
# Velocity P-wave (km/s) = 3.46900 5.78676 4.77077
#
# Compressibility (1/GPa) = 0.12739082
#
# Stress axis : x y z
#
# Youngs Moduli (GPa) = 48.70852 7.84128 36.93770
#
# Poissons Ratio (x) = -0.15910 0.61901
# Poissons Ratio (y) = -0.98829 1.01219
# Poissons Ratio (z) = 0.81627 0.21487
#
# Static dielectric constant tensor:
#      x y z
#    x 1.668060 0.000000 0.000000 
#    y 0.000000 1.682150 0.000000 
#    z 0.000000 0.000000 1.657770 
# 
# From -- ./inp_files/6312.got.cif
#   From: 2010.05.17/outbox.cif.g08.bks.cpg/sg58_4_cif.got.tgz:6312.got - 2010.06.03 14:20:14.
