data_PCOD9443702
_publ_section_title
;
Structure prediction by ZEFSAII (Michael W. Deem and Ramdas Pophale) SiO2 
 PCOD9443702
Probable space group: P N N M
;
_chemical_formula_sum "Si O2"
_cell_formula_units_Z 40
_cell_length_a 5.059480
_cell_length_b 14.134075
_cell_length_c 27.123101
_cell_angle_alpha 90.000000
_cell_angle_beta 90.000000
_cell_angle_gamma 90.000000
_cell_volume 1939.601968
_symmetry_space_group_name_H-M "P N N M"
_symmetry_group_IT_number 58
_symmetry_cell_setting 'orthorhombic'
loop_
_space_group_symop_operation_xyz
x,y,z
-x,-y,z
1/2+x,1/2-y,1/2-z
1/2-x,1/2+y,1/2-z
-x,-y,-z
x,y,-z
1/2-x,1/2+y,1/2+z
1/2+x,1/2-y,1/2+z
loop_
_atom_site_type_symbol
_atom_site_label
_atom_site_fract_x
_atom_site_fract_y
_atom_site_fract_z
Si Si1 0.068893 0.657725 0.148910
Si Si2 0.745145 0.318255 0.749309
Si Si3 0.556076 0.748426 0.887504
Si Si4 0.246546 0.065443 0.851139
Si Si5 0.323585 0.593284 0.946321
O O1 0.164198 0.623384 0.202089
O O2 0.267872 0.747267 0.138600
O O3 0.138572 0.594311 0.101691
O O4 0.766822 0.687699 0.144375
O O5 0.482333 0.256932 0.757428
O O6 0.705655 0.382217 0.701344
O O7 0.679903 0.851538 0.889735
O O8 0.503100 0.686792 0.936360
O O9 0.500000 0.000000 0.845833
O O10 0.000000 0.000000 0.864140
O O11 0.500000 0.500000 0.945283
O O12 0.192276 0.599680 0.000000
#
# Coordination Sequence:
#
# PCOD9443702 Si02
#       5
#     8   8   8   8   8
#     4  10  20  37  62  86 124 161 200 244 312 367
#     4  12  20  38  60  84 126 165 209 252 303 350
#     4  10  21  40  61  87 123 165 199 255 306 363
#     4  12  24  38  61  92 124 171 216 248 298 365
#     4   9  21  41  67  95 122 155 203 259 322 385
#
# _framework density 20.622789000000001
#
# number of rings (size 3 to 8) (size 9 to 14) (size 15 to 20)
#    1.200    0.200    4.000    2.400    0.000    2.400 
#    3.600    2.000    0.000    1.200    0.000    0.000 
#    0.000    0.000    0.000    0.000    0.000    0.000 
#
# Total GULP energy -222934.403197 kJ/mol
# GULP energy per Si atom -5573.360080 kJ/mol
# Density = 2.057585 g / cm^3
# Si number density = 20.622789 Si / 1000 Ang^3
#
#
#
# Elastic Constant Matrix: (Units=GPa)
#
#
# Indices 1 2 3 4 5 6 
#
# 1 87.7737 9.2467 6.9744 0.0000 0.0000 0.0000
# 2 9.2467 92.7520 31.3570 0.0000 0.0000 0.0000
# 3 6.9744 31.3570 105.0563 0.0000 0.0000 0.0000
# 4 0.0000 0.0000 0.0000 7.0062 0.0000 0.0000
# 5 0.0000 0.0000 0.0000 0.0000 -29.7545 0.0000
# 6 0.0000 0.0000 0.0000 0.0000 0.0000 38.5416
#
#
#
# Elastic Compliance Matrix: (Units=1/GPa)
#
#
# Indices 1 2 3 4 5 6 
#
# 1 0.011535 -0.000991 -0.000470 0.000000 0.000000 0.000000
# 2 -0.000991 0.012077 -0.003539 0.000000 0.000000 0.000000
# 3 -0.000470 -0.003539 0.010606 0.000000 0.000000 0.000000
# 4 0.000000 0.000000 0.000000 0.142731 0.000000 0.000000
# 5 0.000000 0.000000 0.000000 0.000000 -0.033608 0.000000
# 6 0.000000 0.000000 0.000000 0.000000 0.000000 0.025946
#
#
# Mechanical properties :
#
#
# Convention : Reuss Voigt Hill
#
# Bulk Modulus (GPa) = 41.29187 42.30425 41.79806
# Shear Modulus (GPa) = 26.68682 19.02558 22.85620
#
# Velocity S-wave (km/s) = 3.60119 3.04065 3.33272
# Velocity P-wave (km/s) = 6.11206 5.73457 5.92632
#
# Compressibility (1/GPa) = 0.02421784
#
# Stress axis : x y z
#
# Youngs Moduli (GPa) = 86.69512 82.80467 94.28482
#
# Poissons Ratio (x) = 0.08206 0.04431
# Poissons Ratio (y) = 0.08592 0.33366
# Poissons Ratio (z) = 0.04074 0.29303
#
# Static dielectric constant tensor:
#      x y z
#    x 1.734040 0.000000 0.000000 
#    y 0.000000 1.678470 0.000000 
#    z 0.000000 0.000000 1.765550 
# 
# From -- ./inp_files/32133.got.cif
#   From: 2010.05.17/outbox.cif.g08.bks.cpg/sg58_17_cif.got.tgz:32133.got - 2010.06.03 14:20:14.
