data_PCOD9443879
_publ_section_title
;
Structure prediction by ZEFSAII (Michael W. Deem and Ramdas Pophale) SiO2 
 PCOD9443879
Probable space group: P N N M
;
_chemical_formula_sum "Si O2"
_cell_formula_units_Z 56
_cell_length_a 11.069577
_cell_length_b 17.677071
_cell_length_c 13.848341
_cell_angle_alpha 90.000000
_cell_angle_beta 90.000000
_cell_angle_gamma 90.000000
_cell_volume 2709.811496
_symmetry_space_group_name_H-M "P N N M"
_symmetry_group_IT_number 58
_symmetry_cell_setting 'orthorhombic'
loop_
_space_group_symop_operation_xyz
x,y,z
-x,-y,z
1/2+x,1/2-y,1/2-z
1/2-x,1/2+y,1/2-z
-x,-y,-z
x,y,-z
1/2-x,1/2+y,1/2+z
1/2+x,1/2-y,1/2+z
loop_
_atom_site_type_symbol
_atom_site_label
_atom_site_fract_x
_atom_site_fract_y
_atom_site_fract_z
Si Si1 0.952160 0.327142 0.239862
Si Si2 0.609252 0.943477 0.884618
Si Si3 0.939460 0.918889 0.390889
Si Si4 0.836342 0.633523 0.113137
Si Si5 0.860163 0.028036 0.884659
Si Si6 0.158348 0.544802 0.892530
Si Si7 0.388323 0.339144 0.235645
O O1 0.931070 0.361228 0.345980
O O2 0.897619 0.396074 0.179198
O O3 0.889036 0.246775 0.230411
O O4 0.083782 0.321596 0.191346
O O5 0.500000 0.000000 0.853322
O O6 0.745222 0.973603 0.856464
O O7 0.610394 0.942712 0.000000
O O8 0.972804 0.894299 0.500000
O O9 0.799248 0.936992 0.390929
O O10 0.981572 0.861957 0.308245
O O11 0.000000 0.000000 0.371794
O O12 0.859527 0.543686 0.126759
O O13 0.699849 0.648016 0.145139
O O14 0.856335 0.652185 0.000000
O O15 0.850718 0.103046 0.819748
O O16 0.848020 0.042054 0.000000
O O17 0.000000 0.000000 0.870119
O O18 0.111204 0.560223 0.000000
#
# Coordination Sequence:
#
# PCOD9443879 Si02
#       7
#     8   8   8   8   8   8   8
#     4  12  26  38  63  96 134 166 208 258 336 395
#     4  10  22  43  66  88 122 171 226 269 312 384
#     4  10  20  38  64  92 120 160 215 269 317 378
#     4  11  24  45  69  95 128 169 216 271 325 387
#     4  10  23  42  66  93 124 172 228 273 313 377
#     4  10  21  40  67  93 121 163 217 269 318 378
#     4  12  25  38  64  93 134 168 209 262 333 393
#
# _framework density 20.665644
#
# number of rings (size 3 to 8) (size 9 to 14) (size 15 to 20)
#    0.000    1.286    1.429    4.286    4.000    3.429 
#    0.000    1.429    0.000    0.000    0.000    0.000 
#    0.000    0.000    0.000    0.000    0.000    0.000 
#
# Total GULP energy -312588.575473 kJ/mol
# GULP energy per Si atom -5581.938848 kJ/mol
# Density = 2.061861 g / cm^3
# Si number density = 20.665644 Si / 1000 Ang^3
#
#
#
# Elastic Constant Matrix: (Units=GPa)
#
#
# Indices 1 2 3 4 5 6 
#
# 1 103.0510 21.0854 29.1347 0.0000 0.0000 0.0000
# 2 21.0854 63.5431 31.9398 0.0000 0.0000 0.0000
# 3 29.1347 31.9398 74.5592 0.0000 0.0000 0.0000
# 4 0.0000 0.0000 0.0000 67.5929 0.0000 0.0000
# 5 0.0000 0.0000 0.0000 0.0000 30.7750 0.0000
# 6 0.0000 0.0000 0.0000 0.0000 0.0000 21.6574
#
#
#
# Elastic Compliance Matrix: (Units=1/GPa)
#
#
# Indices 1 2 3 4 5 6 
#
# 1 0.011089 -0.001914 -0.003513 0.000000 0.000000 0.000000
# 2 -0.001914 0.020386 -0.007985 0.000000 0.000000 0.000000
# 3 -0.003513 -0.007985 0.018206 0.000000 0.000000 0.000000
# 4 0.000000 0.000000 0.000000 0.014794 0.000000 0.000000
# 5 0.000000 0.000000 0.000000 0.000000 0.032494 0.000000
# 6 0.000000 0.000000 0.000000 0.000000 0.000000 0.046174
#
#
# Mechanical properties :
#
#
# Convention : Reuss Voigt Hill
#
# Bulk Modulus (GPa) = 43.75166 45.05258 44.40212
# Shear Modulus (GPa) = 28.15542 34.60462 31.38002
#
# Velocity S-wave (km/s) = 3.69511 4.09650 3.90097
# Velocity P-wave (km/s) = 6.27872 6.65005 6.46705
#
# Compressibility (1/GPa) = 0.02285628
#
# Stress axis : x y z
#
# Youngs Moduli (GPa) = 90.18149 49.05299 54.92771
#
# Poissons Ratio (x) = 0.09387 0.19298
# Poissons Ratio (y) = 0.17257 0.43861
# Poissons Ratio (z) = 0.31683 0.39170
#
# Static dielectric constant tensor:
#      x y z
#    x 1.834420 0.000000 0.000000 
#    y 0.000000 1.700550 0.000000 
#    z 0.000000 0.000000 1.831900 
# 
# From -- ./inp_files/21293.got.cif
#   From: 2010.05.17/outbox.cif.g08.bks.cpg/sg58_11_cif.got.tgz:21293.got - 2010.06.03 14:20:14.
