data_PCOD9443477
_publ_section_title
;
Structure prediction by ZEFSAII (Michael W. Deem and Ramdas Pophale) SiO2 
 PCOD9443477
Probable space group: P N N M
;
_chemical_formula_sum "Si O2"
_cell_formula_units_Z 64
_cell_length_a 24.326726
_cell_length_b 15.864079
_cell_length_c 8.730858
_cell_angle_alpha 90.000000
_cell_angle_beta 90.000000
_cell_angle_gamma 90.000000
_cell_volume 3369.422350
_symmetry_space_group_name_H-M "P N N M"
_symmetry_group_IT_number 58
_symmetry_cell_setting 'orthorhombic'
loop_
_space_group_symop_operation_xyz
x,y,z
-x,-y,z
1/2+x,1/2-y,1/2-z
1/2-x,1/2+y,1/2-z
-x,-y,-z
x,y,-z
1/2-x,1/2+y,1/2+z
1/2+x,1/2-y,1/2+z
loop_
_atom_site_type_symbol
_atom_site_label
_atom_site_fract_x
_atom_site_fract_y
_atom_site_fract_z
Si Si1 0.499920 0.401155 0.684106
Si Si2 0.378700 0.340110 0.316226
Si Si3 0.190635 0.501031 0.685009
Si Si4 0.116353 0.343162 0.685011
Si Si5 0.614406 0.344124 0.815723
Si Si6 0.500155 0.100455 0.317793
Si Si7 0.687558 0.502711 0.184013
Si Si8 0.114906 0.660404 0.316688
O O1 0.500000 0.500000 0.726418
O O2 0.504617 0.395653 0.500000
O O3 0.441810 0.360911 0.729260
O O4 0.552589 0.357681 0.757476
O O5 0.375626 0.341450 0.500000
O O6 0.340478 0.413285 0.249694
O O7 0.364724 0.247931 0.254056
O O8 0.195960 0.499597 0.500000
O O9 0.158053 0.416632 0.732917
O O10 0.250322 0.504628 0.758774
O O11 0.153835 0.582029 0.726712
O O12 0.112714 0.346156 0.500000
O O13 0.134097 0.248982 0.731040
O O14 0.056247 0.362023 0.751506
O O15 0.652318 0.421372 0.762398
O O16 0.613914 0.346598 0.000000
O O17 0.498100 0.113971 0.500000
O O18 0.446302 0.140945 0.243152
O O19 0.500000 0.000000 0.287584
O O20 0.686047 0.505379 0.000000
O O21 0.113936 0.666500 0.500000
#
# Coordination Sequence:
#
# PCOD9443477 Si02
#       8
#     8   8   8   8   8   8   8   8
#     4  10  20  36  59  87 119 155 194 237 293 357
#     4  11  23  40  63  90 122 160 200 248 305 361
#     4  10  23  42  63  86 117 159 205 249 301 357
#     4  10  21  40  63  88 119 158 201 245 302 362
#     4  10  22  38  60  89 119 153 194 243 296 353
#     4  11  22  36  59  92 127 160 198 243 300 361
#     4  11  24  41  61  88 121 157 203 252 300 356
#     4  11  23  40  63  91 123 160 203 250 304 363
#
# _framework density 18.994353
#
# number of rings (size 3 to 8) (size 9 to 14) (size 15 to 20)
#    0.000    1.500    2.500    2.250    0.000    7.250 
#    0.000    1.250    0.000    0.000    0.000    0.000 
#    0.000    0.000    0.000    0.000    0.000    0.000 
#
# Total GULP energy -357773.066352 kJ/mol
# GULP energy per Si atom -5590.204162 kJ/mol
# Density = 1.895112 g / cm^3
# Si number density = 18.994353 Si / 1000 Ang^3
#
#
#
# Elastic Constant Matrix: (Units=GPa)
#
#
# Indices 1 2 3 4 5 6 
#
# 1 101.2785 45.9245 22.4887 0.0000 0.0000 0.0000
# 2 45.9245 144.2788 37.3680 0.0000 0.0000 0.0000
# 3 22.4887 37.3680 21.8249 0.0000 0.0000 0.0000
# 4 0.0000 0.0000 0.0000 33.3172 0.0000 0.0000
# 5 0.0000 0.0000 0.0000 0.0000 -68.7544 0.0000
# 6 0.0000 0.0000 0.0000 0.0000 0.0000 -0.4093
#
#
#
# Elastic Compliance Matrix: (Units=1/GPa)
#
#
# Indices 1 2 3 4 5 6 
#
# 1 0.012917 -0.001194 -0.011266 0.000000 0.000000 0.000000
# 2 -0.001194 0.012564 -0.020282 0.000000 0.000000 0.000000
# 3 -0.011266 -0.020282 0.092153 0.000000 0.000000 0.000000
# 4 0.000000 0.000000 0.000000 0.030014 0.000000 0.000000
# 5 0.000000 0.000000 0.000000 0.000000 -0.014545 0.000000
# 6 0.000000 0.000000 0.000000 0.000000 0.000000 -2.443416
#
#
# Mechanical properties :
#
#
# Convention : Reuss Voigt Hill
#
# Bulk Modulus (GPa) = 19.17481 53.21606 36.19544
# Shear Modulus (GPa) = -2.24472 3.60412 0.67970
#
# Velocity S-wave (km/s) = -1.08828 1.37898 0.59885
# Velocity P-wave (km/s) = 2.92195 5.53291 4.42441
#
# Compressibility (1/GPa) = 0.05215175
#
# Stress axis : x y z
#
# Youngs Moduli (GPa) = 77.42020 79.59348 10.85149
#
# Poissons Ratio (x) = 0.09500 0.12225
# Poissons Ratio (y) = 0.09241 0.22009
# Poissons Ratio (z) = 0.87220 1.61428
#
# Static dielectric constant tensor:
#      x y z
#    x 1.612470 0.000000 0.000000 
#    y 0.000000 1.648600 0.000000 
#    z 0.000000 0.000000 1.637600 
# 
# From -- ./inp_files/10068.got.cif
#   From: 2010.05.17/outbox.cif.g08.bks.cpg/sg58_6_cif.got.tgz:10068.got - 2010.06.03 14:20:14.
