data_PCOD9443356
_publ_section_title
;
Structure prediction by ZEFSAII (Michael W. Deem and Ramdas Pophale) SiO2 
 PCOD9443356
Probable space group: P N N M
;
_chemical_formula_sum "Si O2"
_cell_formula_units_Z 48
_cell_length_a 9.103424
_cell_length_b 13.884536
_cell_length_c 16.926651
_cell_angle_alpha 90.000000
_cell_angle_beta 90.000000
_cell_angle_gamma 90.000000
_cell_volume 2139.474830
_symmetry_space_group_name_H-M "P N N M"
_symmetry_group_IT_number 58
_symmetry_cell_setting 'orthorhombic'
loop_
_space_group_symop_operation_xyz
x,y,z
-x,-y,z
1/2+x,1/2-y,1/2-z
1/2-x,1/2+y,1/2-z
-x,-y,-z
x,y,-z
1/2-x,1/2+y,1/2+z
1/2+x,1/2-y,1/2+z
loop_
_atom_site_type_symbol
_atom_site_label
_atom_site_fract_x
_atom_site_fract_y
_atom_site_fract_z
Si Si1 0.748063 0.174047 0.912351
Si Si2 0.045622 0.206979 0.704092
Si Si3 0.457447 0.153357 0.412388
Si Si4 0.280480 0.058342 0.733136
Si Si5 0.789878 0.658299 0.181128
Si Si6 0.331358 0.035761 0.090046
O O1 0.628887 0.228806 0.860508
O O2 0.894543 0.237608 0.908333
O O3 0.767024 0.060844 0.898576
O O4 0.687486 0.179559 0.000000
O O5 0.122815 0.103166 0.711566
O O6 0.097814 0.266007 0.780227
O O7 0.874678 0.196043 0.688540
O O8 0.412477 0.117375 0.500000
O O9 0.384574 0.098843 0.337400
O O10 0.632648 0.144469 0.402959
O O11 0.291421 0.943752 0.725777
O O12 0.316217 0.087703 0.824373
O O13 0.500000 0.000000 0.088183
O O14 0.300733 0.075311 0.000000
#
# Coordination Sequence:
#
# PCOD9443356 Si02
#       6
#     8   8   8   8   8   8
#     4   9  19  39  65  94 131 171 217 275 335 398
#     4  11  24  40  64  96 129 177 227 276 341 401
#     4  10  23  43  68  98 134 181 228 277 338 402
#     4  11  23  42  68  96 135 180 221 282 336 402
#     4  12  24  40  63  94 130 174 228 281 335 401
#     4  10  20  35  64 100 134 174 221 271 332 402
#
# _framework density 22.435410999999998
#
# number of rings (size 3 to 8) (size 9 to 14) (size 15 to 20)
#    0.000    1.500    1.667    4.000    2.333    2.000 
#    0.000    0.833    0.000    8.000    0.000    0.000 
#    0.000    0.000    0.000    0.000    0.000    0.000 
#
# Total GULP energy -267655.451317 kJ/mol
# GULP energy per Si atom -5576.155236 kJ/mol
# Density = 2.238435 g / cm^3
# Si number density = 22.435411 Si / 1000 Ang^3
#
#
#
# Elastic Constant Matrix: (Units=GPa)
#
#
# Indices 1 2 3 4 5 6 
#
# 1 117.4377 23.9810 42.3209 0.0000 0.0000 0.0000
# 2 23.9810 72.1254 14.5673 0.0000 0.0000 0.0000
# 3 42.3209 14.5673 178.3098 0.0000 0.0000 0.0000
# 4 0.0000 0.0000 0.0000 25.2989 0.0000 0.0000
# 5 0.0000 0.0000 0.0000 0.0000 20.2758 0.0000
# 6 0.0000 0.0000 0.0000 0.0000 0.0000 16.3719
#
#
#
# Elastic Compliance Matrix: (Units=1/GPa)
#
#
# Indices 1 2 3 4 5 6 
#
# 1 0.009857 -0.002852 -0.002106 0.000000 0.000000 0.000000
# 2 -0.002852 0.014922 -0.000542 0.000000 0.000000 0.000000
# 3 -0.002106 -0.000542 0.006152 0.000000 0.000000 0.000000
# 4 0.000000 0.000000 0.000000 0.039527 0.000000 0.000000
# 5 0.000000 0.000000 0.000000 0.000000 0.049320 0.000000
# 6 0.000000 0.000000 0.000000 0.000000 0.000000 0.061080
#
#
# Mechanical properties :
#
#
# Convention : Reuss Voigt Hill
#
# Bulk Modulus (GPa) = 50.17421 58.84572 54.50997
# Shear Modulus (GPa) = 25.18847 31.52290 28.35569
#
# Velocity S-wave (km/s) = 3.35432 3.75247 3.55897
# Velocity P-wave (km/s) = 6.11673 6.71272 6.42164
#
# Compressibility (1/GPa) = 0.01993056
#
# Stress axis : x y z
#
# Youngs Moduli (GPa) = 101.45502 67.01314 162.53638
#
# Poissons Ratio (x) = 0.19111 0.34237
# Poissons Ratio (y) = 0.28933 0.08814
# Poissons Ratio (z) = 0.21371 0.03634
#
# Static dielectric constant tensor:
#      x y z
#    x 1.840400 0.000000 0.000000 
#    y 0.000000 1.946210 0.000000 
#    z 0.000000 0.000000 1.988490 
# 
# From -- ./inp_files/25271.got.cif
#   From: 2010.05.17/outbox.cif.g08.bks.cpg/sg58_13_cif.got.tgz:25271.got - 2010.06.03 14:20:14.
