data_PCOD9443209
_publ_section_title
;
Structure prediction by ZEFSAII (Michael W. Deem and Ramdas Pophale) SiO2 
 PCOD9443209
Probable space group: P N N M
;
_chemical_formula_sum "Si O2"
_cell_formula_units_Z 56
_cell_length_a 16.207263
_cell_length_b 21.019325
_cell_length_c 7.623727
_cell_angle_alpha 90.000000
_cell_angle_beta 90.000000
_cell_angle_gamma 90.000000
_cell_volume 2597.142511
_symmetry_space_group_name_H-M "P N N M"
_symmetry_group_IT_number 58
_symmetry_cell_setting 'orthorhombic'
loop_
_space_group_symop_operation_xyz
x,y,z
-x,-y,z
1/2+x,1/2-y,1/2-z
1/2-x,1/2+y,1/2-z
-x,-y,-z
x,y,-z
1/2-x,1/2+y,1/2+z
1/2+x,1/2-y,1/2+z
loop_
_atom_site_type_symbol
_atom_site_label
_atom_site_fract_x
_atom_site_fract_y
_atom_site_fract_z
Si Si1 0.029962 0.173636 0.712146
Si Si2 0.320694 0.198045 0.213426
Si Si3 0.987894 0.685512 0.713398
Si Si4 0.744715 0.036987 0.297170
Si Si5 0.840317 0.160260 0.285745
Si Si6 0.936418 0.550406 0.704060
Si Si7 0.188999 0.095199 0.795089
O O1 0.031555 0.172888 0.500000
O O2 0.046350 0.246239 0.773219
O O3 0.099072 0.125377 0.774772
O O4 0.936484 0.157229 0.766461
O O5 0.415118 0.181750 0.260753
O O6 0.305340 0.270966 0.269795
O O7 0.255234 0.146337 0.277339
O O8 0.317228 0.198058 0.000000
O O9 0.984156 0.688254 0.500000
O O10 0.943069 0.621956 0.777081
O O11 0.726839 0.049976 0.500000
O O12 0.789644 0.099413 0.223220
O O13 0.656225 0.025417 0.211676
O O14 0.799990 0.974159 0.285732
O O15 0.839976 0.159577 0.500000
O O16 0.960700 0.557332 0.500000
O O17 0.000000 0.500000 0.784226
O O18 0.207213 0.086977 0.000000
#
# Coordination Sequence:
#
# PCOD9443209 Si02
#       7
#     8   8   8   8   8   8   8
#     4   9  18  35  57  79 104 137 184 230 275 326
#     4   8  15  31  55  79 104 139 182 221 263 322
#     4   8  15  30  54  80 104 136 178 224 267 320
#     4  11  23  37  55  80 111 146 187 232 278 326
#     4   8  17  35  57  79 104 142 186 227 271 327
#     4  10  20  35  56  82 114 150 185 220 273 339
#     4  11  22  35  55  81 111 144 182 227 279 334
#
# _framework density 21.562158
#
# number of rings (size 3 to 8) (size 9 to 14) (size 15 to 20)
#    0.000    2.714    0.000    3.429    2.000    3.143 
#    0.000    4.286    0.000    8.571    0.000    0.000 
#    0.000    0.000    0.000    0.000    0.000    0.000 
#
# Total GULP energy -312637.671104 kJ/mol
# GULP energy per Si atom -5582.815555 kJ/mol
# Density = 2.151308 g / cm^3
# Si number density = 21.562158 Si / 1000 Ang^3
#
#
#
# Elastic Constant Matrix: (Units=GPa)
#
#
# Indices 1 2 3 4 5 6 
#
# 1 27.0200 17.4204 1.6049 0.0000 0.0000 0.0000
# 2 17.4204 88.9439 11.8275 0.0000 0.0000 0.0000
# 3 1.6049 11.8275 39.4762 0.0000 0.0000 0.0000
# 4 0.0000 0.0000 0.0000 8.2602 0.0000 0.0000
# 5 0.0000 0.0000 0.0000 0.0000 12.5395 0.0000
# 6 0.0000 0.0000 0.0000 0.0000 0.0000 39.0470
#
#
#
# Elastic Compliance Matrix: (Units=1/GPa)
#
#
# Indices 1 2 3 4 5 6 
#
# 1 0.042382 -0.008407 0.000796 0.000000 0.000000 0.000000
# 2 -0.008407 0.013377 -0.003666 0.000000 0.000000 0.000000
# 3 0.000796 -0.003666 0.026398 0.000000 0.000000 0.000000
# 4 0.000000 0.000000 0.000000 0.121062 0.000000 0.000000
# 5 0.000000 0.000000 0.000000 0.000000 0.079748 0.000000
# 6 0.000000 0.000000 0.000000 0.000000 0.000000 0.025610
#
#
# Mechanical properties :
#
#
# Convention : Reuss Voigt Hill
#
# Bulk Modulus (GPa) = 16.77772 24.12731 20.45251
# Shear Modulus (GPa) = 14.24503 20.27515 17.26009
#
# Velocity S-wave (km/s) = 2.57310 3.06978 2.83235
# Velocity P-wave (km/s) = 4.07747 4.87634 4.49469
#
# Compressibility (1/GPa) = 0.05960287
#
# Stress axis : x y z
#
# Youngs Moduli (GPa) = 23.59468 74.75458 37.88193
#
# Poissons Ratio (x) = 0.62845 -0.03014
# Poissons Ratio (y) = 0.19836 0.13888
# Poissons Ratio (z) = -0.01877 0.27406
#
# Static dielectric constant tensor:
#      x y z
#    x 1.734530 0.000000 0.000000 
#    y 0.000000 1.787900 0.000000 
#    z 0.000000 0.000000 1.816690 
# 
# From -- ./inp_files/6266.got.cif
#   From: 2010.05.17/outbox.cif.g08.bks.cpg/sg58_4_cif.got.tgz:6266.got - 2010.06.03 14:20:14.
