data_PCOD9443594
_publ_section_title
;
Structure prediction by ZEFSAII (Michael W. Deem and Ramdas Pophale) SiO2 
 PCOD9443594
Probable space group: P N N M
;
_chemical_formula_sum "Si O2"
_cell_formula_units_Z 56
_cell_length_a 13.792097
_cell_length_b 8.838090
_cell_length_c 23.628231
_cell_angle_alpha 90.000000
_cell_angle_beta 90.000000
_cell_angle_gamma 90.000000
_cell_volume 2880.181992
_symmetry_space_group_name_H-M "P N N M"
_symmetry_group_IT_number 58
_symmetry_cell_setting 'orthorhombic'
loop_
_space_group_symop_operation_xyz
x,y,z
-x,-y,z
1/2+x,1/2-y,1/2-z
1/2-x,1/2+y,1/2-z
-x,-y,-z
x,y,-z
1/2-x,1/2+y,1/2+z
1/2+x,1/2-y,1/2+z
loop_
_atom_site_type_symbol
_atom_site_label
_atom_site_fract_x
_atom_site_fract_y
_atom_site_fract_z
Si Si1 0.613086 0.014394 0.721979
Si Si2 0.136697 0.223246 0.143896
Si Si3 0.289162 0.172717 0.623452
Si Si4 0.297308 0.386778 0.933188
Si Si5 0.533831 0.677086 0.436037
Si Si6 0.099533 0.594995 0.435994
Si Si7 0.772773 0.526800 0.333910
O O1 0.635896 0.183918 0.701616
O O2 0.676946 0.974467 0.776298
O O3 0.500000 0.000000 0.735291
O O4 0.642501 0.918398 0.666806
O O5 0.215972 0.291396 0.100573
O O6 0.036159 0.243329 0.111734
O O7 0.168639 0.053059 0.158136
O O8 0.357602 0.269539 0.580574
O O9 0.234215 0.294334 0.661573
O O10 0.216532 0.054219 0.593080
O O11 0.393332 0.278854 0.927287
O O12 0.277084 0.397502 0.000000
O O13 0.500000 0.500000 0.436424
O O14 0.514543 0.732387 0.500000
O O15 0.138949 0.572299 0.500000
O O16 0.164377 0.524908 0.387270
O O17 0.000000 0.500000 0.433870
#
# Coordination Sequence:
#
# PCOD9443594 Si02
#       7
#     8   8   8   8   8   8   8
#     4  11  22  38  59  80 111 154 199 250 300 353
#     4  10  20  37  55  81 116 152 196 241 291 366
#     4  11  22  37  56  86 121 152 197 254 301 361
#     4   9  19  34  56  84 115 149 188 237 299 364
#     4  11  21  34  57  88 124 160 194 242 307 376
#     4   9  19  38  62  85 113 150 194 246 301 364
#     4  11  22  37  59  83 114 153 203 242 306 362
#
# _framework density 19.443214000000001
#
# number of rings (size 3 to 8) (size 9 to 14) (size 15 to 20)
#    0.000    1.714    2.857    2.143    0.000    1.714 
#    0.000    2.857    0.000    2.571    0.000    0.000 
#    0.000    0.000    0.000    0.000    0.000    0.000 
#
# Total GULP energy -311783.877709 kJ/mol
# GULP energy per Si atom -5567.569245 kJ/mol
# Density = 1.939896 g / cm^3
# Si number density = 19.443214 Si / 1000 Ang^3
#
#
#
# Elastic Constant Matrix: (Units=GPa)
#
#
# Indices 1 2 3 4 5 6 
#
# 1 48.2216 26.3445 37.8364 0.0000 0.0000 0.0000
# 2 26.3445 102.3353 16.7204 0.0000 0.0000 0.0000
# 3 37.8364 16.7204 77.3239 0.0000 0.0000 0.0000
# 4 0.0000 0.0000 0.0000 -17.2352 0.0000 0.0000
# 5 0.0000 0.0000 0.0000 0.0000 -1.9756 0.0000
# 6 0.0000 0.0000 0.0000 0.0000 0.0000 24.6781
#
#
#
# Elastic Compliance Matrix: (Units=1/GPa)
#
#
# Indices 1 2 3 4 5 6 
#
# 1 0.037928 -0.006978 -0.017050 0.000000 0.000000 0.000000
# 2 -0.006978 0.011414 0.000947 0.000000 0.000000 0.000000
# 3 -0.017050 0.000947 0.021071 0.000000 0.000000 0.000000
# 4 0.000000 0.000000 0.000000 -0.058021 0.000000 0.000000
# 5 0.000000 0.000000 0.000000 0.000000 -0.506176 0.000000
# 6 0.000000 0.000000 0.000000 0.000000 0.000000 0.040522
#
#
# Mechanical properties :
#
#
# Convention : Reuss Voigt Hill
#
# Bulk Modulus (GPa) = 41.23873 43.29816 42.26844
# Shear Modulus (GPa) = -12.53084 10.89209 -0.81937
#
# Velocity S-wave (km/s) = -2.54142 2.36942 -0.64987
# Velocity P-wave (km/s) = 3.55585 5.45921 4.60690
#
# Compressibility (1/GPa) = 0.02424905
#
# Stress axis : x y z
#
# Youngs Moduli (GPa) = 26.36563 87.61513 47.45855
#
# Poissons Ratio (x) = 0.61139 0.80918
# Poissons Ratio (y) = 0.18398 -0.04492
# Poissons Ratio (z) = 0.44954 -0.08293
#
# Static dielectric constant tensor:
#      x y z
#    x 1.689000 0.000000 0.000000 
#    y 0.000000 1.752120 0.000000 
#    z 0.000000 0.000000 1.639350 
# 
# From -- ./inp_files/30015.got.cif
#   From: 2010.05.17/outbox.cif.g08.bks.cpg/sg58_16_cif.got.tgz:30015.got - 2010.06.03 14:20:14.
