data_PCOD9443068
_publ_section_title
;
Structure prediction by ZEFSAII (Michael W. Deem and Ramdas Pophale) SiO2 
 PCOD9443068
Probable space group: P N N M
;
_chemical_formula_sum "Si O2"
_cell_formula_units_Z 60
_cell_length_a 12.070090
_cell_length_b 8.224101
_cell_length_c 31.555076
_cell_angle_alpha 90.000000
_cell_angle_beta 90.000000
_cell_angle_gamma 90.000000
_cell_volume 3132.334790
_symmetry_space_group_name_H-M "P N N M"
_symmetry_group_IT_number 58
_symmetry_cell_setting 'orthorhombic'
loop_
_space_group_symop_operation_xyz
x,y,z
-x,-y,z
1/2+x,1/2-y,1/2-z
1/2-x,1/2+y,1/2-z
-x,-y,-z
x,y,-z
1/2-x,1/2+y,1/2+z
1/2+x,1/2-y,1/2+z
loop_
_atom_site_type_symbol
_atom_site_label
_atom_site_fract_x
_atom_site_fract_y
_atom_site_fract_z
Si Si1 0.008783 0.810928 0.450271
Si Si2 0.607998 0.892370 0.388914
Si Si3 0.744732 0.189766 0.950808
Si Si4 0.500000 0.000000 0.829940
Si Si5 0.566098 0.672979 0.780421
Si Si6 0.211420 0.338313 0.167311
Si Si7 0.015558 0.808989 0.187121
Si Si8 0.678725 0.905210 0.104933
O O1 0.043467 0.802099 0.500000
O O2 0.884376 0.742457 0.447613
O O3 0.093171 0.709035 0.421339
O O4 0.000000 0.000000 0.437765
O O5 0.675216 0.816187 0.427462
O O6 0.568104 0.756512 0.355837
O O7 0.500000 0.000000 0.401012
O O8 0.687235 0.003609 0.360257
O O9 0.745741 0.019073 0.926644
O O10 0.772813 0.175578 0.000000
O O11 0.488407 0.168192 0.803344
O O12 0.394407 0.993347 0.861309
O O13 0.500000 0.500000 0.783532
O O14 0.683838 0.645749 0.802503
O O15 0.580333 0.716778 0.730957
O O16 0.239579 0.201065 0.132964
O O17 0.101252 0.284546 0.191805
O O18 0.000000 0.000000 0.183110
#
# Coordination Sequence:
#
# PCOD9443068 Si02
#       8
#     8   8   8   4   8   8   8   8
#     4  10  20  34  56  88 126 159 197 255 312 376
#     4  10  23  41  64  85 118 162 206 265 311 373
#     4  11  22  37  60  89 119 163 209 253 316 370
#     4  10  22  36  59  90 128 164 197 252 300 370
#     4  10  24  41  61  94 129 162 211 261 306 375
#     4  10  23  39  62  92 118 167 207 249 317 376
#     4  10  22  44  62  89 124 158 207 258 313 370
#     4  11  20  37  57  90 124 160 204 246 307 376
#
# _framework density 19.15504
#
# number of rings (size 3 to 8) (size 9 to 14) (size 15 to 20)
#    0.000    1.733    1.333    2.000    4.667    5.600 
#    4.800    0.667    0.000    8.400    0.000    0.000 
#    0.000    0.000    0.000    0.000    0.000    0.000 
#
# Total GULP energy -335030.525613 kJ/mol
# GULP energy per Si atom -5583.842094 kJ/mol
# Density = 1.911144 g / cm^3
# Si number density = 19.155040 Si / 1000 Ang^3
#
#
#
# Elastic Constant Matrix: (Units=GPa)
#
#
# Indices 1 2 3 4 5 6 
#
# 1 34.4982 -1.1614 19.7728 0.0000 0.0000 0.0000
# 2 -1.1614 44.3847 21.1299 0.0000 0.0000 0.0000
# 3 19.7728 21.1299 79.7741 0.0000 0.0000 0.0000
# 4 0.0000 0.0000 0.0000 65.2025 0.0000 0.0000
# 5 0.0000 0.0000 0.0000 0.0000 3.7973 0.0000
# 6 0.0000 0.0000 0.0000 0.0000 0.0000 19.5216
#
#
#
# Elastic Compliance Matrix: (Units=1/GPa)
#
#
# Indices 1 2 3 4 5 6 
#
# 1 0.035036 0.005780 -0.010215 0.000000 0.000000 0.000000
# 2 0.005780 0.026735 -0.008514 0.000000 0.000000 0.000000
# 3 -0.010215 -0.008514 0.017322 0.000000 0.000000 0.000000
# 4 0.000000 0.000000 0.000000 0.015337 0.000000 0.000000
# 5 0.000000 0.000000 0.000000 0.000000 0.263347 0.000000
# 6 0.000000 0.000000 0.000000 0.000000 0.000000 0.051225
#
#
# Mechanical properties :
#
#
# Convention : Reuss Voigt Hill
#
# Bulk Modulus (GPa) = 18.79867 26.45995 22.62931
# Shear Modulus (GPa) = 11.04650 25.63198 18.33924
#
# Velocity S-wave (km/s) = 2.40404 3.66202 3.09756
# Velocity P-wave (km/s) = 4.18821 5.63241 4.96312
#
# Compressibility (1/GPa) = 0.05319527
#
# Stress axis : x y z
#
# Youngs Moduli (GPa) = 28.54172 37.40466 57.72885
#
# Poissons Ratio (x) = -0.21619 0.58970
# Poissons Ratio (y) = -0.16496 0.49149
# Poissons Ratio (z) = 0.29155 0.31846
#
# Static dielectric constant tensor:
#      x y z
#    x 1.670590 0.000000 0.000000 
#    y 0.000000 1.744670 0.000000 
#    z 0.000000 0.000000 1.651380 
# 
# From -- ./inp_files/33590.got.cif
#   From: 2010.05.17/outbox.cif.g08.bks.cpg/sg58_17_cif.got.tgz:33590.got - 2010.06.03 14:20:14.
