data_PCOD9443554
_publ_section_title
;
Structure prediction by ZEFSAII (Michael W. Deem and Ramdas Pophale) SiO2 
 PCOD9443554
Probable space group: P N N M
;
_chemical_formula_sum "Si O2"
_cell_formula_units_Z 48
_cell_length_a 17.020183
_cell_length_b 8.515269
_cell_length_c 12.816313
_cell_angle_alpha 90.000000
_cell_angle_beta 90.000000
_cell_angle_gamma 90.000000
_cell_volume 1857.486656
_symmetry_space_group_name_H-M "P N N M"
_symmetry_group_IT_number 58
_symmetry_cell_setting 'orthorhombic'
loop_
_space_group_symop_operation_xyz
x,y,z
-x,-y,z
1/2+x,1/2-y,1/2-z
1/2-x,1/2+y,1/2-z
-x,-y,-z
x,y,-z
1/2-x,1/2+y,1/2+z
1/2+x,1/2-y,1/2+z
loop_
_atom_site_type_symbol
_atom_site_label
_atom_site_fract_x
_atom_site_fract_y
_atom_site_fract_z
Si Si1 0.370166 0.756868 0.612892
Si Si2 0.595256 0.606196 0.386770
Si Si3 0.893717 0.645641 0.341802
Si Si4 0.540166 0.666870 0.163228
Si Si5 0.807227 0.335199 0.346340
Si Si6 0.759700 0.320427 0.114351
O O1 0.392522 0.823397 0.500000
O O2 0.404359 0.580518 0.622442
O O3 0.393829 0.852357 0.715100
O O4 0.276344 0.723932 0.614277
O O5 0.563843 0.653156 0.500000
O O6 0.551391 0.678027 0.288809
O O7 0.685920 0.663127 0.385680
O O8 0.854834 0.487517 0.383774
O O9 0.831385 0.779538 0.374104
O O10 0.980419 0.698717 0.373544
O O11 0.500000 0.500000 0.138547
O O12 0.630206 0.695867 0.132484
O O13 0.787189 0.385697 0.225652
O O14 0.773559 0.394878 0.000000
#
# Coordination Sequence:
#
# PCOD9443554 Si02
#       6
#     8   8   8   8   8   8
#     4  10  20  36  62  89 114 149 198 245 293 348
#     4   9  17  34  58  83 106 144 197 240 280 344
#     4  11  21  35  58  88 118 152 191 247 296 342
#     4  11  22  37  55  82 119 161 190 230 291 363
#     4  10  22  37  59  88 119 150 197 248 291 338
#     4   9  19  36  60  83 111 152 199 240 284 341
#
# _framework density 25.841370000000001
#
# number of rings (size 3 to 8) (size 9 to 14) (size 15 to 20)
#    0.000    2.000    3.333    0.500    0.000    1.667 
#    0.000    0.833    0.000    8.000    0.000    0.000 
#    0.000    0.000    0.000    0.000    0.000    0.000 
#
# Total GULP energy -268181.292099 kJ/mol
# GULP energy per Si atom -5587.110252 kJ/mol
# Density = 2.578255 g / cm^3
# Si number density = 25.841370 Si / 1000 Ang^3
#
#
#
# Elastic Constant Matrix: (Units=GPa)
#
#
# Indices 1 2 3 4 5 6 
#
# 1 142.1462 -9.5693 -3.2849 0.0000 0.0000 0.0000
# 2 -9.5693 20.7903 -1.2576 0.0000 0.0000 0.0000
# 3 -3.2849 -1.2576 149.7752 0.0000 0.0000 0.0000
# 4 0.0000 0.0000 0.0000 -7.1583 0.0000 0.0000
# 5 0.0000 0.0000 0.0000 0.0000 -116.5182 0.0000
# 6 0.0000 0.0000 0.0000 0.0000 0.0000 30.4107
#
#
#
# Elastic Compliance Matrix: (Units=1/GPa)
#
#
# Indices 1 2 3 4 5 6 
#
# 1 0.007265 0.003355 0.000188 0.000000 0.000000 0.000000
# 2 0.003355 0.049673 0.000491 0.000000 0.000000 0.000000
# 3 0.000188 0.000491 0.006685 0.000000 0.000000 0.000000
# 4 0.000000 0.000000 0.000000 -0.139697 0.000000 0.000000
# 5 0.000000 0.000000 0.000000 0.000000 -0.008582 0.000000
# 6 0.000000 0.000000 0.000000 0.000000 0.000000 0.032883
#
#
# Mechanical properties :
#
#
# Convention : Reuss Voigt Hill
#
# Bulk Modulus (GPa) = 13.94883 31.60980 22.77932
# Shear Modulus (GPa) = -139.10930 3.13507 -67.98711
#
# Velocity S-wave (km/s) = -7.34499 1.10265 -5.13483
# Velocity P-wave (km/s) = 8.15612 3.72557 5.13042
#
# Compressibility (1/GPa) = 0.07169058
#
# Stress axis : x y z
#
# Youngs Moduli (GPa) = 137.64198 20.13152 149.59074
#
# Poissons Ratio (x) = -0.06755 -0.02805
# Poissons Ratio (y) = -0.46184 -0.07340
# Poissons Ratio (z) = -0.02581 -0.00988
#
# Static dielectric constant tensor:
#      x y z
#    x 2.014450 0.000000 0.000000 
#    y 0.000000 2.024880 0.000000 
#    z 0.000000 0.000000 2.078860 
# 
# From -- ./inp_files/22767.got.cif
#   From: 2010.05.17/outbox.cif.g08.bks.cpg/sg58_12_cif.got.tgz:22767.got - 2010.06.03 14:20:14.
