data_PCOD9443498
_publ_section_title
;
Structure prediction by ZEFSAII (Michael W. Deem and Ramdas Pophale) SiO2 
 PCOD9443498
Probable space group: P N N M
;
_chemical_formula_sum "Si O2"
_cell_formula_units_Z 48
_cell_length_a 10.402150
_cell_length_b 28.231793
_cell_length_c 7.587143
_cell_angle_alpha 90.000000
_cell_angle_beta 90.000000
_cell_angle_gamma 90.000000
_cell_volume 2228.126494
_symmetry_space_group_name_H-M "P N N M"
_symmetry_group_IT_number 58
_symmetry_cell_setting 'orthorhombic'
loop_
_space_group_symop_operation_xyz
x,y,z
-x,-y,z
1/2+x,1/2-y,1/2-z
1/2-x,1/2+y,1/2-z
-x,-y,-z
x,y,-z
1/2-x,1/2+y,1/2+z
1/2+x,1/2-y,1/2+z
loop_
_atom_site_type_symbol
_atom_site_label
_atom_site_fract_x
_atom_site_fract_y
_atom_site_fract_z
Si Si1 0.487039 0.356574 0.287528
Si Si2 0.398365 0.460372 0.283871
Si Si3 0.263371 0.184189 0.290951
Si Si4 0.522622 0.136707 0.292884
Si Si5 0.248040 0.791804 0.786141
Si Si6 0.888966 0.532935 0.295789
O O1 0.483275 0.356834 0.500000
O O2 0.443203 0.408349 0.226482
O O3 0.630698 0.343237 0.234978
O O4 0.382568 0.317903 0.227940
O O5 0.500000 0.500000 0.230436
O O6 0.395652 0.459562 0.500000
O O7 0.254222 0.470827 0.219993
O O8 0.286549 0.189018 0.500000
O O9 0.387422 0.156332 0.220482
O O10 0.249239 0.237769 0.221806
O O11 0.507798 0.126389 0.500000
O O12 0.630340 0.177115 0.271271
O O13 0.569268 0.087729 0.209015
O O14 0.250002 0.791708 0.000000
O O15 0.876267 0.517915 0.500000
O O16 0.000000 0.500000 0.215833
#
# Coordination Sequence:
#
# PCOD9443498 Si02
#       6
#     8   8   8   8   8   8
#     4  10  20  36  60  85 114 148 189 239 288 338
#     4   9  18  34  57  86 113 140 181 236 286 330
#     4  10  23  38  55  83 119 154 190 235 283 339
#     4  11  23  39  59  85 121 156 189 235 293 346
#     4  10  20  39  61  82 112 151 196 241 283 334
#     4  10  21  38  62  87 113 149 194 239 285 340
#
# _framework density 21.542762
#
# number of rings (size 3 to 8) (size 9 to 14) (size 15 to 20)
#    0.000    2.000    1.667    1.500    2.333    4.333 
#    0.000    0.000    0.000    1.000    0.000    0.000 
#    0.000    0.000    0.000    0.000    0.000    0.000 
#
# Total GULP energy -268281.223536 kJ/mol
# GULP energy per Si atom -5589.192157 kJ/mol
# Density = 2.149373 g / cm^3
# Si number density = 21.542762 Si / 1000 Ang^3
#
#
#
# Elastic Constant Matrix: (Units=GPa)
#
#
# Indices 1 2 3 4 5 6 
#
# 1 216.5567 92.1579 -11.5384 0.0000 0.0000 0.0000
# 2 92.1579 120.0218 -4.8935 0.0000 0.0000 0.0000
# 3 -11.5384 -4.8935 44.7155 0.0000 0.0000 0.0000
# 4 0.0000 0.0000 0.0000 9.6964 0.0000 0.0000
# 5 0.0000 0.0000 0.0000 0.0000 43.7504 0.0000
# 6 0.0000 0.0000 0.0000 0.0000 0.0000 45.0575
#
#
#
# Elastic Compliance Matrix: (Units=1/GPa)
#
#
# Indices 1 2 3 4 5 6 
#
# 1 0.006924 -0.005267 0.001210 0.000000 0.000000 0.000000
# 2 -0.005267 0.012376 -0.000005 0.000000 0.000000 0.000000
# 3 0.001210 -0.000005 0.022675 0.000000 0.000000 0.000000
# 4 0.000000 0.000000 0.000000 0.103131 0.000000 0.000000
# 5 0.000000 0.000000 0.000000 0.000000 0.022857 0.000000
# 6 0.000000 0.000000 0.000000 0.000000 0.000000 0.022194
#
#
# Mechanical properties :
#
#
# Convention : Reuss Voigt Hill
#
# Bulk Modulus (GPa) = 29.54046 59.19402 44.36724
# Shear Modulus (GPa) = 23.85913 40.07206 31.96559
#
# Velocity S-wave (km/s) = 3.33156 4.31759 3.85622
# Velocity P-wave (km/s) = 5.34240 7.23827 6.36136
#
# Compressibility (1/GPa) = 0.03385187
#
# Stress axis : x y z
#
# Youngs Moduli (GPa) = 144.43383 80.80306 44.10071
#
# Poissons Ratio (x) = 0.42558 -0.05337
# Poissons Ratio (y) = 0.76072 0.00021
# Poissons Ratio (z) = -0.17479 0.00038
#
# Static dielectric constant tensor:
#      x y z
#    x 1.751490 0.000000 0.000000 
#    y 0.000000 1.736060 0.000000 
#    z 0.000000 0.000000 1.747040 
# 
# From -- ./inp_files/2878.got.cif
#   From: 2010.05.17/outbox.cif.g08.bks.cpg/sg58_2_cif.got.tgz:2878.got - 2010.06.03 14:20:14.
