data_PCOD9443920
_publ_section_title
;
Structure prediction by ZEFSAII (Michael W. Deem and Ramdas Pophale) SiO2 
 PCOD9443920
Probable space group: P N N M
;
_chemical_formula_sum "Si O2"
_cell_formula_units_Z 48
_cell_length_a 11.977936
_cell_length_b 15.719172
_cell_length_c 12.973878
_cell_angle_alpha 90.000000
_cell_angle_beta 90.000000
_cell_angle_gamma 90.000000
_cell_volume 2442.763736
_symmetry_space_group_name_H-M "P N N M"
_symmetry_group_IT_number 58
_symmetry_cell_setting 'orthorhombic'
loop_
_space_group_symop_operation_xyz
x,y,z
-x,-y,z
1/2+x,1/2-y,1/2-z
1/2-x,1/2+y,1/2-z
-x,-y,-z
x,y,-z
1/2-x,1/2+y,1/2+z
1/2+x,1/2-y,1/2+z
loop_
_atom_site_type_symbol
_atom_site_label
_atom_site_fract_x
_atom_site_fract_y
_atom_site_fract_z
Si Si1 0.896584 0.246766 0.615144
Si Si2 0.377609 0.154155 0.618952
Si Si3 0.449998 0.340661 0.682762
Si Si4 0.751850 0.049432 0.881184
Si Si5 0.286699 0.639138 0.694786
Si Si6 0.031161 0.405351 0.705029
O O1 0.914472 0.218524 0.500000
O O2 0.918292 0.174680 0.698299
O O3 0.774010 0.285206 0.633790
O O4 0.976459 0.327448 0.642417
O O5 0.364824 0.129456 0.500000
O O6 0.413394 0.253142 0.626924
O O7 0.266263 0.143354 0.689651
O O8 0.475141 0.104943 0.682245
O O9 0.375818 0.415304 0.636413
O O10 0.581756 0.353501 0.682294
O O11 0.664046 0.098431 0.807883
O O12 0.749493 0.950556 0.852746
O O13 0.718929 0.062480 0.000000
O O14 0.000000 0.500000 0.665830
#
# Coordination Sequence:
#
# PCOD9443920 Si02
#       6
#     8   8   8   8   8   8
#     4  10  22  38  62  85 116 158 197 250 301 346
#     4  10  23  41  63  87 121 165 200 244 305 359
#     4  10  24  40  58  90 125 154 205 246 291 367
#     4  12  23  38  63  91 120 157 198 249 312 353
#     4  10  22  41  59  88 124 151 202 253 293 357
#     4  10  20  39  59  91 119 147 204 254 289 351
#
# _framework density 19.649872999999999
#
# number of rings (size 3 to 8) (size 9 to 14) (size 15 to 20)
#    0.000    2.000    3.333    2.000    9.333    5.000 
#    0.000    0.833    0.000    2.000    0.000    0.000 
#    0.000    0.000    0.000    0.000    0.000    0.000 
#
# Total GULP energy -267868.305211 kJ/mol
# GULP energy per Si atom -5580.589692 kJ/mol
# Density = 1.960515 g / cm^3
# Si number density = 19.649873 Si / 1000 Ang^3
#
#
#
# Elastic Constant Matrix: (Units=GPa)
#
#
# Indices 1 2 3 4 5 6 
#
# 1 98.4402 -9.6432 -26.5466 0.0000 0.0000 0.0000
# 2 -9.6432 20.3324 -10.7142 0.0000 0.0000 0.0000
# 3 -26.5466 -10.7142 51.0678 0.0000 0.0000 0.0000
# 4 0.0000 0.0000 0.0000 4.8385 0.0000 0.0000
# 5 0.0000 0.0000 0.0000 0.0000 2.9333 0.0000
# 6 0.0000 0.0000 0.0000 0.0000 0.0000 28.6272
#
#
#
# Elastic Compliance Matrix: (Units=1/GPa)
#
#
# Indices 1 2 3 4 5 6 
#
# 1 0.013919 0.011709 0.009692 0.000000 0.000000 0.000000
# 2 0.011709 0.065146 0.019754 0.000000 0.000000 0.000000
# 3 0.009692 0.019754 0.028765 0.000000 0.000000 0.000000
# 4 0.000000 0.000000 0.000000 0.206676 0.000000 0.000000
# 5 0.000000 0.000000 0.000000 0.000000 0.340915 0.000000
# 6 0.000000 0.000000 0.000000 0.000000 0.000000 0.034932
#
#
# Mechanical properties :
#
#
# Convention : Reuss Voigt Hill
#
# Bulk Modulus (GPa) = 5.25927 8.44804 6.85365
# Shear Modulus (GPa) = 7.44689 21.72944 14.58816
#
# Velocity S-wave (km/s) = 1.94885 3.32901 2.72767
# Velocity P-wave (km/s) = 2.78322 4.36864 3.66274
#
# Compressibility (1/GPa) = 0.19014057
#
# Stress axis : x y z
#
# Youngs Moduli (GPa) = 71.84341 15.35022 34.76486
#
# Poissons Ratio (x) = -0.17973 -0.33695
# Poissons Ratio (y) = -0.84121 -0.68676
# Poissons Ratio (z) = -0.69632 -0.30324
#
# Static dielectric constant tensor:
#      x y z
#    x 1.731300 0.000000 0.000000 
#    y 0.000000 1.684950 0.000000 
#    z 0.000000 0.000000 1.691550 
# 
# From -- ./inp_files/21147.got.cif
#   From: 2010.05.17/outbox.cif.g08.bks.cpg/sg58_11_cif.got.tgz:21147.got - 2010.06.03 14:20:14.
