data_PCOD9443848
_publ_section_title
;
Structure prediction by ZEFSAII (Michael W. Deem and Ramdas Pophale) SiO2 
 PCOD9443848
Probable space group: P N N M
;
_chemical_formula_sum "Si O2"
_cell_formula_units_Z 58
_cell_length_a 24.293923
_cell_length_b 13.245248
_cell_length_c 7.916758
_cell_angle_alpha 90.000000
_cell_angle_beta 90.000000
_cell_angle_gamma 90.000000
_cell_volume 2547.446750
_symmetry_space_group_name_H-M "P N N M"
_symmetry_group_IT_number 58
_symmetry_cell_setting 'orthorhombic'
loop_
_space_group_symop_operation_xyz
x,y,z
-x,-y,z
1/2+x,1/2-y,1/2-z
1/2-x,1/2+y,1/2-z
-x,-y,-z
x,y,-z
1/2-x,1/2+y,1/2+z
1/2+x,1/2-y,1/2+z
loop_
_atom_site_type_symbol
_atom_site_label
_atom_site_fract_x
_atom_site_fract_y
_atom_site_fract_z
Si Si1 0.579090 0.536139 0.200559
Si Si2 0.000000 0.000000 0.000000
Si Si3 0.162719 0.105576 0.202942
Si Si4 0.761353 0.251581 0.191267
Si Si5 0.179569 0.413723 0.195776
Si Si6 0.920124 0.718673 0.797056
Si Si7 0.352621 0.123954 0.807041
Si Si8 0.953892 0.263153 0.299437
O O1 0.545321 0.477174 0.347093
O O2 0.642156 0.501006 0.224970
O O3 0.564893 0.651111 0.252898
O O4 0.564653 0.522080 0.000000
O O5 0.217048 0.159847 0.270815
O O6 0.114159 0.183074 0.257332
O O7 0.167221 0.101443 0.000000
O O8 0.728760 0.147269 0.217786
O O9 0.814297 0.276982 0.302333
O O10 0.780364 0.257290 0.000000
O O11 0.120006 0.372502 0.257028
O O12 0.177894 0.532850 0.215206
O O13 0.183945 0.384459 0.000000
O O14 0.982432 0.717708 0.736155
O O15 0.923028 0.719273 0.000000
O O16 0.411456 0.154138 0.729843
O O17 0.359025 0.090252 0.000000
O O18 0.946050 0.265058 0.500000
#
# Coordination Sequence:
#
# PCOD9443848 Si02
#       8
#     8   2   8   8   8   8   8   8
#     4  11  23  38  57  90 132 175 219 269 326 391
#     4  12  22  36  56  90 124 174 218 260 328 380
#     4  10  20  38  62  93 126 168 216 268 323 386
#     4  11  23  41  66  96 125 164 208 265 327 385
#     4  10  22  43  66  95 125 161 209 262 317 383
#     4   9  20  36  60  87 123 164 205 254 311 375
#     4  11  24  44  65  91 126 168 212 266 324 387
#     4  10  24  40  58  87 127 169 216 266 323 383
#
# _framework density 22.767894999999999
#
# number of rings (size 3 to 8) (size 9 to 14) (size 15 to 20)
#    0.000    1.655    0.690    4.345    2.897    7.172 
#    0.000    6.897    0.000    0.000    0.000    0.000 
#    0.000    0.000    0.000    0.000    0.000    0.000 
#
# Total GULP energy -323416.500994 kJ/mol
# GULP energy per Si atom -5576.146569 kJ/mol
# Density = 2.271607 g / cm^3
# Si number density = 22.767895 Si / 1000 Ang^3
#
#
#
# Elastic Constant Matrix: (Units=GPa)
#
#
# Indices 1 2 3 4 5 6 
#
# 1 82.2302 24.3122 -12.5197 0.0000 0.0000 0.0000
# 2 24.3122 65.2101 -1.4362 0.0000 0.0000 0.0000
# 3 -12.5197 -1.4362 71.7231 0.0000 0.0000 0.0000
# 4 0.0000 0.0000 0.0000 18.3864 0.0000 0.0000
# 5 0.0000 0.0000 0.0000 0.0000 26.6799 0.0000
# 6 0.0000 0.0000 0.0000 0.0000 0.0000 24.9144
#
#
#
# Elastic Compliance Matrix: (Units=1/GPa)
#
#
# Indices 1 2 3 4 5 6 
#
# 1 0.014052 -0.005187 0.002349 0.000000 0.000000 0.000000
# 2 -0.005187 0.017257 -0.000560 0.000000 0.000000 0.000000
# 3 0.002349 -0.000560 0.014341 0.000000 0.000000 0.000000
# 4 0.000000 0.000000 0.000000 0.054388 0.000000 0.000000
# 5 0.000000 0.000000 0.000000 0.000000 0.037481 0.000000
# 6 0.000000 0.000000 0.000000 0.000000 0.000000 0.040137
#
#
# Mechanical properties :
#
#
# Convention : Reuss Voigt Hill
#
# Bulk Modulus (GPa) = 25.73743 26.65285 26.19514
# Shear Modulus (GPa) = 25.32862 27.91660 26.62261
#
# Velocity S-wave (km/s) = 3.33899 3.50543 3.42322
# Velocity P-wave (km/s) = 5.11800 5.30243 5.21103
#
# Compressibility (1/GPa) = 0.03885391
#
# Stress axis : x y z
#
# Youngs Moduli (GPa) = 71.16256 57.94844 69.72846
#
# Poissons Ratio (x) = 0.30060 -0.16380
# Poissons Ratio (y) = 0.36915 0.03904
# Poissons Ratio (z) = -0.16716 0.03245
#
# Static dielectric constant tensor:
#      x y z
#    x 1.896700 0.000000 0.000000 
#    y 0.000000 1.898220 0.000000 
#    z 0.000000 0.000000 1.785360 
# 
# From -- ./inp_files/9855.got.cif
#   From: 2010.05.17/outbox.cif.g08.bks.cpg/sg58_5_cif.got.tgz:9855.got - 2010.06.03 14:20:14.
