data_PCOD9443392
_publ_section_title
;
Structure prediction by ZEFSAII (Michael W. Deem and Ramdas Pophale) SiO2 
 PCOD9443392
Probable space group: P N N M
;
_chemical_formula_sum "Si O2"
_cell_formula_units_Z 40
_cell_length_a 18.720470
_cell_length_b 13.755943
_cell_length_c 8.836363
_cell_angle_alpha 90.000000
_cell_angle_beta 90.000000
_cell_angle_gamma 90.000000
_cell_volume 2275.520037
_symmetry_space_group_name_H-M "P N N M"
_symmetry_group_IT_number 58
_symmetry_cell_setting 'orthorhombic'
loop_
_space_group_symop_operation_xyz
x,y,z
-x,-y,z
1/2+x,1/2-y,1/2-z
1/2-x,1/2+y,1/2-z
-x,-y,-z
x,y,-z
1/2-x,1/2+y,1/2+z
1/2+x,1/2-y,1/2+z
loop_
_atom_site_type_symbol
_atom_site_label
_atom_site_fract_x
_atom_site_fract_y
_atom_site_fract_z
Si Si1 0.216742 0.102024 0.681067
Si Si2 0.639228 0.198412 0.820165
Si Si3 0.707612 0.605361 0.319067
Si Si4 0.496927 0.114532 0.320278
Si Si5 0.645057 0.797441 0.819516
O O1 0.223854 0.093646 0.500000
O O2 0.162472 0.190718 0.712651
O O3 0.292645 0.134804 0.750025
O O4 0.193349 0.000548 0.752479
O O5 0.709682 0.134141 0.787080
O O6 0.571234 0.162945 0.728675
O O7 0.624794 0.190397 0.000000
O O8 0.698329 0.607546 0.500000
O O9 0.660430 0.689649 0.243960
O O10 0.485987 0.124500 0.500000
O O11 0.431152 0.163705 0.234217
O O12 0.500000 0.000000 0.283509
O O13 0.650395 0.798141 0.000000
#
# Coordination Sequence:
#
# PCOD9443392 Si02
#       5
#     8   8   8   8   8
#     4  10  20  36  57  82 112 143 181 226 270 320
#     4   9  20  36  54  79 110 142 177 220 267 321
#     4  10  20  36  58  83 111 143 182 225 271 323
#     4  11  23  37  55  80 110 142 178 225 275 323
#     4  11  22  36  56  81 111 146 183 224 271 322
#
# _framework density 17.578398
#
# number of rings (size 3 to 8) (size 9 to 14) (size 15 to 20)
#    0.000    1.800    0.000    6.000    0.000    9.600 
#    0.000    1.000    0.000    6.000    0.000    0.000 
#    0.000    0.000    0.000    0.000    0.000    0.000 
#
# Total GULP energy -223506.804538 kJ/mol
# GULP energy per Si atom -5587.670113 kJ/mol
# Density = 1.753839 g / cm^3
# Si number density = 17.578398 Si / 1000 Ang^3
#
#
#
# Elastic Constant Matrix: (Units=GPa)
#
#
# Indices 1 2 3 4 5 6 
#
# 1 93.4410 50.0316 63.3675 0.0000 0.0000 0.0000
# 2 50.0316 121.7939 63.5648 0.0000 0.0000 0.0000
# 3 63.3675 63.5648 98.4085 0.0000 0.0000 0.0000
# 4 0.0000 0.0000 0.0000 36.8491 0.0000 0.0000
# 5 0.0000 0.0000 0.0000 0.0000 28.0822 0.0000
# 6 0.0000 0.0000 0.0000 0.0000 0.0000 10.1828
#
#
#
# Elastic Compliance Matrix: (Units=1/GPa)
#
#
# Indices 1 2 3 4 5 6 
#
# 1 0.019376 -0.002184 -0.011066 0.000000 0.000000 0.000000
# 2 -0.002184 0.012632 -0.006753 0.000000 0.000000 0.000000
# 3 -0.011066 -0.006753 0.021649 0.000000 0.000000 0.000000
# 4 0.000000 0.000000 0.000000 0.027138 0.000000 0.000000
# 5 0.000000 0.000000 0.000000 0.000000 0.035610 0.000000
# 6 0.000000 0.000000 0.000000 0.000000 0.000000 0.098205
#
#
# Mechanical properties :
#
#
# Convention : Reuss Voigt Hill
#
# Bulk Modulus (GPa) = 73.25297 74.17456 73.71377
# Shear Modulus (GPa) = 19.29271 24.13480 21.71375
#
# Velocity S-wave (km/s) = 3.31648 3.70940 3.51843
# Velocity P-wave (km/s) = 7.51186 7.78680 7.65056
#
# Compressibility (1/GPa) = 0.01365132
#
# Stress axis : x y z
#
# Youngs Moduli (GPa) = 51.61137 79.16216 46.19116
#
# Poissons Ratio (x) = 0.17290 0.51113
# Poissons Ratio (y) = 0.11272 0.31194
# Poissons Ratio (z) = 0.57111 0.53459
#
# Static dielectric constant tensor:
#      x y z
#    x 1.564560 0.000000 0.000000 
#    y 0.000000 1.587600 0.000000 
#    z 0.000000 0.000000 1.582530 
# 
# From -- ./inp_files/3758.got.cif
#   From: 2010.05.17/outbox.cif.g08.bks.cpg/sg58_2_cif.got.tgz:3758.got - 2010.06.03 14:20:14.
