data_PCOD9443456
_publ_section_title
;
Structure prediction by ZEFSAII (Michael W. Deem and Ramdas Pophale) SiO2 
 PCOD9443456
Probable space group: P N N M
;
_chemical_formula_sum "Si O2"
_cell_formula_units_Z 64
_cell_length_a 19.110607
_cell_length_b 20.457889
_cell_length_c 7.738317
_cell_angle_alpha 90.000000
_cell_angle_beta 90.000000
_cell_angle_gamma 90.000000
_cell_volume 3025.393128
_symmetry_space_group_name_H-M "P N N M"
_symmetry_group_IT_number 58
_symmetry_cell_setting 'orthorhombic'
loop_
_space_group_symop_operation_xyz
x,y,z
-x,-y,z
1/2+x,1/2-y,1/2-z
1/2-x,1/2+y,1/2-z
-x,-y,-z
x,y,-z
1/2-x,1/2+y,1/2+z
1/2+x,1/2-y,1/2+z
loop_
_atom_site_type_symbol
_atom_site_label
_atom_site_fract_x
_atom_site_fract_y
_atom_site_fract_z
Si Si1 0.707296 0.851909 0.288836
Si Si2 0.550357 0.820238 0.710693
Si Si3 0.323961 0.750762 0.200284
Si Si4 0.215881 0.017696 0.706974
Si Si5 0.800870 0.602495 0.800084
Si Si6 0.943096 0.947396 0.209229
Si Si7 0.029216 0.197291 0.800611
Si Si8 0.548080 0.059268 0.796529
O O1 0.706418 0.852441 0.500000
O O2 0.628249 0.838847 0.232684
O O3 0.760426 0.794450 0.236291
O O4 0.738209 0.921104 0.228697
O O5 0.548396 0.820238 0.500000
O O6 0.525684 0.749030 0.774150
O O7 0.495373 0.874347 0.771773
O O8 0.306667 0.827121 0.212462
O O9 0.395506 0.732793 0.295590
O O10 0.336490 0.733828 0.000000
O O11 0.225809 0.015573 0.500000
O O12 0.135106 0.031982 0.741889
O O13 0.244621 0.948554 0.773990
O O14 0.876494 0.567472 0.789222
O O15 0.784482 0.615920 0.000000
O O16 0.961232 0.874750 0.275966
O O17 0.944754 0.945459 0.000000
O O18 0.000000 0.000000 0.268419
O O19 0.008395 0.187511 0.000000
O O20 0.500000 0.000000 0.729274
O O21 0.560378 0.048202 0.000000
#
# Coordination Sequence:
#
# PCOD9443456 Si02
#       8
#     8   8   8   8   8   8   8   8
#     4   9  19  36  59  87 113 151 199 241 289 351
#     4  10  20  36  59  84 114 153 200 243 288 352
#     4  11  21  36  61  86 117 155 195 243 295 350
#     4  10  21  39  60  84 117 157 203 248 293 352
#     4  11  23  38  59  86 118 155 198 242 291 357
#     4  10  22  39  61  90 122 158 202 249 300 354
#     4  10  20  36  59  86 116 154 198 243 292 350
#     4  11  23  37  54  82 119 153 192 241 294 348
#
# _framework density 21.154275999999999
#
# number of rings (size 3 to 8) (size 9 to 14) (size 15 to 20)
#    0.000    1.750    2.500    1.875    0.000    4.250 
#    0.000    4.375    0.000    0.000    0.000    0.000 
#    0.000    0.000    0.000    0.000    0.000    0.000 
#
# Total GULP energy -357653.884752 kJ/mol
# GULP energy per Si atom -5588.341949 kJ/mol
# Density = 2.110613 g / cm^3
# Si number density = 21.154276 Si / 1000 Ang^3
#
#
#
# Elastic Constant Matrix: (Units=GPa)
#
#
# Indices 1 2 3 4 5 6 
#
# 1 101.5423 50.8387 -11.8956 0.0000 0.0000 0.0000
# 2 50.8387 156.5247 -6.2706 0.0000 0.0000 0.0000
# 3 -11.8956 -6.2706 35.2112 0.0000 0.0000 0.0000
# 4 0.0000 0.0000 0.0000 16.5326 0.0000 0.0000
# 5 0.0000 0.0000 0.0000 0.0000 16.1278 0.0000
# 6 0.0000 0.0000 0.0000 0.0000 0.0000 45.3847
#
#
#
# Elastic Compliance Matrix: (Units=1/GPa)
#
#
# Indices 1 2 3 4 5 6 
#
# 1 0.012158 -0.003812 0.003429 0.000000 0.000000 0.000000
# 2 -0.003812 0.007630 0.000071 0.000000 0.000000 0.000000
# 3 0.003429 0.000071 0.029571 0.000000 0.000000 0.000000
# 4 0.000000 0.000000 0.000000 0.060487 0.000000 0.000000
# 5 0.000000 0.000000 0.000000 0.000000 0.062005 0.000000
# 6 0.000000 0.000000 0.000000 0.000000 0.000000 0.022034
#
#
# Mechanical properties :
#
#
# Convention : Reuss Voigt Hill
#
# Bulk Modulus (GPa) = 20.51911 39.84700 30.18305
# Shear Modulus (GPa) = 23.72451 32.98274 28.35362
#
# Velocity S-wave (km/s) = 3.35251 3.95289 3.66502
# Velocity P-wave (km/s) = 4.97057 6.30167 5.67528
#
# Compressibility (1/GPa) = 0.04873506
#
# Stress axis : x y z
#
# Youngs Moduli (GPa) = 82.24984 131.06868 33.81685
#
# Poissons Ratio (x) = 0.49957 -0.11595
# Poissons Ratio (y) = 0.31350 -0.00240
# Poissons Ratio (z) = -0.28201 -0.00931
#
# Static dielectric constant tensor:
#      x y z
#    x 1.713900 0.000000 0.000000 
#    y 0.000000 1.761210 0.000000 
#    z 0.000000 0.000000 1.777480 
# 
# From -- ./inp_files/8293.got.cif
#   From: 2010.05.17/outbox.cif.g08.bks.cpg/sg58_5_cif.got.tgz:8293.got - 2010.06.03 14:20:14.
