data_PCOD9443297
_publ_section_title
;
Structure prediction by ZEFSAII (Michael W. Deem and Ramdas Pophale) SiO2 
 PCOD9443297
Probable space group: P N N M
;
_chemical_formula_sum "Si O2"
_cell_formula_units_Z 56
_cell_length_a 20.222896
_cell_length_b 15.241349
_cell_length_c 9.353326
_cell_angle_alpha 90.000000
_cell_angle_beta 90.000000
_cell_angle_gamma 90.000000
_cell_volume 2882.921571
_symmetry_space_group_name_H-M "P N N M"
_symmetry_group_IT_number 58
_symmetry_cell_setting 'orthorhombic'
loop_
_space_group_symop_operation_xyz
x,y,z
-x,-y,z
1/2+x,1/2-y,1/2-z
1/2-x,1/2+y,1/2-z
-x,-y,-z
x,y,-z
1/2-x,1/2+y,1/2+z
1/2+x,1/2-y,1/2+z
loop_
_atom_site_type_symbol
_atom_site_label
_atom_site_fract_x
_atom_site_fract_y
_atom_site_fract_z
Si Si1 0.179104 0.820700 0.330509
Si Si2 0.459262 0.587063 0.332187
Si Si3 0.410666 0.150450 0.830550
Si Si4 0.328382 0.816206 0.336399
Si Si5 0.686179 0.973389 0.334871
Si Si6 0.042900 0.261487 0.329771
Si Si7 0.818275 0.997030 0.168975
O O1 0.178845 0.844401 0.500000
O O2 0.127726 0.742649 0.307873
O O3 0.253787 0.787952 0.298176
O O4 0.166770 0.907779 0.238456
O O5 0.500000 0.500000 0.295403
O O6 0.471123 0.606095 0.500000
O O7 0.478613 0.669006 0.236806
O O8 0.382063 0.564144 0.313038
O O9 0.373374 0.077822 0.739266
O O10 0.487089 0.166663 0.792470
O O11 0.406016 0.130035 0.000000
O O12 0.342011 0.787986 0.500000
O O13 0.386020 0.783639 0.235004
O O14 0.326374 0.922078 0.331919
O O15 0.693902 0.946934 0.500000
O O16 0.753870 0.959412 0.247555
O O17 0.045448 0.255414 0.500000
O O18 0.805549 0.007027 0.000000
#
# Coordination Sequence:
#
# PCOD9443297 Si02
#       7
#     8   8   8   8   8   8   8
#     4   9  19  37  60  83 113 152 192 236 287 344
#     4  10  22  39  59  84 118 158 196 233 284 351
#     4  10  22  39  58  84 118 153 191 238 295 345
#     4   9  20  39  59  81 113 151 193 239 288 348
#     4  10  22  39  60  86 112 148 196 242 290 345
#     4  11  24  38  57  87 119 153 193 242 293 342
#     4  10  20  35  58  86 115 149 189 238 292 341
#
# _framework density 19.424738000000001
#
# number of rings (size 3 to 8) (size 9 to 14) (size 15 to 20)
#    0.000    2.143    0.000    3.000    2.000    6.571 
#    0.000    2.857    0.000    0.000    0.000    0.000 
#    0.000    0.000    0.000    0.000    0.000    0.000 
#
# Total GULP energy -312906.809968 kJ/mol
# GULP energy per Si atom -5587.621607 kJ/mol
# Density = 1.938053 g / cm^3
# Si number density = 19.424738 Si / 1000 Ang^3
#
#
#
# Elastic Constant Matrix: (Units=GPa)
#
#
# Indices 1 2 3 4 5 6 
#
# 1 62.4250 4.3088 28.9204 0.0000 0.0000 0.0000
# 2 4.3088 15.2763 12.3996 0.0000 0.0000 0.0000
# 3 28.9204 12.3996 54.5648 0.0000 0.0000 0.0000
# 4 0.0000 0.0000 0.0000 32.5598 0.0000 0.0000
# 5 0.0000 0.0000 0.0000 0.0000 0.9946 0.0000
# 6 0.0000 0.0000 0.0000 0.0000 0.0000 22.9644
#
#
#
# Elastic Compliance Matrix: (Units=1/GPa)
#
#
# Indices 1 2 3 4 5 6 
#
# 1 0.021420 0.003891 -0.012237 0.000000 0.000000 0.000000
# 2 0.003891 0.080973 -0.020463 0.000000 0.000000 0.000000
# 3 -0.012237 -0.020463 0.029463 0.000000 0.000000 0.000000
# 4 0.000000 0.000000 0.000000 0.030713 0.000000 0.000000
# 5 0.000000 0.000000 0.000000 0.000000 1.005443 0.000000
# 6 0.000000 0.000000 0.000000 0.000000 0.000000 0.043546
#
#
# Mechanical properties :
#
#
# Convention : Reuss Voigt Hill
#
# Bulk Modulus (GPa) = 13.47025 24.83595 19.15310
# Shear Modulus (GPa) = 3.86422 17.07960 10.47191
#
# Velocity S-wave (km/s) = 1.41197 2.96847 2.32438
# Velocity P-wave (km/s) = 3.09965 4.95606 4.13342
#
# Compressibility (1/GPa) = 0.07423765
#
# Stress axis : x y z
#
# Youngs Moduli (GPa) = 46.68553 12.34976 33.94089
#
# Poissons Ratio (x) = -0.04806 0.41534
# Poissons Ratio (y) = -0.18166 0.69454
# Poissons Ratio (z) = 0.57130 0.25272
#
# Static dielectric constant tensor:
#      x y z
#    x 1.682000 0.000000 0.000000 
#    y 0.000000 1.667260 0.000000 
#    z 0.000000 0.000000 1.646590 
# 
# From -- ./inp_files/8967.got.cif
#   From: 2010.05.17/outbox.cif.g08.bks.cpg/sg58_5_cif.got.tgz:8967.got - 2010.06.03 14:20:14.
