data_PCOD9443687
_publ_section_title
;
Structure prediction by ZEFSAII (Michael W. Deem and Ramdas Pophale) SiO2 
 PCOD9443687
Probable space group: P N N M
;
_chemical_formula_sum "Si O2"
_cell_formula_units_Z 48
_cell_length_a 19.491583
_cell_length_b 15.562835
_cell_length_c 8.523347
_cell_angle_alpha 90.000000
_cell_angle_beta 90.000000
_cell_angle_gamma 90.000000
_cell_volume 2585.508645
_symmetry_space_group_name_H-M "P N N M"
_symmetry_group_IT_number 58
_symmetry_cell_setting 'orthorhombic'
loop_
_space_group_symop_operation_xyz
x,y,z
-x,-y,z
1/2+x,1/2-y,1/2-z
1/2-x,1/2+y,1/2-z
-x,-y,-z
x,y,-z
1/2-x,1/2+y,1/2+z
1/2+x,1/2-y,1/2+z
loop_
_atom_site_type_symbol
_atom_site_label
_atom_site_fract_x
_atom_site_fract_y
_atom_site_fract_z
Si Si1 0.923350 0.972503 0.191140
Si Si2 0.077391 0.527015 0.689437
Si Si3 0.573051 0.277824 0.689906
Si Si4 0.326218 0.372589 0.311903
Si Si5 0.172198 0.376054 0.187743
Si Si6 0.923384 0.275744 0.688173
O O1 0.909345 0.874801 0.240885
O O2 0.868290 0.043012 0.243234
O O3 0.923180 0.973171 0.000000
O O4 0.000000 0.000000 0.240567
O O5 0.081637 0.521686 0.500000
O O6 0.131148 0.460760 0.760741
O O7 0.089390 0.625621 0.736739
O O8 0.000000 0.500000 0.734861
O O9 0.571039 0.277063 0.500000
O O10 0.627732 0.206486 0.741830
O O11 0.497668 0.253296 0.749768
O O12 0.328182 0.371780 0.500000
O O13 0.248302 0.374699 0.255856
O O14 0.366319 0.289327 0.250259
O O15 0.176179 0.372995 0.000000
O O16 0.924431 0.273213 0.500000
#
# Coordination Sequence:
#
# PCOD9443687 Si02
#       6
#     8   8   8   8   8   8
#     4   9  17  34  61  87 110 147 199 240 283 354
#     4  10  21  39  62  87 118 159 203 244 299 365
#     4  10  20  37  61  87 116 153 197 243 296 356
#     4  11  23  40  62  86 121 162 199 243 302 363
#     4  11  24  39  59  90 126 156 196 252 303 354
#     4  11  22  37  61  90 120 153 199 251 297 354
#
# _framework density 18.565010999999998
#
# number of rings (size 3 to 8) (size 9 to 14) (size 15 to 20)
#    0.000    1.667    3.333    1.500    0.000    3.667 
#    0.000    5.833    0.000    0.000    0.000    0.000 
#    0.000    0.000    0.000    0.000    0.000    0.000 
#
# Total GULP energy -268162.348124 kJ/mol
# GULP energy per Si atom -5586.715586 kJ/mol
# Density = 1.852276 g / cm^3
# Si number density = 18.565011 Si / 1000 Ang^3
#
#
#
# Elastic Constant Matrix: (Units=GPa)
#
#
# Indices 1 2 3 4 5 6 
#
# 1 169.9491 108.4101 27.6237 0.0000 0.0000 0.0000
# 2 108.4101 214.2529 36.0935 0.0000 0.0000 0.0000
# 3 27.6237 36.0935 22.5529 0.0000 0.0000 0.0000
# 4 0.0000 0.0000 0.0000 11.2230 0.0000 0.0000
# 5 0.0000 0.0000 0.0000 0.0000 31.7018 0.0000
# 6 0.0000 0.0000 0.0000 0.0000 0.0000 34.5954
#
#
#
# Elastic Compliance Matrix: (Units=1/GPa)
#
#
# Indices 1 2 3 4 5 6 
#
# 1 0.009110 -0.003737 -0.005177 0.000000 0.000000 0.000000
# 2 -0.003737 0.007923 -0.008103 0.000000 0.000000 0.000000
# 3 -0.005177 -0.008103 0.063649 0.000000 0.000000 0.000000
# 4 0.000000 0.000000 0.000000 0.089103 0.000000 0.000000
# 5 0.000000 0.000000 0.000000 0.000000 0.031544 0.000000
# 6 0.000000 0.000000 0.000000 0.000000 0.000000 0.028906
#
#
# Mechanical properties :
#
#
# Convention : Reuss Voigt Hill
#
# Bulk Modulus (GPa) = 21.43720 83.44553 52.44136
# Shear Modulus (GPa) = 17.86880 31.14589 24.50735
#
# Velocity S-wave (km/s) = 3.10578 4.10038 3.63724
# Velocity P-wave (km/s) = 4.94301 8.21357 6.77850
#
# Compressibility (1/GPa) = 0.04664789
#
# Stress axis : x y z
#
# Youngs Moduli (GPa) = 109.77514 126.20717 15.71119
#
# Poissons Ratio (x) = 0.47167 0.08133
# Poissons Ratio (y) = 0.41026 0.12731
# Poissons Ratio (z) = 0.56826 1.02267
#
# Static dielectric constant tensor:
#      x y z
#    x 1.593680 0.000000 0.000000 
#    y 0.000000 1.641600 0.000000 
#    z 0.000000 0.000000 1.639030 
# 
# From -- ./inp_files/7744.got.cif
#   From: 2010.05.17/outbox.cif.g08.bks.cpg/sg58_4_cif.got.tgz:7744.got - 2010.06.03 14:20:14.
