data_PCOD9443328
_publ_section_title
;
Structure prediction by ZEFSAII (Michael W. Deem and Ramdas Pophale) SiO2 
 PCOD9443328
Probable space group: P N N M
;
_chemical_formula_sum "Si O2"
_cell_formula_units_Z 64
_cell_length_a 10.202698
_cell_length_b 22.118397
_cell_length_c 13.173851
_cell_angle_alpha 90.000000
_cell_angle_beta 90.000000
_cell_angle_gamma 90.000000
_cell_volume 2972.907713
_symmetry_space_group_name_H-M "P N N M"
_symmetry_group_IT_number 58
_symmetry_cell_setting 'orthorhombic'
loop_
_space_group_symop_operation_xyz
x,y,z
-x,-y,z
1/2+x,1/2-y,1/2-z
1/2-x,1/2+y,1/2-z
-x,-y,-z
x,y,-z
1/2-x,1/2+y,1/2+z
1/2+x,1/2-y,1/2+z
loop_
_atom_site_type_symbol
_atom_site_label
_atom_site_fract_x
_atom_site_fract_y
_atom_site_fract_z
Si Si1 0.657203 0.495347 0.887736
Si Si2 0.104164 0.550137 0.618813
Si Si3 0.164840 0.141626 0.621370
Si Si4 0.415758 0.219303 0.614945
Si Si5 0.351813 0.473633 0.326313
Si Si6 0.883179 0.195268 0.381021
Si Si7 0.787918 0.160128 0.165919
Si Si8 0.993075 0.321495 0.321128
O O1 0.500000 0.500000 0.897572
O O2 0.689277 0.427570 0.850834
O O3 0.690258 0.535510 0.792134
O O4 0.712532 0.507575 0.000000
O O5 0.076276 0.560300 0.500000
O O6 0.247775 0.520828 0.628991
O O7 0.080025 0.614333 0.671683
O O8 0.000000 0.500000 0.657213
O O9 0.162220 0.140334 0.500000
O O10 0.279456 0.187076 0.648088
O O11 0.022020 0.164335 0.649601
O O12 0.450426 0.201349 0.500000
O O13 0.384429 0.289866 0.619794
O O14 0.510217 0.199124 0.704217
O O15 0.500000 0.500000 0.332201
O O16 0.334383 0.406258 0.367285
O O17 0.851884 0.180321 0.500000
O O18 0.794192 0.173002 0.288008
O O19 0.911271 0.267187 0.372689
O O20 0.637928 0.171072 0.132669
#
# Coordination Sequence:
#
# PCOD9443328 Si02
#       8
#     8   8   8   8   8   8   8   8
#     4   9  17  30  53  88 124 160 201 251 314 379
#     4  11  24  43  68  92 124 173 219 259 310 377
#     4   9  16  31  56  82 111 155 206 249 303 376
#     4  10  22  39  62  88 119 162 208 262 323 384
#     4  11  23  41  65  94 131 169 217 274 320 373
#     4  10  20  35  59  89 121 159 208 264 320 376
#     4  11  23  38  61  92 127 165 212 265 321 385
#     4  11  22  40  63  90 125 167 214 262 318 385
#
# _framework density 21.527744999999999
#
# number of rings (size 3 to 8) (size 9 to 14) (size 15 to 20)
#    0.000    1.750    2.500    2.625    0.000    3.250 
#    2.250    0.000    0.000    0.750    0.000    0.000 
#    0.000    0.000    0.000    0.000    0.000    0.000 
#
# Total GULP energy -357079.728647 kJ/mol
# GULP energy per Si atom -5579.370760 kJ/mol
# Density = 2.147875 g / cm^3
# Si number density = 21.527745 Si / 1000 Ang^3
#
#
#
# Elastic Constant Matrix: (Units=GPa)
#
#
# Indices 1 2 3 4 5 6 
#
# 1 65.5729 31.2387 -4.2567 0.0000 0.0000 0.0000
# 2 31.2387 117.3066 -2.5962 0.0000 0.0000 0.0000
# 3 -4.2567 -2.5962 74.2103 0.0000 0.0000 0.0000
# 4 0.0000 0.0000 0.0000 17.6246 0.0000 0.0000
# 5 0.0000 0.0000 0.0000 0.0000 11.9161 0.0000
# 6 0.0000 0.0000 0.0000 0.0000 0.0000 23.8288
#
#
#
# Elastic Compliance Matrix: (Units=1/GPa)
#
#
# Indices 1 2 3 4 5 6 
#
# 1 0.017518 -0.004647 0.000842 0.000000 0.000000 0.000000
# 2 -0.004647 0.009764 0.000075 0.000000 0.000000 0.000000
# 3 0.000842 0.000075 0.013526 0.000000 0.000000 0.000000
# 4 0.000000 0.000000 0.000000 0.056739 0.000000 0.000000
# 5 0.000000 0.000000 0.000000 0.000000 0.083920 0.000000
# 6 0.000000 0.000000 0.000000 0.000000 0.000000 0.041966
#
#
# Mechanical properties :
#
#
# Convention : Reuss Voigt Hill
#
# Bulk Modulus (GPa) = 29.98499 33.98459 31.98479
# Shear Modulus (GPa) = 20.66048 26.18752 23.42400
#
# Velocity S-wave (km/s) = 3.10129 3.49155 3.30219
# Velocity P-wave (km/s) = 5.17520 5.66350 5.42485
#
# Compressibility (1/GPa) = 0.03335002
#
# Stress axis : x y z
#
# Youngs Moduli (GPa) = 57.08258 102.42023 73.93077
#
# Poissons Ratio (x) = 0.47590 -0.06227
# Poissons Ratio (y) = 0.26524 -0.00555
# Poissons Ratio (z) = -0.04808 -0.00769
#
# Static dielectric constant tensor:
#      x y z
#    x 1.792850 0.000000 0.000000 
#    y 0.000000 1.875270 0.000000 
#    z 0.000000 0.000000 1.818840 
# 
# From -- ./inp_files/20303.got.cif
#   From: 2010.05.17/outbox.cif.g08.bks.cpg/sg58_11_cif.got.tgz:20303.got - 2010.06.03 14:20:14.
