data_PCOD9443316
_publ_section_title
;
Structure prediction by ZEFSAII (Michael W. Deem and Ramdas Pophale) SiO2 
 PCOD9443316
Probable space group: P N N M
;
_chemical_formula_sum "Si O2"
_cell_formula_units_Z 48
_cell_length_a 12.927476
_cell_length_b 7.056050
_cell_length_c 19.466485
_cell_angle_alpha 90.000000
_cell_angle_beta 90.000000
_cell_angle_gamma 90.000000
_cell_volume 1775.672747
_symmetry_space_group_name_H-M "P N N M"
_symmetry_group_IT_number 58
_symmetry_cell_setting 'orthorhombic'
loop_
_space_group_symop_operation_xyz
x,y,z
-x,-y,z
1/2+x,1/2-y,1/2-z
1/2-x,1/2+y,1/2-z
-x,-y,-z
x,y,-z
1/2-x,1/2+y,1/2+z
1/2+x,1/2-y,1/2+z
loop_
_atom_site_type_symbol
_atom_site_label
_atom_site_fract_x
_atom_site_fract_y
_atom_site_fract_z
Si Si1 0.390816 0.669978 0.000000
Si Si2 0.022636 0.711642 0.739278
Si Si3 0.705755 0.330464 0.602741
Si Si4 0.988414 0.281063 0.094884
Si Si5 0.385692 0.204347 0.000000
Si Si6 0.773729 0.375651 0.891024
Si Si7 0.827351 0.960516 0.258916
O O1 0.393678 0.437746 0.000000
O O2 0.489492 0.807927 0.000000
O O3 0.325370 0.698059 0.069194
O O4 0.922734 0.830070 0.719041
O O5 0.000000 0.500000 0.714846
O O6 0.012146 0.715668 0.822098
O O7 0.375456 0.333842 0.778222
O O8 0.585869 0.348171 0.575588
O O9 0.813173 0.370016 0.562851
O O10 0.700406 0.423938 0.679075
O O11 0.708975 0.099494 0.597023
O O12 0.867638 0.249377 0.080900
O O13 0.000000 0.500000 0.072577
O O14 0.762257 0.390599 0.809063
#
# Coordination Sequence:
#
# PCOD9443316 Si02
#       7
#     4   8   8   8   4   8   8
#     4   9  20  37  57  92 137 192 243 289 365 443
#     4   9  19  38  60  89 137 171 224 291 347 427
#     4   9  19  36  57  93 129 175 239 293 357 420
#     4   8  16  33  55  82 125 161 213 287 343 402
#     4   9  18  35  61  87 135 183 238 299 351 435
#     4  10  20  35  58  93 137 181 238 295 354 439
#     4  10  21  35  62  99 128 179 233 284 369 416
#
# _framework density 27.032008999999999
#
# number of rings (size 3 to 8) (size 9 to 14) (size 15 to 20)
#    0.000    2.833    0.000    1.000    2.333    6.000 
#    3.000    3.333    0.000    9.000    0.000    9.917 
#    0.000    0.000    0.000    0.000    0.000    2.833 
#
# Total GULP energy -267523.269480 kJ/mol
# GULP energy per Si atom -5573.401447 kJ/mol
# Density = 2.697048 g / cm^3
# Si number density = 27.032009 Si / 1000 Ang^3
#
#
#
# Elastic Constant Matrix: (Units=GPa)
#
#
# Indices 1 2 3 4 5 6 
#
# 1 167.4474 46.8085 60.0710 0.0000 0.0000 0.0000
# 2 46.8085 168.0892 14.6287 0.0000 0.0000 0.0000
# 3 60.0710 14.6287 123.7932 0.0000 0.0000 0.0000
# 4 0.0000 0.0000 0.0000 -47.9163 0.0000 0.0000
# 5 0.0000 0.0000 0.0000 0.0000 1.0926 0.0000
# 6 0.0000 0.0000 0.0000 0.0000 0.0000 33.3748
#
#
#
# Elastic Compliance Matrix: (Units=1/GPa)
#
#
# Indices 1 2 3 4 5 6 
#
# 1 0.007763 -0.001853 -0.003548 0.000000 0.000000 0.000000
# 2 -0.001853 0.006453 0.000137 0.000000 0.000000 0.000000
# 3 -0.003548 0.000137 0.009784 0.000000 0.000000 0.000000
# 4 0.000000 0.000000 0.000000 -0.020870 0.000000 0.000000
# 5 0.000000 0.000000 0.000000 0.000000 0.915284 0.000000
# 6 0.000000 0.000000 0.000000 0.000000 0.000000 0.029963
#
#
# Mechanical properties :
#
#
# Convention : Reuss Voigt Hill
#
# Bulk Modulus (GPa) = 74.23393 78.03848 76.13621
# Shear Modulus (GPa) = 5.18997 19.83164 12.51081
#
# Velocity S-wave (km/s) = 1.38712 2.71151 2.15365
# Velocity P-wave (km/s) = 5.48512 6.22372 5.86606
#
# Compressibility (1/GPa) = 0.01347093
#
# Stress axis : x y z
#
# Youngs Moduli (GPa) = 128.81906 154.95849 102.21280
#
# Poissons Ratio (x) = 0.28713 0.36265
# Poissons Ratio (y) = 0.23870 -0.01396
# Poissons Ratio (z) = 0.45705 -0.02116
#
# Static dielectric constant tensor:
#      x y z
#    x 2.234420 0.000000 0.000000 
#    y 0.000000 2.152500 0.000000 
#    z 0.000000 0.000000 2.129980 
# 
# From -- ./inp_files/29554.got.cif
#   From: 2010.05.17/outbox.cif.g08.bks.cpg/sg58_15_cif.got.tgz:29554.got - 2010.06.03 14:20:14.
