data_PCOD9443963
_publ_section_title
;
Structure prediction by ZEFSAII (Michael W. Deem and Ramdas Pophale) SiO2 
 PCOD9443963
Probable space group: P N N M
;
_chemical_formula_sum "Si O2"
_cell_formula_units_Z 32
_cell_length_a 14.655619
_cell_length_b 14.851262
_cell_length_c 7.672622
_cell_angle_alpha 90.000000
_cell_angle_beta 90.000000
_cell_angle_gamma 90.000000
_cell_volume 1669.980226
_symmetry_space_group_name_H-M "P N N M"
_symmetry_group_IT_number 58
_symmetry_cell_setting 'orthorhombic'
loop_
_space_group_symop_operation_xyz
x,y,z
-x,-y,z
1/2+x,1/2-y,1/2-z
1/2-x,1/2+y,1/2-z
-x,-y,-z
x,y,-z
1/2-x,1/2+y,1/2+z
1/2+x,1/2-y,1/2+z
loop_
_atom_site_type_symbol
_atom_site_label
_atom_site_fract_x
_atom_site_fract_y
_atom_site_fract_z
Si Si1 0.641524 0.444640 0.000000
Si Si2 0.057445 0.716217 0.794255
Si Si3 0.283824 0.073738 0.199168
Si Si4 0.080465 0.430427 0.790245
Si Si5 0.440742 0.361366 0.000000
O O1 0.700258 0.420192 0.830481
O O2 0.544586 0.396039 0.000000
O O3 0.622943 0.551471 0.000000
O O4 0.137832 0.643498 0.761203
O O5 0.073767 0.800128 0.670025
O O6 0.961741 0.666332 0.744757
O O7 0.054911 0.736903 0.000000
O O8 0.328901 0.973785 0.212391
O O9 0.259827 0.092955 0.000000
O O10 0.000000 0.500000 0.740637
O O11 0.089943 0.433585 0.000000
#
# Coordination Sequence:
#
# PCOD9443963 Si02
#       5
#     4   8   8   8   4
#     4  11  26  48  59  88 138 173 210 253 311 395
#     4  10  20  39  66  98 128 159 212 272 317 373
#     4  11  20  37  67  97 127 165 209 267 324 369
#     4   8  15  30  57  93 131 156 189 260 329 360
#     4  11  26  46  65  84 132 185 204 245 329 385
#
# _framework density 19.161902000000001
#
# number of rings (size 3 to 8) (size 9 to 14) (size 15 to 20)
#    0.000    2.000    3.750    1.500    1.750    3.500 
#    4.500    2.500    0.000    0.000    0.000    0.000 
#    0.000    0.000    0.000    0.000    0.000    0.000 
#
# Total GULP energy -178568.246797 kJ/mol
# GULP energy per Si atom -5580.257712 kJ/mol
# Density = 1.911829 g / cm^3
# Si number density = 19.161902 Si / 1000 Ang^3
#
#
#
# Elastic Constant Matrix: (Units=GPa)
#
#
# Indices 1 2 3 4 5 6 
#
# 1 56.6875 13.5304 22.4837 0.0000 0.0000 0.0000
# 2 13.5304 84.7377 30.9956 0.0000 0.0000 0.0000
# 3 22.4837 30.9956 113.0702 0.0000 0.0000 0.0000
# 4 0.0000 0.0000 0.0000 8.9426 0.0000 0.0000
# 5 0.0000 0.0000 0.0000 0.0000 24.9369 0.0000
# 6 0.0000 0.0000 0.0000 0.0000 0.0000 9.5591
#
#
#
# Elastic Compliance Matrix: (Units=1/GPa)
#
#
# Indices 1 2 3 4 5 6 
#
# 1 0.019416 -0.001876 -0.003346 0.000000 0.000000 0.000000
# 2 -0.001876 0.013298 -0.003272 0.000000 0.000000 0.000000
# 3 -0.003346 -0.003272 0.010406 0.000000 0.000000 0.000000
# 4 0.000000 0.000000 0.000000 0.111825 0.000000 0.000000
# 5 0.000000 0.000000 0.000000 0.000000 0.040101 0.000000
# 6 0.000000 0.000000 0.000000 0.000000 0.000000 0.104613
#
#
# Mechanical properties :
#
#
# Convention : Reuss Voigt Hill
#
# Bulk Modulus (GPa) = 38.26978 43.16831 40.71904
# Shear Modulus (GPa) = 15.36770 21.18676 18.27723
#
# Velocity S-wave (km/s) = 2.83502 3.32877 3.09177
# Velocity P-wave (km/s) = 5.54361 6.11158 5.83451
#
# Compressibility (1/GPa) = 0.02613028
#
# Stress axis : x y z
#
# Youngs Moduli (GPa) = 51.50479 75.20155 96.09389
#
# Poissons Ratio (x) = 0.14109 0.32157
# Poissons Ratio (y) = 0.09663 0.31444
# Poissons Ratio (z) = 0.17236 0.24607
#
# Static dielectric constant tensor:
#      x y z
#    x 1.664430 0.000000 0.000000 
#    y 0.000000 1.683140 0.000000 
#    z 0.000000 0.000000 1.649190 
# 
# From -- ./inp_files/5230.got.cif
#   From: 2010.05.17/outbox.cif.g08.bks.cpg/sg58_3_cif.got.tgz:5230.got - 2010.06.03 14:20:14.
