data_PCOD9443208
_publ_section_title
;
Structure prediction by ZEFSAII (Michael W. Deem and Ramdas Pophale) SiO2 
 PCOD9443208
Probable space group: P N N M
;
_chemical_formula_sum "Si O2"
_cell_formula_units_Z 64
_cell_length_a 16.978703
_cell_length_b 20.645512
_cell_length_c 8.421063
_cell_angle_alpha 90.000000
_cell_angle_beta 90.000000
_cell_angle_gamma 90.000000
_cell_volume 2951.869037
_symmetry_space_group_name_H-M "P N N M"
_symmetry_group_IT_number 58
_symmetry_cell_setting 'orthorhombic'
loop_
_space_group_symop_operation_xyz
x,y,z
-x,-y,z
1/2+x,1/2-y,1/2-z
1/2-x,1/2+y,1/2-z
-x,-y,-z
x,y,-z
1/2-x,1/2+y,1/2+z
1/2+x,1/2-y,1/2+z
loop_
_atom_site_type_symbol
_atom_site_label
_atom_site_fract_x
_atom_site_fract_y
_atom_site_fract_z
Si Si1 0.555076 0.848190 0.194112
Si Si2 0.106932 0.794328 0.315628
Si Si3 0.223231 0.614051 0.308605
Si Si4 0.668941 0.270557 0.318587
Si Si5 0.381473 0.863592 0.812953
Si Si6 0.215683 0.897126 0.188458
Si Si7 0.472337 0.624814 0.321576
Si Si8 0.139470 0.023174 0.314866
O O1 0.573718 0.774309 0.245117
O O2 0.631791 0.889957 0.236517
O O3 0.469699 0.871104 0.253217
O O4 0.551691 0.846917 0.000000
O O5 0.127207 0.786161 0.500000
O O6 0.180481 0.826705 0.227908
O O7 0.036831 0.846158 0.294884
O O8 0.230740 0.605454 0.500000
O O9 0.254856 0.686845 0.274470
O O10 0.281959 0.564499 0.225961
O O11 0.678144 0.246489 0.500000
O O12 0.642599 0.211553 0.209901
O O13 0.599300 0.323686 0.319657
O O14 0.305522 0.901841 0.748895
O O15 0.385806 0.878445 0.000000
O O16 0.159874 0.950983 0.263253
O O17 0.216792 0.906525 0.000000
O O18 0.505711 0.622424 0.500000
O O19 0.432341 0.557308 0.275991
O O20 0.122634 0.026863 0.500000
#
# Coordination Sequence:
#
# PCOD9443208 Si02
#       8
#     8   8   8   8   8   8   8   8
#     4   9  18  34  58  88 119 148 184 231 282 339
#     4  11  21  36  60  89 122 151 187 234 282 336
#     4   9  18  35  58  82 111 149 189 230 281 338
#     4   9  17  30  52  81 113 146 179 220 278 340
#     4  10  20  35  56  82 113 150 189 232 281 338
#     4  11  24  40  57  80 114 154 195 237 285 341
#     4  10  20  36  58  86 118 152 186 226 281 340
#     4  11  23  40  60  82 110 148 199 244 283 332
#
# _framework density 21.681177999999999
#
# number of rings (size 3 to 8) (size 9 to 14) (size 15 to 20)
#    0.000    2.000    1.250    3.750    0.000    4.500 
#    0.000    5.000    0.000    3.750    0.000    0.000 
#    0.000    0.000    0.000    0.000    0.000    0.000 
#
# Total GULP energy -357506.386980 kJ/mol
# GULP energy per Si atom -5586.037297 kJ/mol
# Density = 2.163183 g / cm^3
# Si number density = 21.681178 Si / 1000 Ang^3
#
#
#
# Elastic Constant Matrix: (Units=GPa)
#
#
# Indices 1 2 3 4 5 6 
#
# 1 83.6188 -18.0664 -7.3353 0.0000 0.0000 0.0000
# 2 -18.0664 33.4877 -2.2697 0.0000 0.0000 0.0000
# 3 -7.3353 -2.2697 21.0405 0.0000 0.0000 0.0000
# 4 0.0000 0.0000 0.0000 15.9554 0.0000 0.0000
# 5 0.0000 0.0000 0.0000 0.0000 33.3924 0.0000
# 6 0.0000 0.0000 0.0000 0.0000 0.0000 26.6923
#
#
#
# Elastic Compliance Matrix: (Units=1/GPa)
#
#
# Indices 1 2 3 4 5 6 
#
# 1 0.014212 0.008062 0.005824 0.000000 0.000000 0.000000
# 2 0.008062 0.034655 0.006549 0.000000 0.000000 0.000000
# 3 0.005824 0.006549 0.050264 0.000000 0.000000 0.000000
# 4 0.000000 0.000000 0.000000 0.062675 0.000000 0.000000
# 5 0.000000 0.000000 0.000000 0.000000 0.029947 0.000000
# 6 0.000000 0.000000 0.000000 0.000000 0.000000 0.037464
#
#
# Mechanical properties :
#
#
# Convention : Reuss Voigt Hill
#
# Bulk Modulus (GPa) = 7.14278 9.20046 8.17162
# Shear Modulus (GPa) = 21.27541 26.26260 23.76901
#
# Velocity S-wave (km/s) = 3.13594 3.48416 3.31463
# Velocity P-wave (km/s) = 4.05140 4.52091 4.29257
#
# Compressibility (1/GPa) = 0.14000148
#
# Stress axis : x y z
#
# Youngs Moduli (GPa) = 70.36410 28.85587 19.89486
#
# Poissons Ratio (x) = -0.23263 -0.11587
# Poissons Ratio (y) = -0.56727 -0.13029
# Poissons Ratio (z) = -0.40982 -0.18898
#
# Static dielectric constant tensor:
#      x y z
#    x 1.846980 0.000000 0.000000 
#    y 0.000000 1.784430 0.000000 
#    z 0.000000 0.000000 1.752380 
# 
# From -- ./inp_files/8364.got.cif
#   From: 2010.05.17/outbox.cif.g08.bks.cpg/sg58_5_cif.got.tgz:8364.got - 2010.06.03 14:20:14.
