data_PCOD9443223
_publ_section_title
;
Structure prediction by ZEFSAII (Michael W. Deem and Ramdas Pophale) SiO2 
 PCOD9443223
Probable space group: P N N M
;
_chemical_formula_sum "Si O2"
_cell_formula_units_Z 64
_cell_length_a 33.281837
_cell_length_b 10.472629
_cell_length_c 9.105293
_cell_angle_alpha 90.000000
_cell_angle_beta 90.000000
_cell_angle_gamma 90.000000
_cell_volume 3173.634682
_symmetry_space_group_name_H-M "P N N M"
_symmetry_group_IT_number 58
_symmetry_cell_setting 'orthorhombic'
loop_
_space_group_symop_operation_xyz
x,y,z
-x,-y,z
1/2+x,1/2-y,1/2-z
1/2-x,1/2+y,1/2-z
-x,-y,-z
x,y,-z
1/2-x,1/2+y,1/2+z
1/2+x,1/2-y,1/2+z
loop_
_atom_site_type_symbol
_atom_site_label
_atom_site_fract_x
_atom_site_fract_y
_atom_site_fract_z
Si Si1 0.618952 0.889147 0.176126
Si Si2 0.234311 0.970546 0.173731
Si Si3 0.468430 0.195237 0.170835
Si Si4 0.143519 0.871946 0.826588
Si Si5 0.216427 0.248953 0.176261
Si Si6 0.955037 0.767106 0.174630
Si Si7 0.067588 0.980509 0.672288
Si Si8 0.631727 0.150656 0.324402
O O1 0.571190 0.884053 0.213454
O O2 0.638938 0.765901 0.250535
O O3 0.636955 0.018960 0.237924
O O4 0.622310 0.879251 0.000000
O O5 0.236031 0.116509 0.228059
O O6 0.188215 0.925367 0.190142
O O7 0.262395 0.871940 0.256894
O O8 0.243911 0.968307 0.000000
O O9 0.508299 0.182509 0.265759
O O10 0.453951 0.342994 0.184031
O O11 0.477542 0.170039 0.000000
O O12 0.110445 0.962001 0.750902
O O13 0.134498 0.862131 0.000000
O O14 0.168944 0.256622 0.209554
O O15 0.220247 0.251359 0.000000
O O16 0.911538 0.709108 0.212379
O O17 0.956072 0.905589 0.250629
O O18 0.957860 0.780427 0.000000
O O19 0.072324 0.008524 0.500000
O O20 0.632338 0.126227 0.500000
#
# Coordination Sequence:
#
# PCOD9443223 Si02
#       8
#     8   8   8   8   8   8   8   8
#     4  10  22  39  60  87 119 157 202 251 303 361
#     4  10  23  42  64  94 127 161 201 251 307 365
#     4   9  20  37  54  80 117 153 193 247 305 360
#     4  10  20  37  62  87 119 156 197 247 304 363
#     4  10  23  43  65  90 125 162 201 252 305 364
#     4  11  22  35  56  83 114 155 201 250 303 360
#     4  10  20  35  56  84 118 154 195 245 301 362
#     4  10  23  42  60  82 117 158 200 248 306 364
#
# _framework density 20.166150999999999
#
# number of rings (size 3 to 8) (size 9 to 14) (size 15 to 20)
#    0.000    2.000    0.000    3.375    1.750   10.000 
#    0.000    3.750    0.000    0.000    0.000    0.000 
#    0.000    0.000    0.000    0.000    0.000    0.000 
#
# Total GULP energy -357711.139117 kJ/mol
# GULP energy per Si atom -5589.236549 kJ/mol
# Density = 2.012025 g / cm^3
# Si number density = 20.166151 Si / 1000 Ang^3
#
#
#
# Elastic Constant Matrix: (Units=GPa)
#
#
# Indices 1 2 3 4 5 6 
#
# 1 49.1116 26.6869 23.9047 0.0000 0.0000 0.0000
# 2 26.6869 86.8465 25.6441 0.0000 0.0000 0.0000
# 3 23.9047 25.6441 33.4156 0.0000 0.0000 0.0000
# 4 0.0000 0.0000 0.0000 -290.2149 0.0000 0.0000
# 5 0.0000 0.0000 0.0000 0.0000 29.4712 0.0000
# 6 0.0000 0.0000 0.0000 0.0000 0.0000 23.5701
#
#
#
# Elastic Compliance Matrix: (Units=1/GPa)
#
#
# Indices 1 2 3 4 5 6 
#
# 1 0.032284 -0.004010 -0.020018 0.000000 0.000000 0.000000
# 2 -0.004010 0.015386 -0.008940 0.000000 0.000000 0.000000
# 3 -0.020018 -0.008940 0.051107 0.000000 0.000000 0.000000
# 4 0.000000 0.000000 0.000000 -0.003446 0.000000 0.000000
# 5 0.000000 0.000000 0.000000 0.000000 0.033931 0.000000
# 6 0.000000 0.000000 0.000000 0.000000 0.000000 0.042427
#
#
# Mechanical properties :
#
#
# Convention : Reuss Voigt Hill
#
# Bulk Modulus (GPa) = 30.44794 35.76057 33.10426
# Shear Modulus (GPa) = 20.11479 -41.22552 -10.55536
#
# Velocity S-wave (km/s) = 3.16167 -4.52629 -2.29032
# Velocity P-wave (km/s) = 5.33475 3.08949 3.07527
#
# Compressibility (1/GPa) = 0.03284294
#
# Stress axis : x y z
#
# Youngs Moduli (GPa) = 30.97471 64.99268 19.56664
#
# Poissons Ratio (x) = 0.26059 0.39169
# Poissons Ratio (y) = 0.12419 0.17492
# Poissons Ratio (z) = 0.62007 0.58101
#
# Static dielectric constant tensor:
#      x y z
#    x 1.719900 0.000000 0.000000 
#    y 0.000000 1.707970 0.000000 
#    z 0.000000 0.000000 1.671050 
# 
# From -- ./inp_files/11014.got.cif
#   From: 2010.05.17/outbox.cif.g08.bks.cpg/sg58_6_cif.got.tgz:11014.got - 2010.06.03 14:20:14.
