data_PCOD9443245
_publ_section_title
;
Structure prediction by ZEFSAII (Michael W. Deem and Ramdas Pophale) SiO2 
 PCOD9443245
Probable space group: P N N M
;
_chemical_formula_sum "Si O2"
_cell_formula_units_Z 44
_cell_length_a 7.883157
_cell_length_b 29.159428
_cell_length_c 7.771022
_cell_angle_alpha 90.000000
_cell_angle_beta 90.000000
_cell_angle_gamma 90.000000
_cell_volume 1786.311997
_symmetry_space_group_name_H-M "P N N M"
_symmetry_group_IT_number 58
_symmetry_cell_setting 'orthorhombic'
loop_
_space_group_symop_operation_xyz
x,y,z
-x,-y,z
1/2+x,1/2-y,1/2-z
1/2-x,1/2+y,1/2-z
-x,-y,-z
x,y,-z
1/2-x,1/2+y,1/2+z
1/2+x,1/2-y,1/2+z
loop_
_atom_site_type_symbol
_atom_site_label
_atom_site_fract_x
_atom_site_fract_y
_atom_site_fract_z
Si Si1 0.161926 0.466786 0.185306
Si Si2 0.161715 0.306704 0.204694
Si Si3 0.336704 0.546920 0.684963
Si Si4 0.674170 0.570487 0.500000
Si Si5 0.843834 0.363278 0.790735
Si Si6 0.959259 0.795487 0.291565
O O1 0.310942 0.505270 0.187587
O O2 0.187154 0.433907 0.344849
O O3 0.000000 0.500000 0.204481
O O4 0.153948 0.443028 0.000000
O O5 0.353653 0.309459 0.274632
O O6 0.019367 0.341345 0.271257
O O7 0.090096 0.255603 0.235081
O O8 0.173130 0.313825 0.000000
O O9 0.300528 0.522011 0.500000
O O10 0.518550 0.569193 0.648779
O O11 0.206315 0.586973 0.724151
O O12 0.689842 0.329605 0.737226
O O13 0.844028 0.364620 0.000000
O O14 0.964269 0.795616 0.500000
#
# Coordination Sequence:
#
# PCOD9443245 Si02
#       6
#     8   8   8   4   8   8
#     4  11  22  39  67  97 128 170 214 261 320 385
#     4  10  20  35  57  83 113 152 202 255 305 373
#     4  10  22  40  58  90 122 160 204 259 321 372
#     4  10  22  42  65  94 125 164 219 260 311 394
#     4  10  21  38  56  81 125 161 200 262 319 379
#     4  10  20  35  57  84 111 152 204 250 306 375
#
# _framework density 24.631755999999999
#
# number of rings (size 3 to 8) (size 9 to 14) (size 15 to 20)
#    0.545    1.273    2.727    1.909    0.000    3.636 
#    3.273    0.000    0.000    0.000    0.000    0.000 
#    0.000    0.000    0.000    0.000    0.000    0.000 
#
# Total GULP energy -245056.910837 kJ/mol
# GULP energy per Si atom -5569.475246 kJ/mol
# Density = 2.457569 g / cm^3
# Si number density = 24.631756 Si / 1000 Ang^3
#
#
#
# Elastic Constant Matrix: (Units=GPa)
#
#
# Indices 1 2 3 4 5 6 
#
# 1 170.4122 63.9483 21.5098 0.0000 0.0000 0.0000
# 2 63.9483 94.6212 12.3860 0.0000 0.0000 0.0000
# 3 21.5098 12.3860 72.5025 0.0000 0.0000 0.0000
# 4 0.0000 0.0000 0.0000 -45.1661 0.0000 0.0000
# 5 0.0000 0.0000 0.0000 0.0000 20.6233 0.0000
# 6 0.0000 0.0000 0.0000 0.0000 0.0000 42.2611
#
#
#
# Elastic Compliance Matrix: (Units=1/GPa)
#
#
# Indices 1 2 3 4 5 6 
#
# 1 0.008016 -0.005223 -0.001486 0.000000 0.000000 0.000000
# 2 -0.005223 0.014213 -0.000879 0.000000 0.000000 0.000000
# 3 -0.001486 -0.000879 0.014384 0.000000 0.000000 0.000000
# 4 0.000000 0.000000 0.000000 -0.022141 0.000000 0.000000
# 5 0.000000 0.000000 0.000000 0.000000 0.048489 0.000000
# 6 0.000000 0.000000 0.000000 0.000000 0.000000 0.023662
#
#
# Mechanical properties :
#
#
# Convention : Reuss Voigt Hill
#
# Bulk Modulus (GPa) = 46.64630 59.24711 52.94670
# Shear Modulus (GPa) = 45.89548 19.52312 32.70930
#
# Velocity S-wave (km/s) = 4.32124 2.81837 3.64803
# Velocity P-wave (km/s) = 6.62390 5.89036 6.26787
#
# Compressibility (1/GPa) = 0.02143793
#
# Stress axis : x y z
#
# Youngs Moduli (GPa) = 124.75822 70.35750 69.52393
#
# Poissons Ratio (x) = 0.36745 0.10330
# Poissons Ratio (y) = 0.65157 0.06109
# Poissons Ratio (z) = 0.18537 0.06182
#
# Static dielectric constant tensor:
#      x y z
#    x 2.034320 0.000000 0.000000 
#    y 0.000000 2.124010 0.000000 
#    z 0.000000 0.000000 1.973180 
# 
# From -- ./inp_files/2772.got.cif
#   From: 2010.05.17/outbox.cif.g08.bks.cpg/sg58_2_cif.got.tgz:2772.got - 2010.06.03 14:20:14.
