data_PCOD9443644
_publ_section_title
;
Structure prediction by ZEFSAII (Michael W. Deem and Ramdas Pophale) SiO2 
 PCOD9443644
Probable space group: P N N M
;
_chemical_formula_sum "Si O2"
_cell_formula_units_Z 48
_cell_length_a 16.100247
_cell_length_b 14.993354
_cell_length_c 10.043735
_cell_angle_alpha 90.000000
_cell_angle_beta 90.000000
_cell_angle_gamma 90.000000
_cell_volume 2424.524512
_symmetry_space_group_name_H-M "P N N M"
_symmetry_group_IT_number 58
_symmetry_cell_setting 'orthorhombic'
loop_
_space_group_symop_operation_xyz
x,y,z
-x,-y,z
1/2+x,1/2-y,1/2-z
1/2-x,1/2+y,1/2-z
-x,-y,-z
x,y,-z
1/2-x,1/2+y,1/2+z
1/2+x,1/2-y,1/2+z
loop_
_atom_site_type_symbol
_atom_site_label
_atom_site_fract_x
_atom_site_fract_y
_atom_site_fract_z
Si Si1 0.004796 0.741365 0.152586
Si Si2 0.528267 0.399361 0.843699
Si Si3 0.216871 0.106521 0.248232
Si Si4 0.692027 0.204127 0.645882
Si Si5 0.691009 0.054107 0.151770
Si Si6 0.612132 0.931585 0.351270
O O1 0.056312 0.652752 0.186135
O O2 0.014650 0.823908 0.252795
O O3 0.907582 0.715222 0.153065
O O4 0.026266 0.766733 0.000000
O O5 0.500000 0.500000 0.812336
O O6 0.626693 0.394291 0.813210
O O7 0.512980 0.382672 0.000000
O O8 0.226530 0.196850 0.165060
O O9 0.292386 0.101653 0.351789
O O10 0.235767 0.019376 0.159760
O O11 0.714272 0.167367 0.500000
O O12 0.717901 0.140223 0.765305
O O13 0.616947 0.008166 0.239023
O O14 0.668495 0.072922 0.000000
O O15 0.590109 0.963439 0.500000
#
# Coordination Sequence:
#
# PCOD9443644 Si02
#       6
#     8   8   8   8   8   8
#     4   9  20  38  58  84 113 150 193 236 286 346
#     4  10  21  37  58  86 116 151 193 239 290 344
#     4   9  21  38  60  80 117 152 193 235 286 340
#     4  10  20  37  60  81 112 153 191 234 291 347
#     4  10  22  37  57  86 115 148 193 240 289 342
#     4   9  19  37  59  81 110 148 190 230 281 340
#
# _framework density 19.797695000000001
#
# number of rings (size 3 to 8) (size 9 to 14) (size 15 to 20)
#    1.000    1.500    0.000    1.500    0.000    7.000 
#    0.000    6.667    0.000    0.000    0.000    0.000 
#    0.000    0.000    0.000    0.000    0.000    0.000 
#
# Total GULP energy -267460.924291 kJ/mol
# GULP energy per Si atom -5572.102589 kJ/mol
# Density = 1.975263 g / cm^3
# Si number density = 19.797695 Si / 1000 Ang^3
#
#
#
# Elastic Constant Matrix: (Units=GPa)
#
#
# Indices 1 2 3 4 5 6 
#
# 1 29.5731 4.6562 4.0886 0.0000 0.0000 0.0000
# 2 4.6562 102.3025 63.9848 0.0000 0.0000 0.0000
# 3 4.0886 63.9848 130.2106 0.0000 0.0000 0.0000
# 4 0.0000 0.0000 0.0000 16.9833 0.0000 0.0000
# 5 0.0000 0.0000 0.0000 0.0000 -7.9403 0.0000
# 6 0.0000 0.0000 0.0000 0.0000 0.0000 18.0225
#
#
#
# Elastic Compliance Matrix: (Units=1/GPa)
#
#
# Indices 1 2 3 4 5 6 
#
# 1 0.034076 -0.001273 -0.000444 0.000000 0.000000 0.000000
# 2 -0.001273 0.014160 -0.006918 0.000000 0.000000 0.000000
# 3 -0.000444 -0.006918 0.011093 0.000000 0.000000 0.000000
# 4 0.000000 0.000000 0.000000 0.058881 0.000000 0.000000
# 5 0.000000 0.000000 0.000000 0.000000 -0.125940 0.000000
# 6 0.000000 0.000000 0.000000 0.000000 0.000000 0.055486
#
#
# Mechanical properties :
#
#
# Convention : Reuss Voigt Hill
#
# Bulk Modulus (GPa) = 23.77644 45.28283 34.52964
# Shear Modulus (GPa) = 63.25304 18.03687 40.64495
#
# Velocity S-wave (km/s) = 5.65854 3.02165 4.53594
# Velocity P-wave (km/s) = 7.39783 5.92421 6.70165
#
# Compressibility (1/GPa) = 0.04205843
#
# Stress axis : x y z
#
# Youngs Moduli (GPa) = 29.34587 70.62264 90.14426
#
# Poissons Ratio (x) = 0.08990 0.04007
# Poissons Ratio (y) = 0.03736 0.62362
# Poissons Ratio (z) = 0.01304 0.48857
#
# Static dielectric constant tensor:
#      x y z
#    x 1.691540 0.000000 0.000000 
#    y 0.000000 1.701820 0.000000 
#    z 0.000000 0.000000 1.708470 
# 
# From -- ./inp_files/8853.got.cif
#   From: 2010.05.17/outbox.cif.g08.bks.cpg/sg58_5_cif.got.tgz:8853.got - 2010.06.03 14:20:14.
