data_PCOD9443514
_publ_section_title
;
Structure prediction by ZEFSAII (Michael W. Deem and Ramdas Pophale) SiO2 
 PCOD9443514
Probable space group: P N N M
;
_chemical_formula_sum "Si O2"
_cell_formula_units_Z 48
_cell_length_a 9.180816
_cell_length_b 31.841035
_cell_length_c 8.469468
_cell_angle_alpha 90.000000
_cell_angle_beta 90.000000
_cell_angle_gamma 90.000000
_cell_volume 2475.851492
_symmetry_space_group_name_H-M "P N N M"
_symmetry_group_IT_number 58
_symmetry_cell_setting 'orthorhombic'
loop_
_space_group_symop_operation_xyz
x,y,z
-x,-y,z
1/2+x,1/2-y,1/2-z
1/2-x,1/2+y,1/2-z
-x,-y,-z
x,y,-z
1/2-x,1/2+y,1/2+z
1/2+x,1/2-y,1/2+z
loop_
_atom_site_type_symbol
_atom_site_label
_atom_site_fract_x
_atom_site_fract_y
_atom_site_fract_z
Si Si1 0.413046 0.541723 0.691158
Si Si2 0.415735 0.207313 0.310689
Si Si3 0.084251 0.874697 0.192556
Si Si4 0.085912 0.208954 0.191040
Si Si5 0.583143 0.957805 0.310740
Si Si6 0.079784 0.375158 0.310501
O O1 0.500000 0.500000 0.740643
O O2 0.407807 0.541978 0.500000
O O3 0.498775 0.583527 0.742981
O O4 0.249270 0.541546 0.753562
O O5 0.415157 0.206916 0.500000
O O6 0.250435 0.208406 0.251185
O O7 0.501860 0.249038 0.257206
O O8 0.496808 0.165924 0.250033
O O9 0.252091 0.875041 0.244085
O O10 0.000713 0.832659 0.243611
O O11 0.084863 0.874713 0.000000
O O12 0.088543 0.208638 0.000000
O O13 0.580488 0.956611 0.500000
O O14 0.501466 0.916874 0.246517
O O15 0.500000 0.000000 0.257241
O O16 0.078849 0.374560 0.500000
#
# Coordination Sequence:
#
# PCOD9443514 Si02
#       6
#     8   8   8   8   8   8
#     4  10  20  36  60  88 116 151 198 243 285 341
#     4  11  23  38  58  87 120 152 194 244 292 346
#     4   9  19  36  58  84 112 147 194 242 284 336
#     4  10  21  38  59  83 115 156 198 239 288 348
#     4  11  24  40  58  85 121 156 193 239 290 344
#     4  11  22  39  63  86 114 153 195 239 291 349
#
# _framework density 19.387270999999998
#
# number of rings (size 3 to 8) (size 9 to 14) (size 15 to 20)
#    0.000    1.667    0.000    4.500    0.000    7.000 
#    0.000    3.333    0.000    0.000    0.000    0.000 
#    0.000    0.000    0.000    0.000    0.000    0.000 
#
# Total GULP energy -268391.508225 kJ/mol
# GULP energy per Si atom -5591.489755 kJ/mol
# Density = 1.934314 g / cm^3
# Si number density = 19.387271 Si / 1000 Ang^3
#
#
#
# Elastic Constant Matrix: (Units=GPa)
#
#
# Indices 1 2 3 4 5 6 
#
# 1 241.6773 148.6862 34.1977 0.0000 0.0000 0.0000
# 2 148.6862 243.9789 38.0445 0.0000 0.0000 0.0000
# 3 34.1977 38.0445 23.3765 0.0000 0.0000 0.0000
# 4 0.0000 0.0000 0.0000 3.1525 0.0000 0.0000
# 5 0.0000 0.0000 0.0000 0.0000 26.0407 0.0000
# 6 0.0000 0.0000 0.0000 0.0000 0.0000 46.8628
#
#
#
# Elastic Compliance Matrix: (Units=1/GPa)
#
#
# Indices 1 2 3 4 5 6 
#
# 1 0.006939 -0.003546 -0.004381 0.000000 0.000000 0.000000
# 2 -0.003546 0.007304 -0.006701 0.000000 0.000000 0.000000
# 3 -0.004381 -0.006701 0.060091 0.000000 0.000000 0.000000
# 4 0.000000 0.000000 0.000000 0.317206 0.000000 0.000000
# 5 0.000000 0.000000 0.000000 0.000000 0.038401 0.000000
# 6 0.000000 0.000000 0.000000 0.000000 0.000000 0.021339
#
#
# Mechanical properties :
#
#
# Convention : Reuss Voigt Hill
#
# Bulk Modulus (GPa) = 22.18234 105.65440 63.91837
# Shear Modulus (GPa) = 10.08956 34.41816 22.25386
#
# Velocity S-wave (km/s) = 2.28375 4.21800 3.39168
# Velocity P-wave (km/s) = 4.29192 8.85083 6.95549
#
# Compressibility (1/GPa) = 0.04508090
#
# Stress axis : x y z
#
# Youngs Moduli (GPa) = 144.11227 136.90380 16.64132
#
# Poissons Ratio (x) = 0.48542 0.07290
# Poissons Ratio (y) = 0.51098 0.11151
# Poissons Ratio (z) = 0.63131 0.91734
#
# Static dielectric constant tensor:
#      x y z
#    x 1.630280 0.000000 0.000000 
#    y 0.000000 1.653340 0.000000 
#    z 0.000000 0.000000 1.663240 
# 
# From -- ./inp_files/2963.got.cif
#   From: 2010.05.17/outbox.cif.g08.bks.cpg/sg58_2_cif.got.tgz:2963.got - 2010.06.03 14:20:14.
