data_PCOD9443478
_publ_section_title
;
Structure prediction by ZEFSAII (Michael W. Deem and Ramdas Pophale) SiO2 
 PCOD9443478
Probable space group: P N N M
;
_chemical_formula_sum "Si O2"
_cell_formula_units_Z 64
_cell_length_a 29.969547
_cell_length_b 11.565377
_cell_length_c 8.946130
_cell_angle_alpha 90.000000
_cell_angle_beta 90.000000
_cell_angle_gamma 90.000000
_cell_volume 3100.810153
_symmetry_space_group_name_H-M "P N N M"
_symmetry_group_IT_number 58
_symmetry_cell_setting 'orthorhombic'
loop_
_space_group_symop_operation_xyz
x,y,z
-x,-y,z
1/2+x,1/2-y,1/2-z
1/2-x,1/2+y,1/2-z
-x,-y,-z
x,y,-z
1/2-x,1/2+y,1/2+z
1/2+x,1/2-y,1/2+z
loop_
_atom_site_type_symbol
_atom_site_label
_atom_site_fract_x
_atom_site_fract_y
_atom_site_fract_z
Si Si1 0.933865 0.443007 0.322512
Si Si2 0.976958 0.215737 0.180015
Si Si3 0.314539 0.541285 0.828615
Si Si4 0.223408 0.515481 0.322113
Si Si5 0.109235 0.908416 0.174997
Si Si6 0.651851 0.847032 0.674804
Si Si7 0.839392 0.698310 0.326985
Si Si8 0.434091 0.814187 0.322172
O O1 0.938664 0.442011 0.500000
O O2 0.958997 0.334964 0.249282
O O3 0.882605 0.421936 0.273238
O O4 0.948089 0.565603 0.255712
O O5 0.941647 0.117177 0.225731
O O6 0.029479 0.215081 0.215430
O O7 0.972388 0.222813 0.000000
O O8 0.273955 0.496864 0.728630
O O9 0.362074 0.497103 0.769723
O O10 0.314531 0.679751 0.821328
O O11 0.308288 0.504805 0.000000
O O12 0.221219 0.532054 0.500000
O O13 0.200581 0.623356 0.236907
O O14 0.193570 0.404094 0.280448
O O15 0.135462 0.785293 0.186817
O O16 0.108737 0.942290 0.000000
O O17 0.648347 0.879231 0.500000
O O18 0.852757 0.676270 0.500000
O O19 0.884227 0.708566 0.231740
O O20 0.434898 0.830315 0.500000
#
# Coordination Sequence:
#
# PCOD9443478 Si02
#       8
#     8   8   8   8   8   8   8   8
#     4  11  20  31  51  84 124 161 196 241 298 357
#     4   9  20  37  57  85 120 160 205 252 302 356
#     4  11  25  43  63  88 120 158 203 250 300 361
#     4  11  23  40  63  90 119 154 196 243 303 365
#     4   9  20  40  62  85 120 159 199 249 301 350
#     4  10  20  36  59  87 120 156 194 243 297 350
#     4  10  24  44  62  86 124 160 196 251 307 356
#     4  11  21  35  59  87 118 159 206 252 301 361
#
# _framework density 20.639766999999999
#
# number of rings (size 3 to 8) (size 9 to 14) (size 15 to 20)
#    0.000    1.750    1.250    3.750    1.750    6.500 
#    0.000    0.625    0.000    3.750    0.000    0.000 
#    0.000    0.000    0.000    0.000    0.000    0.000 
#
# Total GULP energy -357518.799168 kJ/mol
# GULP energy per Si atom -5586.231237 kJ/mol
# Density = 2.059279 g / cm^3
# Si number density = 20.639767 Si / 1000 Ang^3
#
#
#
# Elastic Constant Matrix: (Units=GPa)
#
#
# Indices 1 2 3 4 5 6 
#
# 1 61.5402 -10.8137 3.2166 0.0000 0.0000 0.0000
# 2 -10.8137 16.1456 1.3101 0.0000 0.0000 0.0000
# 3 3.2166 1.3101 23.1344 0.0000 0.0000 0.0000
# 4 0.0000 0.0000 0.0000 22.3702 0.0000 0.0000
# 5 0.0000 0.0000 0.0000 0.0000 -62.0062 0.0000
# 6 0.0000 0.0000 0.0000 0.0000 0.0000 11.9627
#
#
#
# Elastic Compliance Matrix: (Units=1/GPa)
#
#
# Indices 1 2 3 4 5 6 
#
# 1 0.018667 0.012772 -0.003319 0.000000 0.000000 0.000000
# 2 0.012772 0.070961 -0.005794 0.000000 0.000000 0.000000
# 3 -0.003319 -0.005794 0.044015 0.000000 0.000000 0.000000
# 4 0.000000 0.000000 0.000000 0.044702 0.000000 0.000000
# 5 0.000000 0.000000 0.000000 0.000000 -0.016127 0.000000
# 6 0.000000 0.000000 0.000000 0.000000 0.000000 0.083593
#
#
# Mechanical properties :
#
#
# Convention : Reuss Voigt Hill
#
# Bulk Modulus (GPa) = 7.09417 9.80513 8.44965
# Shear Modulus (GPa) = 17.51431 1.60580 9.56005
#
# Velocity S-wave (km/s) = 2.91618 0.88301 2.15451
# Velocity P-wave (km/s) = 3.84492 2.40843 3.20811
#
# Compressibility (1/GPa) = 0.14096075
#
# Stress axis : x y z
#
# Youngs Moduli (GPa) = 53.56971 14.09231 22.71937
#
# Poissons Ratio (x) = -0.17999 0.07540
# Poissons Ratio (y) = -0.68419 0.13164
# Poissons Ratio (z) = 0.17779 0.08166
#
# Static dielectric constant tensor:
#      x y z
#    x 1.779090 0.000000 0.000000 
#    y 0.000000 1.727710 0.000000 
#    z 0.000000 0.000000 1.694340 
# 
# From -- ./inp_files/10998.got.cif
#   From: 2010.05.17/outbox.cif.g08.bks.cpg/sg58_6_cif.got.tgz:10998.got - 2010.06.03 14:20:14.
