data_PCOD9443243
_publ_section_title
;
Structure prediction by ZEFSAII (Michael W. Deem and Ramdas Pophale) SiO2 
 PCOD9443243
Probable space group: P N N M
;
_chemical_formula_sum "Si O2"
_cell_formula_units_Z 56
_cell_length_a 20.346500
_cell_length_b 15.788317
_cell_length_c 7.534151
_cell_angle_alpha 90.000000
_cell_angle_beta 90.000000
_cell_angle_gamma 90.000000
_cell_volume 2420.248003
_symmetry_space_group_name_H-M "P N N M"
_symmetry_group_IT_number 58
_symmetry_cell_setting 'orthorhombic'
loop_
_space_group_symop_operation_xyz
x,y,z
-x,-y,z
1/2+x,1/2-y,1/2-z
1/2-x,1/2+y,1/2-z
-x,-y,-z
x,y,-z
1/2-x,1/2+y,1/2+z
1/2+x,1/2-y,1/2+z
loop_
_atom_site_type_symbol
_atom_site_label
_atom_site_fract_x
_atom_site_fract_y
_atom_site_fract_z
Si Si1 0.031054 0.084094 0.796002
Si Si2 0.184029 0.511428 0.290191
Si Si3 0.667359 0.485275 0.787346
Si Si4 0.091383 0.660093 0.288279
Si Si5 0.040652 0.266788 0.214096
Si Si6 0.826754 0.180312 0.717471
Si Si7 0.681419 0.182366 0.297247
O O1 0.109359 0.070679 0.791500
O O2 0.016503 0.175539 0.715812
O O3 0.007649 0.086544 0.000000
O O4 0.000000 0.000000 0.711553
O O5 0.173522 0.498490 0.500000
O O6 0.259114 0.541581 0.263933
O O7 0.131927 0.579615 0.221155
O O8 0.178316 0.419749 0.202102
O O9 0.658126 0.583639 0.728925
O O10 0.662018 0.482278 0.000000
O O11 0.100973 0.660017 0.500000
O O12 0.123517 0.747652 0.221098
O O13 0.013979 0.663324 0.254001
O O14 0.113556 0.285428 0.283925
O O15 0.045007 0.261336 0.000000
O O16 0.825905 0.178892 0.500000
O O17 0.752883 0.202810 0.780159
O O18 0.683267 0.213625 0.500000
#
# Coordination Sequence:
#
# PCOD9443243 Si02
#       7
#     8   8   8   8   8   8   8
#     4  10  21  36  56  84 118 150 184 230 284 336
#     4  10  21  36  57  83 110 143 184 236 289 329
#     4  10  20  35  57  83 111 146 187 229 273 333
#     4  10  21  36  57  81 108 145 185 229 280 336
#     4  10  22  37  56  81 112 151 186 228 281 336
#     4   8  16  33  56  78 103 140 184 224 267 325
#     4   9  19  37  58  78 106 146 189 229 275 336
#
# _framework density 23.138124000000001
#
# number of rings (size 3 to 8) (size 9 to 14) (size 15 to 20)
#    0.000    2.429    0.000    2.571    2.000    3.143 
#    0.000    5.714    0.000    0.000    0.000    0.000 
#    0.000    0.000    0.000    0.000    0.000    0.000 
#
# Total GULP energy -312875.352323 kJ/mol
# GULP energy per Si atom -5587.059863 kJ/mol
# Density = 2.308546 g / cm^3
# Si number density = 23.138124 Si / 1000 Ang^3
#
#
#
# Elastic Constant Matrix: (Units=GPa)
#
#
# Indices 1 2 3 4 5 6 
#
# 1 85.0821 18.4131 -14.2287 0.0000 0.0000 0.0000
# 2 18.4131 26.1809 -7.9183 0.0000 0.0000 0.0000
# 3 -14.2287 -7.9183 69.1276 0.0000 0.0000 0.0000
# 4 0.0000 0.0000 0.0000 1.9082 0.0000 0.0000
# 5 0.0000 0.0000 0.0000 0.0000 17.6840 0.0000
# 6 0.0000 0.0000 0.0000 0.0000 0.0000 34.2592
#
#
#
# Elastic Compliance Matrix: (Units=1/GPa)
#
#
# Indices 1 2 3 4 5 6 
#
# 1 0.014083 -0.009352 0.001828 0.000000 0.000000 0.000000
# 2 -0.009352 0.045777 0.003319 0.000000 0.000000 0.000000
# 3 0.001828 0.003319 0.015222 0.000000 0.000000 0.000000
# 4 0.000000 0.000000 0.000000 0.524058 0.000000 0.000000
# 5 0.000000 0.000000 0.000000 0.000000 0.056548 0.000000
# 6 0.000000 0.000000 0.000000 0.000000 0.000000 0.029189
#
#
# Mechanical properties :
#
#
# Convention : Reuss Voigt Hill
#
# Bulk Modulus (GPa) = 14.99914 19.21363 17.10638
# Shear Modulus (GPa) = 6.98800 23.04524 15.01662
#
# Velocity S-wave (km/s) = 1.73974 3.15935 2.55031
# Velocity P-wave (km/s) = 3.24532 4.65087 4.01015
#
# Compressibility (1/GPa) = 0.06667049
#
# Stress axis : x y z
#
# Youngs Moduli (GPa) = 71.00831 21.84520 65.69309
#
# Poissons Ratio (x) = 0.20429 -0.12005
# Poissons Ratio (y) = 0.66406 -0.21801
# Poissons Ratio (z) = -0.12977 -0.07250
#
# Static dielectric constant tensor:
#      x y z
#    x 1.864550 0.000000 0.000000 
#    y 0.000000 1.862740 0.000000 
#    z 0.000000 0.000000 1.871830 
# 
# From -- ./inp_files/9025.got.cif
#   From: 2010.05.17/outbox.cif.g08.bks.cpg/sg58_5_cif.got.tgz:9025.got - 2010.06.03 14:20:14.
