data_PCOD9443345
_publ_section_title
;
Structure prediction by ZEFSAII (Michael W. Deem and Ramdas Pophale) SiO2 
 PCOD9443345
Probable space group: P N N M
;
_chemical_formula_sum "Si O2"
_cell_formula_units_Z 40
_cell_length_a 5.481229
_cell_length_b 14.150274
_cell_length_c 23.503563
_cell_angle_alpha 90.000000
_cell_angle_beta 90.000000
_cell_angle_gamma 90.000000
_cell_volume 1822.957316
_symmetry_space_group_name_H-M "P N N M"
_symmetry_group_IT_number 58
_symmetry_cell_setting 'orthorhombic'
loop_
_space_group_symop_operation_xyz
x,y,z
-x,-y,z
1/2+x,1/2-y,1/2-z
1/2-x,1/2+y,1/2-z
-x,-y,-z
x,y,-z
1/2-x,1/2+y,1/2+z
1/2+x,1/2-y,1/2+z
loop_
_atom_site_type_symbol
_atom_site_label
_atom_site_fract_x
_atom_site_fract_y
_atom_site_fract_z
Si Si1 0.466591 0.891257 0.907460
Si Si2 0.960932 0.782644 0.936686
Si Si3 0.768791 0.609399 0.716349
Si Si4 0.756402 0.960968 0.689862
Si Si5 0.987597 0.280581 0.182016
O O1 0.211362 0.844608 0.928782
O O2 0.444043 0.888447 0.838298
O O3 0.709444 0.840446 0.929428
O O4 0.500000 0.000000 0.924076
O O5 0.948566 0.710696 0.883962
O O6 0.969226 0.741917 0.000000
O O7 0.742944 0.508151 0.746569
O O8 0.541368 0.669253 0.692720
O O9 0.845709 0.673828 0.770042
O O10 0.500000 0.000000 0.665703
O O11 0.750479 0.847918 0.689036
O O12 0.000000 0.000000 0.661829
#
# Coordination Sequence:
#
# PCOD9443345 Si02
#       5
#     8   8   8   8   8
#     4  11  23  39  62  89 119 153 195 248 302 359
#     4  11  25  41  59  84 116 161 207 242 288 350
#     4  10  20  35  60  92 122 151 192 240 305 365
#     4  10  21  35  56  86 122 155 191 237 299 366
#     4  10  20  36  61  86 123 159 194 248 302 355
#
# _framework density 21.942366
#
# number of rings (size 3 to 8) (size 9 to 14) (size 15 to 20)
#    0.000    1.600    0.000    5.400    0.000   15.200 
#    0.000    0.000    0.000    6.000    0.000    0.000 
#    0.000    0.000    0.000    0.000    0.000    0.000 
#
# Total GULP energy -222817.090363 kJ/mol
# GULP energy per Si atom -5570.427259 kJ/mol
# Density = 2.189242 g / cm^3
# Si number density = 21.942366 Si / 1000 Ang^3
#
#
#
# Elastic Constant Matrix: (Units=GPa)
#
#
# Indices 1 2 3 4 5 6 
#
# 1 134.3798 1.5010 8.5381 0.0000 0.0000 0.0000
# 2 1.5010 64.0030 16.4558 0.0000 0.0000 0.0000
# 3 8.5381 16.4558 147.9589 0.0000 0.0000 0.0000
# 4 0.0000 0.0000 0.0000 10.0405 0.0000 0.0000
# 5 0.0000 0.0000 0.0000 0.0000 16.0177 0.0000
# 6 0.0000 0.0000 0.0000 0.0000 0.0000 19.0221
#
#
#
# Elastic Compliance Matrix: (Units=1/GPa)
#
#
# Indices 1 2 3 4 5 6 
#
# 1 0.007469 -0.000066 -0.000424 0.000000 0.000000 0.000000
# 2 -0.000066 0.016085 -0.001785 0.000000 0.000000 0.000000
# 3 -0.000424 -0.001785 0.006982 0.000000 0.000000 0.000000
# 4 0.000000 0.000000 0.000000 0.099597 0.000000 0.000000
# 5 0.000000 0.000000 0.000000 0.000000 0.062431 0.000000
# 6 0.000000 0.000000 0.000000 0.000000 0.000000 0.052570
#
#
# Mechanical properties :
#
#
# Convention : Reuss Voigt Hill
#
# Bulk Modulus (GPa) = 38.48280 44.37019 41.42649
# Shear Modulus (GPa) = 19.35393 30.33919 24.84656
#
# Velocity S-wave (km/s) = 2.97313 3.72247 3.36870
# Velocity P-wave (km/s) = 5.41869 6.22421 5.83537
#
# Compressibility (1/GPa) = 0.02598563
#
# Stress axis : x y z
#
# Youngs Moduli (GPa) = 133.88226 62.17058 143.23331
#
# Poissons Ratio (x) = 0.00412 0.06068
# Poissons Ratio (y) = 0.00887 0.25569
# Poissons Ratio (z) = 0.05672 0.11098
#
# Static dielectric constant tensor:
#      x y z
#    x 1.951320 0.000000 0.000000 
#    y 0.000000 1.897090 0.000000 
#    z 0.000000 0.000000 1.814250 
# 
# From -- ./inp_files/30896.got.cif
#   From: 2010.05.17/outbox.cif.g08.bks.cpg/sg58_16_cif.got.tgz:30896.got - 2010.06.03 14:20:14.
