data_PCOD9443939
_publ_section_title
;
Structure prediction by ZEFSAII (Michael W. Deem and Ramdas Pophale) SiO2 
 PCOD9443939
Probable space group: P N N M
;
_chemical_formula_sum "Si O2"
_cell_formula_units_Z 48
_cell_length_a 9.835369
_cell_length_b 28.043599
_cell_length_c 8.309068
_cell_angle_alpha 90.000000
_cell_angle_beta 90.000000
_cell_angle_gamma 90.000000
_cell_volume 2291.800025
_symmetry_space_group_name_H-M "P N N M"
_symmetry_group_IT_number 58
_symmetry_cell_setting 'orthorhombic'
loop_
_space_group_symop_operation_xyz
x,y,z
-x,-y,z
1/2+x,1/2-y,1/2-z
1/2-x,1/2+y,1/2-z
-x,-y,-z
x,y,-z
1/2-x,1/2+y,1/2+z
1/2+x,1/2-y,1/2+z
loop_
_atom_site_type_symbol
_atom_site_label
_atom_site_fract_x
_atom_site_fract_y
_atom_site_fract_z
Si Si1 0.309119 0.890789 0.690441
Si Si2 0.684947 0.395031 0.804882
Si Si3 0.856744 0.709773 0.309917
Si Si4 0.439165 0.049245 0.695915
Si Si5 0.064856 0.950013 0.809669
Si Si6 0.668607 0.796399 0.305662
O O1 0.310554 0.882565 0.500000
O O2 0.283984 0.840534 0.773965
O O3 0.457446 0.909070 0.741833
O O4 0.203527 0.932778 0.728213
O O5 0.542226 0.407916 0.727305
O O6 0.757105 0.345671 0.757126
O O7 0.788430 0.437151 0.755011
O O8 0.670551 0.395056 0.000000
O O9 0.868256 0.716270 0.500000
O O10 0.762261 0.752650 0.246398
O O11 0.011071 0.708033 0.244306
O O12 0.439072 0.047439 0.500000
O O13 0.500000 0.000000 0.756892
O O14 0.087254 0.954570 0.000000
O O15 0.000000 0.000000 0.749706
O O16 0.668323 0.796411 0.500000
#
# Coordination Sequence:
#
# PCOD9443939 Si02
#       6
#     8   8   8   8   8   8
#     4  11  22  40  65  90 122 163 207 255 306 367
#     4  10  20  39  63  88 121 158 206 258 303 366
#     4  11  24  41  64  95 128 161 203 255 314 371
#     4   9  17  32  59  90 114 144 194 251 299 351
#     4  11  25  42  59  89 131 168 206 256 314 371
#     4  10  23  43  64  91 123 161 208 255 304 368
#
# _framework density 20.944234999999999
#
# number of rings (size 3 to 8) (size 9 to 14) (size 15 to 20)
#    0.000    1.667    1.667    2.500    2.333    4.667 
#    0.000    0.000    0.000    3.500    0.000    0.000 
#    0.000    0.000    0.000    0.000    0.000    0.000 
#
# Total GULP energy -268135.705577 kJ/mol
# GULP energy per Si atom -5586.160533 kJ/mol
# Density = 2.089656 g / cm^3
# Si number density = 20.944235 Si / 1000 Ang^3
#
#
#
# Elastic Constant Matrix: (Units=GPa)
#
#
# Indices 1 2 3 4 5 6 
#
# 1 70.9705 1.4236 0.6778 0.0000 0.0000 0.0000
# 2 1.4236 85.4802 3.9001 0.0000 0.0000 0.0000
# 3 0.6778 3.9001 11.3729 0.0000 0.0000 0.0000
# 4 0.0000 0.0000 0.0000 27.0311 0.0000 0.0000
# 5 0.0000 0.0000 0.0000 0.0000 26.5109 0.0000
# 6 0.0000 0.0000 0.0000 0.0000 0.0000 36.4417
#
#
#
# Elastic Compliance Matrix: (Units=1/GPa)
#
#
# Indices 1 2 3 4 5 6 
#
# 1 0.014102 -0.000200 -0.000772 0.000000 0.000000 0.000000
# 2 -0.000200 0.011887 -0.004065 0.000000 0.000000 0.000000
# 3 -0.000772 -0.004065 0.089368 0.000000 0.000000 0.000000
# 4 0.000000 0.000000 0.000000 0.036994 0.000000 0.000000
# 5 0.000000 0.000000 0.000000 0.000000 0.037720 0.000000
# 6 0.000000 0.000000 0.000000 0.000000 0.000000 0.027441
#
#
# Mechanical properties :
#
#
# Convention : Reuss Voigt Hill
#
# Bulk Modulus (GPa) = 9.49808 19.98075 14.73941
# Shear Modulus (GPa) = 19.03455 28.78489 23.90972
#
# Velocity S-wave (km/s) = 3.01794 3.71126 3.38241
# Velocity P-wave (km/s) = 4.08518 5.28443 4.72303
#
# Compressibility (1/GPa) = 0.10528448
#
# Stress axis : x y z
#
# Youngs Moduli (GPa) = 70.91320 84.12278 11.18970
#
# Poissons Ratio (x) = 0.01679 0.00864
# Poissons Ratio (y) = 0.01416 0.04548
# Poissons Ratio (z) = 0.05475 0.34193
#
# Static dielectric constant tensor:
#      x y z
#    x 1.722250 0.000000 0.000000 
#    y 0.000000 1.778390 0.000000 
#    z 0.000000 0.000000 1.726970 
# 
# From -- ./inp_files/2931.got.cif
#   From: 2010.05.17/outbox.cif.g08.bks.cpg/sg58_2_cif.got.tgz:2931.got - 2010.06.03 14:20:14.
