data_PCOD9443557
_publ_section_title
;
Structure prediction by ZEFSAII (Michael W. Deem and Ramdas Pophale) SiO2 
 PCOD9443557
Probable space group: P N N M
;
_chemical_formula_sum "Si O2"
_cell_formula_units_Z 64
_cell_length_a 24.326073
_cell_length_b 15.617406
_cell_length_c 8.725237
_cell_angle_alpha 90.000000
_cell_angle_beta 90.000000
_cell_angle_gamma 90.000000
_cell_volume 3314.806171
_symmetry_space_group_name_H-M "P N N M"
_symmetry_group_IT_number 58
_symmetry_cell_setting 'orthorhombic'
loop_
_space_group_symop_operation_xyz
x,y,z
-x,-y,z
1/2+x,1/2-y,1/2-z
1/2-x,1/2+y,1/2-z
-x,-y,-z
x,y,-z
1/2-x,1/2+y,1/2+z
1/2+x,1/2-y,1/2+z
loop_
_atom_site_type_symbol
_atom_site_label
_atom_site_fract_x
_atom_site_fract_y
_atom_site_fract_z
Si Si1 0.175924 0.224320 0.184457
Si Si2 0.868082 0.142919 0.321911
Si Si3 0.743126 0.107874 0.686256
Si Si4 0.622625 0.819263 0.676560
Si Si5 0.022576 0.907859 0.181527
Si Si6 0.738769 0.912316 0.317904
Si Si7 0.445719 0.739647 0.182195
Si Si8 0.995036 0.403309 0.180913
O O1 0.203656 0.314689 0.237216
O O2 0.214754 0.146163 0.239370
O O3 0.114161 0.219706 0.247739
O O4 0.174416 0.223876 0.000000
O O5 0.872728 0.119346 0.500000
O O6 0.805737 0.128935 0.270859
O O7 0.880605 0.242349 0.295165
O O8 0.913598 0.094446 0.225077
O O9 0.739681 0.108036 0.500000
O O10 0.733223 0.010434 0.737540
O O11 0.622462 0.785623 0.500000
O O12 0.679373 0.868744 0.700115
O O13 0.568625 0.876411 0.692307
O O14 0.989456 0.831480 0.262125
O O15 0.015559 0.896889 0.000000
O O16 0.000000 0.000000 0.228366
O O17 0.751559 0.914880 0.500000
O O18 0.467851 0.831957 0.238098
O O19 0.442243 0.738140 0.000000
O O20 0.000000 0.500000 0.239595
O O21 0.010183 0.402949 0.000000
#
# Coordination Sequence:
#
# PCOD9443557 Si02
#       8
#     8   8   8   8   8   8   8   8
#     4  11  23  42  64  88 123 165 206 252 307 369
#     4  11  21  38  63  91 123 161 203 251 307 365
#     4   9  21  39  62  90 122 161 203 245 301 364
#     4  10  20  36  62  90 121 159 206 258 305 356
#     4  11  25  44  65  92 123 160 206 256 311 371
#     4  10  21  39  62  91 123 161 206 253 302 362
#     4  12  26  43  63  91 126 165 206 256 312 368
#     4  10  22  40  65  94 124 166 211 252 305 367
#
# _framework density 19.307313000000001
#
# number of rings (size 3 to 8) (size 9 to 14) (size 15 to 20)
#    0.000    1.500    2.500    2.250    3.500    1.250 
#    0.000    1.875    0.000    0.000    0.000    0.000 
#    0.000    0.000    0.000    0.000    0.000    0.000 
#
# Total GULP energy -357492.927530 kJ/mol
# GULP energy per Si atom -5585.826993 kJ/mol
# Density = 1.926337 g / cm^3
# Si number density = 19.307313 Si / 1000 Ang^3
#
#
#
# Elastic Constant Matrix: (Units=GPa)
#
#
# Indices 1 2 3 4 5 6 
#
# 1 59.8011 -18.1153 10.2447 0.0000 0.0000 0.0000
# 2 -18.1153 48.9021 14.2863 0.0000 0.0000 0.0000
# 3 10.2447 14.2863 34.6168 0.0000 0.0000 0.0000
# 4 0.0000 0.0000 0.0000 -25.6477 0.0000 0.0000
# 5 0.0000 0.0000 0.0000 0.0000 35.8222 0.0000
# 6 0.0000 0.0000 0.0000 0.0000 0.0000 24.2259
#
#
#
# Elastic Compliance Matrix: (Units=1/GPa)
#
#
# Indices 1 2 3 4 5 6 
#
# 1 0.022143 0.011504 -0.011301 0.000000 0.000000 0.000000
# 2 0.011504 0.029229 -0.015467 0.000000 0.000000 0.000000
# 3 -0.011301 -0.015467 0.038615 0.000000 0.000000 0.000000
# 4 0.000000 0.000000 0.000000 -0.038990 0.000000 0.000000
# 5 0.000000 0.000000 0.000000 0.000000 0.027916 0.000000
# 6 0.000000 0.000000 0.000000 0.000000 0.000000 0.041278
#
#
# Mechanical properties :
#
#
# Convention : Reuss Voigt Hill
#
# Bulk Modulus (GPa) = 16.81820 17.35014 17.08417
# Shear Modulus (GPa) = 29.31871 16.00705 22.66288
#
# Velocity S-wave (km/s) = 3.90106 2.88248 3.42979
# Velocity P-wave (km/s) = 5.38709 4.48152 4.95503
#
# Compressibility (1/GPa) = 0.05945939
#
# Stress axis : x y z
#
# Youngs Moduli (GPa) = 45.16114 34.21233 25.89636
#
# Poissons Ratio (x) = -0.39358 0.29265
# Poissons Ratio (y) = -0.51954 0.40055
# Poissons Ratio (z) = 0.51036 0.52918
#
# Static dielectric constant tensor:
#      x y z
#    x 1.744620 0.000000 0.000000 
#    y 0.000000 1.680620 0.000000 
#    z 0.000000 0.000000 1.665280 
# 
# From -- ./inp_files/10073.got.cif
#   From: 2010.05.17/outbox.cif.g08.bks.cpg/sg58_6_cif.got.tgz:10073.got - 2010.06.03 14:20:14.
