data_PCOD9443921
_publ_section_title
;
Structure prediction by ZEFSAII (Michael W. Deem and Ramdas Pophale) SiO2 
 PCOD9443921
Probable space group: P N N M
;
_chemical_formula_sum "Si O2"
_cell_formula_units_Z 48
_cell_length_a 6.287996
_cell_length_b 13.076371
_cell_length_c 28.589363
_cell_angle_alpha 90.000000
_cell_angle_beta 90.000000
_cell_angle_gamma 90.000000
_cell_volume 2350.736602
_symmetry_space_group_name_H-M "P N N M"
_symmetry_group_IT_number 58
_symmetry_cell_setting 'orthorhombic'
loop_
_space_group_symop_operation_xyz
x,y,z
-x,-y,z
1/2+x,1/2-y,1/2-z
1/2-x,1/2+y,1/2-z
-x,-y,-z
x,y,-z
1/2-x,1/2+y,1/2+z
1/2+x,1/2-y,1/2+z
loop_
_atom_site_type_symbol
_atom_site_label
_atom_site_fract_x
_atom_site_fract_y
_atom_site_fract_z
Si Si1 0.992718 0.199076 0.895928
Si Si2 0.388150 0.102798 0.279693
Si Si3 0.149776 0.412827 0.446390
Si Si4 0.878429 0.201680 0.446936
Si Si5 0.612953 0.341993 0.141236
Si Si6 0.734812 0.273132 0.307683
O O1 0.869138 0.108263 0.920714
O O2 0.807868 0.273256 0.877011
O O3 0.144423 0.262169 0.931019
O O4 0.133790 0.167943 0.851681
O O5 0.228805 0.080469 0.323267
O O6 0.572577 0.181669 0.295366
O O7 0.267481 0.157085 0.237239
O O8 0.500000 0.000000 0.263845
O O9 0.194531 0.441969 0.500000
O O10 0.000000 0.500000 0.425168
O O11 0.017577 0.306464 0.446800
O O12 0.881341 0.160785 0.500000
O O13 0.978321 0.131959 0.405506
O O14 0.453895 0.275063 0.173270
#
# Coordination Sequence:
#
# PCOD9443921 Si02
#       6
#     8   8   8   8   8   8
#     4   9  18  32  53  73 109 155 191 244 305 349
#     4  11  22  38  65  88 115 161 198 240 310 366
#     4   9  17  29  46  72 110 152 199 247 293 357
#     4   9  17  31  54  79 105 148 197 246 310 358
#     4   9  19  37  56  82 118 152 192 247 295 355
#     4  10  20  39  60  83 122 147 197 256 291 361
#
# _framework density 20.419132999999999
#
# number of rings (size 3 to 8) (size 9 to 14) (size 15 to 20)
#    0.000    2.500    1.667    0.500    0.000    2.000 
#    0.000   11.667    3.667    0.500    0.000   10.500 
#    0.000    0.000    0.000    0.000    0.000    0.000 
#
# Total GULP energy -267685.924517 kJ/mol
# GULP energy per Si atom -5576.790094 kJ/mol
# Density = 2.037266 g / cm^3
# Si number density = 20.419133 Si / 1000 Ang^3
#
#
#
# Elastic Constant Matrix: (Units=GPa)
#
#
# Indices 1 2 3 4 5 6 
#
# 1 101.3455 15.7736 40.8575 0.0000 0.0000 0.0000
# 2 15.7736 36.3691 14.7948 0.0000 0.0000 0.0000
# 3 40.8575 14.7948 111.8281 0.0000 0.0000 0.0000
# 4 0.0000 0.0000 0.0000 3.0272 0.0000 0.0000
# 5 0.0000 0.0000 0.0000 0.0000 23.6724 0.0000
# 6 0.0000 0.0000 0.0000 0.0000 0.0000 21.4081
#
#
#
# Elastic Compliance Matrix: (Units=1/GPa)
#
#
# Indices 1 2 3 4 5 6 
#
# 1 0.012006 -0.003617 -0.003908 0.000000 0.000000 0.000000
# 2 -0.003617 0.030150 -0.002667 0.000000 0.000000 0.000000
# 3 -0.003908 -0.002667 0.010723 0.000000 0.000000 0.000000
# 4 0.000000 0.000000 0.000000 0.330339 0.000000 0.000000
# 5 0.000000 0.000000 0.000000 0.000000 0.042243 0.000000
# 6 0.000000 0.000000 0.000000 0.000000 0.000000 0.046711
#
#
# Mechanical properties :
#
#
# Convention : Reuss Voigt Hill
#
# Bulk Modulus (GPa) = 30.77519 43.59940 37.18729
# Shear Modulus (GPa) = 9.93270 21.49600 15.71435
#
# Velocity S-wave (km/s) = 2.20793 3.24811 2.77716
# Velocity P-wave (km/s) = 4.64805 5.95530 5.34182
#
# Compressibility (1/GPa) = 0.03249371
#
# Stress axis : x y z
#
# Youngs Moduli (GPa) = 83.29391 33.16783 93.25819
#
# Poissons Ratio (x) = 0.11998 0.36444
# Poissons Ratio (y) = 0.30130 0.24874
# Poissons Ratio (z) = 0.32550 0.08846
#
# Static dielectric constant tensor:
#      x y z
#    x 1.736730 0.000000 0.000000 
#    y 0.000000 1.690720 0.000000 
#    z 0.000000 0.000000 1.756190 
# 
# From -- ./inp_files/32793.got.cif
#   From: 2010.05.17/outbox.cif.g08.bks.cpg/sg58_17_cif.got.tgz:32793.got - 2010.06.03 14:20:14.
