data_PCOD9443940
_publ_section_title
;
Structure prediction by ZEFSAII (Michael W. Deem and Ramdas Pophale) SiO2 
 PCOD9443940
Probable space group: P N N M
;
_chemical_formula_sum "Si O2"
_cell_formula_units_Z 52
_cell_length_a 16.850943
_cell_length_b 16.025922
_cell_length_c 7.291200
_cell_angle_alpha 90.000000
_cell_angle_beta 90.000000
_cell_angle_gamma 90.000000
_cell_volume 1969.002400
_symmetry_space_group_name_H-M "P N N M"
_symmetry_group_IT_number 58
_symmetry_cell_setting 'orthorhombic'
loop_
_space_group_symop_operation_xyz
x,y,z
-x,-y,z
1/2+x,1/2-y,1/2-z
1/2-x,1/2+y,1/2-z
-x,-y,-z
x,y,-z
1/2-x,1/2+y,1/2+z
1/2+x,1/2-y,1/2+z
loop_
_atom_site_type_symbol
_atom_site_label
_atom_site_fract_x
_atom_site_fract_y
_atom_site_fract_z
Si Si1 0.924436 0.814166 0.206673
Si Si2 0.283192 0.276323 0.214995
Si Si3 0.836168 0.629421 0.500000
Si Si4 0.691350 0.450900 0.789443
Si Si5 0.578623 0.589286 0.787163
Si Si6 0.144996 0.593490 0.213759
Si Si7 0.533762 0.128113 0.722996
O O1 0.849012 0.859875 0.292807
O O2 0.956008 0.726290 0.281340
O O3 0.996857 0.878630 0.208533
O O4 0.901591 0.797388 0.000000
O O5 0.216603 0.320100 0.339570
O O6 0.358906 0.336750 0.224924
O O7 0.318808 0.187576 0.277428
O O8 0.260010 0.271221 0.000000
O O9 0.894943 0.589222 0.662384
O O10 0.626011 0.511568 0.704972
O O11 0.778476 0.454648 0.703704
O O12 0.700482 0.478538 0.000000
O O13 0.560498 0.571203 0.000000
O O14 0.054281 0.597940 0.278389
O O15 0.138913 0.569156 0.000000
O O16 0.539985 0.120623 0.500000
#
# Coordination Sequence:
#
# PCOD9443940 Si02
#       7
#     8   8   4   8   8   8   8
#     4  11  22  35  55  89 128 166 206 248 306 378
#     4  11  23  39  64  91 124 163 214 255 309 372
#     4  12  24  38  64  93 118 166 205 263 307 360
#     4  10  22  38  60  88 123 165 208 251 309 378
#     4  10  22  39  60  87 123 169 208 250 310 378
#     4  10  20  39  63  90 123 167 209 259 314 367
#     4  10  23  39  61  93 128 162 207 258 316 372
#
# _framework density 26.409313000000001
#
# number of rings (size 3 to 8) (size 9 to 14) (size 15 to 20)
#    0.000    1.538    2.308    2.308    6.462    4.308 
#    0.000    0.000    0.000    1.846    0.000    5.385 
#    0.000    0.000    0.000    0.000    0.000    0.000 
#
# Total GULP energy -289929.598821 kJ/mol
# GULP energy per Si atom -5575.569208 kJ/mol
# Density = 2.634920 g / cm^3
# Si number density = 26.409313 Si / 1000 Ang^3
#
#
#
# Elastic Constant Matrix: (Units=GPa)
#
#
# Indices 1 2 3 4 5 6 
#
# 1 199.1042 50.4648 21.4353 0.0000 0.0000 0.0000
# 2 50.4648 62.7489 -26.1230 0.0000 0.0000 0.0000
# 3 21.4353 -26.1230 135.0198 0.0000 0.0000 0.0000
# 4 0.0000 0.0000 0.0000 5.5844 0.0000 0.0000
# 5 0.0000 0.0000 0.0000 0.0000 -295.9353 0.0000
# 6 0.0000 0.0000 0.0000 0.0000 0.0000 49.8068
#
#
#
# Elastic Compliance Matrix: (Units=1/GPa)
#
#
# Indices 1 2 3 4 5 6 
#
# 1 0.006944 -0.006573 -0.002374 0.000000 0.000000 0.000000
# 2 -0.006573 0.023554 0.005601 0.000000 0.000000 0.000000
# 3 -0.002374 0.005601 0.008867 0.000000 0.000000 0.000000
# 4 0.000000 0.000000 0.000000 0.179071 0.000000 0.000000
# 5 0.000000 0.000000 0.000000 0.000000 -0.003379 0.000000
# 6 0.000000 0.000000 0.000000 0.000000 0.000000 0.020078
#
#
# Mechanical properties :
#
#
# Convention : Reuss Voigt Hill
#
# Bulk Modulus (GPa) = 30.60687 54.26966 42.43826
# Shear Modulus (GPa) = 19.78487 -24.70244 -2.45878
#
# Velocity S-wave (km/s) = 2.74005 -3.06170 -0.96595
# Velocity P-wave (km/s) = 4.65028 2.84524 3.85490
#
# Compressibility (1/GPa) = 0.03267240
#
# Stress axis : x y z
#
# Youngs Moduli (GPa) = 144.00734 42.45488 112.77986
#
# Poissons Ratio (x) = 0.27906 0.26776
# Poissons Ratio (y) = 0.94657 -0.63165
# Poissons Ratio (z) = 0.34189 -0.23778
#
# Static dielectric constant tensor:
#      x y z
#    x 2.048330 0.000000 0.000000 
#    y 0.000000 2.193390 0.000000 
#    z 0.000000 0.000000 2.031680 
# 
# From -- ./inp_files/6162.got.cif
#   From: 2010.05.17/outbox.cif.g08.bks.cpg/sg58_4_cif.got.tgz:6162.got - 2010.06.03 14:20:14.
