data_PCOD9443686
_publ_section_title
;
Structure prediction by ZEFSAII (Michael W. Deem and Ramdas Pophale) SiO2 
 PCOD9443686
Probable space group: P N N M
;
_chemical_formula_sum "Si O2"
_cell_formula_units_Z 64
_cell_length_a 15.185256
_cell_length_b 23.301280
_cell_length_c 7.822948
_cell_angle_alpha 90.000000
_cell_angle_beta 90.000000
_cell_angle_gamma 90.000000
_cell_volume 2768.039861
_symmetry_space_group_name_H-M "P N N M"
_symmetry_group_IT_number 58
_symmetry_cell_setting 'orthorhombic'
loop_
_space_group_symop_operation_xyz
x,y,z
-x,-y,z
1/2+x,1/2-y,1/2-z
1/2-x,1/2+y,1/2-z
-x,-y,-z
x,y,-z
1/2-x,1/2+y,1/2+z
1/2+x,1/2-y,1/2+z
loop_
_atom_site_type_symbol
_atom_site_label
_atom_site_fract_x
_atom_site_fract_y
_atom_site_fract_z
Si Si1 0.644843 0.280370 0.304630
Si Si2 0.902781 0.991856 0.696645
Si Si3 0.775353 0.443557 0.796248
Si Si4 0.636529 0.153617 0.199193
Si Si5 0.954205 0.217632 0.795074
Si Si6 0.167808 0.680191 0.701472
Si Si7 0.163553 0.887637 0.800216
Si Si8 0.417579 0.964194 0.206660
O O1 0.647030 0.302106 0.500000
O O2 0.637763 0.211669 0.302703
O O3 0.551164 0.296633 0.223806
O O4 0.738133 0.297570 0.223472
O O5 0.916548 0.972862 0.500000
O O6 0.860943 0.055222 0.701045
O O7 0.825461 0.950913 0.771092
O O8 0.000000 0.000000 0.776092
O O9 0.827982 0.387913 0.730976
O O10 0.830506 0.500342 0.752196
O O11 0.769586 0.438912 0.000000
O O12 0.734146 0.127326 0.203011
O O13 0.578334 0.101350 0.266740
O O14 0.614485 0.166907 0.000000
O O15 0.913024 0.280570 0.763282
O O16 0.887413 0.168564 0.735704
O O17 0.960716 0.213318 0.000000
O O18 0.168610 0.690631 0.500000
O O19 0.139920 0.897671 0.000000
O O20 0.500000 0.000000 0.270637
O O21 0.420378 0.961092 0.000000
#
# Coordination Sequence:
#
# PCOD9443686 Si02
#       8
#     8   8   8   8   8   8   8   8
#     4  10  23  40  60  87 119 155 196 243 294 349
#     4  10  23  41  60  87 121 156 197 243 293 348
#     4  11  24  41  61  86 120 160 198 243 297 351
#     4  10  20  37  61  87 116 153 196 243 295 347
#     4  10  22  41  61  87 121 156 196 244 296 352
#     4  11  24  41  61  87 120 158 199 243 294 351
#     4  10  20  37  63  88 114 151 197 245 293 347
#     4  10  22  40  61  88 122 156 196 246 294 350
#
# _framework density 23.121054000000001
#
# number of rings (size 3 to 8) (size 9 to 14) (size 15 to 20)
#    0.000    1.750    2.500    0.750    3.500    3.500 
#    0.000    0.000    0.000    0.000    0.000    0.000 
#    0.000    0.000    0.000    0.000    0.000    0.000 
#
# Total GULP energy -357389.274405 kJ/mol
# GULP energy per Si atom -5584.207413 kJ/mol
# Density = 2.306843 g / cm^3
# Si number density = 23.121054 Si / 1000 Ang^3
#
#
#
# Elastic Constant Matrix: (Units=GPa)
#
#
# Indices 1 2 3 4 5 6 
#
# 1 50.7905 -24.9435 -1.4530 0.0000 0.0000 0.0000
# 2 -24.9435 41.1394 -12.5737 0.0000 0.0000 0.0000
# 3 -1.4530 -12.5737 33.0553 0.0000 0.0000 0.0000
# 4 0.0000 0.0000 0.0000 19.6850 0.0000 0.0000
# 5 0.0000 0.0000 0.0000 0.0000 -23.5577 0.0000
# 6 0.0000 0.0000 0.0000 0.0000 0.0000 33.8375
#
#
#
# Elastic Compliance Matrix: (Units=1/GPa)
#
#
# Indices 1 2 3 4 5 6 
#
# 1 0.030444 0.021350 0.009459 0.000000 0.000000 0.000000
# 2 0.021350 0.042478 0.017096 0.000000 0.000000 0.000000
# 3 0.009459 0.017096 0.037171 0.000000 0.000000 0.000000
# 4 0.000000 0.000000 0.000000 0.050800 0.000000 0.000000
# 5 0.000000 0.000000 0.000000 0.000000 -0.042449 0.000000
# 6 0.000000 0.000000 0.000000 0.000000 0.000000 0.029553
#
#
# Mechanical properties :
#
#
# Convention : Reuss Voigt Hill
#
# Bulk Modulus (GPa) = 4.85660 5.22721 5.04191
# Shear Modulus (GPa) = 41.38359 16.92334 29.15347
#
# Velocity S-wave (km/s) = 4.23527 2.70838 3.55478
# Velocity P-wave (km/s) = 5.10115 3.47076 4.36279
#
# Compressibility (1/GPa) = 0.20590541
#
# Stress axis : x y z
#
# Youngs Moduli (GPa) = 32.84669 23.54171 26.90248
#
# Poissons Ratio (x) = -0.50262 -0.25448
# Poissons Ratio (y) = -0.70128 -0.45993
# Poissons Ratio (z) = -0.31071 -0.40248
#
# Static dielectric constant tensor:
#      x y z
#    x 1.922230 0.000000 0.000000 
#    y 0.000000 1.846040 0.000000 
#    z 0.000000 0.000000 1.863730 
# 
# From -- ./inp_files/6813.got.cif
#   From: 2010.05.17/outbox.cif.g08.bks.cpg/sg58_4_cif.got.tgz:6813.got - 2010.06.03 14:20:14.
