data_PCOD9443212
_publ_section_title
;
Structure prediction by ZEFSAII (Michael W. Deem and Ramdas Pophale) SiO2 
 PCOD9443212
Probable space group: P N N M
;
_chemical_formula_sum "Si O2"
_cell_formula_units_Z 64
_cell_length_a 20.797552
_cell_length_b 20.018953
_cell_length_c 8.811824
_cell_angle_alpha 90.000000
_cell_angle_beta 90.000000
_cell_angle_gamma 90.000000
_cell_volume 3668.760767
_symmetry_space_group_name_H-M "P N N M"
_symmetry_group_IT_number 58
_symmetry_cell_setting 'orthorhombic'
loop_
_space_group_symop_operation_xyz
x,y,z
-x,-y,z
1/2+x,1/2-y,1/2-z
1/2-x,1/2+y,1/2-z
-x,-y,-z
x,y,-z
1/2-x,1/2+y,1/2+z
1/2+x,1/2-y,1/2+z
loop_
_atom_site_type_symbol
_atom_site_label
_atom_site_fract_x
_atom_site_fract_y
_atom_site_fract_z
Si Si1 0.568528 0.170760 0.317778
Si Si2 0.067568 0.173432 0.182166
Si Si3 0.674869 0.073244 0.817518
Si Si4 0.177349 0.921694 0.818658
Si Si5 0.429879 0.326862 0.819320
Si Si6 0.677590 0.925959 0.318570
Si Si7 0.816573 0.923107 0.816731
Si Si8 0.429352 0.171054 0.182378
O O1 0.566912 0.164386 0.500000
O O2 0.579967 0.248903 0.279194
O O3 0.623762 0.124716 0.248794
O O4 0.499201 0.152439 0.248518
O O5 0.126210 0.126165 0.229337
O O6 0.999210 0.153599 0.252165
O O7 0.062180 0.169031 0.000000
O O8 0.748370 0.093553 0.779121
O O9 0.664412 0.999763 0.748234
O O10 0.670085 0.069369 0.000000
O O11 0.126541 0.873718 0.740547
O O12 0.166862 0.999813 0.780391
O O13 0.170609 0.915034 0.000000
O O14 0.418413 0.249100 0.777408
O O15 0.432984 0.330532 0.000000
O O16 0.675383 0.927550 0.500000
O O17 0.748942 0.906817 0.261383
O O18 0.625427 0.874884 0.253295
O O19 0.808088 0.919122 0.000000
O O20 0.429658 0.164876 0.000000
#
# Coordination Sequence:
#
# PCOD9443212 Si02
#       8
#     8   8   8   8   8   8   8   8
#     4  10  20  35  56  83 109 136 175 224 267 308
#     4   9  19  36  57  78 107 143 178 217 264 317
#     4  10  21  38  57  78 107 144 178 213 261 321
#     4   9  19  35  55  77 106 142 180 217 258 313
#     4  10  21  35  54  79 108 140 178 222 266 310
#     4  11  22  36  56  82 108 136 174 224 268 308
#     4   9  19  37  57  79 107 143 180 214 261 321
#     4  10  21  38  56  76 106 144 179 215 262 320
#
# _framework density 17.444582
#
# number of rings (size 3 to 8) (size 9 to 14) (size 15 to 20)
#    0.000    2.250    0.000    3.375    0.000    7.000 
#    0.000    8.750    0.000    0.000    0.000    0.000 
#    0.000    0.000    0.000    0.000    0.000    0.000 
#
# Total GULP energy -357290.921318 kJ/mol
# GULP energy per Si atom -5582.670646 kJ/mol
# Density = 1.740488 g / cm^3
# Si number density = 17.444582 Si / 1000 Ang^3
#
#
#
# Elastic Constant Matrix: (Units=GPa)
#
#
# Indices 1 2 3 4 5 6 
#
# 1 188.7174 124.8965 71.9771 0.0000 0.0000 0.0000
# 2 124.8965 99.4190 52.8461 0.0000 0.0000 0.0000
# 3 71.9771 52.8461 63.6712 0.0000 0.0000 0.0000
# 4 0.0000 0.0000 0.0000 27.0405 0.0000 0.0000
# 5 0.0000 0.0000 0.0000 0.0000 34.6107 0.0000
# 6 0.0000 0.0000 0.0000 0.0000 0.0000 43.9913
#
#
#
# Elastic Compliance Matrix: (Units=1/GPa)
#
#
# Indices 1 2 3 4 5 6 
#
# 1 0.032324 -0.037909 -0.005077 0.000000 0.000000 0.000000
# 2 -0.037909 0.062458 -0.008985 0.000000 0.000000 0.000000
# 3 -0.005077 -0.008985 0.028902 0.000000 0.000000 0.000000
# 4 0.000000 0.000000 0.000000 0.036982 0.000000 0.000000
# 5 0.000000 0.000000 0.000000 0.000000 0.028893 0.000000
# 6 0.000000 0.000000 0.000000 0.000000 0.000000 0.022732
#
#
# Mechanical properties :
#
#
# Convention : Reuss Voigt Hill
#
# Bulk Modulus (GPa) = 50.65175 94.58300 72.61737
# Shear Modulus (GPa) = 15.48884 27.93436 21.71160
#
# Velocity S-wave (km/s) = 2.98298 4.00599 3.53172
# Velocity P-wave (km/s) = 6.40024 8.70254 7.63862
#
# Compressibility (1/GPa) = 0.01974265
#
# Stress axis : x y z
#
# Youngs Moduli (GPa) = 30.93672 16.01077 34.59927
#
# Poissons Ratio (x) = 0.60695 0.17566
# Poissons Ratio (y) = 1.17278 0.31088
# Poissons Ratio (z) = 0.15706 0.14386
#
# Static dielectric constant tensor:
#      x y z
#    x 1.563280 0.000000 0.000000 
#    y 0.000000 1.578520 0.000000 
#    z 0.000000 0.000000 1.582710 
# 
# From -- ./inp_files/8316.got.cif
#   From: 2010.05.17/outbox.cif.g08.bks.cpg/sg58_5_cif.got.tgz:8316.got - 2010.06.03 14:20:14.
