data_PCOD9443135
_publ_section_title
;
Structure prediction by ZEFSAII (Michael W. Deem and Ramdas Pophale) SiO2 
 PCOD9443135
Probable space group: P N N M
;
_chemical_formula_sum "Si O2"
_cell_formula_units_Z 48
_cell_length_a 16.793295
_cell_length_b 8.758162
_cell_length_c 18.525259
_cell_angle_alpha 90.000000
_cell_angle_beta 90.000000
_cell_angle_gamma 90.000000
_cell_volume 2724.665419
_symmetry_space_group_name_H-M "P N N M"
_symmetry_group_IT_number 58
_symmetry_cell_setting 'orthorhombic'
loop_
_space_group_symop_operation_xyz
x,y,z
-x,-y,z
1/2+x,1/2-y,1/2-z
1/2-x,1/2+y,1/2-z
-x,-y,-z
x,y,-z
1/2-x,1/2+y,1/2+z
1/2+x,1/2-y,1/2+z
loop_
_atom_site_type_symbol
_atom_site_label
_atom_site_fract_x
_atom_site_fract_y
_atom_site_fract_z
Si Si1 0.470122 0.670678 0.228647
Si Si2 0.221881 0.373969 0.323565
Si Si3 0.632226 0.339797 0.082968
Si Si4 0.689641 0.322381 0.692190
Si Si5 0.423979 0.093607 0.832084
Si Si6 0.307399 0.314127 0.916478
O O1 0.500000 0.500000 0.238431
O O2 0.432497 0.676391 0.147045
O O3 0.401816 0.698792 0.287290
O O4 0.538767 0.796957 0.228696
O O5 0.198806 0.287069 0.397218
O O6 0.290361 0.500227 0.321872
O O7 0.233663 0.243556 0.263787
O O8 0.142511 0.474281 0.305793
O O9 0.667347 0.509872 0.091852
O O10 0.604093 0.322887 0.000000
O O11 0.728456 0.226756 0.627996
O O12 0.377506 0.204830 0.886579
O O13 0.500000 0.000000 0.862353
O O14 0.295347 0.282236 0.000000
#
# Coordination Sequence:
#
# PCOD9443135 Si02
#       6
#     8   8   8   8   8   8
#     4  11  21  36  54  81 116 146 183 225 277 334
#     4  10  21  33  54  76 110 145 186 229 266 335
#     4  10  20  35  53  78 112 150 182 218 273 332
#     4  10  20  35  53  78 108 146 186 230 274 320
#     4  11  20  35  51  84 110 145 179 220 277 334
#     4  10  22  37  55  77 110 150 186 226 276 332
#
# _framework density 17.616841000000001
#
# number of rings (size 3 to 8) (size 9 to 14) (size 15 to 20)
#    0.000    1.667    5.000    2.000    2.333    4.000 
#    0.000    0.000    0.000    0.500    0.000    2.333 
#    0.000    0.000    0.000    0.000    0.000    0.000 
#
# Total GULP energy -267498.376386 kJ/mol
# GULP energy per Si atom -5572.882841 kJ/mol
# Density = 1.757674 g / cm^3
# Si number density = 17.616841 Si / 1000 Ang^3
#
#
#
# Elastic Constant Matrix: (Units=GPa)
#
#
# Indices 1 2 3 4 5 6 
#
# 1 64.6483 27.2211 43.2357 0.0000 0.0000 0.0000
# 2 27.2211 90.0105 18.7506 0.0000 0.0000 0.0000
# 3 43.2357 18.7506 37.6446 0.0000 0.0000 0.0000
# 4 0.0000 0.0000 0.0000 18.6204 0.0000 0.0000
# 5 0.0000 0.0000 0.0000 0.0000 25.4728 0.0000
# 6 0.0000 0.0000 0.0000 0.0000 0.0000 29.5547
#
#
#
# Elastic Compliance Matrix: (Units=1/GPa)
#
#
# Indices 1 2 3 4 5 6 
#
# 1 0.068538 -0.004831 -0.076311 0.000000 0.000000 0.000000
# 2 -0.004831 0.012736 -0.000796 0.000000 0.000000 0.000000
# 3 -0.076311 -0.000796 0.114606 0.000000 0.000000 0.000000
# 4 0.000000 0.000000 0.000000 0.053704 0.000000 0.000000
# 5 0.000000 0.000000 0.000000 0.000000 0.039258 0.000000
# 6 0.000000 0.000000 0.000000 0.000000 0.000000 0.033836
#
#
# Mechanical properties :
#
#
# Convention : Reuss Voigt Hill
#
# Bulk Modulus (GPa) = 31.24538 41.19091 36.21814
# Shear Modulus (GPa) = 10.05587 21.60266 15.82927
#
# Velocity S-wave (km/s) = 2.39176 3.50558 3.00080
# Velocity P-wave (km/s) = 5.04003 6.31014 5.71050
#
# Compressibility (1/GPa) = 0.03200473
#
# Stress axis : x y z
#
# Youngs Moduli (GPa) = 14.59047 78.51456 8.72555
#
# Poissons Ratio (x) = 0.37927 0.66586
# Poissons Ratio (y) = 0.07048 0.00695
# Poissons Ratio (z) = 1.11342 0.06250
#
# Static dielectric constant tensor:
#      x y z
#    x 1.636990 0.000000 0.000000 
#    y 0.000000 1.653390 0.000000 
#    z 0.000000 0.000000 1.582270 
# 
# From -- ./inp_files/19989.got.cif
#   From: 2010.05.17/outbox.cif.g08.bks.cpg/sg58_10_cif.got.tgz:19989.got - 2010.06.03 14:20:14.
