data_PCOD9443522
_publ_section_title
;
Structure prediction by ZEFSAII (Michael W. Deem and Ramdas Pophale) SiO2 
 PCOD9443522
Probable space group: P N N M
;
_chemical_formula_sum "Si O2"
_cell_formula_units_Z 56
_cell_length_a 15.854796
_cell_length_b 20.408312
_cell_length_c 8.593740
_cell_angle_alpha 90.000000
_cell_angle_beta 90.000000
_cell_angle_gamma 90.000000
_cell_volume 2780.673216
_symmetry_space_group_name_H-M "P N N M"
_symmetry_group_IT_number 58
_symmetry_cell_setting 'orthorhombic'
loop_
_space_group_symop_operation_xyz
x,y,z
-x,-y,z
1/2+x,1/2-y,1/2-z
1/2-x,1/2+y,1/2-z
-x,-y,-z
x,y,-z
1/2-x,1/2+y,1/2+z
1/2+x,1/2-y,1/2+z
loop_
_atom_site_type_symbol
_atom_site_label
_atom_site_fract_x
_atom_site_fract_y
_atom_site_fract_z
Si Si1 0.738274 0.465409 0.684707
Si Si2 0.991186 0.317858 0.185197
Si Si3 0.826879 0.094443 0.685431
Si Si4 0.918234 0.457861 0.186727
Si Si5 0.511951 0.678813 0.815085
Si Si6 0.678283 0.183751 0.816087
Si Si7 0.325738 0.675802 0.314959
O O1 0.726375 0.468861 0.500000
O O2 0.679430 0.519089 0.764948
O O3 0.834289 0.481133 0.729338
O O4 0.719384 0.391005 0.735609
O O5 0.938347 0.382351 0.224244
O O6 0.961258 0.252994 0.273766
O O7 0.089082 0.329224 0.231098
O O8 0.986859 0.306923 0.000000
O O9 0.817720 0.100094 0.500000
O O10 0.914847 0.128546 0.729582
O O11 0.750207 0.133846 0.763728
O O12 0.000000 0.500000 0.229648
O O13 0.906634 0.463824 0.000000
O O14 0.424666 0.667916 0.725038
O O15 0.496345 0.674079 0.000000
O O16 0.703505 0.258035 0.769741
O O17 0.664642 0.179886 0.000000
O O18 0.314937 0.684502 0.500000
#
# Coordination Sequence:
#
# PCOD9443522 Si02
#       7
#     8   8   8   8   8   8   8
#     4  11  25  41  61  90 121 159 203 250 302 360
#     4  10  20  36  60  89 120 157 199 245 301 358
#     4  11  24  41  61  86 121 160 200 250 306 361
#     4  10  22  39  60  87 122 162 200 242 300 365
#     4  10  22  39  61  88 116 155 203 251 302 356
#     4  11  22  37  62  91 121 158 202 249 299 358
#     4  10  22  41  62  88 123 159 198 249 307 360
#
# _framework density 20.139009000000001
#
# number of rings (size 3 to 8) (size 9 to 14) (size 15 to 20)
#    0.000    1.571    0.000    6.000    2.000    7.714 
#    0.000    2.857    0.000    0.000    0.000    0.000 
#    0.000    0.000    0.000    0.000    0.000    0.000 
#
# Total GULP energy -313189.415611 kJ/mol
# GULP energy per Si atom -5592.668136 kJ/mol
# Density = 2.009317 g / cm^3
# Si number density = 20.139009 Si / 1000 Ang^3
#
#
#
# Elastic Constant Matrix: (Units=GPa)
#
#
# Indices 1 2 3 4 5 6 
#
# 1 21.7274 8.6075 -1.0017 0.0000 0.0000 0.0000
# 2 8.6075 57.7221 1.3227 0.0000 0.0000 0.0000
# 3 -1.0017 1.3227 18.5844 0.0000 0.0000 0.0000
# 4 0.0000 0.0000 0.0000 32.1648 0.0000 0.0000
# 5 0.0000 0.0000 0.0000 0.0000 -28.5208 0.0000
# 6 0.0000 0.0000 0.0000 0.0000 0.0000 33.5524
#
#
#
# Elastic Compliance Matrix: (Units=1/GPa)
#
#
# Indices 1 2 3 4 5 6 
#
# 1 0.049100 -0.007395 0.003173 0.000000 0.000000 0.000000
# 2 -0.007395 0.018466 -0.001713 0.000000 0.000000 0.000000
# 3 0.003173 -0.001713 0.054101 0.000000 0.000000 0.000000
# 4 0.000000 0.000000 0.000000 0.031090 0.000000 0.000000
# 5 0.000000 0.000000 0.000000 0.000000 -0.035062 0.000000
# 6 0.000000 0.000000 0.000000 0.000000 0.000000 0.029804
#
#
# Mechanical properties :
#
#
# Convention : Reuss Voigt Hill
#
# Bulk Modulus (GPa) = 9.10754 12.87676 10.99215
# Shear Modulus (GPa) = 25.51425 13.37964 19.44695
#
# Velocity S-wave (km/s) = 3.56323 2.58032 3.11084
# Velocity P-wave (km/s) = 4.63259 3.90963 4.28638
#
# Compressibility (1/GPa) = 0.10979916
#
# Stress axis : x y z
#
# Youngs Moduli (GPa) = 20.36642 54.15269 18.48378
#
# Poissons Ratio (x) = 0.40043 -0.05865
# Poissons Ratio (y) = 0.15060 0.03166
# Poissons Ratio (z) = -0.06462 0.09276
#
# Static dielectric constant tensor:
#      x y z
#    x 1.690620 0.000000 0.000000 
#    y 0.000000 1.719400 0.000000 
#    z 0.000000 0.000000 1.675630 
# 
# From -- ./inp_files/6404.got.cif
#   From: 2010.05.17/outbox.cif.g08.bks.cpg/sg58_4_cif.got.tgz:6404.got - 2010.06.03 14:20:14.
