data_PCOD9443592
_publ_section_title
;
Structure prediction by ZEFSAII (Michael W. Deem and Ramdas Pophale) SiO2 
 PCOD9443592
Probable space group: P N N M
;
_chemical_formula_sum "Si O2"
_cell_formula_units_Z 64
_cell_length_a 16.011144
_cell_length_b 6.191729
_cell_length_c 30.668010
_cell_angle_alpha 90.000000
_cell_angle_beta 90.000000
_cell_angle_gamma 90.000000
_cell_volume 3040.324222
_symmetry_space_group_name_H-M "P N N M"
_symmetry_group_IT_number 58
_symmetry_cell_setting 'orthorhombic'
loop_
_space_group_symop_operation_xyz
x,y,z
-x,-y,z
1/2+x,1/2-y,1/2-z
1/2-x,1/2+y,1/2-z
-x,-y,-z
x,y,-z
1/2-x,1/2+y,1/2+z
1/2+x,1/2-y,1/2+z
loop_
_atom_site_type_symbol
_atom_site_label
_atom_site_fract_x
_atom_site_fract_y
_atom_site_fract_z
Si Si1 0.421943 0.653372 0.178927
Si Si2 0.301592 0.126076 0.595105
Si Si3 0.591788 0.497852 0.430386
Si Si4 0.735221 0.761519 0.951171
Si Si5 0.879948 0.588966 0.238884
Si Si6 0.305745 0.279351 0.787183
Si Si7 0.574791 0.158382 0.357087
Si Si8 0.822216 0.525382 0.370647
O O1 0.500000 0.500000 0.170088
O O2 0.429267 0.801072 0.221684
O O3 0.346246 0.492649 0.191947
O O4 0.400436 0.820673 0.140374
O O5 0.375072 0.258713 0.571979
O O6 0.251223 0.305875 0.620566
O O7 0.246651 0.988678 0.561679
O O8 0.339900 0.958117 0.628835
O O9 0.500000 0.500000 0.451159
O O10 0.670138 0.362566 0.449448
O O11 0.576767 0.382124 0.383204
O O12 0.680445 0.875739 0.913514
O O13 0.703104 0.791172 0.000000
O O14 0.784774 0.677091 0.233306
O O15 0.864616 0.337189 0.251001
O O16 0.925184 0.658308 0.194698
O O17 0.302454 0.111305 0.827422
O O18 0.500000 0.000000 0.371586
#
# Coordination Sequence:
#
# PCOD9443592 Si02
#       8
#     8   8   8   8   8   8   8   8
#     4  11  25  41  60  91 127 163 209 262 314 372
#     4  10  20  37  60  85 117 159 208 255 312 373
#     4  10  20  37  54  83 124 168 208 255 313 368
#     4  10  22  38  62  93 117 150 208 262 317 392
#     4  11  23  35  56  84 120 166 214 263 303 357
#     4  11  22  41  60  86 119 167 212 251 311 368
#     4  11  22  33  54  82 118 169 218 261 301 351
#     4  10  22  41  66  84 119 164 200 254 314 384
#
# _framework density 21.050384999999999
#
# number of rings (size 3 to 8) (size 9 to 14) (size 15 to 20)
#    0.000    1.500    2.500    3.750    3.500    5.250 
#    0.000    0.625    0.000    0.375    0.000    3.500 
#    0.000    0.000    0.000    0.000    0.000    0.000 
#
# Total GULP energy -357245.594251 kJ/mol
# GULP energy per Si atom -5581.962410 kJ/mol
# Density = 2.100247 g / cm^3
# Si number density = 21.050385 Si / 1000 Ang^3
#
#
#
# Elastic Constant Matrix: (Units=GPa)
#
#
# Indices 1 2 3 4 5 6 
#
# 1 57.4030 16.9305 15.3899 0.0000 0.0000 0.0000
# 2 16.9305 95.0031 31.9951 0.0000 0.0000 0.0000
# 3 15.3899 31.9951 113.3825 0.0000 0.0000 0.0000
# 4 0.0000 0.0000 0.0000 3.8971 0.0000 0.0000
# 5 0.0000 0.0000 0.0000 0.0000 5.1821 0.0000
# 6 0.0000 0.0000 0.0000 0.0000 0.0000 43.9580
#
#
#
# Elastic Compliance Matrix: (Units=1/GPa)
#
#
# Indices 1 2 3 4 5 6 
#
# 1 0.018702 -0.002738 -0.001766 0.000000 0.000000 0.000000
# 2 -0.002738 0.012032 -0.003024 0.000000 0.000000 0.000000
# 3 -0.001766 -0.003024 0.009913 0.000000 0.000000 0.000000
# 4 0.000000 0.000000 0.000000 0.256603 0.000000 0.000000
# 5 0.000000 0.000000 0.000000 0.000000 0.192974 0.000000
# 6 0.000000 0.000000 0.000000 0.000000 0.000000 0.022749
#
#
# Mechanical properties :
#
#
# Convention : Reuss Voigt Hill
#
# Bulk Modulus (GPa) = 39.07572 43.82438 41.45005
# Shear Modulus (GPa) = 9.31866 24.03898 16.67882
#
# Velocity S-wave (km/s) = 2.10629 3.38298 2.81789
# Velocity P-wave (km/s) = 4.95162 6.01027 5.50644
#
# Compressibility (1/GPa) = 0.02559134
#
# Stress axis : x y z
#
# Youngs Moduli (GPa) = 53.47108 83.11002 100.88144
#
# Poissons Ratio (x) = 0.22757 0.17814
# Poissons Ratio (y) = 0.14641 0.30503
# Poissons Ratio (z) = 0.09442 0.25130
#
# Static dielectric constant tensor:
#      x y z
#    x 1.808000 0.000000 0.000000 
#    y 0.000000 1.785410 0.000000 
#    z 0.000000 0.000000 1.772750 
# 
# From -- ./inp_files/35150.got.cif
#   From: 2010.05.17/outbox.cif.g08.bks.cpg/sg58_18_cif.got.tgz:35150.got - 2010.06.03 14:20:14.
