data_PCOD9443338
_publ_section_title
;
Structure prediction by ZEFSAII (Michael W. Deem and Ramdas Pophale) SiO2 
 PCOD9443338
Probable space group: P N N M
;
_chemical_formula_sum "Si O2"
_cell_formula_units_Z 64
_cell_length_a 27.557788
_cell_length_b 12.867110
_cell_length_c 8.909627
_cell_angle_alpha 90.000000
_cell_angle_beta 90.000000
_cell_angle_gamma 90.000000
_cell_volume 3159.256526
_symmetry_space_group_name_H-M "P N N M"
_symmetry_group_IT_number 58
_symmetry_cell_setting 'orthorhombic'
loop_
_space_group_symop_operation_xyz
x,y,z
-x,-y,z
1/2+x,1/2-y,1/2-z
1/2-x,1/2+y,1/2-z
-x,-y,-z
x,y,-z
1/2-x,1/2+y,1/2+z
1/2+x,1/2-y,1/2+z
loop_
_atom_site_type_symbol
_atom_site_label
_atom_site_fract_x
_atom_site_fract_y
_atom_site_fract_z
Si Si1 0.698932 0.942790 0.823525
Si Si2 0.439517 0.907080 0.672218
Si Si3 0.064517 0.851348 0.321841
Si Si4 0.620113 0.457997 0.678081
Si Si5 0.174878 0.349595 0.828221
Si Si6 0.913988 0.384209 0.322875
Si Si7 0.544316 0.304010 0.824002
Si Si8 0.290764 0.643648 0.822803
O O1 0.643745 0.903332 0.806123
O O2 0.739036 0.866556 0.757517
O O3 0.702613 0.049461 0.731104
O O4 0.707101 0.960738 0.000000
O O5 0.456114 0.902358 0.500000
O O6 0.382033 0.878312 0.675397
O O7 0.462332 0.814881 0.770517
O O8 0.441789 0.023619 0.736805
O O9 0.075651 0.860884 0.500000
O O10 0.075820 0.733257 0.273829
O O11 0.006673 0.862987 0.304825
O O12 0.094390 0.936826 0.232514
O O13 0.625792 0.455131 0.500000
O O14 0.585169 0.363526 0.730315
O O15 0.671829 0.440871 0.756776
O O16 0.186240 0.253965 0.721238
O O17 0.187606 0.323549 0.000000
O O18 0.925989 0.392245 0.500000
O O19 0.557411 0.305168 0.000000
O O20 0.286013 0.632481 0.000000
#
# Coordination Sequence:
#
# PCOD9443338 Si02
#       8
#     8   8   8   8   8   8   8   8
#     4  10  21  38  61  89 120 156 200 250 305 365
#     4  10  20  35  60  89 121 156 199 252 302 353
#     4  10  23  42  62  88 123 166 207 249 306 372
#     4  12  25  41  61  88 122 158 203 259 313 369
#     4  10  20  37  59  85 118 155 196 248 303 359
#     4   9  20  40  63  86 120 162 203 248 303 365
#     4  11  22  38  63  90 120 160 208 254 305 368
#     4  12  24  39  62  89 119 158 203 252 307 367
#
# _framework density 20.257930999999999
#
# number of rings (size 3 to 8) (size 9 to 14) (size 15 to 20)
#    0.000    1.500    1.250    4.125    0.000    6.000 
#    0.000    6.250    0.000    0.000    0.000    0.000 
#    0.000    0.000    0.000    0.000    0.000    0.000 
#
# Total GULP energy -357900.114990 kJ/mol
# GULP energy per Si atom -5592.189297 kJ/mol
# Density = 2.021182 g / cm^3
# Si number density = 20.257931 Si / 1000 Ang^3
#
#
#
# Elastic Constant Matrix: (Units=GPa)
#
#
# Indices 1 2 3 4 5 6 
#
# 1 29.5239 5.2142 18.1987 0.0000 0.0000 0.0000
# 2 5.2142 81.0353 6.8421 0.0000 0.0000 0.0000
# 3 18.1987 6.8421 72.8185 0.0000 0.0000 0.0000
# 4 0.0000 0.0000 0.0000 34.8089 0.0000 0.0000
# 5 0.0000 0.0000 0.0000 0.0000 12.1371 0.0000
# 6 0.0000 0.0000 0.0000 0.0000 0.0000 24.1855
#
#
#
# Elastic Compliance Matrix: (Units=1/GPa)
#
#
# Indices 1 2 3 4 5 6 
#
# 1 0.040285 -0.001756 -0.009903 0.000000 0.000000 0.000000
# 2 -0.001756 0.012516 -0.000737 0.000000 0.000000 0.000000
# 3 -0.009903 -0.000737 0.016277 0.000000 0.000000 0.000000
# 4 0.000000 0.000000 0.000000 0.028728 0.000000 0.000000
# 5 0.000000 0.000000 0.000000 0.000000 0.082392 0.000000
# 6 0.000000 0.000000 0.000000 0.000000 0.000000 0.041347
#
#
# Mechanical properties :
#
#
# Convention : Reuss Voigt Hill
#
# Bulk Modulus (GPa) = 22.58078 27.09864 24.83971
# Shear Modulus (GPa) = 19.14982 24.43448 21.79215
#
# Velocity S-wave (km/s) = 3.07791 3.47676 3.28340
# Velocity P-wave (km/s) = 4.87875 5.43351 5.16358
#
# Compressibility (1/GPa) = 0.04428544
#
# Stress axis : x y z
#
# Youngs Moduli (GPa) = 24.82301 79.90074 61.43644
#
# Poissons Ratio (x) = 0.14031 0.60841
# Poissons Ratio (y) = 0.04359 0.04529
# Poissons Ratio (z) = 0.24582 0.05890
#
# Static dielectric constant tensor:
#      x y z
#    x 1.729710 0.000000 0.000000 
#    y 0.000000 1.713670 0.000000 
#    z 0.000000 0.000000 1.676610 
# 
# From -- ./inp_files/11061.got.cif
#   From: 2010.05.17/outbox.cif.g08.bks.cpg/sg58_6_cif.got.tgz:11061.got - 2010.06.03 14:20:14.
