data_PCOD9443222
_publ_section_title
;
Structure prediction by ZEFSAII (Michael W. Deem and Ramdas Pophale) SiO2 
 PCOD9443222
Probable space group: P N N M
;
_chemical_formula_sum "Si O2"
_cell_formula_units_Z 64
_cell_length_a 14.659436
_cell_length_b 12.079581
_cell_length_c 17.799153
_cell_angle_alpha 90.000000
_cell_angle_beta 90.000000
_cell_angle_gamma 90.000000
_cell_volume 3151.871247
_symmetry_space_group_name_H-M "P N N M"
_symmetry_group_IT_number 58
_symmetry_cell_setting 'orthorhombic'
loop_
_space_group_symop_operation_xyz
x,y,z
-x,-y,z
1/2+x,1/2-y,1/2-z
1/2-x,1/2+y,1/2-z
-x,-y,-z
x,y,-z
1/2-x,1/2+y,1/2+z
1/2+x,1/2-y,1/2+z
loop_
_atom_site_type_symbol
_atom_site_label
_atom_site_fract_x
_atom_site_fract_y
_atom_site_fract_z
Si Si1 0.762857 0.661221 0.916206
Si Si2 0.859987 0.894765 0.717609
Si Si3 0.351288 0.915277 0.911318
Si Si4 0.495738 0.783126 0.812567
Si Si5 0.422944 0.426040 0.883335
Si Si6 0.255550 0.203442 0.587957
Si Si7 0.310402 0.132440 0.177086
Si Si8 0.399207 0.025288 0.591599
O O1 0.672646 0.586944 0.922299
O O2 0.733150 0.760251 0.862775
O O3 0.837702 0.578259 0.883579
O O4 0.789712 0.699458 0.000000
O O5 0.932740 0.797928 0.739814
O O6 0.822597 0.851938 0.637490
O O7 0.770334 0.905556 0.767842
O O8 0.902589 0.013462 0.697091
O O9 0.430753 0.868368 0.856743
O O10 0.263187 0.834065 0.900702
O O11 0.329296 0.038175 0.884293
O O12 0.376112 0.911073 0.000000
O O13 0.534443 0.694188 0.872214
O O14 0.590850 0.838776 0.785540
O O15 0.500000 0.500000 0.919660
O O16 0.241783 0.182046 0.500000
O O17 0.349675 0.141684 0.609452
O O18 0.401400 0.021163 0.500000
O O19 0.500000 0.000000 0.620115
#
# Coordination Sequence:
#
# PCOD9443222 Si02
#       8
#     8   8   8   8   8   8   8   8
#     4  10  20  35  56  84 118 152 193 246 300 356
#     4  10  20  38  59  83 117 156 191 250 298 354
#     4  10  21  38  61  88 124 163 201 244 297 368
#     4   9  21  38  57  84 115 152 201 243 289 354
#     4   9  18  33  56  84 115 146 190 247 305 355
#     4   9  18  36  60  85 111 150 200 245 297 351
#     4  11  23  38  58  86 123 164 198 235 297 366
#     4   9  17  33  58  86 115 145 190 253 302 338
#
# _framework density 20.305398
#
# number of rings (size 3 to 8) (size 9 to 14) (size 15 to 20)
#    0.000    2.375    1.250    0.750    0.000    7.250 
#    2.250    2.500    0.000    0.000    0.000    4.375 
#    0.000    0.000    0.000    0.000    0.000    0.000 
#
# Total GULP energy -356397.168503 kJ/mol
# GULP energy per Si atom -5568.705758 kJ/mol
# Density = 2.025918 g / cm^3
# Si number density = 20.305398 Si / 1000 Ang^3
#
#
#
# Elastic Constant Matrix: (Units=GPa)
#
#
# Indices 1 2 3 4 5 6 
#
# 1 140.4845 35.0087 15.5608 0.0000 0.0000 0.0000
# 2 35.0087 72.7362 7.7765 0.0000 0.0000 0.0000
# 3 15.5608 7.7765 36.6989 0.0000 0.0000 0.0000
# 4 0.0000 0.0000 0.0000 8.9197 0.0000 0.0000
# 5 0.0000 0.0000 0.0000 0.0000 285.3785 0.0000
# 6 0.0000 0.0000 0.0000 0.0000 0.0000 29.6788
#
#
#
# Elastic Compliance Matrix: (Units=1/GPa)
#
#
# Indices 1 2 3 4 5 6 
#
# 1 0.008351 -0.003725 -0.002752 0.000000 0.000000 0.000000
# 2 -0.003725 0.015729 -0.001753 0.000000 0.000000 0.000000
# 3 -0.002752 -0.001753 0.028787 0.000000 0.000000 0.000000
# 4 0.000000 0.000000 0.000000 0.112111 0.000000 0.000000
# 5 0.000000 0.000000 0.000000 0.000000 0.003504 0.000000
# 6 0.000000 0.000000 0.000000 0.000000 0.000000 0.033694
#
#
# Mechanical properties :
#
#
# Convention : Reuss Voigt Hill
#
# Bulk Modulus (GPa) = 27.46763 40.73460 34.10112
# Shear Modulus (GPa) = 21.66635 77.56700 49.61667
#
# Velocity S-wave (km/s) = 3.27008 6.18733 4.94856
# Velocity P-wave (km/s) = 5.27395 8.43497 7.03431
#
# Compressibility (1/GPa) = 0.03640649
#
# Stress axis : x y z
#
# Youngs Moduli (GPa) = 119.74059 63.57744 34.73782
#
# Poissons Ratio (x) = 0.23685 0.09559
# Poissons Ratio (y) = 0.44608 0.06091
# Poissons Ratio (z) = 0.32949 0.11147
#
# Static dielectric constant tensor:
#      x y z
#    x 1.760550 0.000000 0.000000 
#    y 0.000000 1.746790 0.000000 
#    z 0.000000 0.000000 1.726510 
# 
# From -- ./inp_files/27011.got.cif
#   From: 2010.05.17/outbox.cif.g08.bks.cpg/sg58_14_cif.got.tgz:27011.got - 2010.06.03 14:20:14.
