data_PCOD9443497
_publ_section_title
;
Structure prediction by ZEFSAII (Michael W. Deem and Ramdas Pophale) SiO2 
 PCOD9443497
Probable space group: P N N M
;
_chemical_formula_sum "Si O2"
_cell_formula_units_Z 48
_cell_length_a 10.362272
_cell_length_b 28.238451
_cell_length_c 7.543387
_cell_angle_alpha 90.000000
_cell_angle_beta 90.000000
_cell_angle_gamma 90.000000
_cell_volume 2207.304492
_symmetry_space_group_name_H-M "P N N M"
_symmetry_group_IT_number 58
_symmetry_cell_setting 'orthorhombic'
loop_
_space_group_symop_operation_xyz
x,y,z
-x,-y,z
1/2+x,1/2-y,1/2-z
1/2-x,1/2+y,1/2-z
-x,-y,-z
x,y,-z
1/2-x,1/2+y,1/2+z
1/2+x,1/2-y,1/2+z
loop_
_atom_site_type_symbol
_atom_site_label
_atom_site_fract_x
_atom_site_fract_y
_atom_site_fract_z
Si Si1 0.765359 0.710553 0.209725
Si Si2 0.949197 0.137840 0.707753
Si Si3 0.387837 0.467864 0.295859
Si Si4 0.274674 0.681670 0.284746
Si Si5 0.500697 0.856995 0.786132
Si Si6 0.900370 0.540643 0.717288
O O1 0.652134 0.676566 0.281007
O O2 0.768904 0.763947 0.279533
O O3 0.900688 0.684058 0.235502
O O4 0.740312 0.715066 0.000000
O O5 0.920165 0.131062 0.500000
O O6 0.093566 0.157001 0.727054
O O7 0.929993 0.086800 0.794015
O O8 0.500000 0.500000 0.213586
O O9 0.374126 0.484211 0.500000
O O10 0.244159 0.470124 0.218929
O O11 0.275774 0.681787 0.500000
O O12 0.145185 0.654831 0.225954
O O13 0.447187 0.907553 0.723712
O O14 0.503489 0.858521 0.000000
O O15 0.897422 0.541937 0.500000
O O16 0.000000 0.500000 0.769278
#
# Coordination Sequence:
#
# PCOD9443497 Si02
#       6
#     8   8   8   8   8   8
#     4  10  21  38  57  81 116 153 190 235 286 341
#     4  11  23  39  59  85 121 156 190 235 291 347
#     4  10  21  37  61  88 114 149 194 239 285 340
#     4  10  22  37  57  85 114 150 196 239 279 335
#     4  10  20  36  60  85 113 147 190 239 286 339
#     4   9  18  33  56  86 112 140 182 235 286 332
#
# _framework density 21.745979999999999
#
# number of rings (size 3 to 8) (size 9 to 14) (size 15 to 20)
#    0.000    2.000    1.667    1.500    2.333    3.667 
#    0.000    0.000    0.000    1.000    0.000    0.000 
#    0.000    0.000    0.000    0.000    0.000    0.000 
#
# Total GULP energy -268304.512991 kJ/mol
# GULP energy per Si atom -5589.677354 kJ/mol
# Density = 2.169649 g / cm^3
# Si number density = 21.745980 Si / 1000 Ang^3
#
#
#
# Elastic Constant Matrix: (Units=GPa)
#
#
# Indices 1 2 3 4 5 6 
#
# 1 182.0438 77.9944 -14.4167 0.0000 0.0000 0.0000
# 2 77.9944 117.3195 -6.3452 0.0000 0.0000 0.0000
# 3 -14.4167 -6.3452 53.1758 0.0000 0.0000 0.0000
# 4 0.0000 0.0000 0.0000 -0.0272 0.0000 0.0000
# 5 0.0000 0.0000 0.0000 0.0000 71.4673 0.0000
# 6 0.0000 0.0000 0.0000 0.0000 0.0000 29.1602
#
#
#
# Elastic Compliance Matrix: (Units=1/GPa)
#
#
# Indices 1 2 3 4 5 6 
#
# 1 0.007799 -0.005103 0.001505 0.000000 0.000000 0.000000
# 2 -0.005103 0.011918 0.000039 0.000000 0.000000 0.000000
# 3 0.001505 0.000039 0.019218 0.000000 0.000000 0.000000
# 4 0.000000 0.000000 0.000000-36.742095 0.000000 0.000000
# 5 0.000000 0.000000 0.000000 0.000000 0.013992 0.000000
# 6 0.000000 0.000000 0.000000 0.000000 0.000000 0.034293
#
#
# Mechanical properties :
#
#
# Convention : Reuss Voigt Hill
#
# Bulk Modulus (GPa) = 31.42961 51.88936 41.65949
# Shear Modulus (GPa) = -0.13647 39.80716 19.83534
#
# Velocity S-wave (km/s) = -0.25079 4.28314 3.02344
# Velocity P-wave (km/s) = 3.79481 6.95512 5.60242
#
# Compressibility (1/GPa) = 0.03181713
#
# Stress axis : x y z
#
# Youngs Moduli (GPa) = 128.22416 83.90323 52.03375
#
# Poissons Ratio (x) = 0.42818 -0.07833
# Poissons Ratio (y) = 0.65436 -0.00201
# Poissons Ratio (z) = -0.19303 -0.00324
#
# Static dielectric constant tensor:
#      x y z
#    x 1.753500 0.000000 0.000000 
#    y 0.000000 1.745930 0.000000 
#    z 0.000000 0.000000 1.824950 
# 
# From -- ./inp_files/3018.got.cif
#   From: 2010.05.17/outbox.cif.g08.bks.cpg/sg58_2_cif.got.tgz:3018.got - 2010.06.03 14:20:14.
