data_PCOD9443599
_publ_section_title
;
Structure prediction by ZEFSAII (Michael W. Deem and Ramdas Pophale) SiO2 
 PCOD9443599
Probable space group: P N N M
;
_chemical_formula_sum "Si O2"
_cell_formula_units_Z 58
_cell_length_a 26.208182
_cell_length_b 15.021311
_cell_length_c 7.519903
_cell_angle_alpha 90.000000
_cell_angle_beta 90.000000
_cell_angle_gamma 90.000000
_cell_volume 2960.444832
_symmetry_space_group_name_H-M "P N N M"
_symmetry_group_IT_number 58
_symmetry_cell_setting 'orthorhombic'
loop_
_space_group_symop_operation_xyz
x,y,z
-x,-y,z
1/2+x,1/2-y,1/2-z
1/2-x,1/2+y,1/2-z
-x,-y,-z
x,y,-z
1/2-x,1/2+y,1/2+z
1/2+x,1/2-y,1/2+z
loop_
_atom_site_type_symbol
_atom_site_label
_atom_site_fract_x
_atom_site_fract_y
_atom_site_fract_z
Si Si1 0.268189 0.039179 0.282703
Si Si2 0.106791 0.231491 0.286860
Si Si3 0.799215 0.652708 0.205491
Si Si4 0.850357 0.959544 0.717255
Si Si5 0.109321 0.855576 0.293305
Si Si6 0.997000 0.841312 0.716084
Si Si7 0.702949 0.768734 0.295833
Si Si8 0.500000 0.500000 0.500000
O O1 0.269639 0.042922 0.500000
O O2 0.208800 0.033543 0.232250
O O3 0.290929 0.132605 0.216886
O O4 0.294813 0.947842 0.224433
O O5 0.112349 0.234488 0.500000
O O6 0.144593 0.306649 0.217298
O O7 0.127399 0.134888 0.225547
O O8 0.046826 0.231099 0.245623
O O9 0.757499 0.718868 0.289264
O O10 0.783291 0.648964 0.000000
O O11 0.852211 0.959829 0.500000
O O12 0.879556 0.046905 0.787635
O O13 0.102055 0.873321 0.500000
O O14 0.158659 0.793792 0.278629
O O15 0.055285 0.815113 0.236481
O O16 0.992668 0.860539 0.500000
O O17 0.987501 0.925850 0.841314
O O18 0.688504 0.780083 0.500000
#
# Coordination Sequence:
#
# PCOD9443599 Si02
#       8
#     8   8   8   8   8   8   8   2
#     4   9  18  33  50  75 110 146 179 225 290 346
#     4  10  20  37  57  79 113 154 192 234 291 347
#     4  11  21  35  56  81 110 148 192 237 291 351
#     4   9  15  28  52  75 107 146 177 213 276 349
#     4  10  20  37  57  79 113 154 192 234 291 347
#     4  10  23  39  57  85 122 164 199 247 302 355
#     4  11  21  35  56  81 110 148 192 237 291 351
#     4  12  22  36  64  86 128 150 214 240 296 360
#
# _framework density 19.591650000000001
#
# number of rings (size 3 to 8) (size 9 to 14) (size 15 to 20)
#    0.000    1.931    2.759    1.862    1.931    2.207 
#    0.000    4.138    0.000    0.828    0.000    5.793 
#    0.000    0.000    0.000    0.000    0.000    0.000 
#
# Total GULP energy -323032.368349 kJ/mol
# GULP energy per Si atom -5569.523592 kJ/mol
# Density = 1.954706 g / cm^3
# Si number density = 19.591650 Si / 1000 Ang^3
#
#
#
# Elastic Constant Matrix: (Units=GPa)
#
#
# Indices 1 2 3 4 5 6 
#
# 1 65.5447 17.8751 -4.0428 0.0000 0.0000 0.0000
# 2 17.8751 90.9194 -5.5305 0.0000 0.0000 0.0000
# 3 -4.0428 -5.5305 54.4055 0.0000 0.0000 0.0000
# 4 0.0000 0.0000 0.0000 42.8883 0.0000 0.0000
# 5 0.0000 0.0000 0.0000 0.0000 15.3352 0.0000
# 6 0.0000 0.0000 0.0000 0.0000 0.0000 19.8536
#
#
#
# Elastic Compliance Matrix: (Units=1/GPa)
#
#
# Indices 1 2 3 4 5 6 
#
# 1 0.016163 -0.003124 0.000884 0.000000 0.000000 0.000000
# 2 -0.003124 0.011671 0.000954 0.000000 0.000000 0.000000
# 3 0.000884 0.000954 0.018543 0.000000 0.000000 0.000000
# 4 0.000000 0.000000 0.000000 0.023316 0.000000 0.000000
# 5 0.000000 0.000000 0.000000 0.000000 0.065209 0.000000
# 6 0.000000 0.000000 0.000000 0.000000 0.000000 0.050369
#
#
# Mechanical properties :
#
#
# Convention : Reuss Voigt Hill
#
# Bulk Modulus (GPa) = 22.82854 25.27482 24.05168
# Shear Modulus (GPa) = 24.69795 29.11995 26.90895
#
# Velocity S-wave (km/s) = 3.55440 3.85950 3.71008
# Velocity P-wave (km/s) = 5.34064 5.72624 5.53680
#
# Compressibility (1/GPa) = 0.04380482
#
# Stress axis : x y z
#
# Youngs Moduli (GPa) = 61.86883 85.68252 53.92831
#
# Poissons Ratio (x) = 0.26767 -0.04765
# Poissons Ratio (y) = 0.19328 -0.05146
# Poissons Ratio (z) = -0.05466 -0.08176
#
# Static dielectric constant tensor:
#      x y z
#    x 1.708870 0.000000 0.000000 
#    y 0.000000 1.685510 0.000000 
#    z 0.000000 0.000000 1.751870 
# 
# From -- ./inp_files/10532.got.cif
#   From: 2010.05.17/outbox.cif.g08.bks.cpg/sg58_6_cif.got.tgz:10532.got - 2010.06.03 14:20:14.
