data_PCOD9443748
_publ_section_title
;
Structure prediction by ZEFSAII (Michael W. Deem and Ramdas Pophale) SiO2 
 PCOD9443748
Probable space group: P N N M
;
_chemical_formula_sum "Si O2"
_cell_formula_units_Z 48
_cell_length_a 8.760919
_cell_length_b 7.818709
_cell_length_c 30.031387
_cell_angle_alpha 90.000000
_cell_angle_beta 90.000000
_cell_angle_gamma 90.000000
_cell_volume 2057.122268
_symmetry_space_group_name_H-M "P N N M"
_symmetry_group_IT_number 58
_symmetry_cell_setting 'orthorhombic'
loop_
_space_group_symop_operation_xyz
x,y,z
-x,-y,z
1/2+x,1/2-y,1/2-z
1/2-x,1/2+y,1/2-z
-x,-y,-z
x,y,-z
1/2-x,1/2+y,1/2+z
1/2+x,1/2-y,1/2+z
loop_
_atom_site_type_symbol
_atom_site_label
_atom_site_fract_x
_atom_site_fract_y
_atom_site_fract_z
Si Si1 0.320537 0.535820 0.232969
Si Si2 0.713357 0.634294 0.318144
Si Si3 0.203140 0.841567 0.408804
Si Si4 0.856091 0.756744 0.406531
Si Si5 0.203842 0.837350 0.000000
Si Si6 0.905707 0.670739 0.829877
Si Si7 0.142652 0.243624 0.000000
O O1 0.500000 0.500000 0.229202
O O2 0.269861 0.525104 0.284790
O O3 0.295710 0.713655 0.208641
O O4 0.212580 0.401957 0.206553
O O5 0.781364 0.642489 0.367606
O O6 0.537367 0.695406 0.317953
O O7 0.313049 0.763279 0.371950
O O8 0.280528 0.823945 0.456613
O O9 0.039051 0.751703 0.407361
O O10 0.183144 0.043069 0.397634
O O11 0.792634 0.709954 0.455024
O O12 0.040247 0.742433 0.000000
O O13 0.176948 0.040797 0.000000
O O14 0.000000 0.500000 0.843723
#
# Coordination Sequence:
#
# PCOD9443748 Si02
#       7
#     8   8   8   8   4   8   4
#     4  11  22  41  64  92 132 171 220 279 322 387
#     4  11  23  41  66  98 129 178 218 275 328 391
#     4  11  22  41  71  99 126 174 223 272 318 396
#     4  11  23  43  71  98 134 170 223 269 329 388
#     4  11  26  47  66  98 139 170 210 275 328 398
#     4  10  20  37  64  93 128 169 217 269 324 380
#     4  11  26  43  68 100 134 171 216 267 335 387
#
# _framework density 23.333566999999999
#
# number of rings (size 3 to 8) (size 9 to 14) (size 15 to 20)
#    0.000    1.167    3.333    4.000    0.000    3.333 
#    9.000    1.667    3.667    0.000    0.000    0.000 
#    0.000    0.000    0.000    0.000    0.000    0.000 
#
# Total GULP energy -268810.881331 kJ/mol
# GULP energy per Si atom -5600.226694 kJ/mol
# Density = 2.328046 g / cm^3
# Si number density = 23.333567 Si / 1000 Ang^3
#
#
#
# Elastic Constant Matrix: (Units=GPa)
#
#
# Indices 1 2 3 4 5 6 
#
# 1 162.8022 16.7983 75.5249 0.0000 0.0000 0.0000
# 2 16.7983 56.4246 5.0110 0.0000 0.0000 0.0000
# 3 75.5249 5.0110 170.3484 0.0000 0.0000 0.0000
# 4 0.0000 0.0000 0.0000 -36.9151 0.0000 0.0000
# 5 0.0000 0.0000 0.0000 0.0000 -1.9811 0.0000
# 6 0.0000 0.0000 0.0000 0.0000 0.0000 22.6897
#
#
#
# Elastic Compliance Matrix: (Units=1/GPa)
#
#
# Indices 1 2 3 4 5 6 
#
# 1 0.007965 -0.002063 -0.003471 0.000000 0.000000 0.000000
# 2 -0.002063 0.018304 0.000376 0.000000 0.000000 0.000000
# 3 -0.003471 0.000376 0.007398 0.000000 0.000000 0.000000
# 4 0.000000 0.000000 0.000000 -0.027089 0.000000 0.000000
# 5 0.000000 0.000000 0.000000 0.000000 -0.504768 0.000000
# 6 0.000000 0.000000 0.000000 0.000000 0.000000 0.044073
#
#
# Mechanical properties :
#
#
# Convention : Reuss Voigt Hill
#
# Bulk Modulus (GPa) = 42.82351 64.91598 53.86974
# Shear Modulus (GPa) = -11.46742 16.24145 2.38702
#
# Velocity S-wave (km/s) = -2.21929 2.64115 1.01253
# Velocity P-wave (km/s) = 3.43884 6.09772 4.95014
#
# Compressibility (1/GPa) = 0.02335166
#
# Stress axis : x y z
#
# Youngs Moduli (GPa) = 125.54231 54.63415 135.17050
#
# Poissons Ratio (x) = 0.11272 0.46915
# Poissons Ratio (y) = 0.25902 -0.05086
# Poissons Ratio (z) = 0.43574 -0.02056
#
# Static dielectric constant tensor:
#      x y z
#    x 1.919990 0.000000 0.000000 
#    y 0.000000 1.943340 0.000000 
#    z 0.000000 0.000000 1.839750 
# 
# From -- ./inp_files/34626.got.cif
#   From: 2010.05.17/outbox.cif.g08.bks.cpg/sg58_18_cif.got.tgz:34626.got - 2010.06.03 14:20:14.
