data_PCOD9443117
_publ_section_title
;
Structure prediction by ZEFSAII (Michael W. Deem and Ramdas Pophale) SiO2 
 PCOD9443117
Probable space group: P N N M
;
_chemical_formula_sum "Si O2"
_cell_formula_units_Z 32
_cell_length_a 17.086774
_cell_length_b 13.102570
_cell_length_c 5.646732
_cell_angle_alpha 90.000000
_cell_angle_beta 90.000000
_cell_angle_gamma 90.000000
_cell_volume 1264.194044
_symmetry_space_group_name_H-M "P N N M"
_symmetry_group_IT_number 58
_symmetry_cell_setting 'orthorhombic'
loop_
_space_group_symop_operation_xyz
x,y,z
-x,-y,z
1/2+x,1/2-y,1/2-z
1/2-x,1/2+y,1/2-z
-x,-y,-z
x,y,-z
1/2-x,1/2+y,1/2+z
1/2+x,1/2-y,1/2+z
loop_
_atom_site_type_symbol
_atom_site_label
_atom_site_fract_x
_atom_site_fract_y
_atom_site_fract_z
Si Si1 0.711585 0.616205 0.000000
Si Si2 0.702988 0.325481 0.500000
Si Si3 0.788414 0.883795 0.500000
Si Si4 0.000000 0.754739 0.253433
Si Si5 0.797012 0.174520 0.000000
Si Si6 0.884660 0.617773 0.500000
Si Si7 0.115340 0.617773 0.500000
O O1 0.740152 0.500000 0.000000
O O2 0.668048 0.636473 0.749357
O O3 0.777052 0.705181 0.000000
O O4 0.668048 0.363527 0.749357
O O5 0.791597 0.371906 0.500000
O O6 0.722948 0.794819 0.500000
O O7 0.000000 0.816886 0.500000
O O8 0.073529 0.677529 0.284881
O O9 0.926471 0.677529 0.284881
O O10 0.000000 0.805122 0.000000
O O11 0.708403 0.128094 0.000000
O O12 0.905159 0.500000 0.500000
#
# Coordination Sequence:
#
# PCOD9443117 Si02
#       7
#     4   4   4   8   4   4   4
#     4  10  20  35  49  69  99 123 156 202 233 270
#     4  10  21  32  50  73  92 127 164 186 234 287
#     4  10  20  35  49  69  99 123 156 202 233 270
#     4   8  18  29  40  62  90 119 148 183 228 274
#     4  10  21  32  50  73  92 127 164 186 234 287
#     4   9  18  28  44  64  92 121 151 185 225 277
#     4   9  18  28  44  64  92 121 151 185 225 277
#
# _framework density 25.312569
#
# number of rings (size 3 to 8) (size 9 to 14) (size 15 to 20)
#    1.500    1.000    0.000    3.750    3.500    2.000 
#    0.000    0.000    0.000    0.000    0.000    3.500 
#    0.000    2.000    0.000    0.000    0.000    0.500 
#
# Total GULP energy -178438.223221 kJ/mol
# GULP energy per Si atom -5576.194476 kJ/mol
# Density = 2.525496 g / cm^3
# Si number density = 25.312569 Si / 1000 Ang^3
#
#
#
# Elastic Constant Matrix: (Units=GPa)
#
#
# Indices 1 2 3 4 5 6 
#
# 1 86.7104 10.2367 14.9487 0.0000 0.0000 0.0000
# 2 10.2367 139.6798 24.8505 0.0000 0.0000 0.0000
# 3 14.9487 24.8505 296.0283 0.0000 0.0000 0.0000
# 4 0.0000 0.0000 0.0000 20.8326 0.0000 0.0000
# 5 0.0000 0.0000 0.0000 0.0000 29.9935 0.0000
# 6 0.0000 0.0000 0.0000 0.0000 0.0000 3.5084
#
#
#
# Elastic Compliance Matrix: (Units=1/GPa)
#
#
# Indices 1 2 3 4 5 6 
#
# 1 0.011714 -0.000765 -0.000527 0.000000 0.000000 0.000000
# 2 -0.000765 0.007318 -0.000576 0.000000 0.000000 0.000000
# 3 -0.000527 -0.000576 0.003453 0.000000 0.000000 0.000000
# 4 0.000000 0.000000 0.000000 0.048002 0.000000 0.000000
# 5 0.000000 0.000000 0.000000 0.000000 0.033341 0.000000
# 6 0.000000 0.000000 0.000000 0.000000 0.000000 0.285032
#
#
# Mechanical properties :
#
#
# Convention : Reuss Voigt Hill
#
# Bulk Modulus (GPa) = 53.33562 69.16559 61.25060
# Shear Modulus (GPa) = 12.53625 42.35908 27.44767
#
# Velocity S-wave (km/s) = 2.22785 4.09521 3.29652
# Velocity P-wave (km/s) = 5.26634 7.05301 6.22412
#
# Compressibility (1/GPa) = 0.01874920
#
# Stress axis : x y z
#
# Youngs Moduli (GPa) = 85.36924 136.65519 289.60234
#
# Poissons Ratio (x) = 0.10449 0.15272
# Poissons Ratio (y) = 0.06528 0.16672
# Poissons Ratio (z) = 0.04502 0.07867
#
# Static dielectric constant tensor:
#      x y z
#    x 2.061220 0.000000 0.000000 
#    y 0.000000 1.888530 0.000000 
#    z 0.000000 0.000000 2.161230 
# 
# From -- ./inp_files/862.got.cif
#   From: 2010.05.17/outbox.cif.g08.bks.cpg/sg58_1_cif.got.tgz:862.got - 2010.06.03 14:20:14.
