data_PCOD9443547
_publ_section_title
;
Structure prediction by ZEFSAII (Michael W. Deem and Ramdas Pophale) SiO2 
 PCOD9443547
Probable space group: P N N M
;
_chemical_formula_sum "Si O2"
_cell_formula_units_Z 64
_cell_length_a 24.226218
_cell_length_b 14.106741
_cell_length_c 9.365659
_cell_angle_alpha 90.000000
_cell_angle_beta 90.000000
_cell_angle_gamma 90.000000
_cell_volume 3200.741899
_symmetry_space_group_name_H-M "P N N M"
_symmetry_group_IT_number 58
_symmetry_cell_setting 'orthorhombic'
loop_
_space_group_symop_operation_xyz
x,y,z
-x,-y,z
1/2+x,1/2-y,1/2-z
1/2-x,1/2+y,1/2-z
-x,-y,-z
x,y,-z
1/2-x,1/2+y,1/2+z
1/2+x,1/2-y,1/2+z
loop_
_atom_site_type_symbol
_atom_site_label
_atom_site_fract_x
_atom_site_fract_y
_atom_site_fract_z
Si Si1 0.194352 0.779687 0.837855
Si Si2 0.743023 0.930835 0.663224
Si Si3 0.197815 0.403282 0.330510
Si Si4 0.510575 0.889540 0.330308
Si Si5 0.451921 0.424630 0.335086
Si Si6 0.895331 0.715236 0.169094
Si Si7 0.855829 0.925783 0.165696
Si Si8 0.583835 0.749323 0.169118
O O1 0.222921 0.677103 0.836831
O O2 0.242327 0.854713 0.805953
O O3 0.144366 0.775299 0.728584
O O4 0.173571 0.797946 0.000000
O O5 0.744479 0.965208 0.500000
O O6 0.803358 0.932997 0.733171
O O7 0.701936 0.995465 0.754951
O O8 0.189530 0.410490 0.500000
O O9 0.150903 0.338848 0.259930
O O10 0.522279 0.881864 0.500000
O O11 0.455173 0.829009 0.299646
O O12 0.560335 0.844184 0.241825
O O13 0.500000 0.000000 0.297998
O O14 0.500000 0.500000 0.310118
O O15 0.457023 0.391166 0.500000
O O16 0.395619 0.484300 0.319615
O O17 0.453071 0.337037 0.229087
O O18 0.889125 0.828032 0.193578
O O19 0.885101 0.699242 0.000000
O O20 0.837056 0.922102 0.000000
O O21 0.582785 0.755664 0.000000
#
# Coordination Sequence:
#
# PCOD9443547 Si02
#       8
#     8   8   8   8   8   8   8   8
#     4  10  23  43  63  85 123 170 211 246 303 377
#     4  11  23  39  60  87 119 160 206 252 306 371
#     4  11  23  40  62  92 126 164 204 253 313 369
#     4  10  23  44  68  91 121 167 218 259 305 375
#     4  10  21  40  66  92 123 165 209 249 300 373
#     4  10  21  39  64  93 123 160 207 256 308 368
#     4  10  20  36  61  92 124 158 201 256 311 366
#     4  12  26  41  62  94 129 163 205 264 321 364
#
# _framework density 19.995365
#
# number of rings (size 3 to 8) (size 9 to 14) (size 15 to 20)
#    0.000    1.500    1.250    3.375    1.750    8.500 
#    0.000    1.250    0.000    0.000    0.000    0.000 
#    0.000    0.000    0.000    0.000    0.000    0.000 
#
# Total GULP energy -357956.744077 kJ/mol
# GULP energy per Si atom -5593.074126 kJ/mol
# Density = 1.994985 g / cm^3
# Si number density = 19.995365 Si / 1000 Ang^3
#
#
#
# Elastic Constant Matrix: (Units=GPa)
#
#
# Indices 1 2 3 4 5 6 
#
# 1 51.8320 0.1304 41.0764 0.0000 0.0000 0.0000
# 2 0.1304 65.2132 25.8220 0.0000 0.0000 0.0000
# 3 41.0764 25.8220 75.1143 0.0000 0.0000 0.0000
# 4 0.0000 0.0000 0.0000 24.4631 0.0000 0.0000
# 5 0.0000 0.0000 0.0000 0.0000 22.6119 0.0000
# 6 0.0000 0.0000 0.0000 0.0000 0.0000 27.5517
#
#
#
# Elastic Compliance Matrix: (Units=1/GPa)
#
#
# Indices 1 2 3 4 5 6 
#
# 1 0.038618 0.009590 -0.024415 0.000000 0.000000 0.000000
# 2 0.009590 0.020132 -0.012165 0.000000 0.000000 0.000000
# 3 -0.024415 -0.012165 0.030846 0.000000 0.000000 0.000000
# 4 0.000000 0.000000 0.000000 0.040878 0.000000 0.000000
# 5 0.000000 0.000000 0.000000 0.000000 0.044224 0.000000
# 6 0.000000 0.000000 0.000000 0.000000 0.000000 0.036295
#
#
# Mechanical properties :
#
#
# Convention : Reuss Voigt Hill
#
# Bulk Modulus (GPa) = 28.07709 36.24633 32.16171
# Shear Modulus (GPa) = 18.06060 23.26740 20.66400
#
# Velocity S-wave (km/s) = 3.00865 3.41492 3.21820
# Velocity P-wave (km/s) = 5.11289 5.80651 5.47070
#
# Compressibility (1/GPa) = 0.03561623
#
# Stress axis : x y z
#
# Youngs Moduli (GPa) = 25.89496 49.67191 32.41870
#
# Poissons Ratio (x) = -0.47636 0.79150
# Poissons Ratio (y) = -0.24834 0.39438
# Poissons Ratio (z) = 0.63222 0.60427
#
# Static dielectric constant tensor:
#      x y z
#    x 1.706550 0.000000 0.000000 
#    y 0.000000 1.706280 0.000000 
#    z 0.000000 0.000000 1.668100 
# 
# From -- ./inp_files/9961.got.cif
#   From: 2010.05.17/outbox.cif.g08.bks.cpg/sg58_5_cif.got.tgz:9961.got - 2010.06.03 14:20:14.
