data_PCOD9443035
_publ_section_title
;
Structure prediction by ZEFSAII (Michael W. Deem and Ramdas Pophale) SiO2 
 PCOD9443035
Probable space group: P N N M
;
_chemical_formula_sum "Si O2"
_cell_formula_units_Z 32
_cell_length_a 22.394432
_cell_length_b 6.441675
_cell_length_c 10.983813
_cell_angle_alpha 90.000000
_cell_angle_beta 90.000000
_cell_angle_gamma 90.000000
_cell_volume 1584.499082
_symmetry_space_group_name_H-M "P N N M"
_symmetry_group_IT_number 58
_symmetry_cell_setting 'orthorhombic'
loop_
_space_group_symop_operation_xyz
x,y,z
-x,-y,z
1/2+x,1/2-y,1/2-z
1/2-x,1/2+y,1/2-z
-x,-y,-z
x,y,-z
1/2-x,1/2+y,1/2+z
1/2+x,1/2-y,1/2+z
loop_
_atom_site_type_symbol
_atom_site_label
_atom_site_fract_x
_atom_site_fract_y
_atom_site_fract_z
Si Si1 0.655477 0.300359 0.715158
Si Si2 0.930259 0.447694 0.863729
Si Si3 0.878083 0.181731 0.639232
Si Si4 0.729483 0.987043 0.130190
O O1 0.606936 0.161980 0.647358
O O2 0.625753 0.444098 0.817954
O O3 0.702085 0.137101 0.770993
O O4 0.700388 0.446362 0.640739
O O5 0.911629 0.306127 0.747898
O O6 0.000000 0.500000 0.855898
O O7 0.918340 0.357649 0.000000
O O8 0.901655 0.204112 0.500000
O O9 0.811407 0.280573 0.635545
O O10 0.717281 0.087921 0.000000
#
# Coordination Sequence:
#
# PCOD9443035 Si02
#       4
#     8   8   8   8
#     4  11  20  38  59  91 122 161 201 252 310 366
#     4  10  24  44  64  90 124 164 214 263 306 365
#     4  10  22  40  63  91 123 161 202 252 310 369
#     4  10  20  34  55  87 124 157 195 244 303 372
#
# _framework density 20.195656
#
# number of rings (size 3 to 8) (size 9 to 14) (size 15 to 20)
#    0.000    1.750    2.500    1.500    0.000    4.500 
#    0.000    3.750    0.000    0.000    0.000    0.000 
#    0.000    0.000    0.000    0.000    0.000    0.000 
#
# Total GULP energy -178286.557310 kJ/mol
# GULP energy per Si atom -5571.454916 kJ/mol
# Density = 2.014969 g / cm^3
# Si number density = 20.195656 Si / 1000 Ang^3
#
#
#
# Elastic Constant Matrix: (Units=GPa)
#
#
# Indices 1 2 3 4 5 6 
#
# 1 102.1899 18.7104 56.9325 0.0000 0.0000 0.0000
# 2 18.7104 57.2258 31.6851 0.0000 0.0000 0.0000
# 3 56.9325 31.6851 152.1609 0.0000 0.0000 0.0000
# 4 0.0000 0.0000 0.0000 26.3483 0.0000 0.0000
# 5 0.0000 0.0000 0.0000 0.0000 16.0431 0.0000
# 6 0.0000 0.0000 0.0000 0.0000 0.0000 13.0060
#
#
#
# Elastic Compliance Matrix: (Units=1/GPa)
#
#
# Indices 1 2 3 4 5 6 
#
# 1 0.012506 -0.001693 -0.004327 0.000000 0.000000 0.000000
# 2 -0.001693 0.019981 -0.003527 0.000000 0.000000 0.000000
# 3 -0.004327 -0.003527 0.008925 0.000000 0.000000 0.000000
# 4 0.000000 0.000000 0.000000 0.037953 0.000000 0.000000
# 5 0.000000 0.000000 0.000000 0.000000 0.062332 0.000000
# 6 0.000000 0.000000 0.000000 0.000000 0.000000 0.076887
#
#
# Mechanical properties :
#
#
# Convention : Reuss Voigt Hill
#
# Bulk Modulus (GPa) = 44.80627 58.47029 51.63828
# Shear Modulus (GPa) = 20.39822 24.69605 22.54713
#
# Velocity S-wave (km/s) = 3.18154 3.50071 3.34493
# Velocity P-wave (km/s) = 5.97750 6.73459 6.36731
#
# Compressibility (1/GPa) = 0.02231831
#
# Stress axis : x y z
#
# Youngs Moduli (GPa) = 79.95982 50.04692 112.04025
#
# Poissons Ratio (x) = 0.08475 0.48477
# Poissons Ratio (y) = 0.13540 0.39519
# Poissons Ratio (z) = 0.34596 0.17653
#
# Static dielectric constant tensor:
#      x y z
#    x 1.695870 0.000000 0.000000 
#    y 0.000000 1.741550 0.000000 
#    z 0.000000 0.000000 1.762030 
# 
# From -- ./inp_files/11513.got.cif
#   From: 2010.05.17/outbox.cif.g08.bks.cpg/sg58_6_cif.got.tgz:11513.got - 2010.06.03 14:20:14.
