data_PCOD9443093
_publ_section_title
;
Structure prediction by ZEFSAII (Michael W. Deem and Ramdas Pophale) SiO2 
 PCOD9443093
Probable space group: P N N M
;
_chemical_formula_sum "Si O2"
_cell_formula_units_Z 64
_cell_length_a 10.899921
_cell_length_b 33.416475
_cell_length_c 7.588766
_cell_angle_alpha 90.000000
_cell_angle_beta 90.000000
_cell_angle_gamma 90.000000
_cell_volume 2764.108888
_symmetry_space_group_name_H-M "P N N M"
_symmetry_group_IT_number 58
_symmetry_cell_setting 'orthorhombic'
loop_
_space_group_symop_operation_xyz
x,y,z
-x,-y,z
1/2+x,1/2-y,1/2-z
1/2-x,1/2+y,1/2-z
-x,-y,-z
x,y,-z
1/2-x,1/2+y,1/2+z
1/2+x,1/2-y,1/2+z
loop_
_atom_site_type_symbol
_atom_site_label
_atom_site_fract_x
_atom_site_fract_y
_atom_site_fract_z
Si Si1 0.419307 0.632056 0.287514
Si Si2 0.332505 0.413977 0.795831
Si Si3 0.475875 0.286821 0.299963
Si Si4 0.863327 0.998968 0.198499
Si Si5 0.643684 0.883145 0.706284
Si Si6 0.606776 0.970791 0.207239
Si Si7 0.533880 0.801409 0.709079
Si Si8 0.738675 0.167393 0.708238
O O1 0.427179 0.632513 0.500000
O O2 0.531997 0.605409 0.220121
O O3 0.437870 0.678096 0.223357
O O4 0.289551 0.614766 0.231953
O O5 0.325895 0.454696 0.691660
O O6 0.243209 0.378642 0.733587
O O7 0.307075 0.423254 0.000000
O O8 0.521228 0.279697 0.500000
O O9 0.456700 0.243360 0.215727
O O10 0.343716 0.307827 0.302852
O O11 0.744330 0.978074 0.282527
O O12 0.880687 0.981726 0.000000
O O13 0.000000 0.000000 0.281759
O O14 0.612169 0.882314 0.500000
O O15 0.581898 0.923500 0.777646
O O16 0.605570 0.839820 0.782797
O O17 0.500000 0.000000 0.278867
O O18 0.618139 0.980807 0.000000
O O19 0.567774 0.798607 0.500000
O O20 0.392388 0.813249 0.726001
O O21 0.771249 0.167018 0.500000
#
# Coordination Sequence:
#
# PCOD9443093 Si02
#       8
#     8   8   8   8   8   8   8   8
#     4  10  20  36  59  85 119 156 193 236 284 341
#     4  10  20  34  58  88 115 146 188 235 285 339
#     4   9  19  36  57  82 111 150 192 234 282 333
#     4  10  21  37  59  84 112 150 192 239 293 345
#     4  11  23  38  60  86 116 153 194 238 289 346
#     4  10  23  42  61  85 120 158 197 243 296 355
#     4   9  20  37  56  80 115 152 186 231 287 340
#     4   9  19  36  56  79 112 148 184 229 281 335
#
# _framework density 23.153936999999999
#
# number of rings (size 3 to 8) (size 9 to 14) (size 15 to 20)
#    0.000    2.250    0.000    1.875    3.500    3.000 
#    0.000    2.500    0.000    0.000    0.000    0.000 
#    0.000    0.000    0.000    0.000    0.000    0.000 
#
# Total GULP energy -357270.390352 kJ/mol
# GULP energy per Si atom -5582.349849 kJ/mol
# Density = 2.310124 g / cm^3
# Si number density = 23.153937 Si / 1000 Ang^3
#
#
#
# Elastic Constant Matrix: (Units=GPa)
#
#
# Indices 1 2 3 4 5 6 
#
# 1 45.7818 21.2573 3.4558 0.0000 0.0000 0.0000
# 2 21.2573 158.3307 3.6530 0.0000 0.0000 0.0000
# 3 3.4558 3.6530 53.8613 0.0000 0.0000 0.0000
# 4 0.0000 0.0000 0.0000 17.6875 0.0000 0.0000
# 5 0.0000 0.0000 0.0000 0.0000 30.2165 0.0000
# 6 0.0000 0.0000 0.0000 0.0000 0.0000 14.6208
#
#
#
# Elastic Compliance Matrix: (Units=1/GPa)
#
#
# Indices 1 2 3 4 5 6 
#
# 1 0.023384 -0.003110 -0.001289 0.000000 0.000000 0.000000
# 2 -0.003110 0.006739 -0.000258 0.000000 0.000000 0.000000
# 3 -0.001289 -0.000258 0.018666 0.000000 0.000000 0.000000
# 4 0.000000 0.000000 0.000000 0.056537 0.000000 0.000000
# 5 0.000000 0.000000 0.000000 0.000000 0.033095 0.000000
# 6 0.000000 0.000000 0.000000 0.000000 0.000000 0.068396
#
#
# Mechanical properties :
#
#
# Convention : Reuss Voigt Hill
#
# Bulk Modulus (GPa) = 25.33168 34.96734 30.14951
# Shear Modulus (GPa) = 21.80650 27.81213 24.80931
#
# Velocity S-wave (km/s) = 3.07221 3.46957 3.27692
# Velocity P-wave (km/s) = 4.85273 5.58439 5.23137
#
# Compressibility (1/GPa) = 0.03947625
#
# Stress axis : x y z
#
# Youngs Moduli (GPa) = 42.76428 148.38229 53.57220
#
# Poissons Ratio (x) = 0.46143 0.06908
# Poissons Ratio (y) = 0.13299 0.01380
# Poissons Ratio (z) = 0.05514 0.03822
#
# Static dielectric constant tensor:
#      x y z
#    x 1.851680 0.000000 0.000000 
#    y 0.000000 1.884620 0.000000 
#    z 0.000000 0.000000 1.906740 
# 
# From -- ./inp_files/4772.got.cif
#   From: 2010.05.17/outbox.cif.g08.bks.cpg/sg58_3_cif.got.tgz:4772.got - 2010.06.03 14:20:14.
