data_PCOD9443925
_publ_section_title
;
Structure prediction by ZEFSAII (Michael W. Deem and Ramdas Pophale) SiO2 
 PCOD9443925
Probable space group: P N N M
;
_chemical_formula_sum "Si O2"
_cell_formula_units_Z 48
_cell_length_a 10.342507
_cell_length_b 27.956170
_cell_length_c 8.562732
_cell_angle_alpha 90.000000
_cell_angle_beta 90.000000
_cell_angle_gamma 90.000000
_cell_volume 2475.801648
_symmetry_space_group_name_H-M "P N N M"
_symmetry_group_IT_number 58
_symmetry_cell_setting 'orthorhombic'
loop_
_space_group_symop_operation_xyz
x,y,z
-x,-y,z
1/2+x,1/2-y,1/2-z
1/2-x,1/2+y,1/2-z
-x,-y,-z
x,y,-z
1/2-x,1/2+y,1/2+z
1/2+x,1/2-y,1/2+z
loop_
_atom_site_type_symbol
_atom_site_label
_atom_site_fract_x
_atom_site_fract_y
_atom_site_fract_z
Si Si1 0.387217 0.463393 0.311471
Si Si2 0.977443 0.641841 0.687194
Si Si3 0.750801 0.212086 0.190190
Si Si4 0.393893 0.961117 0.313198
Si Si5 0.480491 0.357465 0.688641
Si Si6 0.251764 0.177749 0.687189
O O1 0.500000 0.500000 0.265966
O O2 0.375308 0.464524 0.500000
O O3 0.249238 0.475861 0.239371
O O4 0.426938 0.409516 0.265772
O O5 0.980607 0.642607 0.500000
O O6 0.875873 0.682630 0.740451
O O7 0.926470 0.590464 0.741668
O O8 0.119228 0.652571 0.751694
O O9 0.750724 0.266888 0.242405
O O10 0.878336 0.183059 0.240107
O O11 0.750787 0.212127 0.000000
O O12 0.398784 0.957435 0.500000
O O13 0.500000 0.000000 0.262236
O O14 0.486637 0.356455 0.500000
O O15 0.621772 0.347390 0.754438
O O16 0.253514 0.177517 0.500000
#
# Coordination Sequence:
#
# PCOD9443925 Si02
#       6
#     8   8   8   8   8   8
#     4  10  22  41  66  93 118 154 203 247 295 359
#     4  11  22  41  65  89 120 162 207 251 297 356
#     4   9  19  38  62  86 119 159 205 251 295 349
#     4  11  25  43  63  92 125 157 196 248 310 367
#     4  10  20  39  61  86 120 158 200 247 293 351
#     4  11  23  37  57  91 127 160 199 248 300 355
#
# _framework density 19.387657999999998
#
# number of rings (size 3 to 8) (size 9 to 14) (size 15 to 20)
#    0.000    1.667    1.667    2.500    2.333    2.333 
#    0.000    3.333    0.000    0.000    0.000    0.000 
#    0.000    0.000    0.000    0.000    0.000    0.000 
#
# Total GULP energy -268328.741436 kJ/mol
# GULP energy per Si atom -5590.182113 kJ/mol
# Density = 1.934353 g / cm^3
# Si number density = 19.387658 Si / 1000 Ang^3
#
#
#
# Elastic Constant Matrix: (Units=GPa)
#
#
# Indices 1 2 3 4 5 6 
#
# 1 176.2403 42.3040 30.1253 0.0000 0.0000 0.0000
# 2 42.3040 68.8009 18.9932 0.0000 0.0000 0.0000
# 3 30.1253 18.9932 25.6342 0.0000 0.0000 0.0000
# 4 0.0000 0.0000 0.0000 11.3591 0.0000 0.0000
# 5 0.0000 0.0000 0.0000 0.0000 14.2397 0.0000
# 6 0.0000 0.0000 0.0000 0.0000 0.0000 41.9053
#
#
#
# Elastic Compliance Matrix: (Units=1/GPa)
#
#
# Indices 1 2 3 4 5 6 
#
# 1 0.007488 -0.002734 -0.006774 0.000000 0.000000 0.000000
# 2 -0.002734 0.019270 -0.011065 0.000000 0.000000 0.000000
# 3 -0.006774 -0.011065 0.055170 0.000000 0.000000 0.000000
# 4 0.000000 0.000000 0.000000 0.088035 0.000000 0.000000
# 5 0.000000 0.000000 0.000000 0.000000 0.070226 0.000000
# 6 0.000000 0.000000 0.000000 0.000000 0.000000 0.023863
#
#
# Mechanical properties :
#
#
# Convention : Reuss Voigt Hill
#
# Bulk Modulus (GPa) = 24.52073 50.39116 37.45594
# Shear Modulus (GPa) = 15.68408 25.45099 20.56754
#
# Velocity S-wave (km/s) = 2.84733 3.62711 3.26061
# Velocity P-wave (km/s) = 4.84611 6.60220 5.79110
#
# Compressibility (1/GPa) = 0.04078182
#
# Stress axis : x y z
#
# Youngs Moduli (GPa) = 133.54041 51.89288 18.12582
#
# Poissons Ratio (x) = 0.14189 0.12279
# Poissons Ratio (y) = 0.36514 0.20056
# Poissons Ratio (z) = 0.90466 0.57418
#
# Static dielectric constant tensor:
#      x y z
#    x 1.641090 0.000000 0.000000 
#    y 0.000000 1.659430 0.000000 
#    z 0.000000 0.000000 1.656330 
# 
# From -- ./inp_files/2913.got.cif
#   From: 2010.05.17/outbox.cif.g08.bks.cpg/sg58_2_cif.got.tgz:2913.got - 2010.06.03 14:20:14.
