data_PCOD9443974
_publ_section_title
;
Structure prediction by ZEFSAII (Michael W. Deem and Ramdas Pophale) SiO2 
 PCOD9443974
Probable space group: P N N M
;
_chemical_formula_sum "Si O2"
_cell_formula_units_Z 64
_cell_length_a 8.129231
_cell_length_b 21.942817
_cell_length_c 15.807612
_cell_angle_alpha 90.000000
_cell_angle_beta 90.000000
_cell_angle_gamma 90.000000
_cell_volume 2819.733820
_symmetry_space_group_name_H-M "P N N M"
_symmetry_group_IT_number 58
_symmetry_cell_setting 'orthorhombic'
loop_
_space_group_symop_operation_xyz
x,y,z
-x,-y,z
1/2+x,1/2-y,1/2-z
1/2-x,1/2+y,1/2-z
-x,-y,-z
x,y,-z
1/2-x,1/2+y,1/2+z
1/2+x,1/2-y,1/2+z
loop_
_atom_site_type_symbol
_atom_site_label
_atom_site_fract_x
_atom_site_fract_y
_atom_site_fract_z
Si Si1 0.280933 0.686202 0.901050
Si Si2 0.442081 0.804467 0.161366
Si Si3 0.683402 0.079785 0.907089
Si Si4 0.265756 0.969538 0.726930
Si Si5 0.450811 0.636875 0.406486
Si Si6 0.752090 0.248282 0.592361
Si Si7 0.596410 0.409741 0.774414
Si Si8 0.575630 0.140983 0.652929
O O1 0.310909 0.755928 0.873388
O O2 0.391852 0.646158 0.837990
O O3 0.099539 0.659732 0.884236
O O4 0.320819 0.680023 0.000000
O O5 0.445495 0.865545 0.105312
O O6 0.616955 0.771148 0.159611
O O7 0.405435 0.828129 0.254666
O O8 0.678973 0.036666 0.825148
O O9 0.859818 0.115407 0.903208
O O10 0.670261 0.051151 0.000000
O O11 0.384543 0.929604 0.668137
O O12 0.086509 0.937275 0.722612
O O13 0.229260 0.038656 0.702655
O O14 0.390066 0.616993 0.500000
O O15 0.409667 0.708870 0.401230
O O16 0.370741 0.608669 0.322877
O O17 0.826703 0.260351 0.500000
O O18 0.708208 0.178066 0.599189
#
# Coordination Sequence:
#
# PCOD9443974 Si02
#       8
#     8   8   8   8   8   8   8   8
#     4  12  25  40  59  85 115 152 193 234 281 336
#     4  11  21  35  57  83 113 146 180 224 280 340
#     4   9  17  32  54  85 119 148 179 224 282 347
#     4   9  21  37  59  81 108 148 194 238 285 334
#     4   9  18  32  56  87 119 151 183 223 281 345
#     4  11  21  34  53  81 111 140 175 219 269 330
#     4  10  20  40  59  81 113 149 192 242 283 329
#     4  11  22  38  57  81 110 146 184 230 283 333
#
# _framework density 22.697178000000001
#
# number of rings (size 3 to 8) (size 9 to 14) (size 15 to 20)
#    0.000    1.750    0.000    5.250    0.000    4.000 
#    0.000    6.250    0.000    0.000    0.000    7.000 
#    0.000    0.000    0.000    0.000    0.000    0.000 
#
# Total GULP energy -357631.763197 kJ/mol
# GULP energy per Si atom -5587.996300 kJ/mol
# Density = 2.264552 g / cm^3
# Si number density = 22.697178 Si / 1000 Ang^3
#
#
#
# Elastic Constant Matrix: (Units=GPa)
#
#
# Indices 1 2 3 4 5 6 
#
# 1 61.9604 0.4193 0.1885 0.0000 0.0000 0.0000
# 2 0.4193 41.0940 11.6382 0.0000 0.0000 0.0000
# 3 0.1885 11.6382 79.2341 0.0000 0.0000 0.0000
# 4 0.0000 0.0000 0.0000 10.5574 0.0000 0.0000
# 5 0.0000 0.0000 0.0000 0.0000 25.1788 0.0000
# 6 0.0000 0.0000 0.0000 0.0000 0.0000 28.7993
#
#
#
# Elastic Compliance Matrix: (Units=1/GPa)
#
#
# Indices 1 2 3 4 5 6 
#
# 1 0.016140 -0.000160 -0.000015 0.000000 0.000000 0.000000
# 2 -0.000160 0.025392 -0.003729 0.000000 0.000000 0.000000
# 3 -0.000015 -0.003729 0.013169 0.000000 0.000000 0.000000
# 4 0.000000 0.000000 0.000000 0.094720 0.000000 0.000000
# 5 0.000000 0.000000 0.000000 0.000000 0.039716 0.000000
# 6 0.000000 0.000000 0.000000 0.000000 0.000000 0.034723
#
#
# Mechanical properties :
#
#
# Convention : Reuss Voigt Hill
#
# Bulk Modulus (GPa) = 21.32557 22.97562 22.15060
# Shear Modulus (GPa) = 20.21828 24.24324 22.23076
#
# Velocity S-wave (km/s) = 2.98784 3.27175 3.13301
# Velocity P-wave (km/s) = 4.61725 4.94137 4.78206
#
# Compressibility (1/GPa) = 0.04689206
#
# Stress axis : x y z
#
# Youngs Moduli (GPa) = 61.95606 39.38209 75.93792
#
# Poissons Ratio (x) = 0.00632 0.00113
# Poissons Ratio (y) = 0.00994 0.28320
# Poissons Ratio (z) = 0.00092 0.14687
#
# Static dielectric constant tensor:
#      x y z
#    x 1.885550 0.000000 0.000000 
#    y 0.000000 1.825870 0.000000 
#    z 0.000000 0.000000 1.945260 
# 
# From -- ./inp_files/20286.got.cif
#   From: 2010.05.17/outbox.cif.g08.bks.cpg/sg58_11_cif.got.tgz:20286.got - 2010.06.03 14:20:14.
