data_PCOD9443310
_publ_section_title
;
Structure prediction by ZEFSAII (Michael W. Deem and Ramdas Pophale) SiO2 
 PCOD9443310
Probable space group: P N N M
;
_chemical_formula_sum "Si O2"
_cell_formula_units_Z 56
_cell_length_a 22.096657
_cell_length_b 14.822462
_cell_length_c 8.714033
_cell_angle_alpha 90.000000
_cell_angle_beta 90.000000
_cell_angle_gamma 90.000000
_cell_volume 2854.079855
_symmetry_space_group_name_H-M "P N N M"
_symmetry_group_IT_number 58
_symmetry_cell_setting 'orthorhombic'
loop_
_space_group_symop_operation_xyz
x,y,z
-x,-y,z
1/2+x,1/2-y,1/2-z
1/2-x,1/2+y,1/2-z
-x,-y,-z
x,y,-z
1/2-x,1/2+y,1/2+z
1/2+x,1/2-y,1/2+z
loop_
_atom_site_type_symbol
_atom_site_label
_atom_site_fract_x
_atom_site_fract_y
_atom_site_fract_z
Si Si1 0.570381 0.511577 0.316793
Si Si2 0.471979 0.134275 0.822601
Si Si3 0.850721 0.849950 0.679706
Si Si4 0.369140 0.017097 0.317690
Si Si5 0.281683 0.164394 0.816213
Si Si6 0.118597 0.804044 0.679236
Si Si7 0.403271 0.823497 0.321617
O O1 0.500000 0.500000 0.267818
O O2 0.572331 0.500660 0.500000
O O3 0.611837 0.435149 0.240841
O O4 0.596479 0.609296 0.271337
O O5 0.427891 0.054179 0.770846
O O6 0.431658 0.225118 0.811578
O O7 0.528809 0.144436 0.712343
O O8 0.490610 0.122897 0.000000
O O9 0.839051 0.860268 0.500000
O O10 0.787547 0.836192 0.767351
O O11 0.889052 0.760425 0.714711
O O12 0.378038 0.029221 0.500000
O O13 0.314447 0.078826 0.260455
O O14 0.361819 0.910773 0.289621
O O15 0.319357 0.254331 0.769754
O O16 0.288029 0.157457 0.000000
O O17 0.125044 0.829723 0.500000
O O18 0.396404 0.797552 0.500000
#
# Coordination Sequence:
#
# PCOD9443310 Si02
#       7
#     8   8   8   8   8   8   8
#     4  11  24  41  63  91 122 159 202 249 302 359
#     4  10  20  35  58  89 123 156 193 238 286 342
#     4  12  26  42  62  86 116 155 198 247 300 356
#     4  10  21  37  59  87 120 157 194 236 288 345
#     4  10  22  42  64  87 118 153 196 248 297 352
#     4   9  20  38  61  88 118 155 195 241 296 349
#     4  11  23  38  57  84 119 155 192 238 291 345
#
# _framework density 19.621036
#
# number of rings (size 3 to 8) (size 9 to 14) (size 15 to 20)
#    0.000    1.571    0.000    5.571    0.000   12.000 
#    0.000    1.429    0.000    0.000    0.000    0.000 
#    0.000    0.000    0.000    0.000    0.000    0.000 
#
# Total GULP energy -313029.327856 kJ/mol
# GULP energy per Si atom -5589.809426 kJ/mol
# Density = 1.957638 g / cm^3
# Si number density = 19.621036 Si / 1000 Ang^3
#
#
#
# Elastic Constant Matrix: (Units=GPa)
#
#
# Indices 1 2 3 4 5 6 
#
# 1 63.2883 18.4665 0.0464 0.0000 0.0000 0.0000
# 2 18.4665 98.9251 32.1190 0.0000 0.0000 0.0000
# 3 0.0464 32.1190 57.6585 0.0000 0.0000 0.0000
# 4 0.0000 0.0000 0.0000 82.2574 0.0000 0.0000
# 5 0.0000 0.0000 0.0000 0.0000 32.7658 0.0000
# 6 0.0000 0.0000 0.0000 0.0000 0.0000 12.1643
#
#
#
# Elastic Compliance Matrix: (Units=1/GPa)
#
#
# Indices 1 2 3 4 5 6 
#
# 1 0.016923 -0.003851 0.002132 0.000000 0.000000 0.000000
# 2 -0.003851 0.013217 -0.007360 0.000000 0.000000 0.000000
# 3 0.002132 -0.007360 0.021441 0.000000 0.000000 0.000000
# 4 0.000000 0.000000 0.000000 0.012157 0.000000 0.000000
# 5 0.000000 0.000000 0.000000 0.000000 0.030520 0.000000
# 6 0.000000 0.000000 0.000000 0.000000 0.000000 0.082208
#
#
# Mechanical properties :
#
#
# Convention : Reuss Voigt Hill
#
# Bulk Modulus (GPa) = 29.91922 35.68175 32.80049
# Shear Modulus (GPa) = 24.29961 36.72016 30.50989
#
# Velocity S-wave (km/s) = 3.52297 4.33074 3.94757
# Velocity P-wave (km/s) = 5.64182 6.57511 6.12626
#
# Compressibility (1/GPa) = 0.03342333
#
# Stress axis : x y z
#
# Youngs Moduli (GPa) = 59.09179 75.65988 46.63867
#
# Poissons Ratio (x) = 0.29138 -0.09942
# Poissons Ratio (y) = 0.22757 0.34324
# Poissons Ratio (z) = -0.12596 0.55682
#
# Static dielectric constant tensor:
#      x y z
#    x 2.039050 0.000000 0.000000 
#    y 0.000000 1.685730 0.000000 
#    z 0.000000 0.000000 1.652850 
# 
# From -- ./inp_files/9061.got.cif
#   From: 2010.05.17/outbox.cif.g08.bks.cpg/sg58_5_cif.got.tgz:9061.got - 2010.06.03 14:20:14.
