data_PCOD9443475
_publ_section_title
;
Structure prediction by ZEFSAII (Michael W. Deem and Ramdas Pophale) SiO2 
 PCOD9443475
Probable space group: P N N M
;
_chemical_formula_sum "Si O2"
_cell_formula_units_Z 56
_cell_length_a 18.842440
_cell_length_b 17.700195
_cell_length_c 9.059605
_cell_angle_alpha 90.000000
_cell_angle_beta 90.000000
_cell_angle_gamma 90.000000
_cell_volume 3021.512914
_symmetry_space_group_name_H-M "P N N M"
_symmetry_group_IT_number 58
_symmetry_cell_setting 'orthorhombic'
loop_
_space_group_symop_operation_xyz
x,y,z
-x,-y,z
1/2+x,1/2-y,1/2-z
1/2-x,1/2+y,1/2-z
-x,-y,-z
x,y,-z
1/2-x,1/2+y,1/2+z
1/2+x,1/2-y,1/2+z
loop_
_atom_site_type_symbol
_atom_site_label
_atom_site_fract_x
_atom_site_fract_y
_atom_site_fract_z
Si Si1 0.206437 0.180166 0.823579
Si Si2 0.081571 0.476665 0.677092
Si Si3 0.457122 0.250438 0.327775
Si Si4 0.846341 0.382916 0.173483
Si Si5 0.899339 0.936910 0.676142
Si Si6 0.606289 0.185488 0.678504
Si Si7 0.433832 0.399675 0.173868
O O1 0.278993 0.158566 0.743701
O O2 0.149374 0.118622 0.768368
O O3 0.174351 0.262793 0.786716
O O4 0.214417 0.176215 0.000000
O O5 0.086732 0.473951 0.500000
O O6 0.132940 0.540622 0.742923
O O7 0.101384 0.395786 0.746008
O O8 0.000000 0.500000 0.715097
O O9 0.462853 0.269549 0.500000
O O10 0.412249 0.174379 0.312200
O O11 0.536467 0.232753 0.272869
O O12 0.419574 0.320452 0.249779
O O13 0.834329 0.397804 0.000000
O O14 0.883717 0.931390 0.500000
O O15 0.982078 0.915536 0.694702
O O16 0.893236 0.024735 0.723403
O O17 0.602389 0.176409 0.500000
O O18 0.421301 0.392706 0.000000
#
# Coordination Sequence:
#
# PCOD9443475 Si02
#       7
#     8   8   8   8   8   8   8
#     4  11  23  40  61  87 120 158 201 251 305 363
#     4  11  23  39  64  96 123 152 199 255 305 358
#     4  10  20  36  59  87 116 151 197 244 295 352
#     4  11  24  42  63  85 119 161 198 246 305 366
#     4   9  18  34  55  82 115 154 194 234 291 354
#     4  10  21  39  63  90 121 159 202 247 302 364
#     4   9  18  32  55  85 115 148 192 242 288 344
#
# _framework density 18.533760999999998
#
# number of rings (size 3 to 8) (size 9 to 14) (size 15 to 20)
#    0.000    1.857    2.857    2.143    0.000    4.000 
#    2.571    1.429    0.000    0.000    0.000    0.000 
#    0.000    0.000    0.000    0.000    0.000    0.000 
#
# Total GULP energy -312579.004327 kJ/mol
# GULP energy per Si atom -5581.767934 kJ/mol
# Density = 1.849158 g / cm^3
# Si number density = 18.533761 Si / 1000 Ang^3
#
#
#
# Elastic Constant Matrix: (Units=GPa)
#
#
# Indices 1 2 3 4 5 6 
#
# 1 72.5020 31.5776 36.1262 0.0000 0.0000 0.0000
# 2 31.5776 134.5292 54.6266 0.0000 0.0000 0.0000
# 3 36.1262 54.6266 46.3227 0.0000 0.0000 0.0000
# 4 0.0000 0.0000 0.0000 25.8908 0.0000 0.0000
# 5 0.0000 0.0000 0.0000 0.0000 39.1299 0.0000
# 6 0.0000 0.0000 0.0000 0.0000 0.0000 18.9805
#
#
#
# Elastic Compliance Matrix: (Units=1/GPa)
#
#
# Indices 1 2 3 4 5 6 
#
# 1 0.023477 0.003692 -0.022663 0.000000 0.000000 0.000000
# 2 0.003692 0.014844 -0.020384 0.000000 0.000000 0.000000
# 3 -0.022663 -0.020384 0.063300 0.000000 0.000000 0.000000
# 4 0.000000 0.000000 0.000000 0.038624 0.000000 0.000000
# 5 0.000000 0.000000 0.000000 0.000000 0.025556 0.000000
# 6 0.000000 0.000000 0.000000 0.000000 0.000000 0.052686
#
#
# Mechanical properties :
#
#
# Convention : Reuss Voigt Hill
#
# Bulk Modulus (GPa) = 43.64742 55.33495 49.49119
# Shear Modulus (GPa) = 16.40241 25.53514 20.96877
#
# Velocity S-wave (km/s) = 2.97813 3.71585 3.36725
# Velocity P-wave (km/s) = 5.95206 6.95206 6.47140
#
# Compressibility (1/GPa) = 0.02291086
#
# Stress axis : x y z
#
# Youngs Moduli (GPa) = 42.59437 67.36837 15.79784
#
# Poissons Ratio (x) = -0.24870 0.35803
# Poissons Ratio (y) = -0.15725 0.32202
# Poissons Ratio (z) = 0.96531 1.37322
#
# Static dielectric constant tensor:
#      x y z
#    x 1.637990 0.000000 0.000000 
#    y 0.000000 1.637730 0.000000 
#    z 0.000000 0.000000 1.621280 
# 
# From -- ./inp_files/9077.got.cif
#   From: 2010.05.17/outbox.cif.g08.bks.cpg/sg58_5_cif.got.tgz:9077.got - 2010.06.03 14:20:14.
