data_PCOD9443685
_publ_section_title
;
Structure prediction by ZEFSAII (Michael W. Deem and Ramdas Pophale) SiO2 
 PCOD9443685
Probable space group: P N N M
;
_chemical_formula_sum "Si O2"
_cell_formula_units_Z 58
_cell_length_a 11.273719
_cell_length_b 27.906373
_cell_length_c 9.569273
_cell_angle_alpha 90.000000
_cell_angle_beta 90.000000
_cell_angle_gamma 90.000000
_cell_volume 3010.575653
_symmetry_space_group_name_H-M "P N N M"
_symmetry_group_IT_number 58
_symmetry_cell_setting 'orthorhombic'
loop_
_space_group_symop_operation_xyz
x,y,z
-x,-y,z
1/2+x,1/2-y,1/2-z
1/2-x,1/2+y,1/2-z
-x,-y,-z
x,y,-z
1/2-x,1/2+y,1/2+z
1/2+x,1/2-y,1/2+z
loop_
_atom_site_type_symbol
_atom_site_label
_atom_site_fract_x
_atom_site_fract_y
_atom_site_fract_z
Si Si1 0.617378 0.024386 0.213262
Si Si2 0.513867 0.599322 0.834650
Si Si3 0.744582 0.615698 0.660931
Si Si4 0.333435 0.152620 0.832672
Si Si5 0.804059 0.943653 0.837534
Si Si6 0.500000 0.000000 0.500000
Si Si7 0.081559 0.306234 0.669365
Si Si8 0.124118 0.198313 0.665634
O O1 0.648115 0.077465 0.164406
O O2 0.500000 0.000000 0.147958
O O3 0.732956 0.992506 0.182118
O O4 0.586066 0.022092 0.376491
O O5 0.639265 0.597125 0.757742
O O6 0.416847 0.565159 0.760849
O O7 0.465232 0.653846 0.814165
O O8 0.521193 0.589903 0.000000
O O9 0.703555 0.620369 0.500000
O O10 0.799865 0.665840 0.713059
O O11 0.291043 0.098467 0.803698
O O12 0.464550 0.165757 0.783115
O O13 0.239704 0.186096 0.754877
O O14 0.326996 0.159512 0.000000
O O15 0.839637 0.938457 0.000000
O O16 0.082128 0.308654 0.500000
O O17 0.076790 0.250481 0.707560
O O18 0.152312 0.199639 0.500000
#
# Coordination Sequence:
#
# PCOD9443685 Si02
#       8
#     8   8   8   8   8   2   8   8
#     4  10  22  39  63  87 121 154 193 239 293 351
#     4  10  23  38  59  83 120 160 197 243 296 355
#     4  11  23  39  60  88 118 153 195 249 295 349
#     4   9  18  34  57  82 108 142 188 237 286 338
#     4  10  20  37  61  87 115 153 199 244 285 345
#     4   8  24  40  58  90 124 156 178 248 290 352
#     4   9  19  35  57  81 114 150 188 237 296 346
#     4   9  19  37  55  80 112 152 192 235 288 349
#
# _framework density 19.265419000000001
#
# number of rings (size 3 to 8) (size 9 to 14) (size 15 to 20)
#    0.414    1.931    0.000    1.655    3.862    3.310 
#    0.000    3.448    0.000    0.000    0.000    0.000 
#    0.000    0.000    0.000    0.000    0.000    0.000 
#
# Total GULP energy -322947.583473 kJ/mol
# GULP energy per Si atom -5568.061784 kJ/mol
# Density = 1.922157 g / cm^3
# Si number density = 19.265419 Si / 1000 Ang^3
#
#
#
# Elastic Constant Matrix: (Units=GPa)
#
#
# Indices 1 2 3 4 5 6 
#
# 1 67.3180 8.9876 18.7094 0.0000 0.0000 0.0000
# 2 8.9876 49.3141 3.9746 0.0000 0.0000 0.0000
# 3 18.7094 3.9746 68.4190 0.0000 0.0000 0.0000
# 4 0.0000 0.0000 0.0000 -13.7801 0.0000 0.0000
# 5 0.0000 0.0000 0.0000 0.0000 35.4856 0.0000
# 6 0.0000 0.0000 0.0000 0.0000 0.0000 12.0816
#
#
#
# Elastic Compliance Matrix: (Units=1/GPa)
#
#
# Indices 1 2 3 4 5 6 
#
# 1 0.016412 -0.002642 -0.004335 0.000000 0.000000 0.000000
# 2 -0.002642 0.020799 -0.000486 0.000000 0.000000 0.000000
# 3 -0.004335 -0.000486 0.015829 0.000000 0.000000 0.000000
# 4 0.000000 0.000000 0.000000 -0.072568 0.000000 0.000000
# 5 0.000000 0.000000 0.000000 0.000000 0.028180 0.000000
# 6 0.000000 0.000000 0.000000 0.000000 0.000000 0.082770
#
#
# Mechanical properties :
#
#
# Convention : Reuss Voigt Hill
#
# Bulk Modulus (GPa) = 26.23564 27.59934 26.91749
# Shear Modulus (GPa) = 41.99829 16.98272 29.49050
#
# Velocity S-wave (km/s) = 4.67409 2.97225 3.91672
# Velocity P-wave (km/s) = 6.54042 5.11234 5.86997
#
# Compressibility (1/GPa) = 0.03811610
#
# Stress axis : x y z
#
# Youngs Moduli (GPa) = 60.93012 48.07970 63.17386
#
# Poissons Ratio (x) = 0.12702 0.27383
# Poissons Ratio (y) = 0.16097 0.03069
# Poissons Ratio (z) = 0.26410 0.02336
#
# Static dielectric constant tensor:
#      x y z
#    x 1.666400 0.000000 0.000000 
#    y 0.000000 1.714750 0.000000 
#    z 0.000000 0.000000 1.639810 
# 
# From -- ./inp_files/4572.got.cif
#   From: 2010.05.17/outbox.cif.g08.bks.cpg/sg58_3_cif.got.tgz:4572.got - 2010.06.03 14:20:14.
