data_PCOD9443553
_publ_section_title
;
Structure prediction by ZEFSAII (Michael W. Deem and Ramdas Pophale) SiO2 
 PCOD9443553
Probable space group: P N N M
;
_chemical_formula_sum "Si O2"
_cell_formula_units_Z 64
_cell_length_a 22.213417
_cell_length_b 7.494244
_cell_length_c 17.160427
_cell_angle_alpha 90.000000
_cell_angle_beta 90.000000
_cell_angle_gamma 90.000000
_cell_volume 2856.743767
_symmetry_space_group_name_H-M "P N N M"
_symmetry_group_IT_number 58
_symmetry_cell_setting 'orthorhombic'
loop_
_space_group_symop_operation_xyz
x,y,z
-x,-y,z
1/2+x,1/2-y,1/2-z
1/2-x,1/2+y,1/2-z
-x,-y,-z
x,y,-z
1/2-x,1/2+y,1/2+z
1/2+x,1/2-y,1/2+z
loop_
_atom_site_type_symbol
_atom_site_label
_atom_site_fract_x
_atom_site_fract_y
_atom_site_fract_z
Si Si1 0.242257 0.664036 0.667623
Si Si2 0.384005 0.139433 0.092744
Si Si3 0.387179 0.354255 0.363552
Si Si4 0.135169 0.216876 0.409646
Si Si5 0.567154 0.566059 0.195997
Si Si6 0.641090 0.260089 0.588390
Si Si7 0.514244 0.205762 0.586980
Si Si8 0.265242 0.242396 0.349100
O O1 0.181262 0.709187 0.621972
O O2 0.298769 0.776226 0.636211
O O3 0.256633 0.457162 0.650817
O O4 0.237019 0.682793 0.759735
O O5 0.431117 0.251870 0.144520
O O6 0.380978 0.925489 0.106710
O O7 0.391936 0.167753 0.000000
O O8 0.391575 0.403511 0.272171
O O9 0.368878 0.526411 0.412686
O O10 0.454969 0.297649 0.381563
O O11 0.333723 0.212347 0.378022
O O12 0.121866 0.183981 0.500000
O O13 0.206141 0.179348 0.394333
O O14 0.097077 0.087683 0.355637
O O15 0.500000 0.500000 0.217052
O O16 0.646424 0.190615 0.500000
O O17 0.578411 0.208215 0.629487
O O18 0.524874 0.279872 0.500000
O O19 0.500000 0.000000 0.580783
#
# Coordination Sequence:
#
# PCOD9443553 Si02
#       8
#     8   8   8   8   8   8   8   8
#     4  10  20  37  59  89 124 157 205 263 322 384
#     4  10  22  42  65  92 125 166 214 266 327 386
#     4  11  22  40  62  92 126 168 216 263 319 390
#     4  10  23  43  66  95 130 169 215 274 327 385
#     4  12  25  44  65  96 133 173 221 267 323 387
#     4  10  20  36  62  88 116 162 207 255 317 382
#     4  10  22  40  58  88 130 167 210 263 320 388
#     4  10  21  36  62  90 122 160 205 265 323 380
#
# _framework density 22.403129
#
# number of rings (size 3 to 8) (size 9 to 14) (size 15 to 20)
#    0.000    1.625    1.250    3.750    0.000    7.000 
#    4.500    1.250    0.000    0.000    0.000    0.000 
#    0.000    0.000    0.000    0.000    0.000    0.000 
#
# Total GULP energy -357439.802298 kJ/mol
# GULP energy per Si atom -5584.996911 kJ/mol
# Density = 2.235214 g / cm^3
# Si number density = 22.403129 Si / 1000 Ang^3
#
#
#
# Elastic Constant Matrix: (Units=GPa)
#
#
# Indices 1 2 3 4 5 6 
#
# 1 74.3518 1.8739 -9.6905 0.0000 0.0000 0.0000
# 2 1.8739 37.6246 11.2284 0.0000 0.0000 0.0000
# 3 -9.6905 11.2284 62.5032 0.0000 0.0000 0.0000
# 4 0.0000 0.0000 0.0000 31.1129 0.0000 0.0000
# 5 0.0000 0.0000 0.0000 0.0000 28.1907 0.0000
# 6 0.0000 0.0000 0.0000 0.0000 0.0000 30.9953
#
#
#
# Elastic Compliance Matrix: (Units=1/GPa)
#
#
# Indices 1 2 3 4 5 6 
#
# 1 0.013796 -0.001401 0.002391 0.000000 0.000000 0.000000
# 2 -0.001401 0.028226 -0.005288 0.000000 0.000000 0.000000
# 3 0.002391 -0.005288 0.017320 0.000000 0.000000 0.000000
# 4 0.000000 0.000000 0.000000 0.032141 0.000000 0.000000
# 5 0.000000 0.000000 0.000000 0.000000 0.035473 0.000000
# 6 0.000000 0.000000 0.000000 0.000000 0.000000 0.032263
#
#
# Mechanical properties :
#
#
# Convention : Reuss Voigt Hill
#
# Bulk Modulus (GPa) = 19.70568 20.14479 19.92523
# Shear Modulus (GPa) = 27.06649 29.46429 28.26539
#
# Velocity S-wave (km/s) = 3.47963 3.63048 3.55586
# Velocity P-wave (km/s) = 4.99588 5.15610 5.07662
#
# Compressibility (1/GPa) = 0.05074680
#
# Stress axis : x y z
#
# Youngs Moduli (GPa) = 72.48243 35.42812 57.73755
#
# Poissons Ratio (x) = 0.04962 -0.13803
# Poissons Ratio (y) = 0.10152 0.30531
# Poissons Ratio (z) = -0.17328 0.18734
#
# Static dielectric constant tensor:
#      x y z
#    x 1.942990 0.000000 0.000000 
#    y 0.000000 1.853920 0.000000 
#    z 0.000000 0.000000 1.808240 
# 
# From -- ./inp_files/27538.got.cif
#   From: 2010.05.17/outbox.cif.g08.bks.cpg/sg58_14_cif.got.tgz:27538.got - 2010.06.03 14:20:14.
