data_PCOD9443568
_publ_section_title
;
Structure prediction by ZEFSAII (Michael W. Deem and Ramdas Pophale) SiO2 
 PCOD9443568
Probable space group: P N N M
;
_chemical_formula_sum "Si O2"
_cell_formula_units_Z 32
_cell_length_a 9.673528
_cell_length_b 8.939981
_cell_length_c 16.022360
_cell_angle_alpha 90.000000
_cell_angle_beta 90.000000
_cell_angle_gamma 90.000000
_cell_volume 1385.632223
_symmetry_space_group_name_H-M "P N N M"
_symmetry_group_IT_number 58
_symmetry_cell_setting 'orthorhombic'
loop_
_space_group_symop_operation_xyz
x,y,z
-x,-y,z
1/2+x,1/2-y,1/2-z
1/2-x,1/2+y,1/2-z
-x,-y,-z
x,y,-z
1/2-x,1/2+y,1/2+z
1/2+x,1/2-y,1/2+z
loop_
_atom_site_type_symbol
_atom_site_label
_atom_site_fract_x
_atom_site_fract_y
_atom_site_fract_z
Si Si1 0.055440 0.166974 0.308793
Si Si2 0.319269 0.095248 0.772847
Si Si3 0.350564 0.432314 0.406554
Si Si4 0.797323 0.405669 0.090847
O O1 0.942112 0.295655 0.300881
O O2 0.181632 0.193112 0.245012
O O3 0.136160 0.141794 0.396259
O O4 0.000000 0.000000 0.290266
O O5 0.338789 0.023276 0.679976
O O6 0.269002 0.981244 0.843125
O O7 0.500000 0.500000 0.387988
O O8 0.310593 0.479588 0.500000
O O9 0.371317 0.254559 0.406735
O O10 0.819438 0.477859 0.000000
#
# Coordination Sequence:
#
# PCOD9443568 Si02
#       4
#     8   8   8   8
#     4  10  22  38  57  86 122 158 202 246 305 357
#     4  10  20  36  63  84 119 160 198 247 304 363
#     4  10  20  38  64  92 122 156 203 257 302 359
#     4   9  21  36  59  89 120 158 200 247 301 356
#
# _framework density 23.094151
#
# number of rings (size 3 to 8) (size 9 to 14) (size 15 to 20)
#    1.500    0.750    0.000    3.750    0.000    2.500 
#    0.000    2.500    0.000    0.000    0.000   12.250 
#    0.000    0.000    0.000    0.000    0.000    0.000 
#
# Total GULP energy -178212.835015 kJ/mol
# GULP energy per Si atom -5569.151094 kJ/mol
# Density = 2.304159 g / cm^3
# Si number density = 23.094151 Si / 1000 Ang^3
#
#
#
# Elastic Constant Matrix: (Units=GPa)
#
#
# Indices 1 2 3 4 5 6 
#
# 1 95.8706 9.5216 11.9031 0.0000 0.0000 0.0000
# 2 9.5216 36.3753 20.5246 0.0000 0.0000 0.0000
# 3 11.9031 20.5246 171.7446 0.0000 0.0000 0.0000
# 4 0.0000 0.0000 0.0000 21.8969 0.0000 0.0000
# 5 0.0000 0.0000 0.0000 0.0000 17.1027 0.0000
# 6 0.0000 0.0000 0.0000 0.0000 0.0000 24.5331
#
#
#
# Elastic Compliance Matrix: (Units=1/GPa)
#
#
# Indices 1 2 3 4 5 6 
#
# 1 0.010740 -0.002564 -0.000438 0.000000 0.000000 0.000000
# 2 -0.002564 0.030091 -0.003418 0.000000 0.000000 0.000000
# 3 -0.000438 -0.003418 0.006261 0.000000 0.000000 0.000000
# 4 0.000000 0.000000 0.000000 0.045669 0.000000 0.000000
# 5 0.000000 0.000000 0.000000 0.000000 0.058470 0.000000
# 6 0.000000 0.000000 0.000000 0.000000 0.000000 0.040761
#
#
# Mechanical properties :
#
#
# Convention : Reuss Voigt Hill
#
# Bulk Modulus (GPa) = 29.19578 43.09880 36.14729
# Shear Modulus (GPa) = 23.12131 30.17594 26.64863
#
# Velocity S-wave (km/s) = 3.16757 3.61868 3.40061
# Velocity P-wave (km/s) = 5.10368 6.01353 5.57719
#
# Compressibility (1/GPa) = 0.03425153
#
# Stress axis : x y z
#
# Youngs Moduli (GPa) = 93.11197 33.23231 159.70692
#
# Poissons Ratio (x) = 0.08521 0.06994
# Poissons Ratio (y) = 0.23875 0.54594
# Poissons Ratio (z) = 0.04077 0.11360
#
# Static dielectric constant tensor:
#      x y z
#    x 1.907500 0.000000 0.000000 
#    y 0.000000 1.894950 0.000000 
#    z 0.000000 0.000000 1.944070 
# 
# From -- ./inp_files/19174.got.cif
#   From: 2010.05.17/outbox.cif.g08.bks.cpg/sg58_10_cif.got.tgz:19174.got - 2010.06.03 14:20:14.
