data_PCOD9443674
_publ_section_title
;
Structure prediction by ZEFSAII (Michael W. Deem and Ramdas Pophale) SiO2 
 PCOD9443674
Probable space group: P N N M
;
_chemical_formula_sum "Si O2"
_cell_formula_units_Z 48
_cell_length_a 20.348200
_cell_length_b 14.419106
_cell_length_c 9.102916
_cell_angle_alpha 90.000000
_cell_angle_beta 90.000000
_cell_angle_gamma 90.000000
_cell_volume 2670.821522
_symmetry_space_group_name_H-M "P N N M"
_symmetry_group_IT_number 58
_symmetry_cell_setting 'orthorhombic'
loop_
_space_group_symop_operation_xyz
x,y,z
-x,-y,z
1/2+x,1/2-y,1/2-z
1/2-x,1/2+y,1/2-z
-x,-y,-z
x,y,-z
1/2-x,1/2+y,1/2+z
1/2+x,1/2-y,1/2+z
loop_
_atom_site_type_symbol
_atom_site_label
_atom_site_fract_x
_atom_site_fract_y
_atom_site_fract_z
Si Si1 0.606558 0.257133 0.822810
Si Si2 0.568370 0.447878 0.675502
Si Si3 0.762014 0.242994 0.176936
Si Si4 0.684618 0.559935 0.170988
Si Si5 0.817449 0.440530 0.829475
Si Si6 0.566712 0.050802 0.823079
O O1 0.574118 0.345913 0.746650
O O2 0.684542 0.252739 0.786019
O O3 0.574303 0.158719 0.779031
O O4 0.601826 0.267300 0.000000
O O5 0.500000 0.500000 0.707284
O O6 0.575540 0.440297 0.500000
O O7 0.626516 0.509704 0.742833
O O8 0.794386 0.156196 0.256262
O O9 0.801054 0.336092 0.217438
O O10 0.765229 0.231761 0.000000
O O11 0.748823 0.495061 0.177852
O O12 0.666728 0.571662 0.000000
O O13 0.871595 0.493305 0.736023
O O14 0.838555 0.439226 0.000000
O O15 0.500000 0.000000 0.774040
O O16 0.568087 0.049798 0.000000
#
# Coordination Sequence:
#
# PCOD9443674 Si02
#       6
#     8   8   8   8   8   8
#     4  10  20  38  62  87 120 160 198 247 304 355
#     4  11  25  42  61  88 122 160 203 250 304 364
#     4  10  20  37  60  89 123 158 196 246 301 349
#     4  11  22  38  61  91 119 152 202 248 295 358
#     4  10  21  37  58  86 118 151 197 244 291 352
#     4  10  22  39  60  88 121 156 198 242 293 355
#
# _framework density 17.971997999999999
#
# number of rings (size 3 to 8) (size 9 to 14) (size 15 to 20)
#    0.000    1.667    3.333    1.000    0.000    5.667 
#    0.000    3.333    0.000    0.000    0.000    0.000 
#    0.000    0.000    0.000    0.000    0.000    0.000 
#
# Total GULP energy -268079.251386 kJ/mol
# GULP energy per Si atom -5584.984404 kJ/mol
# Density = 1.793109 g / cm^3
# Si number density = 17.971998 Si / 1000 Ang^3
#
#
#
# Elastic Constant Matrix: (Units=GPa)
#
#
# Indices 1 2 3 4 5 6 
#
# 1 111.0309 70.9449 49.6457 0.0000 0.0000 0.0000
# 2 70.9449 185.4818 60.5198 0.0000 0.0000 0.0000
# 3 49.6457 60.5198 39.0774 0.0000 0.0000 0.0000
# 4 0.0000 0.0000 0.0000 30.3863 0.0000 0.0000
# 5 0.0000 0.0000 0.0000 0.0000 28.4883 0.0000
# 6 0.0000 0.0000 0.0000 0.0000 0.0000 26.3135
#
#
#
# Elastic Compliance Matrix: (Units=1/GPa)
#
#
# Indices 1 2 3 4 5 6 
#
# 1 0.021020 0.001361 -0.028813 0.000000 0.000000 0.000000
# 2 0.001361 0.010987 -0.018745 0.000000 0.000000 0.000000
# 3 -0.028813 -0.018745 0.091226 0.000000 0.000000 0.000000
# 4 0.000000 0.000000 0.000000 0.032910 0.000000 0.000000
# 5 0.000000 0.000000 0.000000 0.000000 0.035102 0.000000
# 6 0.000000 0.000000 0.000000 0.000000 0.000000 0.038003
#
#
# Mechanical properties :
#
#
# Convention : Reuss Voigt Hill
#
# Bulk Modulus (GPa) = 32.42570 77.53456 54.98013
# Shear Modulus (GPa) = 15.06380 27.33625 21.20003
#
# Velocity S-wave (km/s) = 2.89828 3.90429 3.43828
# Velocity P-wave (km/s) = 5.41124 7.97246 6.81329
#
# Compressibility (1/GPa) = 0.03083973
#
# Stress axis : x y z
#
# Youngs Moduli (GPa) = 47.57390 91.01748 10.96175
#
# Poissons Ratio (x) = -0.12390 0.31584
# Poissons Ratio (y) = -0.06476 0.20548
# Poissons Ratio (z) = 1.37075 1.70613
#
# Static dielectric constant tensor:
#      x y z
#    x 1.585190 0.000000 0.000000 
#    y 0.000000 1.614710 0.000000 
#    z 0.000000 0.000000 1.603020 
# 
# From -- ./inp_files/5912.got.cif
#   From: 2010.05.17/outbox.cif.g08.bks.cpg/sg58_3_cif.got.tgz:5912.got - 2010.06.03 14:20:14.
