data_PCOD9443062
_publ_section_title
;
Structure prediction by ZEFSAII (Michael W. Deem and Ramdas Pophale) SiO2 
 PCOD9443062
Probable space group: P N N M
;
_chemical_formula_sum "Si O2"
_cell_formula_units_Z 40
_cell_length_a 26.588223
_cell_length_b 7.176510
_cell_length_c 10.582488
_cell_angle_alpha 90.000000
_cell_angle_beta 90.000000
_cell_angle_gamma 90.000000
_cell_volume 2019.251395
_symmetry_space_group_name_H-M "P N N M"
_symmetry_group_IT_number 58
_symmetry_cell_setting 'orthorhombic'
loop_
_space_group_symop_operation_xyz
x,y,z
-x,-y,z
1/2+x,1/2-y,1/2-z
1/2-x,1/2+y,1/2-z
-x,-y,-z
x,y,-z
1/2-x,1/2+y,1/2+z
1/2+x,1/2-y,1/2+z
loop_
_atom_site_type_symbol
_atom_site_label
_atom_site_fract_x
_atom_site_fract_y
_atom_site_fract_z
Si Si1 0.555608 0.561451 0.348116
Si Si2 0.189952 0.246702 0.500000
Si Si3 0.666119 0.829476 0.000000
Si Si4 0.695684 0.811194 0.500000
Si Si5 0.646515 0.299532 0.265442
Si Si6 0.715866 0.252014 0.500000
Si Si7 0.124977 0.645401 0.768095
O O1 0.500000 0.500000 0.308470
O O2 0.558225 0.551459 0.500000
O O3 0.597789 0.423119 0.292762
O O4 0.571301 0.769197 0.305415
O O5 0.164281 0.447006 0.500000
O O6 0.249751 0.280257 0.500000
O O7 0.172078 0.155739 0.369393
O O8 0.724731 0.779321 0.000000
O O9 0.640179 0.777352 0.131063
O O10 0.663176 0.776748 0.625166
O O11 0.707136 0.031015 0.500000
O O12 0.687771 0.327657 0.375753
O O13 0.630546 0.079285 0.270076
#
# Coordination Sequence:
#
# PCOD9443062 Si02
#       7
#     8   4   4   4   8   4   8
#     4  11  24  41  67  91 111 157 207 253 310 346
#     4  10  22  36  58  87 123 166 194 232 303 356
#     4  10  22  36  58  87 123 166 194 232 303 356
#     4  10  20  34  56  87 121 164 198 236 293 346
#     4  10  22  40  58  88 125 154 198 250 292 356
#     4  10  20  34  56  87 121 164 198 236 293 346
#     4  10  22  40  58  88 125 154 198 250 292 356
#
# _framework density 19.809321000000001
#
# number of rings (size 3 to 8) (size 9 to 14) (size 15 to 20)
#    0.000    1.800    2.000    1.200    5.600    0.800 
#    0.000    4.000    0.000    3.600    0.000    0.000 
#    0.000    0.000    0.000    0.000    0.000    0.000 
#
# Total GULP energy -223421.726340 kJ/mol
# GULP energy per Si atom -5585.543159 kJ/mol
# Density = 1.976423 g / cm^3
# Si number density = 19.809321 Si / 1000 Ang^3
#
#
#
# Elastic Constant Matrix: (Units=GPa)
#
#
# Indices 1 2 3 4 5 6 
#
# 1 73.5663 -5.3483 35.2652 0.0000 0.0000 0.0000
# 2 -5.3483 52.6277 5.7172 0.0000 0.0000 0.0000
# 3 35.2652 5.7172 151.1390 0.0000 0.0000 0.0000
# 4 0.0000 0.0000 0.0000 -2.3532 0.0000 0.0000
# 5 0.0000 0.0000 0.0000 0.0000 -6.0286 0.0000
# 6 0.0000 0.0000 0.0000 0.0000 0.0000 27.9604
#
#
#
# Elastic Compliance Matrix: (Units=1/GPa)
#
#
# Indices 1 2 3 4 5 6 
#
# 1 0.015507 0.001977 -0.003693 0.000000 0.000000 0.000000
# 2 0.001977 0.019332 -0.001193 0.000000 0.000000 0.000000
# 3 -0.003693 -0.001193 0.007523 0.000000 0.000000 0.000000
# 4 0.000000 0.000000 0.000000 -0.424946 0.000000 0.000000
# 5 0.000000 0.000000 0.000000 0.000000 -0.165875 0.000000
# 6 0.000000 0.000000 0.000000 0.000000 0.000000 0.035765
#
#
# Mechanical properties :
#
#
# Convention : Reuss Voigt Hill
#
# Bulk Modulus (GPa) = 27.36334 38.73349 33.04841
# Shear Modulus (GPa) = -10.10723 20.02897 4.96087
#
# Velocity S-wave (km/s) = -2.26127 3.18321 1.58422
# Velocity P-wave (km/s) = 2.65058 5.75379 4.47949
#
# Compressibility (1/GPa) = 0.03654525
#
# Stress axis : x y z
#
# Youngs Moduli (GPa) = 64.48590 51.72804 132.92133
#
# Poissons Ratio (x) = -0.10227 0.49089
# Poissons Ratio (y) = -0.12750 0.15852
# Poissons Ratio (z) = 0.23815 0.06169
#
# Static dielectric constant tensor:
#      x y z
#    x 1.654640 0.000000 0.000000 
#    y 0.000000 1.748270 0.000000 
#    z 0.000000 0.000000 1.704590 
# 
# From -- ./inp_files/16916.got.cif
#   From: 2010.05.17/outbox.cif.g08.bks.cpg/sg58_9_cif.got.tgz:16916.got - 2010.06.03 14:20:14.
