data_PCOD9443922
_publ_section_title
;
Structure prediction by ZEFSAII (Michael W. Deem and Ramdas Pophale) SiO2 
 PCOD9443922
Probable space group: P N N M
;
_chemical_formula_sum "Si O2"
_cell_formula_units_Z 34
_cell_length_a 7.596882
_cell_length_b 23.484265
_cell_length_c 7.701543
_cell_angle_alpha 90.000000
_cell_angle_beta 90.000000
_cell_angle_gamma 90.000000
_cell_volume 1374.010646
_symmetry_space_group_name_H-M "P N N M"
_symmetry_group_IT_number 58
_symmetry_cell_setting 'orthorhombic'
loop_
_space_group_symop_operation_xyz
x,y,z
-x,-y,z
1/2+x,1/2-y,1/2-z
1/2-x,1/2+y,1/2-z
-x,-y,-z
x,y,-z
1/2-x,1/2+y,1/2+z
1/2+x,1/2-y,1/2+z
loop_
_atom_site_type_symbol
_atom_site_label
_atom_site_fract_x
_atom_site_fract_y
_atom_site_fract_z
Si Si1 0.360044 0.198181 0.296927
Si Si2 0.061237 0.060396 0.207334
Si Si3 0.470443 0.321598 0.793091
Si Si4 0.529297 0.916500 0.202022
Si Si5 0.000000 0.500000 0.000000
O O1 0.362975 0.184749 0.500000
O O2 0.378566 0.265561 0.276857
O O3 0.168702 0.185088 0.221459
O O4 0.493638 0.152201 0.215814
O O5 0.932853 0.112854 0.252506
O O6 0.264175 0.072665 0.258260
O O7 0.063772 0.056835 0.000000
O O8 0.000000 0.000000 0.280006
O O9 0.469616 0.315360 0.000000
O O10 0.435449 0.954855 0.344651
O O11 0.501719 0.932513 0.000000
#
# Coordination Sequence:
#
# PCOD9443922 Si02
#       5
#     8   8   8   8   2
#     4  10  20  39  60  85 118 155 198 248 297 353
#     4   9  19  38  61  85 114 153 197 245 300 356
#     4  10  21  36  59  87 116 154 198 244 301 356
#     4  10  21  39  62  84 121 160 194 244 300 350
#     4  12  22  40  58  90 116 164 200 234 298 356
#
# _framework density 24.745080000000002
#
# number of rings (size 3 to 8) (size 9 to 14) (size 15 to 20)
#    0.000    2.118    1.176    1.765    1.647    3.294 
#    4.235    0.000    0.000    0.000    0.000    0.000 
#    0.000    0.000    0.000    0.000    0.000    0.000 
#
# Total GULP energy -189310.627147 kJ/mol
# GULP energy per Si atom -5567.959622 kJ/mol
# Density = 2.468876 g / cm^3
# Si number density = 24.745080 Si / 1000 Ang^3
#
#
#
# Elastic Constant Matrix: (Units=GPa)
#
#
# Indices 1 2 3 4 5 6 
#
# 1 17.2643 29.4331 -2.6309 0.0000 0.0000 0.0000
# 2 29.4331 203.9320 32.2399 0.0000 0.0000 0.0000
# 3 -2.6309 32.2399 86.2171 0.0000 0.0000 0.0000
# 4 0.0000 0.0000 0.0000 34.5697 0.0000 0.0000
# 5 0.0000 0.0000 0.0000 0.0000 3.2957 0.0000
# 6 0.0000 0.0000 0.0000 0.0000 0.0000 31.4335
#
#
#
# Elastic Compliance Matrix: (Units=1/GPa)
#
#
# Indices 1 2 3 4 5 6 
#
# 1 0.080891 -0.012823 0.007263 0.000000 0.000000 0.000000
# 2 -0.012823 0.007244 -0.003100 0.000000 0.000000 0.000000
# 3 0.007263 -0.003100 0.012980 0.000000 0.000000 0.000000
# 4 0.000000 0.000000 0.000000 0.028927 0.000000 0.000000
# 5 0.000000 0.000000 0.000000 0.000000 0.303422 0.000000
# 6 0.000000 0.000000 0.000000 0.000000 0.000000 0.031813
#
#
# Mechanical properties :
#
#
# Convention : Reuss Voigt Hill
#
# Bulk Modulus (GPa) = 11.93383 47.27750 29.60567
# Shear Modulus (GPa) = 9.79376 30.41787 20.10582
#
# Velocity S-wave (km/s) = 1.99160 3.50987 2.85356
# Velocity P-wave (km/s) = 3.18148 5.96430 4.77989
#
# Compressibility (1/GPa) = 0.08379541
#
# Stress axis : x y z
#
# Youngs Moduli (GPa) = 12.36226 138.03642 77.04403
#
# Poissons Ratio (x) = 1.77006 -0.55961
# Poissons Ratio (y) = 0.15852 0.23886
# Poissons Ratio (z) = -0.08979 0.42795
#
# Static dielectric constant tensor:
#      x y z
#    x 2.083840 0.000000 0.000000 
#    y 0.000000 2.117520 0.000000 
#    z 0.000000 0.000000 1.885610 
# 
# From -- ./inp_files/2235.got.cif
#   From: 2010.05.17/outbox.cif.g08.bks.cpg/sg58_2_cif.got.tgz:2235.got - 2010.06.03 14:20:14.
