data_PCOD9443978
_publ_section_title
;
Structure prediction by ZEFSAII (Michael W. Deem and Ramdas Pophale) SiO2 
 PCOD9443978
Probable space group: P N N M
;
_chemical_formula_sum "Si O2"
_cell_formula_units_Z 44
_cell_length_a 15.484788
_cell_length_b 15.618728
_cell_length_c 9.793520
_cell_angle_alpha 90.000000
_cell_angle_beta 90.000000
_cell_angle_gamma 90.000000
_cell_volume 2368.589175
_symmetry_space_group_name_H-M "P N N M"
_symmetry_group_IT_number 58
_symmetry_cell_setting 'orthorhombic'
loop_
_space_group_symop_operation_xyz
x,y,z
-x,-y,z
1/2+x,1/2-y,1/2-z
1/2-x,1/2+y,1/2-z
-x,-y,-z
x,y,-z
1/2-x,1/2+y,1/2+z
1/2+x,1/2-y,1/2+z
loop_
_atom_site_type_symbol
_atom_site_label
_atom_site_fract_x
_atom_site_fract_y
_atom_site_fract_z
Si Si1 0.701701 0.750259 0.500000
Si Si2 0.995984 0.628824 0.342451
Si Si3 0.255166 0.426649 0.500000
Si Si4 0.586081 0.562081 0.000000
Si Si5 0.641995 0.005489 0.763865
Si Si6 0.537920 0.591940 0.500000
Si Si7 0.929216 0.194428 0.754546
Si Si8 0.242979 0.553559 0.000000
O O1 0.770177 0.673462 0.500000
O O2 0.644827 0.733908 0.640492
O O3 0.744024 0.843186 0.500000
O O4 0.969820 0.618639 0.500000
O O5 0.079487 0.569087 0.318735
O O6 0.021894 0.725190 0.309421
O O7 0.919842 0.588444 0.251759
O O8 0.216598 0.472441 0.630104
O O9 0.358432 0.422930 0.500000
O O10 0.500000 0.500000 0.000000
O O11 0.592525 0.625983 0.866433
O O12 0.666235 0.496046 0.000000
O O13 0.687110 0.975764 0.628278
O O14 0.500000 0.500000 0.500000
O O15 0.513837 0.643166 0.635556
#
# Coordination Sequence:
#
# PCOD9443978 Si02
#       8
#     4   8   4   4   8   4   8   4
#     4  10  22  39  61  90 125 168 202 255 334 357
#     4  11  20  38  67  92 124 164 202 246 316 392
#     4  10  20  40  61  82 123 166 203 249 296 391
#     4  12  26  43  64  93 127 172 213 266 311 369
#     4  11  22  37  63  95 122 158 206 250 317 367
#     4  10  22  41  65  84 118 170 212 247 315 359
#     4  10  21  40  65  87 127 166 204 259 317 367
#     4  12  24  39  62  96 130 156 211 273 308 370
#
# _framework density 18.576459
#
# number of rings (size 3 to 8) (size 9 to 14) (size 15 to 20)
#    0.000    1.455    4.545    3.273    0.000    4.364 
#    0.000    0.000    4.000    0.000    0.000    0.000 
#    0.000    0.000    0.000    0.000    0.000    0.000 
#
# Total GULP energy -245209.949455 kJ/mol
# GULP energy per Si atom -5572.953397 kJ/mol
# Density = 1.853418 g / cm^3
# Si number density = 18.576459 Si / 1000 Ang^3
#
#
#
# Elastic Constant Matrix: (Units=GPa)
#
#
# Indices 1 2 3 4 5 6 
#
# 1 70.0676 43.5346 17.3285 0.0000 0.0000 0.0000
# 2 43.5346 149.7646 52.3192 0.0000 0.0000 0.0000
# 3 17.3285 52.3192 114.0204 0.0000 0.0000 0.0000
# 4 0.0000 0.0000 0.0000 29.0329 0.0000 0.0000
# 5 0.0000 0.0000 0.0000 0.0000 2.8391 0.0000
# 6 0.0000 0.0000 0.0000 0.0000 0.0000 32.2081
#
#
#
# Elastic Compliance Matrix: (Units=1/GPa)
#
#
# Indices 1 2 3 4 5 6 
#
# 1 0.017432 -0.004932 -0.000386 0.000000 0.000000 0.000000
# 2 -0.004932 0.009347 -0.003540 0.000000 0.000000 0.000000
# 3 -0.000386 -0.003540 0.010453 0.000000 0.000000 0.000000
# 4 0.000000 0.000000 0.000000 0.034444 0.000000 0.000000
# 5 0.000000 0.000000 0.000000 0.000000 0.352221 0.000000
# 6 0.000000 0.000000 0.000000 0.000000 0.000000 0.031048
#
#
# Mechanical properties :
#
#
# Convention : Reuss Voigt Hill
#
# Bulk Modulus (GPa) = 51.23802 62.24632 56.74217
# Shear Modulus (GPa) = 10.43478 27.52738 18.98108
#
# Velocity S-wave (km/s) = 2.37264 3.85365 3.20000
# Velocity P-wave (km/s) = 5.92857 7.30628 6.65318
#
# Compressibility (1/GPa) = 0.01951676
#
# Stress axis : x y z
#
# Youngs Moduli (GPa) = 57.36569 106.98111 95.66476
#
# Poissons Ratio (x) = 0.52768 0.03693
# Poissons Ratio (y) = 0.28295 0.33861
# Poissons Ratio (z) = 0.02214 0.37866
#
# Static dielectric constant tensor:
#      x y z
#    x 1.640930 0.000000 0.000000 
#    y 0.000000 1.663600 0.000000 
#    z 0.000000 0.000000 1.644780 
# 
# From -- ./inp_files/7710.got.cif
#   From: 2010.05.17/outbox.cif.g08.bks.cpg/sg58_4_cif.got.tgz:7710.got - 2010.06.03 14:20:14.
