data_PCOD9443662
_publ_section_title
;
Structure prediction by ZEFSAII (Michael W. Deem and Ramdas Pophale) SiO2 
 PCOD9443662
Probable space group: P N N M
;
_chemical_formula_sum "Si O2"
_cell_formula_units_Z 64
_cell_length_a 16.604491
_cell_length_b 20.015463
_cell_length_c 10.278873
_cell_angle_alpha 90.000000
_cell_angle_beta 90.000000
_cell_angle_gamma 90.000000
_cell_volume 3416.148239
_symmetry_space_group_name_H-M "P N N M"
_symmetry_group_IT_number 58
_symmetry_cell_setting 'orthorhombic'
loop_
_space_group_symop_operation_xyz
x,y,z
-x,-y,z
1/2+x,1/2-y,1/2-z
1/2-x,1/2+y,1/2-z
-x,-y,-z
x,y,-z
1/2-x,1/2+y,1/2+z
1/2+x,1/2-y,1/2+z
loop_
_atom_site_type_symbol
_atom_site_label
_atom_site_fract_x
_atom_site_fract_y
_atom_site_fract_z
Si Si1 0.436653 0.088698 0.145236
Si Si2 0.246192 0.784223 0.852347
Si Si3 0.516475 0.420380 0.854799
Si Si4 0.123988 0.385633 0.353066
Si Si5 0.377994 0.406719 0.651859
Si Si6 0.687468 0.449636 0.252130
Si Si7 0.780830 0.327200 0.359056
Si Si8 0.650998 0.002858 0.649852
O O1 0.527976 0.112096 0.155458
O O2 0.373032 0.148491 0.148418
O O3 0.410864 0.040828 0.263159
O O4 0.427363 0.056711 0.000000
O O5 0.336094 0.813498 0.842494
O O6 0.187363 0.847891 0.828425
O O7 0.234716 0.724714 0.753714
O O8 0.231129 0.761736 0.000000
O O9 0.500000 0.500000 0.860764
O O10 0.453727 0.394760 0.747160
O O11 0.609607 0.416263 0.813792
O O12 0.502728 0.392798 0.000000
O O13 0.147668 0.409888 0.500000
O O14 0.156601 0.430225 0.235377
O O15 0.401911 0.406243 0.500000
O O16 0.341378 0.480411 0.683318
O O17 0.727728 0.394455 0.344889
O O18 0.760995 0.468748 0.156679
O O19 0.765346 0.296539 0.500000
O O20 0.626867 0.011700 0.500000
#
# Coordination Sequence:
#
# PCOD9443662 Si02
#       8
#     8   8   8   8   8   8   8   8
#     4   9  20  38  59  81 112 153 194 232 278 342
#     4  10  22  40  60  83 115 154 191 234 289 349
#     4   9  19  34  54  84 118 149 188 238 291 343
#     4  10  20  38  60  82 112 153 197 230 275 346
#     4  10  20  37  61  86 112 149 194 240 288 342
#     4  10  20  37  60  85 117 153 196 233 284 345
#     4  10  22  39  60  86 116 151 194 241 287 338
#     4  11  21  32  55  90 123 149 184 237 291 334
#
# _framework density 18.734549999999999
#
# number of rings (size 3 to 8) (size 9 to 14) (size 15 to 20)
#    0.000    2.125    1.250    1.500    0.000    9.750 
#    2.250    0.000    0.000    0.000    0.000    0.000 
#    0.000    0.000    0.000    0.000    0.000    0.000 
#
# Total GULP energy -356858.756771 kJ/mol
# GULP energy per Si atom -5575.918075 kJ/mol
# Density = 1.869191 g / cm^3
# Si number density = 18.734550 Si / 1000 Ang^3
#
#
#
# Elastic Constant Matrix: (Units=GPa)
#
#
# Indices 1 2 3 4 5 6 
#
# 1 102.4574 19.5300 53.4976 0.0000 0.0000 0.0000
# 2 19.5300 64.7277 53.3870 0.0000 0.0000 0.0000
# 3 53.4976 53.3870 159.6144 0.0000 0.0000 0.0000
# 4 0.0000 0.0000 0.0000 21.3003 0.0000 0.0000
# 5 0.0000 0.0000 0.0000 0.0000 43.0495 0.0000
# 6 0.0000 0.0000 0.0000 0.0000 0.0000 12.4563
#
#
#
# Elastic Compliance Matrix: (Units=1/GPa)
#
#
# Indices 1 2 3 4 5 6 
#
# 1 0.011839 -0.000413 -0.003830 0.000000 0.000000 0.000000
# 2 -0.000413 0.021350 -0.007002 0.000000 0.000000 0.000000
# 3 -0.003830 -0.007002 0.009891 0.000000 0.000000 0.000000
# 4 0.000000 0.000000 0.000000 0.046948 0.000000 0.000000
# 5 0.000000 0.000000 0.000000 0.000000 0.023229 0.000000
# 6 0.000000 0.000000 0.000000 0.000000 0.000000 0.080281
#
#
# Mechanical properties :
#
#
# Convention : Reuss Voigt Hill
#
# Bulk Modulus (GPa) = 48.57144 64.40318 56.48731
# Shear Modulus (GPa) = 22.43264 28.72022 25.57643
#
# Velocity S-wave (km/s) = 3.46409 3.91961 3.69887
# Velocity P-wave (km/s) = 6.47938 7.41187 6.96125
#
# Compressibility (1/GPa) = 0.02058823
#
# Stress axis : x y z
#
# Youngs Moduli (GPa) = 84.46956 46.83947 101.10418
#
# Poissons Ratio (x) = 0.01936 0.38720
# Poissons Ratio (y) = 0.03491 0.70797
# Poissons Ratio (z) = 0.32349 0.32799
#
# Static dielectric constant tensor:
#      x y z
#    x 1.665790 0.000000 0.000000 
#    y 0.000000 1.640970 0.000000 
#    z 0.000000 0.000000 1.658720 
# 
# From -- ./inp_files/8326.got.cif
#   From: 2010.05.17/outbox.cif.g08.bks.cpg/sg58_5_cif.got.tgz:8326.got - 2010.06.03 14:20:14.
