data_PCOD9443499
_publ_section_title
;
Structure prediction by ZEFSAII (Michael W. Deem and Ramdas Pophale) SiO2 
 PCOD9443499
Probable space group: P N N M
;
_chemical_formula_sum "Si O2"
_cell_formula_units_Z 64
_cell_length_a 17.888022
_cell_length_b 21.776253
_cell_length_c 8.826053
_cell_angle_alpha 90.000000
_cell_angle_beta 90.000000
_cell_angle_gamma 90.000000
_cell_volume 3438.048548
_symmetry_space_group_name_H-M "P N N M"
_symmetry_group_IT_number 58
_symmetry_cell_setting 'orthorhombic'
loop_
_space_group_symop_operation_xyz
x,y,z
-x,-y,z
1/2+x,1/2-y,1/2-z
1/2-x,1/2+y,1/2-z
-x,-y,-z
x,y,-z
1/2-x,1/2+y,1/2+z
1/2+x,1/2-y,1/2+z
loop_
_atom_site_type_symbol
_atom_site_label
_atom_site_fract_x
_atom_site_fract_y
_atom_site_fract_z
Si Si1 0.034682 0.706719 0.317313
Si Si2 0.450090 0.559704 0.318410
Si Si3 0.211423 0.037666 0.320444
Si Si4 0.154835 0.602915 0.322386
Si Si5 0.431200 0.338860 0.683011
Si Si6 0.912948 0.510536 0.168463
Si Si7 0.724473 0.597769 0.681747
Si Si8 0.883780 0.639797 0.681570
O O1 0.036919 0.709503 0.500000
O O2 0.095998 0.655059 0.270558
O O3 0.058221 0.771512 0.249184
O O4 0.949069 0.687886 0.275181
O O5 0.500000 0.500000 0.285105
O O6 0.439007 0.561636 0.500000
O O7 0.370597 0.552946 0.241044
O O8 0.498911 0.618446 0.272322
O O9 0.210289 0.034728 0.500000
O O10 0.267744 0.091209 0.264740
O O11 0.233795 0.969741 0.256094
O O12 0.169322 0.611867 0.500000
O O13 0.115299 0.538091 0.290125
O O14 0.429623 0.335859 0.500000
O O15 0.353694 0.371677 0.730314
O O16 0.902194 0.578364 0.228316
O O17 0.000000 0.500000 0.154159
O O18 0.878908 0.501071 0.000000
O O19 0.721331 0.587476 0.500000
O O20 0.794363 0.644001 0.710552
O O21 0.891653 0.630792 0.500000
#
# Coordination Sequence:
#
# PCOD9443499 Si02
#       8
#     8   8   8   8   8   8   8   8
#     4  10  23  41  60  85 119 164 211 250 295 360
#     4  10  20  40  67  90 118 156 199 242 297 370
#     4  12  24  36  58  96 128 151 191 252 313 353
#     4  11  22  38  59  82 119 167 206 241 295 366
#     4  10  22  41  65  88 115 160 206 247 302 362
#     4  11  21  31  51  86 121 150 191 249 300 342
#     4  10  20  38  63  89 118 156 195 241 302 370
#     4  10  20  36  60  85 115 158 203 241 295 368
#
# _framework density 18.615212
#
# number of rings (size 3 to 8) (size 9 to 14) (size 15 to 20)
#    0.000    1.500    3.750    1.875    0.000    3.250 
#    2.250    0.000    0.000    0.000    0.000    0.000 
#    0.000    0.000    0.000    0.000    0.000    0.000 
#
# Total GULP energy -356942.453092 kJ/mol
# GULP energy per Si atom -5577.225830 kJ/mol
# Density = 1.857284 g / cm^3
# Si number density = 18.615212 Si / 1000 Ang^3
#
#
#
# Elastic Constant Matrix: (Units=GPa)
#
#
# Indices 1 2 3 4 5 6 
#
# 1 154.7973 46.0985 39.4380 0.0000 0.0000 0.0000
# 2 46.0985 96.0296 24.8153 0.0000 0.0000 0.0000
# 3 39.4380 24.8153 20.6630 0.0000 0.0000 0.0000
# 4 0.0000 0.0000 0.0000 38.8233 0.0000 0.0000
# 5 0.0000 0.0000 0.0000 0.0000 105.4676 0.0000
# 6 0.0000 0.0000 0.0000 0.0000 0.0000 21.2748
#
#
#
# Elastic Compliance Matrix: (Units=1/GPa)
#
#
# Indices 1 2 3 4 5 6 
#
# 1 0.012578 0.000240 -0.024296 0.000000 0.000000 0.000000
# 2 0.000240 0.015104 -0.018598 0.000000 0.000000 0.000000
# 3 -0.024296 -0.018598 0.117102 0.000000 0.000000 0.000000
# 4 0.000000 0.000000 0.000000 0.025758 0.000000 0.000000
# 5 0.000000 0.000000 0.000000 0.000000 0.009482 0.000000
# 6 0.000000 0.000000 0.000000 0.000000 0.000000 0.047004
#
#
# Mechanical properties :
#
#
# Convention : Reuss Voigt Hill
#
# Bulk Modulus (GPa) = 16.81294 54.68816 35.75055
# Shear Modulus (GPa) = 15.05294 43.85569 29.45431
#
# Velocity S-wave (km/s) = 2.84674 4.85903 3.98209
# Velocity P-wave (km/s) = 4.45608 7.80527 6.35527
#
# Compressibility (1/GPa) = 0.05947801
#
# Stress axis : x y z
#
# Youngs Moduli (GPa) = 79.50096 66.20751 8.53954
#
# Poissons Ratio (x) = -0.01590 0.20748
# Poissons Ratio (y) = -0.01909 0.15881
# Poissons Ratio (z) = 1.93156 1.23130
#
# Static dielectric constant tensor:
#      x y z
#    x 1.701110 0.000000 0.000000 
#    y 0.000000 1.609030 0.000000 
#    z 0.000000 0.000000 1.633020 
# 
# From -- ./inp_files/8372.got.cif
#   From: 2010.05.17/outbox.cif.g08.bks.cpg/sg58_5_cif.got.tgz:8372.got - 2010.06.03 14:20:14.
