data_PCOD9443359
_publ_section_title
;
Structure prediction by ZEFSAII (Michael W. Deem and Ramdas Pophale) SiO2 
 PCOD9443359
Probable space group: P N N M
;
_chemical_formula_sum "Si O2"
_cell_formula_units_Z 64
_cell_length_a 29.935107
_cell_length_b 10.286372
_cell_length_c 13.368132
_cell_angle_alpha 90.000000
_cell_angle_beta 90.000000
_cell_angle_gamma 90.000000
_cell_volume 4116.363952
_symmetry_space_group_name_H-M "P N N M"
_symmetry_group_IT_number 58
_symmetry_cell_setting 'orthorhombic'
loop_
_space_group_symop_operation_xyz
x,y,z
-x,-y,z
1/2+x,1/2-y,1/2-z
1/2-x,1/2+y,1/2-z
-x,-y,-z
x,y,-z
1/2-x,1/2+y,1/2+z
1/2+x,1/2-y,1/2+z
loop_
_atom_site_type_symbol
_atom_site_label
_atom_site_fract_x
_atom_site_fract_y
_atom_site_fract_z
Si Si1 0.327317 0.368521 0.190433
Si Si2 0.270302 0.953216 0.383188
Si Si3 0.636170 0.905906 0.881460
Si Si4 0.216152 0.761452 0.116104
Si Si5 0.122638 0.117434 0.621459
Si Si6 0.465724 0.112464 0.878061
Si Si7 0.980819 0.863252 0.378646
Si Si8 0.188024 0.343417 0.694375
O O1 0.281317 0.423037 0.142857
O O2 0.342297 0.233571 0.140884
O O3 0.316363 0.332798 0.305573
O O4 0.363786 0.478663 0.167687
O O5 0.278119 0.929445 0.500000
O O6 0.298930 0.861334 0.310437
O O7 0.280594 0.105932 0.362882
O O8 0.584955 0.907577 0.843653
O O9 0.664866 0.022580 0.837038
O O10 0.634757 0.925971 0.000000
O O11 0.265545 0.818807 0.136397
O O12 0.204075 0.778547 0.000000
O O13 0.127643 0.112506 0.500000
O O14 0.071334 0.151758 0.645198
O O15 0.155368 0.225917 0.666370
O O16 0.487501 0.247217 0.844249
O O17 0.500000 0.000000 0.848515
O O18 0.464330 0.113633 0.000000
O O19 0.982913 0.863509 0.500000
O O20 0.000000 0.000000 0.343000
#
# Coordination Sequence:
#
# PCOD9443359 Si02
#       8
#     8   8   8   8   8   8   8   8
#     4  11  21  33  50  75  96 130 170 205 240 290
#     4  10  20  36  53  69  99 134 164 208 256 284
#     4  11  20  30  47  74 103 128 167 209 236 282
#     4  10  20  36  53  69  99 134 165 207 252 290
#     4  11  20  32  51  72 105 138 164 200 242 291
#     4   9  17  29  43  63  97 132 158 193 241 287
#     4   9  17  29  45  67  95 134 167 188 232 294
#     4  11  21  33  50  75  96 132 173 203 240 296
#
# _framework density 15.547703
#
# number of rings (size 3 to 8) (size 9 to 14) (size 15 to 20)
#    0.000    1.750    2.500    3.750    0.000    4.000 
#    0.000    1.875    0.000    0.000    0.000    0.000 
#    0.000   20.000    0.000    0.000    0.000    0.000 
#
# Total GULP energy -356965.002496 kJ/mol
# GULP energy per Si atom -5577.578164 kJ/mol
# Density = 1.551232 g / cm^3
# Si number density = 15.547703 Si / 1000 Ang^3
#
#
#
# Elastic Constant Matrix: (Units=GPa)
#
#
# Indices 1 2 3 4 5 6 
#
# 1 41.0373 -6.5393 17.0948 0.0000 0.0000 0.0000
# 2 -6.5393 55.6855 9.3049 0.0000 0.0000 0.0000
# 3 17.0948 9.3049 64.9800 0.0000 0.0000 0.0000
# 4 0.0000 0.0000 0.0000 21.1431 0.0000 0.0000
# 5 0.0000 0.0000 0.0000 0.0000 13.2211 0.0000
# 6 0.0000 0.0000 0.0000 0.0000 0.0000 17.1990
#
#
#
# Elastic Compliance Matrix: (Units=1/GPa)
#
#
# Indices 1 2 3 4 5 6 
#
# 1 0.028527 0.004717 -0.008180 0.000000 0.000000 0.000000
# 2 0.004717 0.019178 -0.003987 0.000000 0.000000 0.000000
# 3 -0.008180 -0.003987 0.018112 0.000000 0.000000 0.000000
# 4 0.000000 0.000000 0.000000 0.047297 0.000000 0.000000
# 5 0.000000 0.000000 0.000000 0.000000 0.075636 0.000000
# 6 0.000000 0.000000 0.000000 0.000000 0.000000 0.058143
#
#
# Mechanical properties :
#
#
# Convention : Reuss Voigt Hill
#
# Bulk Modulus (GPa) = 19.63988 22.38039 21.01013
# Shear Modulus (GPa) = 17.93610 19.76881 18.85245
#
# Velocity S-wave (km/s) = 3.40018 3.56967 3.48595
# Velocity P-wave (km/s) = 5.29853 5.60499 5.45391
#
# Compressibility (1/GPa) = 0.05091682
#
# Stress axis : x y z
#
# Youngs Moduli (GPa) = 35.05400 52.14262 55.21089
#
# Poissons Ratio (x) = -0.24596 0.45165
# Poissons Ratio (y) = -0.16535 0.22014
# Poissons Ratio (z) = 0.28675 0.20790
#
# Static dielectric constant tensor:
#      x y z
#    x 1.517050 0.000000 0.000000 
#    y 0.000000 1.506950 0.000000 
#    z 0.000000 0.000000 1.497570 
# 
# From -- ./inp_files/13439.got.cif
#   From: 2010.05.17/outbox.cif.g08.bks.cpg/sg58_7_cif.got.tgz:13439.got - 2010.06.03 14:20:14.
