data_PCOD9443880
_publ_section_title
;
Structure prediction by ZEFSAII (Michael W. Deem and Ramdas Pophale) SiO2 
 PCOD9443880
Probable space group: P N N M
;
_chemical_formula_sum "Si O2"
_cell_formula_units_Z 48
_cell_length_a 28.850109
_cell_length_b 4.875164
_cell_length_c 14.764963
_cell_angle_alpha 90.000000
_cell_angle_beta 90.000000
_cell_angle_gamma 90.000000
_cell_volume 2076.677470
_symmetry_space_group_name_H-M "P N N M"
_symmetry_group_IT_number 58
_symmetry_cell_setting 'orthorhombic'
loop_
_space_group_symop_operation_xyz
x,y,z
-x,-y,z
1/2+x,1/2-y,1/2-z
1/2-x,1/2+y,1/2-z
-x,-y,-z
x,y,-z
1/2-x,1/2+y,1/2+z
1/2+x,1/2-y,1/2+z
loop_
_atom_site_type_symbol
_atom_site_label
_atom_site_fract_x
_atom_site_fract_y
_atom_site_fract_z
Si Si1 0.552803 0.390495 0.895433
Si Si2 0.142200 0.333848 0.148643
Si Si3 0.739451 0.439078 0.693670
Si Si4 0.000000 0.500000 0.140943
Si Si5 0.568245 0.289023 0.500000
Si Si6 0.250776 0.690603 0.500000
Si Si7 0.312940 0.191028 0.500000
Si Si8 0.074780 0.625712 0.717420
O O1 0.500000 0.500000 0.888407
O O2 0.555923 0.084570 0.857868
O O3 0.583199 0.587601 0.831401
O O4 0.566828 0.404581 0.000000
O O5 0.187079 0.166329 0.179234
O O6 0.116540 0.473238 0.232748
O O7 0.107166 0.171039 0.081757
O O8 0.158731 0.586044 0.085434
O O9 0.740667 0.750625 0.725984
O O10 0.767655 0.385536 0.599751
O O11 0.035691 0.659849 0.205206
O O12 0.029787 0.300439 0.077916
O O13 0.265906 0.006718 0.500000
O O14 0.297329 0.501595 0.500000
#
# Coordination Sequence:
#
# PCOD9443880 Si02
#       8
#     8   8   8   4   4   4   4   8
#     4  11  22  38  59  84 113 163 218 263 309 356
#     4   9  20  37  61  95 125 166 208 253 327 382
#     4  11  23  40  68  93 126 167 218 274 325 396
#     4   9  16  32  57  96 130 162 199 240 324 373
#     4   8  16  33  62  92 134 166 194 254 305 399
#     4  10  20  38  64  92 124 155 210 263 319 386
#     4   9  18  35  60  91 126 156 198 252 304 395
#     4  11  21  36  63  87 127 161 207 264 311 391
#
# _framework density 23.113842999999999
#
# number of rings (size 3 to 8) (size 9 to 14) (size 15 to 20)
#    0.000    2.000    1.667    3.000    0.000    5.333 
#    0.000    0.000   11.000   38.000    0.000    0.000 
#    0.000    0.000    0.000    0.000    0.000    0.000 
#
# Total GULP energy -267340.722386 kJ/mol
# GULP energy per Si atom -5569.598383 kJ/mol
# Density = 2.306123 g / cm^3
# Si number density = 23.113843 Si / 1000 Ang^3
#
#
#
# Elastic Constant Matrix: (Units=GPa)
#
#
# Indices 1 2 3 4 5 6 
#
# 1 42.8169 3.8843 8.0994 0.0000 0.0000 0.0000
# 2 3.8843 68.6131 14.5452 0.0000 0.0000 0.0000
# 3 8.0994 14.5452 140.9843 0.0000 0.0000 0.0000
# 4 0.0000 0.0000 0.0000 23.3447 0.0000 0.0000
# 5 0.0000 0.0000 0.0000 0.0000 24.9048 0.0000
# 6 0.0000 0.0000 0.0000 0.0000 0.0000 16.9275
#
#
#
# Elastic Compliance Matrix: (Units=1/GPa)
#
#
# Indices 1 2 3 4 5 6 
#
# 1 0.023689 -0.001076 -0.001250 0.000000 0.000000 0.000000
# 2 -0.001076 0.014949 -0.001480 0.000000 0.000000 0.000000
# 3 -0.001250 -0.001480 0.007318 0.000000 0.000000 0.000000
# 4 0.000000 0.000000 0.000000 0.042836 0.000000 0.000000
# 5 0.000000 0.000000 0.000000 0.000000 0.040153 0.000000
# 6 0.000000 0.000000 0.000000 0.000000 0.000000 0.059075
#
#
# Mechanical properties :
#
#
# Convention : Reuss Voigt Hill
#
# Bulk Modulus (GPa) = 26.08033 33.94136 30.01084
# Shear Modulus (GPa) = 23.99062 28.09443 26.04252
#
# Velocity S-wave (km/s) = 3.22519 3.49016 3.36029
# Velocity P-wave (km/s) = 5.01768 5.56398 5.29788
#
# Compressibility (1/GPa) = 0.03834308
#
# Stress axis : x y z
#
# Youngs Moduli (GPa) = 42.21310 66.89304 136.65806
#
# Poissons Ratio (x) = 0.07199 0.17081
# Poissons Ratio (y) = 0.04543 0.20232
# Poissons Ratio (z) = 0.05276 0.09903
#
# Static dielectric constant tensor:
#      x y z
#    x 1.890160 0.000000 0.000000 
#    y 0.000000 1.874750 0.000000 
#    z 0.000000 0.000000 1.913810 
# 
# From -- ./inp_files/23746.got.cif
#   From: 2010.05.17/outbox.cif.g08.bks.cpg/sg58_12_cif.got.tgz:23746.got - 2010.06.03 14:20:14.
