data_PCOD9443230
_publ_section_title
;
Structure prediction by ZEFSAII (Michael W. Deem and Ramdas Pophale) SiO2 
 PCOD9443230
Probable space group: P N N M
;
_chemical_formula_sum "Si O2"
_cell_formula_units_Z 48
_cell_length_a 18.119709
_cell_length_b 15.735426
_cell_length_c 7.469362
_cell_angle_alpha 90.000000
_cell_angle_beta 90.000000
_cell_angle_gamma 90.000000
_cell_volume 2129.674503
_symmetry_space_group_name_H-M "P N N M"
_symmetry_group_IT_number 58
_symmetry_cell_setting 'orthorhombic'
loop_
_space_group_symop_operation_xyz
x,y,z
-x,-y,z
1/2+x,1/2-y,1/2-z
1/2-x,1/2+y,1/2-z
-x,-y,-z
x,y,-z
1/2-x,1/2+y,1/2+z
1/2+x,1/2-y,1/2+z
loop_
_atom_site_type_symbol
_atom_site_label
_atom_site_fract_x
_atom_site_fract_y
_atom_site_fract_z
Si Si1 0.942751 0.567867 0.293054
Si Si2 0.530693 0.412595 0.291263
Si Si3 0.967058 0.265134 0.782049
Si Si4 0.217706 0.390783 0.289630
Si Si5 0.297000 0.220066 0.281261
Si Si6 0.199919 0.061429 0.285331
O O1 0.931610 0.540565 0.500000
O O2 0.861064 0.578979 0.212552
O O3 0.000000 0.500000 0.211628
O O4 0.982506 0.658550 0.285934
O O5 0.500000 0.500000 0.210697
O O6 0.508103 0.412490 0.500000
O O7 0.497849 0.325405 0.217818
O O8 0.618612 0.415006 0.279189
O O9 0.882197 0.276343 0.727001
O O10 0.970230 0.267975 0.000000
O O11 0.204413 0.374357 0.500000
O O12 0.252092 0.303232 0.218410
O O13 0.274770 0.468099 0.273038
O O14 0.296798 0.221459 0.500000
O O15 0.257355 0.133443 0.224148
O O16 0.198844 0.062157 0.500000
#
# Coordination Sequence:
#
# PCOD9443230 Si02
#       6
#     8   8   8   8   8   8
#     4  10  21  36  55  81 112 146 182 224 280 334
#     4  10  21  38  59  81 109 148 188 222 266 330
#     4  10  20  35  57  81 105 140 187 231 268 319
#     4  10  20  37  58  77 107 150 186 217 264 332
#     4   9  19  36  56  78 107 146 184 219 272 332
#     4  11  22  36  57  85 114 142 179 230 278 318
#
# _framework density 22.538654000000001
#
# number of rings (size 3 to 8) (size 9 to 14) (size 15 to 20)
#    0.000    2.000    0.000    3.500    0.000    6.000 
#    0.000    5.000    0.000    0.000    0.000    0.000 
#    0.000    0.000    0.000    0.000    0.000    0.000 
#
# Total GULP energy -268383.825920 kJ/mol
# GULP energy per Si atom -5591.329707 kJ/mol
# Density = 2.248735 g / cm^3
# Si number density = 22.538654 Si / 1000 Ang^3
#
#
#
# Elastic Constant Matrix: (Units=GPa)
#
#
# Indices 1 2 3 4 5 6 
#
# 1 -444.5756 572.8568 -172.8384 0.0000 0.0000 0.0000
# 2 572.8568 -551.1102 153.9525 0.0000 0.0000 0.0000
# 3 -172.8384 153.9525 17.2967 0.0000 0.0000 0.0000
# 4 0.0000 0.0000 0.0000 70.6549 0.0000 0.0000
# 5 0.0000 0.0000 0.0000 0.0000 24.4575 0.0000
# 6 0.0000 0.0000 0.0000 0.0000 0.0000 33.4709
#
#
#
# Elastic Compliance Matrix: (Units=1/GPa)
#
#
# Indices 1 2 3 4 5 6 
#
# 1 0.006749 0.007416 0.001434 0.000000 0.000000 0.000000
# 2 0.007416 0.007628 0.006208 0.000000 0.000000 0.000000
# 3 0.001434 0.006208 0.016887 0.000000 0.000000 0.000000
# 4 0.000000 0.000000 0.000000 0.014153 0.000000 0.000000
# 5 0.000000 0.000000 0.000000 0.000000 0.040887 0.000000
# 6 0.000000 0.000000 0.000000 0.000000 0.000000 0.029877
#
#
# Mechanical properties :
#
#
# Convention : Reuss Voigt Hill
#
# Bulk Modulus (GPa) = 16.29172 14.39475 15.34323
# Shear Modulus (GPa) = 46.93643 -76.44069 -14.75213
#
# Velocity S-wave (km/s) = 4.56838 -5.83001 -2.56115
# Velocity P-wave (km/s) = 5.92206 6.23844 1.38696
#
# Compressibility (1/GPa) = 0.06138088
#
# Stress axis : x y z
#
# Youngs Moduli (GPa) = 148.16436 131.08870 59.21554
#
# Poissons Ratio (x) = -0.97217 -0.08490
# Poissons Ratio (y) = -1.09881 -0.36761
# Poissons Ratio (z) = -0.21244 -0.81379
#
# Static dielectric constant tensor:
#      x y z
#    x 1.759550 0.000000 0.000000 
#    y 0.000000 1.776890 0.000000 
#    z 0.000000 0.000000 1.871840 
# 
# From -- ./inp_files/5860.got.cif
#   From: 2010.05.17/outbox.cif.g08.bks.cpg/sg58_3_cif.got.tgz:5860.got - 2010.06.03 14:20:14.
