data_PCOD9443912
_publ_section_title
;
Structure prediction by ZEFSAII (Michael W. Deem and Ramdas Pophale) SiO2 
 PCOD9443912
Probable space group: P N N M
;
_chemical_formula_sum "Si O2"
_cell_formula_units_Z 40
_cell_length_a 7.752125
_cell_length_b 12.362750
_cell_length_c 18.514503
_cell_angle_alpha 90.000000
_cell_angle_beta 90.000000
_cell_angle_gamma 90.000000
_cell_volume 1774.385224
_symmetry_space_group_name_H-M "P N N M"
_symmetry_group_IT_number 58
_symmetry_cell_setting 'orthorhombic'
loop_
_space_group_symop_operation_xyz
x,y,z
-x,-y,z
1/2+x,1/2-y,1/2-z
1/2-x,1/2+y,1/2-z
-x,-y,-z
x,y,-z
1/2-x,1/2+y,1/2+z
1/2+x,1/2-y,1/2+z
loop_
_atom_site_type_symbol
_atom_site_label
_atom_site_fract_x
_atom_site_fract_y
_atom_site_fract_z
Si Si1 0.357476 0.140013 0.294119
Si Si2 0.360070 0.838164 0.818306
Si Si3 0.341931 0.250542 0.917119
Si Si4 0.686066 0.449312 0.652204
Si Si5 0.207286 0.992019 0.584542
O O1 0.543984 0.133784 0.256712
O O2 0.307093 0.264767 0.306890
O O3 0.227253 0.096925 0.231856
O O4 0.316197 0.070150 0.364427
O O5 0.496407 0.768953 0.864494
O O6 0.315331 0.949732 0.857414
O O7 0.219680 0.148864 0.901817
O O8 0.253177 0.365484 0.903211
O O9 0.400780 0.252560 0.000000
O O10 0.500000 0.500000 0.647409
O O11 0.234775 0.017868 0.500000
O O12 0.000000 0.000000 0.598530
#
# Coordination Sequence:
#
# PCOD9443912 Si02
#       5
#     8   8   8   8   8
#     4  11  22  39  65  95 136 165 224 271 322 399
#     4  11  24  41  65  98 127 178 213 269 335 386
#     4  10  22  42  67  98 133 173 219 265 329 402
#     4  11  25  42  64  98 129 176 221 271 334 384
#     4  10  20  38  68  99 131 174 218 269 331 392
#
# _framework density 22.543019999999999
#
# number of rings (size 3 to 8) (size 9 to 14) (size 15 to 20)
#    0.000    1.400    2.000    4.200    5.600    2.000 
#    3.600    0.000    0.000   12.000    0.000    0.000 
#    0.000    0.000    0.000    0.000    0.000    0.000 
#
# Total GULP energy -223947.947088 kJ/mol
# GULP energy per Si atom -5598.698677 kJ/mol
# Density = 2.249171 g / cm^3
# Si number density = 22.543020 Si / 1000 Ang^3
#
#
#
# Elastic Constant Matrix: (Units=GPa)
#
#
# Indices 1 2 3 4 5 6 
#
# 1 46.4237 27.4069 12.2944 0.0000 0.0000 0.0000
# 2 27.4069 149.0475 36.6122 0.0000 0.0000 0.0000
# 3 12.2944 36.6122 113.8488 0.0000 0.0000 0.0000
# 4 0.0000 0.0000 0.0000 34.1457 0.0000 0.0000
# 5 0.0000 0.0000 0.0000 0.0000 16.5376 0.0000
# 6 0.0000 0.0000 0.0000 0.0000 0.0000 21.6444
#
#
#
# Elastic Compliance Matrix: (Units=1/GPa)
#
#
# Indices 1 2 3 4 5 6 
#
# 1 0.024337 -0.004158 -0.001291 0.000000 0.000000 0.000000
# 2 -0.004158 0.007995 -0.002122 0.000000 0.000000 0.000000
# 3 -0.001291 -0.002122 0.009605 0.000000 0.000000 0.000000
# 4 0.000000 0.000000 0.000000 0.029286 0.000000 0.000000
# 5 0.000000 0.000000 0.000000 0.000000 0.060468 0.000000
# 6 0.000000 0.000000 0.000000 0.000000 0.000000 0.046201
#
#
# Mechanical properties :
#
#
# Convention : Reuss Voigt Hill
#
# Bulk Modulus (GPa) = 37.31949 51.32744 44.32347
# Shear Modulus (GPa) = 24.75640 29.99930 27.37785
#
# Velocity S-wave (km/s) = 3.31748 3.65191 3.48871
# Velocity P-wave (km/s) = 5.59151 6.37182 5.99437
#
# Compressibility (1/GPa) = 0.02679565
#
# Stress axis : x y z
#
# Youngs Moduli (GPa) = 41.08905 125.07622 104.10773
#
# Poissons Ratio (x) = 0.52007 0.13440
# Poissons Ratio (y) = 0.17085 0.22093
# Poissons Ratio (z) = 0.05305 0.26542
#
# Static dielectric constant tensor:
#      x y z
#    x 1.849420 0.000000 0.000000 
#    y 0.000000 1.866710 0.000000 
#    z 0.000000 0.000000 1.796280 
# 
# From -- ./inp_files/24969.got.cif
#   From: 2010.05.17/outbox.cif.g08.bks.cpg/sg58_13_cif.got.tgz:24969.got - 2010.06.03 14:20:14.
