data_PCOD9443844
_publ_section_title
;
Structure prediction by ZEFSAII (Michael W. Deem and Ramdas Pophale) SiO2 
 PCOD9443844
Probable space group: P N N M
;
_chemical_formula_sum "Si O2"
_cell_formula_units_Z 56
_cell_length_a 14.452972
_cell_length_b 17.187613
_cell_length_c 9.524570
_cell_angle_alpha 90.000000
_cell_angle_beta 90.000000
_cell_angle_gamma 90.000000
_cell_volume 2366.018335
_symmetry_space_group_name_H-M "P N N M"
_symmetry_group_IT_number 58
_symmetry_cell_setting 'orthorhombic'
loop_
_space_group_symop_operation_xyz
x,y,z
-x,-y,z
1/2+x,1/2-y,1/2-z
1/2-x,1/2+y,1/2-z
-x,-y,-z
x,y,-z
1/2-x,1/2+y,1/2+z
1/2+x,1/2-y,1/2+z
loop_
_atom_site_type_symbol
_atom_site_label
_atom_site_fract_x
_atom_site_fract_y
_atom_site_fract_z
Si Si1 0.915548 0.415381 0.785563
Si Si2 0.222862 0.033717 0.340129
Si Si3 0.492580 0.886231 0.000000
Si Si4 0.633510 0.199039 0.761696
Si Si5 0.408843 0.631037 0.665463
Si Si6 0.584844 0.105862 0.500000
Si Si7 0.338528 0.257181 0.341395
Si Si8 0.083588 0.893381 0.664215
O O1 0.833480 0.473960 0.830795
O O2 0.941652 0.424227 0.624171
O O3 0.869396 0.330820 0.814392
O O4 0.005908 0.416982 0.880312
O O5 0.202007 0.059790 0.500000
O O6 0.185135 0.095289 0.228185
O O7 0.164934 0.955690 0.314473
O O8 0.430080 0.842559 0.123092
O O9 0.586042 0.277743 0.702562
O O10 0.648394 0.145793 0.625250
O O11 0.729594 0.227136 0.829312
O O12 0.414155 0.619847 0.500000
O O13 0.491854 0.589131 0.747368
O O14 0.369636 0.278658 0.500000
O O15 0.382942 0.311128 0.223244
O O16 0.060736 0.890560 0.500000
#
# Coordination Sequence:
#
# PCOD9443844 Si02
#       8
#     8   8   4   8   8   4   8   8
#     4  11  22  40  66  95 125 165 219 269 313 383
#     4  11  24  45  66  93 130 173 217 264 320 384
#     4  10  24  36  60  95 126 164 211 261 327 366
#     4  11  23  39  62  98 133 166 208 269 323 383
#     4  12  25  40  63  97 133 177 213 255 322 388
#     4  10  20  38  62  91 124 162 205 267 313 368
#     4  12  24  40  63  96 129 167 211 270 328 371
#     4  11  27  43  66  92 131 176 212 261 324 392
#
# _framework density 23.668454000000001
#
# number of rings (size 3 to 8) (size 9 to 14) (size 15 to 20)
#    0.000    0.857    4.286    3.000    7.000    2.857 
#    0.000    0.000    0.000    5.143    0.000    0.000 
#    0.000    0.000    0.000    0.000    0.000    0.000 
#
# Total GULP energy -311747.808508 kJ/mol
# GULP energy per Si atom -5566.925152 kJ/mol
# Density = 2.361458 g / cm^3
# Si number density = 23.668454 Si / 1000 Ang^3
#
#
#
# Elastic Constant Matrix: (Units=GPa)
#
#
# Indices 1 2 3 4 5 6 
#
# 1 91.3880 8.9919 7.2442 0.0000 0.0000 0.0000
# 2 8.9919 73.6756 16.9674 0.0000 0.0000 0.0000
# 3 7.2442 16.9674 193.0413 0.0000 0.0000 0.0000
# 4 0.0000 0.0000 0.0000 23.6465 0.0000 0.0000
# 5 0.0000 0.0000 0.0000 0.0000 34.1308 0.0000
# 6 0.0000 0.0000 0.0000 0.0000 0.0000 44.0715
#
#
#
# Elastic Compliance Matrix: (Units=1/GPa)
#
#
# Indices 1 2 3 4 5 6 
#
# 1 0.011093 -0.001284 -0.000303 0.000000 0.000000 0.000000
# 2 -0.001284 0.014002 -0.001183 0.000000 0.000000 0.000000
# 3 -0.000303 -0.001183 0.005296 0.000000 0.000000 0.000000
# 4 0.000000 0.000000 0.000000 0.042290 0.000000 0.000000
# 5 0.000000 0.000000 0.000000 0.000000 0.029299 0.000000
# 6 0.000000 0.000000 0.000000 0.000000 0.000000 0.022690
#
#
# Mechanical properties :
#
#
# Convention : Reuss Voigt Hill
#
# Bulk Modulus (GPa) = 40.24056 47.16798 43.70427
# Shear Modulus (GPa) = 36.10300 42.02986 39.06643
#
# Velocity S-wave (km/s) = 3.90983 4.21857 4.06713
# Velocity P-wave (km/s) = 6.11727 6.61062 6.36872
#
# Compressibility (1/GPa) = 0.02485055
#
# Stress axis : x y z
#
# Youngs Moduli (GPa) = 90.14907 71.41806 188.83729
#
# Poissons Ratio (x) = 0.09170 0.05730
# Poissons Ratio (y) = 0.11575 0.22331
# Poissons Ratio (z) = 0.02735 0.08445
#
# Static dielectric constant tensor:
#      x y z
#    x 1.948770 0.000000 0.000000 
#    y 0.000000 1.985900 0.000000 
#    z 0.000000 0.000000 1.821280 
# 
# From -- ./inp_files/6510.got.cif
#   From: 2010.05.17/outbox.cif.g08.bks.cpg/sg58_4_cif.got.tgz:6510.got - 2010.06.03 14:20:14.
