data_PCOD9443410
_publ_section_title
;
Structure prediction by ZEFSAII (Michael W. Deem and Ramdas Pophale) SiO2 
 PCOD9443410
Probable space group: P N N M
;
_chemical_formula_sum "Si O2"
_cell_formula_units_Z 24
_cell_length_a 5.141945
_cell_length_b 9.085512
_cell_length_c 24.967148
_cell_angle_alpha 90.000000
_cell_angle_beta 90.000000
_cell_angle_gamma 90.000000
_cell_volume 1166.395321
_symmetry_space_group_name_H-M "P N N M"
_symmetry_group_IT_number 58
_symmetry_cell_setting 'orthorhombic'
loop_
_space_group_symop_operation_xyz
x,y,z
-x,-y,z
1/2+x,1/2-y,1/2-z
1/2-x,1/2+y,1/2-z
-x,-y,-z
x,y,-z
1/2-x,1/2+y,1/2+z
1/2+x,1/2-y,1/2+z
loop_
_atom_site_type_symbol
_atom_site_label
_atom_site_fract_x
_atom_site_fract_y
_atom_site_fract_z
Si Si1 0.251481 0.103937 0.719752
Si Si2 0.747238 0.394535 0.441050
Si Si3 0.566648 0.827063 0.833183
O O1 0.276417 0.183842 0.777520
O O2 0.186208 0.226874 0.675608
O O3 0.500000 0.000000 0.710505
O O4 0.000000 0.000000 0.721469
O O5 0.500000 0.500000 0.432386
O O6 0.718879 0.323379 0.500000
O O7 0.789821 0.294364 0.388801
O O8 0.000000 0.500000 0.444061
O O9 0.500000 0.000000 0.834734
#
# Coordination Sequence:
#
# PCOD9443410 Si02
#       3
#     8   8   8
#     4  11  23  36  53  83 118 150 187 237 295 350
#     4   9  18  32  53  82 110 140 187 243 288 331
#     4  10  20  36  58  81 111 149 192 235 288 350
#
# _framework density 20.576214
#
# number of rings (size 3 to 8) (size 9 to 14) (size 15 to 20)
#    0.000    2.000    0.000    5.000    0.000    8.000 
#    0.000    0.000    0.000    2.000    0.000    0.000 
#    0.000    1.333    0.000    0.000    0.000    1.000 
#
# Total GULP energy -133908.862662 kJ/mol
# GULP energy per Si atom -5579.535944 kJ/mol
# Density = 2.052938 g / cm^3
# Si number density = 20.576214 Si / 1000 Ang^3
#
#
#
# Elastic Constant Matrix: (Units=GPa)
#
#
# Indices 1 2 3 4 5 6 
#
# 1 150.9842 40.8752 46.2854 0.0000 0.0000 0.0000
# 2 40.8752 84.2172 42.4385 0.0000 0.0000 0.0000
# 3 46.2854 42.4385 187.2745 0.0000 0.0000 0.0000
# 4 0.0000 0.0000 0.0000 12.5190 0.0000 0.0000
# 5 0.0000 0.0000 0.0000 0.0000 31.3150 0.0000
# 6 0.0000 0.0000 0.0000 0.0000 0.0000 30.5011
#
#
#
# Elastic Compliance Matrix: (Units=1/GPa)
#
#
# Indices 1 2 3 4 5 6 
#
# 1 0.007864 -0.003203 -0.001218 0.000000 0.000000 0.000000
# 2 -0.003203 0.014709 -0.002542 0.000000 0.000000 0.000000
# 3 -0.001218 -0.002542 0.006217 0.000000 0.000000 0.000000
# 4 0.000000 0.000000 0.000000 0.079878 0.000000 0.000000
# 5 0.000000 0.000000 0.000000 0.000000 0.031934 0.000000
# 6 0.000000 0.000000 0.000000 0.000000 0.000000 0.032786
#
#
# Mechanical properties :
#
#
# Convention : Reuss Voigt Hill
#
# Bulk Modulus (GPa) = 67.27222 75.74157 71.50690
# Shear Modulus (GPa) = 26.00547 34.39215 30.19881
#
# Velocity S-wave (km/s) = 3.55894 4.09277 3.83516
# Velocity P-wave (km/s) = 7.04650 7.69575 7.37827
#
# Compressibility (1/GPa) = 0.01486498
#
# Stress axis : x y z
#
# Youngs Moduli (GPa) = 127.16749 67.98336 160.85756
#
# Poissons Ratio (x) = 0.21775 0.19587
# Poissons Ratio (y) = 0.40732 0.40885
# Poissons Ratio (z) = 0.15485 0.17279
#
# Static dielectric constant tensor:
#      x y z
#    x 1.783730 0.000000 0.000000 
#    y 0.000000 1.738100 0.000000 
#    z 0.000000 0.000000 1.832880 
# 
# From -- ./inp_files/30679.got.cif
#   From: 2010.05.17/outbox.cif.g08.bks.cpg/sg58_16_cif.got.tgz:30679.got - 2010.06.03 14:20:14.
