data_PCOD9443864
_publ_section_title
;
Structure prediction by ZEFSAII (Michael W. Deem and Ramdas Pophale) SiO2 
 PCOD9443864
Probable space group: P N N M
;
_chemical_formula_sum "Si O2"
_cell_formula_units_Z 56
_cell_length_a 14.727284
_cell_length_b 21.466518
_cell_length_c 9.115622
_cell_angle_alpha 90.000000
_cell_angle_beta 90.000000
_cell_angle_gamma 90.000000
_cell_volume 2881.844708
_symmetry_space_group_name_H-M "P N N M"
_symmetry_group_IT_number 58
_symmetry_cell_setting 'orthorhombic'
loop_
_space_group_symop_operation_xyz
x,y,z
-x,-y,z
1/2+x,1/2-y,1/2-z
1/2-x,1/2+y,1/2-z
-x,-y,-z
x,y,-z
1/2-x,1/2+y,1/2+z
1/2+x,1/2-y,1/2+z
loop_
_atom_site_type_symbol
_atom_site_label
_atom_site_fract_x
_atom_site_fract_y
_atom_site_fract_z
Si Si1 0.889258 0.763015 0.324978
Si Si2 0.892355 0.629474 0.173538
Si Si3 0.295272 0.212966 0.175039
Si Si4 0.098928 0.603333 0.172652
Si Si5 0.226529 0.487123 0.175578
Si Si6 0.408294 0.463486 0.324688
Si Si7 0.419256 0.329339 0.824241
O O1 0.879434 0.762746 0.500000
O O2 0.891471 0.692887 0.263576
O O3 0.801905 0.794481 0.251229
O O4 0.983806 0.797386 0.289547
O O5 0.815872 0.579843 0.215931
O O6 0.991043 0.597939 0.191687
O O7 0.880801 0.644028 0.000000
O O8 0.362494 0.159651 0.231792
O O9 0.340410 0.279743 0.212944
O O10 0.286301 0.210123 0.000000
O O11 0.153391 0.540657 0.207842
O O12 0.114681 0.617400 0.000000
O O13 0.320292 0.497172 0.258461
O O14 0.241603 0.486843 0.000000
O O15 0.500000 0.500000 0.284258
O O16 0.402197 0.460762 0.500000
O O17 0.410136 0.394232 0.258243
O O18 0.415308 0.339894 0.000000
#
# Coordination Sequence:
#
# PCOD9443864 Si02
#       7
#     8   8   8   8   8   8   8
#     4  11  23  39  61  91 123 158 203 249 300 363
#     4  10  20  38  63  93 126 160 200 247 303 360
#     4  11  23  40  61  90 125 160 202 253 305 359
#     4  10  21  38  62  92 124 160 202 247 300 362
#     4  10  22  40  63  90 122 163 205 247 298 363
#     4  11  26  44  62  89 122 158 205 258 308 358
#     4  10  23  43  64  87 120 161 203 246 299 363
#
# _framework density 19.431998
#
# number of rings (size 3 to 8) (size 9 to 14) (size 15 to 20)
#    0.000    1.571    1.429    2.571    2.000    9.714 
#    0.000    0.000    0.000    2.571    0.000    0.000 
#    0.000    0.000    0.000    0.000    0.000    0.000 
#
# Total GULP energy -313127.303805 kJ/mol
# GULP energy per Si atom -5591.558997 kJ/mol
# Density = 1.938777 g / cm^3
# Si number density = 19.431998 Si / 1000 Ang^3
#
#
#
# Elastic Constant Matrix: (Units=GPa)
#
#
# Indices 1 2 3 4 5 6 
#
# 1 84.9775 -6.9244 26.3867 0.0000 0.0000 0.0000
# 2 -6.9244 43.7278 14.4304 0.0000 0.0000 0.0000
# 3 26.3867 14.4304 27.1277 0.0000 0.0000 0.0000
# 4 0.0000 0.0000 0.0000 23.3778 0.0000 0.0000
# 5 0.0000 0.0000 0.0000 0.0000 33.3169 0.0000
# 6 0.0000 0.0000 0.0000 0.0000 0.0000 26.3949
#
#
#
# Elastic Compliance Matrix: (Units=1/GPa)
#
#
# Indices 1 2 3 4 5 6 
#
# 1 0.021220 0.012338 -0.027203 0.000000 0.000000 0.000000
# 2 0.012338 0.034911 -0.030571 0.000000 0.000000 0.000000
# 3 -0.027203 -0.030571 0.079585 0.000000 0.000000 0.000000
# 4 0.000000 0.000000 0.000000 0.042776 0.000000 0.000000
# 5 0.000000 0.000000 0.000000 0.000000 0.030015 0.000000
# 6 0.000000 0.000000 0.000000 0.000000 0.000000 0.037886
#
#
# Mechanical properties :
#
#
# Convention : Reuss Voigt Hill
#
# Bulk Modulus (GPa) = 22.30040 24.84648 23.57344
# Shear Modulus (GPa) = 14.19590 24.74726 19.47158
#
# Velocity S-wave (km/s) = 2.70579 3.57253 3.16893
# Velocity P-wave (km/s) = 4.61115 5.46181 5.05441
#
# Compressibility (1/GPa) = 0.04484224
#
# Stress axis : x y z
#
# Youngs Moduli (GPa) = 47.12489 28.64424 12.56517
#
# Poissons Ratio (x) = -0.35340 0.34182
# Poissons Ratio (y) = -0.58140 0.38413
# Poissons Ratio (z) = 1.28196 0.87569
#
# Static dielectric constant tensor:
#      x y z
#    x 1.678830 0.000000 0.000000 
#    y 0.000000 1.653020 0.000000 
#    z 0.000000 0.000000 1.643920 
# 
# From -- ./inp_files/6391.got.cif
#   From: 2010.05.17/outbox.cif.g08.bks.cpg/sg58_4_cif.got.tgz:6391.got - 2010.06.03 14:20:14.
