data_PCOD9443839
_publ_section_title
;
Structure prediction by ZEFSAII (Michael W. Deem and Ramdas Pophale) SiO2 
 PCOD9443839
Probable space group: P N N M
;
_chemical_formula_sum "Si O2"
_cell_formula_units_Z 58
_cell_length_a 7.784836
_cell_length_b 14.279452
_cell_length_c 23.703600
_cell_angle_alpha 90.000000
_cell_angle_beta 90.000000
_cell_angle_gamma 90.000000
_cell_volume 2634.967838
_symmetry_space_group_name_H-M "P N N M"
_symmetry_group_IT_number 58
_symmetry_cell_setting 'orthorhombic'
loop_
_space_group_symop_operation_xyz
x,y,z
-x,-y,z
1/2+x,1/2-y,1/2-z
1/2-x,1/2+y,1/2-z
-x,-y,-z
x,y,-z
1/2-x,1/2+y,1/2+z
1/2+x,1/2-y,1/2+z
loop_
_atom_site_type_symbol
_atom_site_label
_atom_site_fract_x
_atom_site_fract_y
_atom_site_fract_z
Si Si1 0.127491 0.418754 0.565671
Si Si2 0.711589 0.240913 0.224628
Si Si3 0.493046 0.728637 0.888982
Si Si4 0.864913 0.716183 0.854536
Si Si5 0.316835 0.543471 0.915586
Si Si6 0.624266 0.922628 0.313697
Si Si7 0.935039 0.102116 0.152464
Si Si8 0.500000 0.000000 0.500000
O O1 0.167950 0.432427 0.500000
O O2 0.027321 0.322414 0.575846
O O3 0.297732 0.414994 0.603100
O O4 0.000000 0.500000 0.585151
O O5 0.567357 0.250049 0.175670
O O6 0.661842 0.214776 0.287160
O O7 0.794776 0.344699 0.226350
O O8 0.839769 0.161447 0.201238
O O9 0.688850 0.694282 0.886255
O O10 0.362212 0.653994 0.915145
O O11 0.015776 0.639849 0.859451
O O12 0.924965 0.821915 0.868842
O O13 0.500000 0.500000 0.931757
O O14 0.269639 0.525203 0.849827
O O15 0.154021 0.513439 0.951930
O O16 0.500000 0.000000 0.287316
O O17 0.000000 0.000000 0.170715
#
# Coordination Sequence:
#
# PCOD9443839 Si02
#       8
#     8   8   8   8   8   8   8   2
#     4  10  22  42  63  87 121 161 211 273 330 382
#     4   9  21  38  59  92 130 165 212 267 322 387
#     4  10  21  38  63  93 128 172 214 265 329 394
#     4  11  21  39  63  92 132 169 212 265 323 385
#     4  11  24  44  65  96 130 168 217 271 327 387
#     4  10  20  38  62  88 125 168 209 257 321 382
#     4  10  21  38  63  92 123 164 215 266 329 390
#     4  12  26  44  72  90 134 170 218 280 324 386
#
# _framework density 22.011655000000001
#
# number of rings (size 3 to 8) (size 9 to 14) (size 15 to 20)
#    0.000    1.793    0.690    4.345    0.966    1.379 
#    0.000    7.586    0.000    0.000    0.000    0.000 
#    0.000    0.000    0.000    0.000    0.000    0.000 
#
# Total GULP energy -323422.807175 kJ/mol
# GULP energy per Si atom -5576.255296 kJ/mol
# Density = 2.196156 g / cm^3
# Si number density = 22.011655 Si / 1000 Ang^3
#
#
#
# Elastic Constant Matrix: (Units=GPa)
#
#
# Indices 1 2 3 4 5 6 
#
# 1 139.5466 33.2903 30.6751 0.0000 0.0000 0.0000
# 2 33.2903 96.9076 15.7038 0.0000 0.0000 0.0000
# 3 30.6751 15.7038 60.9711 0.0000 0.0000 0.0000
# 4 0.0000 0.0000 0.0000 -21.5430 0.0000 0.0000
# 5 0.0000 0.0000 0.0000 0.0000 21.0190 0.0000
# 6 0.0000 0.0000 0.0000 0.0000 0.0000 43.4197
#
#
#
# Elastic Compliance Matrix: (Units=1/GPa)
#
#
# Indices 1 2 3 4 5 6 
#
# 1 0.008534 -0.002333 -0.003693 0.000000 0.000000 0.000000
# 2 -0.002333 0.011407 -0.001764 0.000000 0.000000 0.000000
# 3 -0.003693 -0.001764 0.018713 0.000000 0.000000 0.000000
# 4 0.000000 0.000000 0.000000 -0.046419 0.000000 0.000000
# 5 0.000000 0.000000 0.000000 0.000000 0.047576 0.000000
# 6 0.000000 0.000000 0.000000 0.000000 0.000000 0.023031
#
#
# Mechanical properties :
#
#
# Convention : Reuss Voigt Hill
#
# Bulk Modulus (GPa) = 43.33848 50.75155 47.04501
# Shear Modulus (GPa) = 58.06253 23.09623 40.57938
#
# Velocity S-wave (km/s) = 5.14153 3.24276 4.29831
# Velocity P-wave (km/s) = 7.41477 6.09323 6.78624
#
# Compressibility (1/GPa) = 0.02307418
#
# Stress axis : x y z
#
# Youngs Moduli (GPa) = 117.17193 87.66900 53.43767
#
# Poissons Ratio (x) = 0.20457 0.19733
# Poissons Ratio (y) = 0.27341 0.09426
# Poissons Ratio (z) = 0.43269 0.15464
#
# Static dielectric constant tensor:
#      x y z
#    x 1.902910 0.000000 0.000000 
#    y 0.000000 1.849730 0.000000 
#    z 0.000000 0.000000 1.732560 
# 
# From -- ./inp_files/31599.got.cif
#   From: 2010.05.17/outbox.cif.g08.bks.cpg/sg58_16_cif.got.tgz:31599.got - 2010.06.03 14:20:14.
