data_PCOD9443039
_publ_section_title
;
Structure prediction by ZEFSAII (Michael W. Deem and Ramdas Pophale) SiO2 
 PCOD9443039
Probable space group: P N N M
;
_chemical_formula_sum "Si O2"
_cell_formula_units_Z 40
_cell_length_a 16.341931
_cell_length_b 9.204092
_cell_length_c 13.941385
_cell_angle_alpha 90.000000
_cell_angle_beta 90.000000
_cell_angle_gamma 90.000000
_cell_volume 2096.960473
_symmetry_space_group_name_H-M "P N N M"
_symmetry_group_IT_number 58
_symmetry_cell_setting 'orthorhombic'
loop_
_space_group_symop_operation_xyz
x,y,z
-x,-y,z
1/2+x,1/2-y,1/2-z
1/2-x,1/2+y,1/2-z
-x,-y,-z
x,y,-z
1/2-x,1/2+y,1/2+z
1/2+x,1/2-y,1/2+z
loop_
_atom_site_type_symbol
_atom_site_label
_atom_site_fract_x
_atom_site_fract_y
_atom_site_fract_z
Si Si1 0.346862 0.519191 0.887714
Si Si2 0.560531 0.229454 0.777245
Si Si3 0.599648 0.811880 0.109367
Si Si4 0.180359 0.533462 0.229712
Si Si5 0.540027 0.837520 0.391397
O O1 0.404373 0.638529 0.838286
O O2 0.388467 0.361460 0.888014
O O3 0.266123 0.510732 0.821699
O O4 0.329226 0.555572 0.000000
O O5 0.486603 0.158416 0.838457
O O6 0.515724 0.262544 0.676372
O O7 0.632454 0.116651 0.751077
O O8 0.673622 0.883453 0.169076
O O9 0.598707 0.861869 0.000000
O O10 0.126852 0.634019 0.158041
O O11 0.545808 0.787052 0.500000
O O12 0.500000 0.000000 0.391291
#
# Coordination Sequence:
#
# PCOD9443039 Si02
#       5
#     8   8   8   8   8
#     4  11  22  36  55  80 112 145 177 220 277 331
#     4  10  20  34  56  82 109 142 183 226 265 317
#     4  10  21  37  57  80 108 145 183 220 270 330
#     4  10  20  35  55  81 109 138 181 228 267 315
#     4   8  15  30  53  77 101 135 177 217 257 307
#
# _framework density 19.075229
#
# number of rings (size 3 to 8) (size 9 to 14) (size 15 to 20)
#    0.000    2.200    0.000    4.800    0.000    4.800 
#    0.000    1.000    0.000   12.000    0.000    0.000 
#    0.000    0.000    0.000    0.000    0.000    0.000 
#
# Total GULP energy -223066.288701 kJ/mol
# GULP energy per Si atom -5576.657218 kJ/mol
# Density = 1.903181 g / cm^3
# Si number density = 19.075229 Si / 1000 Ang^3
#
#
#
# Elastic Constant Matrix: (Units=GPa)
#
#
# Indices 1 2 3 4 5 6 
#
# 1 82.3223 15.0756 39.4272 0.0000 0.0000 0.0000
# 2 15.0756 32.9497 11.9804 0.0000 0.0000 0.0000
# 3 39.4272 11.9804 150.9354 0.0000 0.0000 0.0000
# 4 0.0000 0.0000 0.0000 29.2212 0.0000 0.0000
# 5 0.0000 0.0000 0.0000 0.0000 -8.2505 0.0000
# 6 0.0000 0.0000 0.0000 0.0000 0.0000 24.0962
#
#
#
# Elastic Compliance Matrix: (Units=1/GPa)
#
#
# Indices 1 2 3 4 5 6 
#
# 1 0.014801 -0.005526 -0.003428 0.000000 0.000000 0.000000
# 2 -0.005526 0.033314 -0.001201 0.000000 0.000000 0.000000
# 3 -0.003428 -0.001201 0.007616 0.000000 0.000000 0.000000
# 4 0.000000 0.000000 0.000000 0.034222 0.000000 0.000000
# 5 0.000000 0.000000 0.000000 0.000000 -0.121205 0.000000
# 6 0.000000 0.000000 0.000000 0.000000 0.000000 0.041500
#
#
# Mechanical properties :
#
#
# Convention : Reuss Voigt Hill
#
# Bulk Modulus (GPa) = 28.23054 44.35265 36.29160
# Shear Modulus (GPa) = 118.02483 22.32834 70.17658
#
# Velocity S-wave (km/s) = 7.87449 3.42503 6.07201
# Velocity P-wave (km/s) = 9.87464 6.24043 8.25989
#
# Compressibility (1/GPa) = 0.03542263
#
# Stress axis : x y z
#
# Youngs Moduli (GPa) = 67.56342 30.01739 131.30168
#
# Poissons Ratio (x) = 0.16586 0.45006
# Poissons Ratio (y) = 0.37333 0.15768
# Poissons Ratio (z) = 0.23159 0.03605
#
# Static dielectric constant tensor:
#      x y z
#    x 1.656190 0.000000 0.000000 
#    y 0.000000 1.666700 0.000000 
#    z 0.000000 0.000000 1.679740 
# 
# From -- ./inp_files/19467.got.cif
#   From: 2010.05.17/outbox.cif.g08.bks.cpg/sg58_10_cif.got.tgz:19467.got - 2010.06.03 14:20:14.
