data_PCOD9443295
_publ_section_title
;
Structure prediction by ZEFSAII (Michael W. Deem and Ramdas Pophale) SiO2 
 PCOD9443295
Probable space group: P N N M
;
_chemical_formula_sum "Si O2"
_cell_formula_units_Z 48
_cell_length_a 19.493468
_cell_length_b 15.487608
_cell_length_c 8.690871
_cell_angle_alpha 90.000000
_cell_angle_beta 90.000000
_cell_angle_gamma 90.000000
_cell_volume 2623.836450
_symmetry_space_group_name_H-M "P N N M"
_symmetry_group_IT_number 58
_symmetry_cell_setting 'orthorhombic'
loop_
_space_group_symop_operation_xyz
x,y,z
-x,-y,z
1/2+x,1/2-y,1/2-z
1/2-x,1/2+y,1/2-z
-x,-y,-z
x,y,-z
1/2-x,1/2+y,1/2+z
1/2+x,1/2-y,1/2+z
loop_
_atom_site_type_symbol
_atom_site_label
_atom_site_fract_x
_atom_site_fract_y
_atom_site_fract_z
Si Si1 0.423760 0.529783 0.314498
Si Si2 0.925153 0.781623 0.685382
Si Si3 0.668992 0.121097 0.813926
Si Si4 0.422250 0.221155 0.815489
Si Si5 0.172063 0.870984 0.813976
Si Si6 0.576423 0.969155 0.315643
O O1 0.500000 0.500000 0.264734
O O2 0.423835 0.533926 0.500000
O O3 0.408721 0.624371 0.250464
O O4 0.369181 0.457156 0.266866
O O5 0.924350 0.785844 0.500000
O O6 0.872018 0.707350 0.733685
O O7 0.001924 0.753692 0.733844
O O8 0.748485 0.125028 0.768282
O O9 0.630488 0.038568 0.745777
O O10 0.665795 0.115846 0.000000
O O11 0.366714 0.288757 0.754616
O O12 0.410712 0.125685 0.750796
O O13 0.420995 0.218579 0.000000
O O14 0.168918 0.865490 0.000000
O O15 0.578715 0.966165 0.500000
O O16 0.500000 0.000000 0.268246
#
# Coordination Sequence:
#
# PCOD9443295 Si02
#       6
#     8   8   8   8   8   8
#     4  10  20  35  58  85 113 149 191 238 288 345
#     4  10  21  36  58  86 113 150 194 239 287 342
#     4  10  22  41  61  85 121 157 192 240 297 354
#     4  11  22  37  61  88 116 153 198 244 290 349
#     4  10  22  40  60  86 121 156 192 240 298 350
#     4  11  23  38  61  90 118 153 198 247 295 350
#
# _framework density 18.293823
#
# number of rings (size 3 to 8) (size 9 to 14) (size 15 to 20)
#    0.000    1.667    3.333    1.000    0.000    5.000 
#    0.000    3.333    0.000    0.000    0.000    0.000 
#    0.000    0.000    0.000    0.000    0.000    0.000 
#
# Total GULP energy -268205.402743 kJ/mol
# GULP energy per Si atom -5587.612557 kJ/mol
# Density = 1.825219 g / cm^3
# Si number density = 18.293823 Si / 1000 Ang^3
#
#
#
# Elastic Constant Matrix: (Units=GPa)
#
#
# Indices 1 2 3 4 5 6 
#
# 1 188.7060 118.2419 43.4142 0.0000 0.0000 0.0000
# 2 118.2419 223.1590 43.7116 0.0000 0.0000 0.0000
# 3 43.4142 43.7116 17.5739 0.0000 0.0000 0.0000
# 4 0.0000 0.0000 0.0000 39.7956 0.0000 0.0000
# 5 0.0000 0.0000 0.0000 0.0000 15.1815 0.0000
# 6 0.0000 0.0000 0.0000 0.0000 0.0000 34.2858
#
#
#
# Elastic Compliance Matrix: (Units=1/GPa)
#
#
# Indices 1 2 3 4 5 6 
#
# 1 0.012417 -0.001113 -0.027905 0.000000 0.000000 0.000000
# 2 -0.001113 0.008838 -0.019234 0.000000 0.000000 0.000000
# 3 -0.027905 -0.019234 0.173681 0.000000 0.000000 0.000000
# 4 0.000000 0.000000 0.000000 0.025128 0.000000 0.000000
# 5 0.000000 0.000000 0.000000 0.000000 0.065870 0.000000
# 6 0.000000 0.000000 0.000000 0.000000 0.000000 0.029167
#
#
# Mechanical properties :
#
#
# Convention : Reuss Voigt Hill
#
# Bulk Modulus (GPa) = 10.15942 93.35270 51.75606
# Shear Modulus (GPa) = 11.25071 32.79066 22.02068
#
# Velocity S-wave (km/s) = 2.48261 4.23832 3.47323
# Velocity P-wave (km/s) = 3.71259 8.66554 6.66614
#
# Compressibility (1/GPa) = 0.09843077
#
# Stress axis : x y z
#
# Youngs Moduli (GPa) = 80.53707 113.14308 5.75768
#
# Poissons Ratio (x) = 0.12593 0.16067
# Poissons Ratio (y) = 0.08964 0.11074
# Poissons Ratio (z) = 2.24743 2.17622
#
# Static dielectric constant tensor:
#      x y z
#    x 1.616270 0.000000 0.000000 
#    y 0.000000 1.586470 0.000000 
#    z 0.000000 0.000000 1.620480 
# 
# From -- ./inp_files/5784.got.cif
#   From: 2010.05.17/outbox.cif.g08.bks.cpg/sg58_3_cif.got.tgz:5784.got - 2010.06.03 14:20:14.
