data_PCOD9443933
_publ_section_title
;
Structure prediction by ZEFSAII (Michael W. Deem and Ramdas Pophale) SiO2 
 PCOD9443933
Probable space group: P N N M
;
_chemical_formula_sum "Si O2"
_cell_formula_units_Z 56
_cell_length_a 20.325249
_cell_length_b 9.742756
_cell_length_c 15.410638
_cell_angle_alpha 90.000000
_cell_angle_beta 90.000000
_cell_angle_gamma 90.000000
_cell_volume 3051.675280
_symmetry_space_group_name_H-M "P N N M"
_symmetry_group_IT_number 58
_symmetry_cell_setting 'orthorhombic'
loop_
_space_group_symop_operation_xyz
x,y,z
-x,-y,z
1/2+x,1/2-y,1/2-z
1/2-x,1/2+y,1/2-z
-x,-y,-z
x,y,-z
1/2-x,1/2+y,1/2+z
1/2+x,1/2-y,1/2+z
loop_
_atom_site_type_symbol
_atom_site_label
_atom_site_fract_x
_atom_site_fract_y
_atom_site_fract_z
Si Si1 0.572464 0.653076 0.812565
Si Si2 0.070087 0.152085 0.243906
Si Si3 0.801044 0.341633 0.275896
Si Si4 0.176333 0.104086 0.896977
Si Si5 0.645928 0.111615 0.843442
Si Si6 0.932539 0.575063 0.500000
Si Si7 0.279366 0.289815 0.594400
Si Si8 0.511168 0.662069 0.000000
O O1 0.508722 0.678423 0.749479
O O2 0.583846 0.490308 0.796044
O O3 0.638250 0.740700 0.798354
O O4 0.548556 0.686550 0.909781
O O5 0.107756 0.138680 0.151736
O O6 0.104620 0.276342 0.293454
O O7 0.737196 0.331670 0.340112
O O8 0.822030 0.499827 0.281634
O O9 0.787789 0.306117 0.176499
O O10 0.186116 0.938408 0.892660
O O11 0.178889 0.140532 0.000000
O O12 0.602898 0.031717 0.912943
O O13 0.702188 0.178466 0.901777
O O14 0.000000 0.500000 0.500000
O O15 0.947536 0.738664 0.500000
O O16 0.298808 0.235414 0.500000
O O17 0.500000 0.500000 0.000000
#
# Coordination Sequence:
#
# PCOD9443933 Si02
#       8
#     8   8   8   8   8   4   8   4
#     4  11  23  37  60  91 125 166 202 259 311 373
#     4  11  21  40  60  85 128 164 205 253 310 364
#     4  11  23  38  61  91 124 158 208 261 314 368
#     4  10  22  40  64  89 122 167 214 258 303 372
#     4  11  22  36  59  88 124 162 197 251 312 370
#     4  12  22  36  58  92 128 166 200 239 316 399
#     4  10  20  39  62  86 118 163 209 253 308 374
#     4  12  20  36  56  90 128 160 205 244 310 384
#
# _framework density 18.350576
#
# number of rings (size 3 to 8) (size 9 to 14) (size 15 to 20)
#    0.000    1.143    6.429    0.857    2.000    0.000 
#    0.000    2.857    0.000    0.000    0.000    2.000 
#    0.000    0.000    0.000    0.000    0.000    0.000 
#
# Total GULP energy -312082.088537 kJ/mol
# GULP energy per Si atom -5572.894438 kJ/mol
# Density = 1.830881 g / cm^3
# Si number density = 18.350576 Si / 1000 Ang^3
#
#
#
# Elastic Constant Matrix: (Units=GPa)
#
#
# Indices 1 2 3 4 5 6 
#
# 1 84.6805 21.0547 55.2048 0.0000 0.0000 0.0000
# 2 21.0547 46.0038 33.0143 0.0000 0.0000 0.0000
# 3 55.2048 33.0143 164.4654 0.0000 0.0000 0.0000
# 4 0.0000 0.0000 0.0000 18.3674 0.0000 0.0000
# 5 0.0000 0.0000 0.0000 0.0000 29.0721 0.0000
# 6 0.0000 0.0000 0.0000 0.0000 0.0000 27.5960
#
#
#
# Elastic Compliance Matrix: (Units=1/GPa)
#
#
# Indices 1 2 3 4 5 6 
#
# 1 0.015717 -0.003981 -0.004477 0.000000 0.000000 0.000000
# 2 -0.003981 0.026404 -0.003964 0.000000 0.000000 0.000000
# 3 -0.004477 -0.003964 0.008379 0.000000 0.000000 0.000000
# 4 0.000000 0.000000 0.000000 0.054444 0.000000 0.000000
# 5 0.000000 0.000000 0.000000 0.000000 0.034397 0.000000
# 6 0.000000 0.000000 0.000000 0.000000 0.000000 0.036237
#
#
# Mechanical properties :
#
#
# Convention : Reuss Voigt Hill
#
# Bulk Modulus (GPa) = 38.97563 57.07749 48.02656
# Shear Modulus (GPa) = 23.92646 27.39884 25.66265
#
# Velocity S-wave (km/s) = 3.61481 3.86823 3.74366
# Velocity P-wave (km/s) = 6.22158 7.14999 6.70188
#
# Compressibility (1/GPa) = 0.02565706
#
# Stress axis : x y z
#
# Youngs Moduli (GPa) = 63.62448 37.87304 119.35071
#
# Poissons Ratio (x) = 0.15076 0.53428
# Poissons Ratio (y) = 0.25327 0.47312
# Poissons Ratio (z) = 0.28482 0.15013
#
# Static dielectric constant tensor:
#      x y z
#    x 1.652410 0.000000 0.000000 
#    y 0.000000 1.626360 0.000000 
#    z 0.000000 0.000000 1.622600 
# 
# From -- ./inp_files/23288.got.cif
#   From: 2010.05.17/outbox.cif.g08.bks.cpg/sg58_12_cif.got.tgz:23288.got - 2010.06.03 14:20:14.
