data_PCOD9443252
_publ_section_title
;
Structure prediction by ZEFSAII (Michael W. Deem and Ramdas Pophale) SiO2 
 PCOD9443252
Probable space group: P N N M
;
_chemical_formula_sum "Si O2"
_cell_formula_units_Z 64
_cell_length_a 15.341054
_cell_length_b 25.191387
_cell_length_c 7.724834
_cell_angle_alpha 90.000000
_cell_angle_beta 90.000000
_cell_angle_gamma 90.000000
_cell_volume 2985.358106
_symmetry_space_group_name_H-M "P N N M"
_symmetry_group_IT_number 58
_symmetry_cell_setting 'orthorhombic'
loop_
_space_group_symop_operation_xyz
x,y,z
-x,-y,z
1/2+x,1/2-y,1/2-z
1/2-x,1/2+y,1/2-z
-x,-y,-z
x,y,-z
1/2-x,1/2+y,1/2+z
1/2+x,1/2-y,1/2+z
loop_
_atom_site_type_symbol
_atom_site_label
_atom_site_fract_x
_atom_site_fract_y
_atom_site_fract_z
Si Si1 0.485895 0.829834 0.788752
Si Si2 0.748912 0.061330 0.797923
Si Si3 0.934554 0.867398 0.791969
Si Si4 0.845520 0.757990 0.299171
Si Si5 0.096789 0.016644 0.705939
Si Si6 0.147462 0.739584 0.298860
Si Si7 0.943687 0.550182 0.287720
Si Si8 0.624101 0.642774 0.299950
O O1 0.407983 0.789647 0.731665
O O2 0.579930 0.805410 0.737397
O O3 0.473993 0.890743 0.733832
O O4 0.482730 0.829812 0.000000
O O5 0.656171 0.044262 0.726423
O O6 0.790986 0.115091 0.721953
O O7 0.825926 0.018830 0.781480
O O8 0.729744 0.071303 0.000000
O O9 0.896890 0.813292 0.716606
O O10 0.886456 0.921749 0.747530
O O11 0.032791 0.875000 0.721411
O O12 0.936271 0.861082 0.000000
O O13 0.828246 0.745448 0.500000
O O14 0.750967 0.768281 0.216694
O O15 0.097040 0.008887 0.500000
O O16 0.000000 0.000000 0.771942
O O17 0.126672 0.748328 0.500000
O O18 0.127711 0.794504 0.205358
O O19 0.948278 0.549375 0.500000
O O20 0.000000 0.500000 0.228028
O O21 0.621129 0.625567 0.500000
#
# Coordination Sequence:
#
# PCOD9443252 Si02
#       8
#     8   8   8   8   8   8   8   8
#     4   9  19  36  57  81 117 156 195 243 300 360
#     4  10  20  36  60  87 115 154 202 249 299 356
#     4  11  22  37  59  85 116 153 199 249 296 355
#     4  11  22  39  59  84 121 161 196 242 305 364
#     4  11  23  37  56  84 121 159 194 237 299 364
#     4  11  22  36  58  88 119 157 203 248 297 359
#     4   9  18  34  58  86 113 147 195 247 294 344
#     4  10  20  35  57  84 116 153 197 248 302 358
#
# _framework density 21.437964000000001
#
# number of rings (size 3 to 8) (size 9 to 14) (size 15 to 20)
#    0.000    1.750    2.500    2.250    0.000    4.500 
#    0.000    2.500    0.000    1.875    0.000    0.000 
#    0.000    0.000    0.000    0.000    0.000    0.000 
#
# Total GULP energy -357268.263080 kJ/mol
# GULP energy per Si atom -5582.316611 kJ/mol
# Density = 2.138917 g / cm^3
# Si number density = 21.437964 Si / 1000 Ang^3
#
#
#
# Elastic Constant Matrix: (Units=GPa)
#
#
# Indices 1 2 3 4 5 6 
#
# 1 156.3965 80.4197 -2.9433 0.0000 0.0000 0.0000
# 2 80.4197 157.5087 -11.6839 0.0000 0.0000 0.0000
# 3 -2.9433 -11.6839 37.0771 0.0000 0.0000 0.0000
# 4 0.0000 0.0000 0.0000 17.5487 0.0000 0.0000
# 5 0.0000 0.0000 0.0000 0.0000 13.9188 0.0000
# 6 0.0000 0.0000 0.0000 0.0000 0.0000 26.3451
#
#
#
# Elastic Compliance Matrix: (Units=1/GPa)
#
#
# Indices 1 2 3 4 5 6 
#
# 1 0.008689 -0.004490 -0.000725 0.000000 0.000000 0.000000
# 2 -0.004490 0.008821 0.002423 0.000000 0.000000 0.000000
# 3 -0.000725 0.002423 0.027677 0.000000 0.000000 0.000000
# 4 0.000000 0.000000 0.000000 0.056984 0.000000 0.000000
# 5 0.000000 0.000000 0.000000 0.000000 0.071845 0.000000
# 6 0.000000 0.000000 0.000000 0.000000 0.000000 0.037958
#
#
# Mechanical properties :
#
#
# Convention : Reuss Voigt Hill
#
# Bulk Modulus (GPa) = 25.25062 53.61862 39.43462
# Shear Modulus (GPa) = 21.66753 30.57517 26.12135
#
# Velocity S-wave (km/s) = 3.18261 3.78062 3.49443
# Velocity P-wave (km/s) = 5.03084 6.64250 5.89204
#
# Compressibility (1/GPa) = 0.03960299
#
# Stress axis : x y z
#
# Youngs Moduli (GPa) = 115.08408 113.36253 36.13124
#
# Poissons Ratio (x) = 0.50903 0.02620
# Poissons Ratio (y) = 0.51676 -0.08756
# Poissons Ratio (z) = 0.08346 -0.27471
#
# Static dielectric constant tensor:
#      x y z
#    x 1.822150 0.000000 0.000000 
#    y 0.000000 1.760340 0.000000 
#    z 0.000000 0.000000 1.796240 
# 
# From -- ./inp_files/6769.got.cif
#   From: 2010.05.17/outbox.cif.g08.bks.cpg/sg58_4_cif.got.tgz:6769.got - 2010.06.03 14:20:14.
