data_PCOD9443919
_publ_section_title
;
Structure prediction by ZEFSAII (Michael W. Deem and Ramdas Pophale) SiO2 
 PCOD9443919
Probable space group: P N N M
;
_chemical_formula_sum "Si O2"
_cell_formula_units_Z 34
_cell_length_a 23.375371
_cell_length_b 7.071138
_cell_length_c 7.875757
_cell_angle_alpha 90.000000
_cell_angle_beta 90.000000
_cell_angle_gamma 90.000000
_cell_volume 1301.787609
_symmetry_space_group_name_H-M "P N N M"
_symmetry_group_IT_number 58
_symmetry_cell_setting 'orthorhombic'
loop_
_space_group_symop_operation_xyz
x,y,z
-x,-y,z
1/2+x,1/2-y,1/2-z
1/2-x,1/2+y,1/2-z
-x,-y,-z
x,y,-z
1/2-x,1/2+y,1/2+z
1/2+x,1/2-y,1/2+z
loop_
_atom_site_type_symbol
_atom_site_label
_atom_site_fract_x
_atom_site_fract_y
_atom_site_fract_z
Si Si1 0.196780 0.083086 0.689531
Si Si2 0.500000 0.500000 0.000000
Si Si3 0.676049 0.970116 0.193363
Si Si4 0.419802 0.481839 0.313492
Si Si5 0.060641 0.410900 0.291121
O O1 0.189317 0.013051 0.500000
O O2 0.179637 0.301628 0.694762
O O3 0.149754 0.968226 0.796011
O O4 0.263959 0.086790 0.727997
O O5 0.456204 0.417816 0.150336
O O6 0.611838 0.946452 0.260421
O O7 0.677048 0.904852 0.000000
O O8 0.437335 0.415164 0.500000
O O9 0.431008 0.709896 0.298251
O O10 0.062971 0.373242 0.500000
O O11 0.000000 0.500000 0.254119
#
# Coordination Sequence:
#
# PCOD9443919 Si02
#       5
#     8   2   8   8   8
#     4  10  20  39  59  84 121 158 199 255 306 359
#     4  12  22  44  58  90 120 164 200 242 310 364
#     4   9  19  35  58  86 117 157 204 248 303 362
#     4  11  22  39  64  86 121 163 200 249 304 360
#     4   9  18  38  62  86 122 162 200 252 306 360
#
# _framework density 26.117933000000001
#
# number of rings (size 3 to 8) (size 9 to 14) (size 15 to 20)
#    0.000    2.118    2.353    2.471    0.000    5.176 
#    4.235    0.000    0.000    0.000    0.000    0.000 
#    0.000    0.000    0.000    0.000    0.000    0.000 
#
# Total GULP energy -189580.480297 kJ/mol
# GULP energy per Si atom -5575.896479 kJ/mol
# Density = 2.605849 g / cm^3
# Si number density = 26.117933 Si / 1000 Ang^3
#
#
#
# Elastic Constant Matrix: (Units=GPa)
#
#
# Indices 1 2 3 4 5 6 
#
# 1 223.1676 22.9669 62.2101 0.0000 0.0000 0.0000
# 2 22.9669 53.5657 -1.5927 0.0000 0.0000 0.0000
# 3 62.2101 -1.5927 153.2771 0.0000 0.0000 0.0000
# 4 0.0000 0.0000 0.0000 5.7821 0.0000 0.0000
# 5 0.0000 0.0000 0.0000 0.0000 45.3475 0.0000
# 6 0.0000 0.0000 0.0000 0.0000 0.0000 32.8549
#
#
#
# Elastic Compliance Matrix: (Units=1/GPa)
#
#
# Indices 1 2 3 4 5 6 
#
# 1 0.005333 -0.002352 -0.002189 0.000000 0.000000 0.000000
# 2 -0.002352 0.019711 0.001159 0.000000 0.000000 0.000000
# 3 -0.002189 0.001159 0.007425 0.000000 0.000000 0.000000
# 4 0.000000 0.000000 0.000000 0.172949 0.000000 0.000000
# 5 0.000000 0.000000 0.000000 0.000000 0.022052 0.000000
# 6 0.000000 0.000000 0.000000 0.000000 0.000000 0.030437
#
#
# Mechanical properties :
#
#
# Convention : Reuss Voigt Hill
#
# Bulk Modulus (GPa) = 38.90080 66.35323 52.62701
# Shear Modulus (GPa) = 18.29904 39.89197 29.09551
#
# Velocity S-wave (km/s) = 2.64982 3.91241 3.34129
# Velocity P-wave (km/s) = 4.92835 6.77271 5.92277
#
# Compressibility (1/GPa) = 0.02570641
#
# Stress axis : x y z
#
# Youngs Moduli (GPa) = 187.50590 50.73189 134.68709
#
# Poissons Ratio (x) = 0.11931 0.29483
# Poissons Ratio (y) = 0.44097 -0.15614
# Poissons Ratio (z) = 0.41045 -0.05881
#
# Static dielectric constant tensor:
#      x y z
#    x 2.253980 0.000000 0.000000 
#    y 0.000000 2.159670 0.000000 
#    z 0.000000 0.000000 2.010550 
# 
# From -- ./inp_files/2289.got.cif
#   From: 2010.05.17/outbox.cif.g08.bks.cpg/sg58_2_cif.got.tgz:2289.got - 2010.06.03 14:20:14.
