data_PCOD9443739
_publ_section_title
;
Structure prediction by ZEFSAII (Michael W. Deem and Ramdas Pophale) SiO2 
 PCOD9443739
Probable space group: P N N M
;
_chemical_formula_sum "Si O2"
_cell_formula_units_Z 48
_cell_length_a 9.138486
_cell_length_b 31.654752
_cell_length_c 8.611552
_cell_angle_alpha 90.000000
_cell_angle_beta 90.000000
_cell_angle_gamma 90.000000
_cell_volume 2491.119691
_symmetry_space_group_name_H-M "P N N M"
_symmetry_group_IT_number 58
_symmetry_cell_setting 'orthorhombic'
loop_
_space_group_symop_operation_xyz
x,y,z
-x,-y,z
1/2+x,1/2-y,1/2-z
1/2-x,1/2+y,1/2-z
-x,-y,-z
x,y,-z
1/2-x,1/2+y,1/2+z
1/2+x,1/2-y,1/2+z
loop_
_atom_site_type_symbol
_atom_site_label
_atom_site_fract_x
_atom_site_fract_y
_atom_site_fract_z
Si Si1 0.910946 0.708589 0.686133
Si Si2 0.917037 0.205965 0.686134
Si Si3 0.078134 0.955885 0.312282
Si Si4 0.589277 0.374558 0.315419
Si Si5 0.582966 0.872211 0.686563
Si Si6 0.917444 0.542315 0.189189
O O1 0.899223 0.707333 0.500000
O O2 0.997289 0.751260 0.729863
O O3 0.000343 0.668068 0.744074
O O4 0.749750 0.708497 0.758283
O O5 0.920694 0.201777 0.500000
O O6 0.996662 0.165760 0.759866
O O7 0.073047 0.951262 0.500000
O O8 0.993886 0.916728 0.238360
O O9 0.247941 0.956797 0.263661
O O10 0.000000 0.000000 0.273125
O O11 0.603898 0.373865 0.500000
O O12 0.749504 0.373049 0.239696
O O13 0.576676 0.869944 0.500000
O O14 0.502031 0.915358 0.736925
O O15 0.000000 0.500000 0.242460
O O16 0.918751 0.541501 0.000000
#
# Coordination Sequence:
#
# PCOD9443739 Si02
#       6
#     8   8   8   8   8   8
#     4  11  24  41  63  92 124 157 198 251 306 357
#     4  11  24  42  64  89 120 160 203 244 297 367
#     4  10  20  37  63  91 120 157 202 249 301 367
#     4  12  25  40  60  87 122 159 201 256 310 358
#     4  11  22  38  62  88 119 160 204 249 301 364
#     4   9  18  34  58  88 117 149 194 244 291 346
#
# _framework density 19.268443000000001
#
# number of rings (size 3 to 8) (size 9 to 14) (size 15 to 20)
#    0.000    1.333    0.000    6.000    0.000    9.667 
#    0.000    0.833    0.000    3.500    0.000    0.000 
#    0.000    0.000    0.000    0.000    0.000    0.000 
#
# Total GULP energy -268541.291915 kJ/mol
# GULP energy per Si atom -5594.610248 kJ/mol
# Density = 1.922459 g / cm^3
# Si number density = 19.268443 Si / 1000 Ang^3
#
#
#
# Elastic Constant Matrix: (Units=GPa)
#
#
# Indices 1 2 3 4 5 6 
#
# 1 100.6413 29.6504 -9.4064 0.0000 0.0000 0.0000
# 2 29.6504 138.4751 14.6062 0.0000 0.0000 0.0000
# 3 -9.4064 14.6062 23.2695 0.0000 0.0000 0.0000
# 4 0.0000 0.0000 0.0000 26.7435 0.0000 0.0000
# 5 0.0000 0.0000 0.0000 0.0000 29.9395 0.0000
# 6 0.0000 0.0000 0.0000 0.0000 0.0000 45.1083
#
#
#
# Elastic Compliance Matrix: (Units=1/GPa)
#
#
# Indices 1 2 3 4 5 6 
#
# 1 0.011486 -0.003158 0.006626 0.000000 0.000000 0.000000
# 2 -0.003158 0.008602 -0.006676 0.000000 0.000000 0.000000
# 3 0.006626 -0.006676 0.049844 0.000000 0.000000 0.000000
# 4 0.000000 0.000000 0.000000 0.037392 0.000000 0.000000
# 5 0.000000 0.000000 0.000000 0.000000 0.033401 0.000000
# 6 0.000000 0.000000 0.000000 0.000000 0.000000 0.022169
#
#
# Mechanical properties :
#
#
# Convention : Reuss Voigt Hill
#
# Bulk Modulus (GPa) = 15.74458 36.89846 26.32152
# Shear Modulus (GPa) = 26.24915 35.52731 30.88823
#
# Velocity S-wave (km/s) = 3.69492 4.29862 4.00815
# Velocity P-wave (km/s) = 5.13733 6.62033 5.92541
#
# Compressibility (1/GPa) = 0.06351391
#
# Stress axis : x y z
#
# Youngs Moduli (GPa) = 87.06256 116.25273 20.06273
#
# Poissons Ratio (x) = 0.36715 -0.13293
# Poissons Ratio (y) = 0.27496 0.13394
# Poissons Ratio (z) = -0.57683 0.77612
#
# Static dielectric constant tensor:
#      x y z
#    x 1.629190 0.000000 0.000000 
#    y 0.000000 1.638040 0.000000 
#    z 0.000000 0.000000 1.655470 
# 
# From -- ./inp_files/2893.got.cif
#   From: 2010.05.17/outbox.cif.g08.bks.cpg/sg58_2_cif.got.tgz:2893.got - 2010.06.03 14:20:14.
