data_PCOD9443277
_publ_section_title
;
Structure prediction by ZEFSAII (Michael W. Deem and Ramdas Pophale) SiO2 
 PCOD9443277
Probable space group: P N N M
;
_chemical_formula_sum "Si O2"
_cell_formula_units_Z 40
_cell_length_a 9.002501
_cell_length_b 13.949474
_cell_length_c 13.673893
_cell_angle_alpha 90.000000
_cell_angle_beta 90.000000
_cell_angle_gamma 90.000000
_cell_volume 1717.169584
_symmetry_space_group_name_H-M "P N N M"
_symmetry_group_IT_number 58
_symmetry_cell_setting 'orthorhombic'
loop_
_space_group_symop_operation_xyz
x,y,z
-x,-y,z
1/2+x,1/2-y,1/2-z
1/2-x,1/2+y,1/2-z
-x,-y,-z
x,y,-z
1/2-x,1/2+y,1/2+z
1/2+x,1/2-y,1/2+z
loop_
_atom_site_type_symbol
_atom_site_label
_atom_site_fract_x
_atom_site_fract_y
_atom_site_fract_z
Si Si1 0.619372 0.802716 0.160592
Si Si2 0.662036 0.791244 0.392649
Si Si3 0.971881 0.891470 0.364692
Si Si4 0.323325 0.910861 0.107826
Si Si5 0.625920 0.435270 0.346114
O O1 0.606282 0.806374 0.280495
O O2 0.586521 0.695823 0.120327
O O3 0.486615 0.871246 0.125044
O O4 0.776854 0.843757 0.122406
O O5 0.583724 0.805360 0.500000
O O6 0.811073 0.855050 0.397351
O O7 0.718397 0.681728 0.391605
O O8 0.958935 0.898890 0.248210
O O9 0.000000 0.000000 0.398009
O O10 0.256874 0.989073 0.180279
O O11 0.314506 0.956558 0.000000
O O12 0.500000 0.500000 0.398947
#
# Coordination Sequence:
#
# PCOD9443277 Si02
#       5
#     8   8   8   8   8
#     4  10  20  36  60  87 122 163 202 251 316 384
#     4   9  18  33  56  85 116 154 200 252 306 359
#     4   9  18  33  53  80 115 159 203 243 298 364
#     4  10  21  38  61  90 123 160 205 260 323 386
#     4  10  20  35  57  88 120 154 199 253 314 372
#
# _framework density 23.294146999999999
#
# number of rings (size 3 to 8) (size 9 to 14) (size 15 to 20)
#    0.000    2.400    0.000    3.000    0.000    2.400 
#    0.000    1.000    0.000   17.400    0.000    2.800 
#    0.000    0.000    0.000    0.000    0.000    0.000 
#
# Total GULP energy -222718.082957 kJ/mol
# GULP energy per Si atom -5567.952074 kJ/mol
# Density = 2.324113 g / cm^3
# Si number density = 23.294147 Si / 1000 Ang^3
#
#
#
# Elastic Constant Matrix: (Units=GPa)
#
#
# Indices 1 2 3 4 5 6 
#
# 1 73.7385 57.2968 23.8342 0.0000 0.0000 0.0000
# 2 57.2968 160.6540 -0.8712 0.0000 0.0000 0.0000
# 3 23.8342 -0.8712 111.3595 0.0000 0.0000 0.0000
# 4 0.0000 0.0000 0.0000 -55.2721 0.0000 0.0000
# 5 0.0000 0.0000 0.0000 0.0000 7.8416 0.0000
# 6 0.0000 0.0000 0.0000 0.0000 0.0000 50.7748
#
#
#
# Elastic Compliance Matrix: (Units=1/GPa)
#
#
# Indices 1 2 3 4 5 6 
#
# 1 0.020804 -0.007444 -0.004511 0.000000 0.000000 0.000000
# 2 -0.007444 0.008888 0.001663 0.000000 0.000000 0.000000
# 3 -0.004511 0.001663 0.009958 0.000000 0.000000 0.000000
# 4 0.000000 0.000000 0.000000 -0.018092 0.000000 0.000000
# 5 0.000000 0.000000 0.000000 0.000000 0.127524 0.000000
# 6 0.000000 0.000000 0.000000 0.000000 0.000000 0.019695
#
#
# Mechanical properties :
#
#
# Convention : Reuss Voigt Hill
#
# Bulk Modulus (GPa) = 52.44844 56.25242 54.35043
# Shear Modulus (GPa) = 25.54711 18.36835 21.95773
#
# Velocity S-wave (km/s) = 3.31527 2.81114 3.07356
# Velocity P-wave (km/s) = 6.10076 5.89388 5.99821
#
# Compressibility (1/GPa) = 0.01906634
#
# Stress axis : x y z
#
# Youngs Moduli (GPa) = 48.06849 112.50541 100.41796
#
# Poissons Ratio (x) = 0.83749 0.45297
# Poissons Ratio (y) = 0.35782 -0.16697
# Poissons Ratio (z) = 0.21683 -0.18707
#
# Static dielectric constant tensor:
#      x y z
#    x 1.894900 0.000000 0.000000 
#    y 0.000000 1.892450 0.000000 
#    z 0.000000 0.000000 1.984300 
# 
# From -- ./inp_files/19502.got.cif
#   From: 2010.05.17/outbox.cif.g08.bks.cpg/sg58_10_cif.got.tgz:19502.got - 2010.06.03 14:20:14.
