data_PCOD9443706
_publ_section_title
;
Structure prediction by ZEFSAII (Michael W. Deem and Ramdas Pophale) SiO2 
 PCOD9443706
Probable space group: P N N M
;
_chemical_formula_sum "Si O2"
_cell_formula_units_Z 56
_cell_length_a 21.485930
_cell_length_b 14.732319
_cell_length_c 7.603213
_cell_angle_alpha 90.000000
_cell_angle_beta 90.000000
_cell_angle_gamma 90.000000
_cell_volume 2406.702603
_symmetry_space_group_name_H-M "P N N M"
_symmetry_group_IT_number 58
_symmetry_cell_setting 'orthorhombic'
loop_
_space_group_symop_operation_xyz
x,y,z
-x,-y,z
1/2+x,1/2-y,1/2-z
1/2-x,1/2+y,1/2-z
-x,-y,-z
x,y,-z
1/2-x,1/2+y,1/2+z
1/2+x,1/2-y,1/2+z
loop_
_atom_site_type_symbol
_atom_site_label
_atom_site_fract_x
_atom_site_fract_y
_atom_site_fract_z
Si Si1 0.993625 0.788995 0.291296
Si Si2 0.790405 0.208408 0.792414
Si Si3 0.468209 0.907729 0.288116
Si Si4 0.103635 0.921843 0.795990
Si Si5 0.874671 0.882651 0.299390
Si Si6 0.765621 0.404271 0.215808
Si Si7 0.173546 0.406194 0.212723
O O1 0.992961 0.805297 0.500000
O O2 0.005083 0.683353 0.258193
O O3 0.925257 0.815397 0.218051
O O4 0.045404 0.854892 0.214325
O O5 0.837447 0.133220 0.718676
O O6 0.798097 0.310821 0.726136
O O7 0.720138 0.173487 0.768829
O O8 0.804004 0.211796 0.000000
O O9 0.465878 0.913219 0.500000
O O10 0.397150 0.898243 0.223969
O O11 0.500000 0.000000 0.223640
O O12 0.094726 0.017517 0.702426
O O13 0.115341 0.944438 0.000000
O O14 0.864422 0.852088 0.500000
O O15 0.805937 0.896056 0.223296
O O16 0.797291 0.497625 0.272505
O O17 0.765900 0.406242 0.000000
O O18 0.172983 0.406153 0.000000
#
# Coordination Sequence:
#
# PCOD9443706 Si02
#       7
#     8   8   8   8   8   8   8
#     4  11  24  40  61  86 116 160 203 244 298 356
#     4  10  21  37  59  87 119 156 196 242 295 350
#     4  10  23  41  63  89 120 158 200 246 298 355
#     4  11  23  37  59  89 121 154 195 250 302 352
#     4  10  20  38  61  85 116 155 196 240 296 360
#     4   9  18  34  59  84 111 149 191 233 285 350
#     4  10  20  37  62  87 114 152 194 240 290 348
#
# _framework density 23.268349000000001
#
# number of rings (size 3 to 8) (size 9 to 14) (size 15 to 20)
#    0.000    1.857    1.429    2.143    2.000    5.429 
#    0.000    1.429    0.000    0.000    0.000    0.000 
#    0.000    0.000    0.000    0.000    0.000    0.000 
#
# Total GULP energy -313142.561711 kJ/mol
# GULP energy per Si atom -5591.831459 kJ/mol
# Density = 2.321539 g / cm^3
# Si number density = 23.268349 Si / 1000 Ang^3
#
#
#
# Elastic Constant Matrix: (Units=GPa)
#
#
# Indices 1 2 3 4 5 6 
#
# 1 53.4987 -1.1547 -5.0522 0.0000 0.0000 0.0000
# 2 -1.1547 121.6816 -8.4573 0.0000 0.0000 0.0000
# 3 -5.0522 -8.4573 57.8619 0.0000 0.0000 0.0000
# 4 0.0000 0.0000 0.0000 16.3379 0.0000 0.0000
# 5 0.0000 0.0000 0.0000 0.0000 -6.2486 0.0000
# 6 0.0000 0.0000 0.0000 0.0000 0.0000 29.4514
#
#
#
# Elastic Compliance Matrix: (Units=1/GPa)
#
#
# Indices 1 2 3 4 5 6 
#
# 1 0.018858 0.000296 0.001690 0.000000 0.000000 0.000000
# 2 0.000296 0.008307 0.001240 0.000000 0.000000 0.000000
# 3 0.001690 0.001240 0.017611 0.000000 0.000000 0.000000
# 4 0.000000 0.000000 0.000000 0.061207 0.000000 0.000000
# 5 0.000000 0.000000 0.000000 0.000000 -0.160035 0.000000
# 6 0.000000 0.000000 0.000000 0.000000 0.000000 0.033954
#
#
# Mechanical properties :
#
#
# Convention : Reuss Voigt Hill
#
# Bulk Modulus (GPa) = 19.52007 22.63488 21.07747
# Shear Modulus (GPa) = -527.78195 24.42189 -251.68003
#
# Velocity S-wave (km/s) = -15.07702 3.24323 -10.41148
# Velocity P-wave (km/s) = 17.16628 4.87582 11.63846
#
# Compressibility (1/GPa) = 0.05122932
#
# Stress axis : x y z
#
# Youngs Moduli (GPa) = 53.02783 120.37792 56.78161
#
# Poissons Ratio (x) = -0.03568 -0.09596
# Poissons Ratio (y) = -0.01572 -0.07041
# Poissons Ratio (z) = -0.08961 -0.14928
#
# Static dielectric constant tensor:
#      x y z
#    x 1.874300 0.000000 0.000000 
#    y 0.000000 1.849170 0.000000 
#    z 0.000000 0.000000 1.889650 
# 
# From -- ./inp_files/9000.got.cif
#   From: 2010.05.17/outbox.cif.g08.bks.cpg/sg58_5_cif.got.tgz:9000.got - 2010.06.03 14:20:14.
