data_PCOD9443885
_publ_section_title
;
Structure prediction by ZEFSAII (Michael W. Deem and Ramdas Pophale) SiO2 
 PCOD9443885
Probable space group: P N N M
;
_chemical_formula_sum "Si O2"
_cell_formula_units_Z 56
_cell_length_a 19.961307
_cell_length_b 9.196137
_cell_length_c 14.826454
_cell_angle_alpha 90.000000
_cell_angle_beta 90.000000
_cell_angle_gamma 90.000000
_cell_volume 2721.646404
_symmetry_space_group_name_H-M "P N N M"
_symmetry_group_IT_number 58
_symmetry_cell_setting 'orthorhombic'
loop_
_space_group_symop_operation_xyz
x,y,z
-x,-y,z
1/2+x,1/2-y,1/2-z
1/2-x,1/2+y,1/2-z
-x,-y,-z
x,y,-z
1/2-x,1/2+y,1/2+z
1/2+x,1/2-y,1/2+z
loop_
_atom_site_type_symbol
_atom_site_label
_atom_site_fract_x
_atom_site_fract_y
_atom_site_fract_z
Si Si1 0.433524 0.700815 0.397848
Si Si2 0.621602 0.790051 0.779657
Si Si3 0.286432 0.402491 0.104891
Si Si4 0.499679 0.824067 0.101781
Si Si5 0.090807 0.857653 0.898575
Si Si6 0.346850 0.716996 0.897982
Si Si7 0.659421 0.109448 0.728683
O O1 0.416489 0.749765 0.500000
O O2 0.412020 0.532077 0.389873
O O3 0.514122 0.699924 0.390920
O O4 0.396004 0.796140 0.324106
O O5 0.675669 0.731831 0.849936
O O6 0.549241 0.760174 0.823927
O O7 0.629941 0.710775 0.684180
O O8 0.628290 0.960599 0.763927
O O9 0.332446 0.546425 0.112945
O O10 0.218527 0.425729 0.159655
O O11 0.273011 0.376944 0.000000
O O12 0.425261 0.759537 0.109176
O O13 0.500000 0.000000 0.109583
O O14 0.524457 0.790576 0.000000
O O15 0.114814 0.821920 0.000000
O O16 0.313759 0.802195 0.815270
O O17 0.325049 0.758033 0.000000
#
# Coordination Sequence:
#
# PCOD9443885 Si02
#       7
#     8   8   8   8   8   8   8
#     4   9  19  38  62  88 122 164 206 256 311 370
#     4  12  24  37  63  95 125 160 210 262 322 384
#     4  11  26  45  61  87 125 171 219 261 308 379
#     4  10  20  38  64  95 126 157 200 263 328 383
#     4   9  20  37  59  90 125 159 203 256 316 378
#     4  10  22  41  65  91 127 166 208 261 319 379
#     4  12  23  40  64  90 125 167 210 259 313 371
#
# _framework density 20.575780000000002
#
# number of rings (size 3 to 8) (size 9 to 14) (size 15 to 20)
#    0.000    1.571    1.429    4.286    0.000    3.429 
#    0.000    4.286    0.000    0.000    0.000    0.000 
#    0.000    0.000    0.000    0.000    0.000    0.000 
#
# Total GULP energy -313012.093846 kJ/mol
# GULP energy per Si atom -5589.501676 kJ/mol
# Density = 2.052895 g / cm^3
# Si number density = 20.575780 Si / 1000 Ang^3
#
#
#
# Elastic Constant Matrix: (Units=GPa)
#
#
# Indices 1 2 3 4 5 6 
#
# 1 53.7495 25.8664 37.2748 0.0000 0.0000 0.0000
# 2 25.8664 58.4733 55.5218 0.0000 0.0000 0.0000
# 3 37.2748 55.5218 159.5731 0.0000 0.0000 0.0000
# 4 0.0000 0.0000 0.0000 24.4715 0.0000 0.0000
# 5 0.0000 0.0000 0.0000 0.0000 35.8553 0.0000
# 6 0.0000 0.0000 0.0000 0.0000 0.0000 12.1701
#
#
#
# Elastic Compliance Matrix: (Units=1/GPa)
#
#
# Indices 1 2 3 4 5 6 
#
# 1 0.024513 -0.008074 -0.002917 0.000000 0.000000 0.000000
# 2 -0.008074 0.028199 -0.007925 0.000000 0.000000 0.000000
# 3 -0.002917 -0.007925 0.009706 0.000000 0.000000 0.000000
# 4 0.000000 0.000000 0.000000 0.040864 0.000000 0.000000
# 5 0.000000 0.000000 0.000000 0.000000 0.027890 0.000000
# 6 0.000000 0.000000 0.000000 0.000000 0.000000 0.082168
#
#
# Mechanical properties :
#
#
# Convention : Reuss Voigt Hill
#
# Bulk Modulus (GPa) = 40.67524 56.56908 48.62216
# Shear Modulus (GPa) = 19.27765 24.70824 21.99294
#
# Velocity S-wave (km/s) = 3.06422 3.46907 3.27291
# Velocity P-wave (km/s) = 5.68601 6.60293 6.16155
#
# Compressibility (1/GPa) = 0.02458498
#
# Stress axis : x y z
#
# Youngs Moduli (GPa) = 40.79438 35.46223 103.03295
#
# Poissons Ratio (x) = 0.28633 0.30052
# Poissons Ratio (y) = 0.32938 0.81659
# Poissons Ratio (z) = 0.11899 0.28106
#
# Static dielectric constant tensor:
#      x y z
#    x 1.733570 0.000000 0.000000 
#    y 0.000000 1.694140 0.000000 
#    z 0.000000 0.000000 1.743710 
# 
# From -- ./inp_files/23233.got.cif
#   From: 2010.05.17/outbox.cif.g08.bks.cpg/sg58_12_cif.got.tgz:23233.got - 2010.06.03 14:20:14.
