data_PCOD9443323
_publ_section_title
;
Structure prediction by ZEFSAII (Michael W. Deem and Ramdas Pophale) SiO2 
 PCOD9443323
Probable space group: P N N M
;
_chemical_formula_sum "Si O2"
_cell_formula_units_Z 42
_cell_length_a 9.449138
_cell_length_b 20.778491
_cell_length_c 8.744268
_cell_angle_alpha 90.000000
_cell_angle_beta 90.000000
_cell_angle_gamma 90.000000
_cell_volume 1716.839339
_symmetry_space_group_name_H-M "P N N M"
_symmetry_group_IT_number 58
_symmetry_cell_setting 'orthorhombic'
loop_
_space_group_symop_operation_xyz
x,y,z
-x,-y,z
1/2+x,1/2-y,1/2-z
1/2-x,1/2+y,1/2-z
-x,-y,-z
x,y,-z
1/2-x,1/2+y,1/2+z
1/2+x,1/2-y,1/2+z
loop_
_atom_site_type_symbol
_atom_site_label
_atom_site_fract_x
_atom_site_fract_y
_atom_site_fract_z
Si Si1 0.280647 0.427374 0.333471
Si Si2 0.000000 0.000000 0.000000
Si Si3 0.692248 0.945951 0.327033
Si Si4 0.934079 0.646667 0.827811
Si Si5 0.401623 0.258444 0.176578
Si Si6 0.858023 0.830099 0.179070
O O1 0.225158 0.405666 0.500000
O O2 0.440252 0.449458 0.368427
O O3 0.213562 0.496528 0.290333
O O4 0.222713 0.377232 0.211479
O O5 0.722831 0.968218 0.500000
O O6 0.535558 0.915985 0.324865
O O7 0.795026 0.887138 0.280990
O O8 0.004645 0.694350 0.707722
O O9 0.943245 0.673945 0.000000
O O10 0.244265 0.232057 0.210200
O O11 0.482472 0.309787 0.281857
O O12 0.411345 0.277397 0.000000
O O13 0.840300 0.845887 0.000000
#
# Coordination Sequence:
#
# PCOD9443323 Si02
#       6
#     8   2   8   8   8   8
#     4  10  20  38  56  78 113 147 183 228 273 328
#     4   8  24  40  52  76 120 148 198 222 264 342
#     4  10  20  35  59  87 112 138 182 236 287 334
#     4  10  20  35  59  87 112 138 182 236 287 334
#     4  10  21  38  58  85 115 149 191 235 282 339
#     4  10  21  38  58  85 115 149 191 235 282 339
#
# _framework density 24.463559
#
# number of rings (size 3 to 8) (size 9 to 14) (size 15 to 20)
#    0.571    1.524    0.000    3.429    0.000    6.857 
#    3.429    1.905    0.000    0.000    0.000    0.000 
#    0.000    0.000    0.000    0.000    0.000    0.000 
#
# Total GULP energy -234243.353167 kJ/mol
# GULP energy per Si atom -5577.222694 kJ/mol
# Density = 2.440788 g / cm^3
# Si number density = 24.463559 Si / 1000 Ang^3
#
#
#
# Elastic Constant Matrix: (Units=GPa)
#
#
# Indices 1 2 3 4 5 6 
#
# 1 113.7058 3.0252 10.0140 0.0000 0.0000 0.0000
# 2 3.0252 37.7076 -5.7667 0.0000 0.0000 0.0000
# 3 10.0140 -5.7667 72.5972 0.0000 0.0000 0.0000
# 4 0.0000 0.0000 0.0000 37.2677 0.0000 0.0000
# 5 0.0000 0.0000 0.0000 0.0000 24.5199 0.0000
# 6 0.0000 0.0000 0.0000 0.0000 0.0000 46.0432
#
#
#
# Elastic Compliance Matrix: (Units=1/GPa)
#
#
# Indices 1 2 3 4 5 6 
#
# 1 0.008934 -0.000916 -0.001305 0.000000 0.000000 0.000000
# 2 -0.000916 0.026940 0.002266 0.000000 0.000000 0.000000
# 3 -0.001305 0.002266 0.014135 0.000000 0.000000 0.000000
# 4 0.000000 0.000000 0.000000 0.026833 0.000000 0.000000
# 5 0.000000 0.000000 0.000000 0.000000 0.040783 0.000000
# 6 0.000000 0.000000 0.000000 0.000000 0.000000 0.021719
#
#
# Mechanical properties :
#
#
# Convention : Reuss Voigt Hill
#
# Bulk Modulus (GPa) = 19.96075 26.50618 23.23346
# Shear Modulus (GPa) = 32.06092 36.01538 34.03815
#
# Velocity S-wave (km/s) = 3.62409 3.84110 3.73417
# Velocity P-wave (km/s) = 5.06845 5.52544 5.30187
#
# Compressibility (1/GPa) = 0.05009833
#
# Stress axis : x y z
#
# Youngs Moduli (GPa) = 111.93259 37.11961 70.74798
#
# Poissons Ratio (x) = 0.03401 0.09234
# Poissons Ratio (y) = 0.10257 -0.16034
# Poissons Ratio (z) = 0.14609 -0.08413
#
# Static dielectric constant tensor:
#      x y z
#    x 2.020390 0.000000 0.000000 
#    y 0.000000 1.991380 0.000000 
#    z 0.000000 0.000000 1.814920 
# 
# From -- ./inp_files/4143.got.cif
#   From: 2010.05.17/outbox.cif.g08.bks.cpg/sg58_3_cif.got.tgz:4143.got - 2010.06.03 14:20:14.
