data_PCOD9443257
_publ_section_title
;
Structure prediction by ZEFSAII (Michael W. Deem and Ramdas Pophale) SiO2 
 PCOD9443257
Probable space group: P N N M
;
_chemical_formula_sum "Si O2"
_cell_formula_units_Z 48
_cell_length_a 8.225458
_cell_length_b 10.123903
_cell_length_c 28.434258
_cell_angle_alpha 90.000000
_cell_angle_beta 90.000000
_cell_angle_gamma 90.000000
_cell_volume 2367.826977
_symmetry_space_group_name_H-M "P N N M"
_symmetry_group_IT_number 58
_symmetry_cell_setting 'orthorhombic'
loop_
_space_group_symop_operation_xyz
x,y,z
-x,-y,z
1/2+x,1/2-y,1/2-z
1/2-x,1/2+y,1/2-z
-x,-y,-z
x,y,-z
1/2-x,1/2+y,1/2+z
1/2+x,1/2-y,1/2+z
loop_
_atom_site_type_symbol
_atom_site_label
_atom_site_fract_x
_atom_site_fract_y
_atom_site_fract_z
Si Si1 0.312157 0.961428 0.353475
Si Si2 0.606387 0.132493 0.552386
Si Si3 0.125292 0.879413 0.052499
Si Si4 0.838491 0.792264 0.304759
Si Si5 0.808029 0.531283 0.356875
Si Si6 0.218960 0.718193 0.298270
O O1 0.272479 0.894618 0.404147
O O2 0.306220 0.851988 0.313146
O O3 0.500000 0.000000 0.356715
O O4 0.203498 0.087083 0.339588
O O5 0.675839 0.161323 0.500000
O O6 0.481323 0.250234 0.564654
O O7 0.500000 0.000000 0.547768
O O8 0.251845 0.922416 0.091945
O O9 0.194981 0.858402 0.000000
O O10 0.000000 0.000000 0.050159
O O11 0.765110 0.654896 0.323600
O O12 0.766289 0.825379 0.253871
O O13 0.029311 0.759025 0.300943
O O14 0.735738 0.397367 0.335016
O O15 0.000000 0.500000 0.356908
#
# Coordination Sequence:
#
# PCOD9443257 Si02
#       6
#     8   8   8   8   8   8
#     4  11  21  36  59  85 114 150 189 232 286 340
#     4   9  18  33  55  83 112 144 186 233 278 331
#     4  10  20  35  57  85 113 145 188 232 277 335
#     4  11  23  39  58  83 112 149 194 238 285 341
#     4  10  22  38  56  81 114 148 186 234 285 338
#     4  11  23  39  58  82 114 149 192 239 286 340
#
# _framework density 20.271753
#
# number of rings (size 3 to 8) (size 9 to 14) (size 15 to 20)
#    0.000    1.667    0.000    5.500    0.000    3.000 
#    0.000    0.000    0.000    4.000    0.000    0.000 
#    0.000    0.000    0.000    0.000    0.000    0.000 
#
# Total GULP energy -267842.076001 kJ/mol
# GULP energy per Si atom -5580.043250 kJ/mol
# Density = 2.022561 g / cm^3
# Si number density = 20.271753 Si / 1000 Ang^3
#
#
#
# Elastic Constant Matrix: (Units=GPa)
#
#
# Indices 1 2 3 4 5 6 
#
# 1 18.1114 18.5909 28.9392 0.0000 0.0000 0.0000
# 2 18.5909 137.8800 37.6176 0.0000 0.0000 0.0000
# 3 28.9392 37.6176 116.8993 0.0000 0.0000 0.0000
# 4 0.0000 0.0000 0.0000 32.2335 0.0000 0.0000
# 5 0.0000 0.0000 0.0000 0.0000 29.8799 0.0000
# 6 0.0000 0.0000 0.0000 0.0000 0.0000 20.7524
#
#
#
# Elastic Compliance Matrix: (Units=1/GPa)
#
#
# Indices 1 2 3 4 5 6 
#
# 1 0.097439 -0.007188 -0.021809 0.000000 0.000000 0.000000
# 2 -0.007188 0.008481 -0.000950 0.000000 0.000000 0.000000
# 3 -0.021809 -0.000950 0.014259 0.000000 0.000000 0.000000
# 4 0.000000 0.000000 0.000000 0.031024 0.000000 0.000000
# 5 0.000000 0.000000 0.000000 0.000000 0.033467 0.000000
# 6 0.000000 0.000000 0.000000 0.000000 0.000000 0.048187
#
#
# Mechanical properties :
#
#
# Convention : Reuss Voigt Hill
#
# Bulk Modulus (GPa) = 16.58753 49.24290 32.91521
# Shear Modulus (GPa) = 15.98233 29.08936 22.53584
#
# Velocity S-wave (km/s) = 2.81090 3.79221 3.33781
# Velocity P-wave (km/s) = 4.32842 6.59686 5.57915
#
# Compressibility (1/GPa) = 0.06028626
#
# Stress axis : x y z
#
# Youngs Moduli (GPa) = 10.26280 117.91085 70.13192
#
# Poissons Ratio (x) = 0.84756 1.52948
# Poissons Ratio (y) = 0.07377 0.06660
# Poissons Ratio (z) = 0.22382 0.11198
#
# Static dielectric constant tensor:
#      x y z
#    x 1.722830 0.000000 0.000000 
#    y 0.000000 1.726560 0.000000 
#    z 0.000000 0.000000 1.790020 
# 
# From -- ./inp_files/34577.got.cif
#   From: 2010.05.17/outbox.cif.g08.bks.cpg/sg58_18_cif.got.tgz:34577.got - 2010.06.03 14:20:14.
