data_PCOD9443125
_publ_section_title
;
Structure prediction by ZEFSAII (Michael W. Deem and Ramdas Pophale) SiO2 
 PCOD9443125
Probable space group: P N N M
;
_chemical_formula_sum "Si O2"
_cell_formula_units_Z 64
_cell_length_a 20.351523
_cell_length_b 20.968766
_cell_length_c 8.388492
_cell_angle_alpha 90.000000
_cell_angle_beta 90.000000
_cell_angle_gamma 90.000000
_cell_volume 3579.758121
_symmetry_space_group_name_H-M "P N N M"
_symmetry_group_IT_number 58
_symmetry_cell_setting 'orthorhombic'
loop_
_space_group_symop_operation_xyz
x,y,z
-x,-y,z
1/2+x,1/2-y,1/2-z
1/2-x,1/2+y,1/2-z
-x,-y,-z
x,y,-z
1/2-x,1/2+y,1/2+z
1/2+x,1/2-y,1/2+z
loop_
_atom_site_type_symbol
_atom_site_label
_atom_site_fract_x
_atom_site_fract_y
_atom_site_fract_z
Si Si1 0.575123 0.319112 0.807406
Si Si2 0.176962 0.571963 0.689120
Si Si3 0.425950 0.821580 0.307391
Si Si4 0.077071 0.678455 0.190919
Si Si5 0.324506 0.428465 0.194343
Si Si6 0.324372 0.572913 0.192624
Si Si7 0.075981 0.819348 0.692942
Si Si8 0.826005 0.569571 0.807228
O O1 0.594297 0.248600 0.750234
O O2 0.624614 0.373819 0.750280
O O3 0.499607 0.330651 0.756148
O O4 0.575795 0.319488 0.000000
O O5 0.180190 0.570718 0.500000
O O6 0.125586 0.625014 0.744249
O O7 0.249826 0.586090 0.755528
O O8 0.157670 0.501599 0.750507
O O9 0.425304 0.821501 0.500000
O O10 0.501450 0.832430 0.255495
O O11 0.377092 0.876997 0.251562
O O12 0.095901 0.749361 0.247661
O O13 0.078242 0.676631 0.000000
O O14 0.341424 0.500700 0.244823
O O15 0.375200 0.374800 0.249164
O O16 0.249081 0.415925 0.242960
O O17 0.325723 0.427830 0.000000
O O18 0.325778 0.573040 0.000000
O O19 0.076969 0.818745 0.500000
O O20 0.826809 0.569012 0.000000
#
# Coordination Sequence:
#
# PCOD9443125 Si02
#       8
#     8   8   8   8   8   8   8   8
#     4   9  18  31  50  75 105 135 167 208 249 287
#     4  11  22  35  52  75  99 127 163 209 256 300
#     4   9  19  34  53  74 100 135 172 204 243 296
#     4  10  20  35  52  72 100 135 169 205 248 299
#     4   8  15  29  51  74 100 131 165 203 243 288
#     4   9  18  34  52  73 101 135 169 204 248 298
#     4   9  17  31  50  76 105 134 169 208 245 287
#     4   9  18  35  54  73  98 130 165 203 245 297
#
# _framework density 17.878302999999999
#
# number of rings (size 3 to 8) (size 9 to 14) (size 15 to 20)
#    0.000    2.750    0.000    2.250    0.000    3.500 
#    0.000    8.750    0.000    0.000    0.000    7.000 
#    0.000    0.000    0.000    0.000    0.000    0.000 
#
# Total GULP energy -356904.892340 kJ/mol
# GULP energy per Si atom -5576.638943 kJ/mol
# Density = 1.783761 g / cm^3
# Si number density = 17.878303 Si / 1000 Ang^3
#
#
#
# Elastic Constant Matrix: (Units=GPa)
#
#
# Indices 1 2 3 4 5 6 
#
# 1 114.8630 135.1706 16.1800 0.0000 0.0000 0.0000
# 2 135.1706 190.3325 19.9460 0.0000 0.0000 0.0000
# 3 16.1800 19.9460 11.5205 0.0000 0.0000 0.0000
# 4 0.0000 0.0000 0.0000 26.6627 0.0000 0.0000
# 5 0.0000 0.0000 0.0000 0.0000 14.5416 0.0000
# 6 0.0000 0.0000 0.0000 0.0000 0.0000 45.2374
#
#
#
# Elastic Compliance Matrix: (Units=1/GPa)
#
#
# Indices 1 2 3 4 5 6 
#
# 1 0.054239 -0.037305 -0.011588 0.000000 0.000000 0.000000
# 2 -0.037305 0.032077 -0.003143 0.000000 0.000000 0.000000
# 3 -0.011588 -0.003143 0.108518 0.000000 0.000000 0.000000
# 4 0.000000 0.000000 0.000000 0.037506 0.000000 0.000000
# 5 0.000000 0.000000 0.000000 0.000000 0.068768 0.000000
# 6 0.000000 0.000000 0.000000 0.000000 0.000000 0.022106
#
#
# Mechanical properties :
#
#
# Convention : Reuss Voigt Hill
#
# Bulk Modulus (GPa) = 11.01781 73.25657 42.13719
# Shear Modulus (GPa) = 10.92804 26.98298 18.95551
#
# Velocity S-wave (km/s) = 2.47502 3.88913 3.25968
# Velocity P-wave (km/s) = 3.78731 7.82504 6.14715
#
# Compressibility (1/GPa) = 0.09076211
#
# Stress axis : x y z
#
# Youngs Moduli (GPa) = 18.43690 31.17524 9.21507
#
# Poissons Ratio (x) = 1.16300 0.10678
# Poissons Ratio (y) = 0.68779 0.02896
# Poissons Ratio (z) = 0.21365 0.09797
#
# Static dielectric constant tensor:
#      x y z
#    x 1.606450 0.000000 0.000000 
#    y 0.000000 1.588150 0.000000 
#    z 0.000000 0.000000 1.618580 
# 
# From -- ./inp_files/8391.got.cif
#   From: 2010.05.17/outbox.cif.g08.bks.cpg/sg58_5_cif.got.tgz:8391.got - 2010.06.03 14:20:14.
