data_PCOD9443614
_publ_section_title
;
Structure prediction by ZEFSAII (Michael W. Deem and Ramdas Pophale) SiO2 
 PCOD9443614
Probable space group: P N N M
;
_chemical_formula_sum "Si O2"
_cell_formula_units_Z 64
_cell_length_a 8.491695
_cell_length_b 12.284359
_cell_length_c 28.786453
_cell_angle_alpha 90.000000
_cell_angle_beta 90.000000
_cell_angle_gamma 90.000000
_cell_volume 3002.859705
_symmetry_space_group_name_H-M "P N N M"
_symmetry_group_IT_number 58
_symmetry_cell_setting 'orthorhombic'
loop_
_space_group_symop_operation_xyz
x,y,z
-x,-y,z
1/2+x,1/2-y,1/2-z
1/2-x,1/2+y,1/2-z
-x,-y,-z
x,y,-z
1/2-x,1/2+y,1/2+z
1/2+x,1/2-y,1/2+z
loop_
_atom_site_type_symbol
_atom_site_label
_atom_site_fract_x
_atom_site_fract_y
_atom_site_fract_z
Si Si1 0.666877 0.747146 0.098305
Si Si2 0.117582 0.840258 0.304665
Si Si3 0.581298 0.117095 0.946496
Si Si4 0.809201 0.847018 0.759283
Si Si5 0.933074 0.620637 0.946229
Si Si6 0.416263 0.604397 0.644469
Si Si7 0.826326 0.251202 0.112272
Si Si8 0.326800 0.048472 0.323687
O O1 0.580613 0.717500 0.146245
O O2 0.552810 0.790511 0.058880
O O3 0.777489 0.647701 0.083022
O O4 0.784039 0.845213 0.111909
O O5 0.251594 0.768065 0.279396
O O6 0.965809 0.844078 0.271977
O O7 0.197265 0.954486 0.317439
O O8 0.708485 0.162127 0.909317
O O9 0.500000 0.000000 0.935592
O O10 0.638642 0.112023 0.000000
O O11 0.844677 0.918406 0.804969
O O12 0.672711 0.893661 0.726569
O O13 0.000000 0.500000 0.939623
O O14 0.066362 0.704621 0.929846
O O15 0.896133 0.635814 0.000000
O O16 0.500000 0.500000 0.623904
O O17 0.553862 0.694057 0.648302
O O18 0.774001 0.361158 0.138677
O O19 0.500000 0.000000 0.334453
#
# Coordination Sequence:
#
# PCOD9443614 Si02
#       8
#     8   8   8   8   8   8   8   8
#     4  10  21  37  59  85 118 158 202 254 314 373
#     4  11  22  39  59  87 125 166 212 261 312 372
#     4  11  24  42  63  91 126 161 204 263 328 387
#     4  11  23  38  59  87 122 165 210 254 303 361
#     4  10  20  37  61  87 116 153 201 256 314 380
#     4  10  20  37  58  83 116 155 205 254 299 363
#     4  11  22  39  63  89 120 163 208 252 312 381
#     4  12  23  39  63  91 128 169 212 262 317 378
#
# _framework density 21.313018
#
# number of rings (size 3 to 8) (size 9 to 14) (size 15 to 20)
#    0.000    1.250    0.000    8.250    0.000    0.000 
#    0.000    9.375    0.000   10.500    0.000    0.000 
#    0.000    0.000    0.000    0.000    0.000    0.000 
#
# Total GULP energy -357428.400696 kJ/mol
# GULP energy per Si atom -5584.818761 kJ/mol
# Density = 2.126451 g / cm^3
# Si number density = 21.313018 Si / 1000 Ang^3
#
#
#
# Elastic Constant Matrix: (Units=GPa)
#
#
# Indices 1 2 3 4 5 6 
#
# 1 73.8016 12.5858 21.3120 0.0000 0.0000 0.0000
# 2 12.5858 68.4319 10.8626 0.0000 0.0000 0.0000
# 3 21.3120 10.8626 100.5928 0.0000 0.0000 0.0000
# 4 0.0000 0.0000 0.0000 28.0332 0.0000 0.0000
# 5 0.0000 0.0000 0.0000 0.0000 26.6575 0.0000
# 6 0.0000 0.0000 0.0000 0.0000 0.0000 34.6962
#
#
#
# Elastic Compliance Matrix: (Units=1/GPa)
#
#
# Indices 1 2 3 4 5 6 
#
# 1 0.014768 -0.002258 -0.002885 0.000000 0.000000 0.000000
# 2 -0.002258 0.015213 -0.001164 0.000000 0.000000 0.000000
# 3 -0.002885 -0.001164 0.010678 0.000000 0.000000 0.000000
# 4 0.000000 0.000000 0.000000 0.035672 0.000000 0.000000
# 5 0.000000 0.000000 0.000000 0.000000 0.037513 0.000000
# 6 0.000000 0.000000 0.000000 0.000000 0.000000 0.028822
#
#
# Mechanical properties :
#
#
# Convention : Reuss Voigt Hill
#
# Bulk Modulus (GPa) = 35.65789 36.92743 36.29266
# Shear Modulus (GPa) = 30.37134 31.08177 30.72656
#
# Velocity S-wave (km/s) = 3.77903 3.82297 3.80107
# Velocity P-wave (km/s) = 5.98401 6.07048 6.02740
#
# Compressibility (1/GPa) = 0.02804429
#
# Stress axis : x y z
#
# Youngs Moduli (GPa) = 67.71385 65.73233 93.65027
#
# Poissons Ratio (x) = 0.14843 0.27018
# Poissons Ratio (y) = 0.15291 0.10905
# Poissons Ratio (z) = 0.19535 0.07654
#
# Static dielectric constant tensor:
#      x y z
#    x 1.787010 0.000000 0.000000 
#    y 0.000000 1.799270 0.000000 
#    z 0.000000 0.000000 1.761140 
# 
# From -- ./inp_files/34777.got.cif
#   From: 2010.05.17/outbox.cif.g08.bks.cpg/sg58_18_cif.got.tgz:34777.got - 2010.06.03 14:20:14.
