data_PCOD9443659
_publ_section_title
;
Structure prediction by ZEFSAII (Michael W. Deem and Ramdas Pophale) SiO2 
 PCOD9443659
Probable space group: P N N M
;
_chemical_formula_sum "Si O2"
_cell_formula_units_Z 64
_cell_length_a 14.363510
_cell_length_b 24.718482
_cell_length_c 8.718625
_cell_angle_alpha 90.000000
_cell_angle_beta 90.000000
_cell_angle_gamma 90.000000
_cell_volume 3095.496919
_symmetry_space_group_name_H-M "P N N M"
_symmetry_group_IT_number 58
_symmetry_cell_setting 'orthorhombic'
loop_
_space_group_symop_operation_xyz
x,y,z
-x,-y,z
1/2+x,1/2-y,1/2-z
1/2-x,1/2+y,1/2-z
-x,-y,-z
x,y,-z
1/2-x,1/2+y,1/2+z
1/2+x,1/2-y,1/2+z
loop_
_atom_site_type_symbol
_atom_site_label
_atom_site_fract_x
_atom_site_fract_y
_atom_site_fract_z
Si Si1 0.610645 0.837020 0.816018
Si Si2 0.110236 0.222052 0.824608
Si Si3 0.396891 0.608205 0.181208
Si Si4 0.222834 0.557444 0.684090
Si Si5 0.903545 0.660563 0.184188
Si Si6 0.386492 0.390531 0.182033
Si Si7 0.116825 0.776113 0.824238
Si Si8 0.210590 0.438312 0.682180
O O1 0.664781 0.890500 0.762590
O O2 0.503947 0.842957 0.763550
O O3 0.648102 0.781068 0.744787
O O4 0.615406 0.833214 0.000000
O O5 0.132292 0.169261 0.727244
O O6 0.141284 0.281373 0.769775
O O7 0.996909 0.226068 0.826022
O O8 0.141725 0.212932 0.000000
O O9 0.328033 0.567075 0.262805
O O10 0.505263 0.601582 0.223910
O O11 0.389502 0.601665 0.000000
O O12 0.220121 0.557435 0.500000
O O13 0.185326 0.499009 0.733992
O O14 0.844644 0.608936 0.232743
O O15 0.914639 0.662901 0.000000
O O16 0.360556 0.328586 0.223885
O O17 0.318331 0.428529 0.276829
O O18 0.375416 0.399005 0.000000
O O19 0.147652 0.783126 0.000000
O O20 0.195438 0.433407 0.500000
#
# Coordination Sequence:
#
# PCOD9443659 Si02
#       8
#     8   8   8   8   8   8   8   8
#     4  10  20  37  60  85 115 151 188 233 284 338
#     4   8  16  32  55  82 114 146 178 218 273 338
#     4  10  21  36  59  87 114 145 184 231 282 333
#     4  10  24  42  58  79 111 151 195 236 280 335
#     4  10  21  38  60  87 117 150 185 231 287 340
#     4  10  21  38  59  86 117 149 185 232 289 343
#     4   9  17  32  56  87 117 147 185 229 279 341
#     4  11  24  41  59  81 109 149 198 240 278 334
#
# _framework density 20.675193
#
# number of rings (size 3 to 8) (size 9 to 14) (size 15 to 20)
#    0.000    2.250    0.000    3.000    0.000    9.000 
#    0.000    6.250    0.000    0.000    0.000    0.000 
#    0.000    0.000    0.000    0.000    0.000    0.000 
#
# Total GULP energy -357588.766767 kJ/mol
# GULP energy per Si atom -5587.324481 kJ/mol
# Density = 2.062814 g / cm^3
# Si number density = 20.675193 Si / 1000 Ang^3
#
#
#
# Elastic Constant Matrix: (Units=GPa)
#
#
# Indices 1 2 3 4 5 6 
#
# 1 36.7599 3.0564 -6.3092 0.0000 0.0000 0.0000
# 2 3.0564 70.4880 -1.2969 0.0000 0.0000 0.0000
# 3 -6.3092 -1.2969 17.4070 0.0000 0.0000 0.0000
# 4 0.0000 0.0000 0.0000 29.8273 0.0000 0.0000
# 5 0.0000 0.0000 0.0000 0.0000 104.0894 0.0000
# 6 0.0000 0.0000 0.0000 0.0000 0.0000 24.2430
#
#
#
# Elastic Compliance Matrix: (Units=1/GPa)
#
#
# Indices 1 2 3 4 5 6 
#
# 1 0.029088 -0.001069 0.010464 0.000000 0.000000 0.000000
# 2 -0.001069 0.014246 0.000674 0.000000 0.000000 0.000000
# 3 0.010464 0.000674 0.061291 0.000000 0.000000 0.000000
# 4 0.000000 0.000000 0.000000 0.033526 0.000000 0.000000
# 5 0.000000 0.000000 0.000000 0.000000 0.009607 0.000000
# 6 0.000000 0.000000 0.000000 0.000000 0.000000 0.041249
#
#
# Mechanical properties :
#
#
# Convention : Reuss Voigt Hill
#
# Bulk Modulus (GPa) = 8.01525 12.83948 10.42737
# Shear Modulus (GPa) = 23.75780 40.24556 32.00168
#
# Velocity S-wave (km/s) = 3.39351 4.41677 3.93851
# Velocity P-wave (km/s) = 4.38631 5.67751 5.07315
#
# Compressibility (1/GPa) = 0.12476224
#
# Stress axis : x y z
#
# Youngs Moduli (GPa) = 34.37808 70.19730 16.31565
#
# Poissons Ratio (x) = 0.07502 -0.17072
# Poissons Ratio (y) = 0.03674 -0.01100
# Poissons Ratio (z) = -0.35972 -0.04731
#
# Static dielectric constant tensor:
#      x y z
#    x 1.768500 0.000000 0.000000 
#    y 0.000000 1.746250 0.000000 
#    z 0.000000 0.000000 1.688970 
# 
# From -- ./inp_files/6830.got.cif
#   From: 2010.05.17/outbox.cif.g08.bks.cpg/sg58_4_cif.got.tgz:6830.got - 2010.06.03 14:20:14.
