data_PCOD9443897
_publ_section_title
;
Structure prediction by ZEFSAII (Michael W. Deem and Ramdas Pophale) SiO2 
 PCOD9443897
Probable space group: P N N M
;
_chemical_formula_sum "Si O2"
_cell_formula_units_Z 48
_cell_length_a 9.882452
_cell_length_b 16.654766
_cell_length_c 14.889214
_cell_angle_alpha 90.000000
_cell_angle_beta 90.000000
_cell_angle_gamma 90.000000
_cell_volume 2450.614624
_symmetry_space_group_name_H-M "P N N M"
_symmetry_group_IT_number 58
_symmetry_cell_setting 'orthorhombic'
loop_
_space_group_symop_operation_xyz
x,y,z
-x,-y,z
1/2+x,1/2-y,1/2-z
1/2-x,1/2+y,1/2-z
-x,-y,-z
x,y,-z
1/2-x,1/2+y,1/2+z
1/2+x,1/2-y,1/2+z
loop_
_atom_site_type_symbol
_atom_site_label
_atom_site_fract_x
_atom_site_fract_y
_atom_site_fract_z
Si Si1 0.030045 0.124305 0.304497
Si Si2 0.293805 0.071378 0.803443
Si Si3 0.728107 0.080883 0.691844
Si Si4 0.053147 0.315209 0.696590
Si Si5 0.871582 0.437915 0.500000
Si Si6 0.339774 0.988305 0.500000
Si Si7 0.912557 0.688494 0.500000
Si Si8 0.127914 0.120431 0.500000
O O1 0.153350 0.100235 0.240023
O O2 0.023793 0.220941 0.306079
O O3 0.060283 0.095818 0.406353
O O4 0.884436 0.089295 0.281082
O O5 0.413055 0.136616 0.793558
O O6 0.288941 0.051715 0.908946
O O7 0.333742 0.991966 0.749013
O O8 0.649468 0.160235 0.721984
O O9 0.708694 0.059105 0.588191
O O10 0.126640 0.338569 0.601253
O O11 0.000000 0.500000 0.500000
O O12 0.933822 0.346993 0.500000
O O13 0.271978 0.076571 0.500000
O O14 0.500000 0.000000 0.500000
O O15 0.879028 0.782834 0.500000
#
# Coordination Sequence:
#
# PCOD9443897 Si02
#       8
#     8   8   8   8   4   4   4   4
#     4  11  23  40  62  93 125 169 207 263 327 386
#     4  11  21  38  64  90 122 160 214 268 317 377
#     4  12  24  39  63  93 129 166 215 261 326 384
#     4  10  21  40  63  90 123 167 214 263 314 386
#     4  10  20  38  65  94 122 168 228 269 313 383
#     4  12  25  41  64 100 130 170 221 266 326 392
#     4   8  18  37  65  91 114 167 216 255 326 373
#     4  10  21  40  65  87 130 162 208 266 322 386
#
# _framework density 19.586922999999999
#
# number of rings (size 3 to 8) (size 9 to 14) (size 15 to 20)
#    0.000    1.333    1.667    5.500    0.000    0.667 
#    0.000    5.000    0.000    0.000    0.000    0.000 
#    0.000    0.000    0.000    0.000    0.000    0.000 
#
# Total GULP energy -267800.962698 kJ/mol
# GULP energy per Si atom -5579.186723 kJ/mol
# Density = 1.954234 g / cm^3
# Si number density = 19.586923 Si / 1000 Ang^3
#
#
#
# Elastic Constant Matrix: (Units=GPa)
#
#
# Indices 1 2 3 4 5 6 
#
# 1 117.1454 37.5096 42.0734 0.0000 0.0000 0.0000
# 2 37.5096 88.3488 34.3459 0.0000 0.0000 0.0000
# 3 42.0734 34.3459 152.5804 0.0000 0.0000 0.0000
# 4 0.0000 0.0000 0.0000 24.3026 0.0000 0.0000
# 5 0.0000 0.0000 0.0000 0.0000 1.1624 0.0000
# 6 0.0000 0.0000 0.0000 0.0000 0.0000 36.1586
#
#
#
# Elastic Compliance Matrix: (Units=1/GPa)
#
#
# Indices 1 2 3 4 5 6 
#
# 1 0.010439 -0.003631 -0.002061 0.000000 0.000000 0.000000
# 2 -0.003631 0.013667 -0.002075 0.000000 0.000000 0.000000
# 3 -0.002061 -0.002075 0.007589 0.000000 0.000000 0.000000
# 4 0.000000 0.000000 0.000000 0.041148 0.000000 0.000000
# 5 0.000000 0.000000 0.000000 0.000000 0.860276 0.000000
# 6 0.000000 0.000000 0.000000 0.000000 0.000000 0.027656
#
#
# Mechanical properties :
#
#
# Convention : Reuss Voigt Hill
#
# Bulk Modulus (GPa) = 61.87714 65.10359 63.49036
# Shear Modulus (GPa) = 5.09322 28.60111 16.84716
#
# Velocity S-wave (km/s) = 1.61430 3.82542 2.93597
# Velocity P-wave (km/s) = 5.92741 7.26789 6.63161
#
# Compressibility (1/GPa) = 0.01616106
#
# Stress axis : x y z
#
# Youngs Moduli (GPa) = 95.79188 73.16873 131.76161
#
# Poissons Ratio (x) = 0.26566 0.27160
# Poissons Ratio (y) = 0.34780 0.27344
# Poissons Ratio (z) = 0.19746 0.15185
#
# Static dielectric constant tensor:
#      x y z
#    x 1.654550 0.000000 0.000000 
#    y 0.000000 1.730890 0.000000 
#    z 0.000000 0.000000 1.706340 
# 
# From -- ./inp_files/19898.got.cif
#   From: 2010.05.17/outbox.cif.g08.bks.cpg/sg58_10_cif.got.tgz:19898.got - 2010.06.03 14:20:14.
