data_PCOD9443105
_publ_section_title
;
Structure prediction by ZEFSAII (Michael W. Deem and Ramdas Pophale) SiO2 
 PCOD9443105
Probable space group: P N N M
;
_chemical_formula_sum "Si O2"
_cell_formula_units_Z 48
_cell_length_a 28.955268
_cell_length_b 7.666390
_cell_length_c 11.159948
_cell_angle_alpha 90.000000
_cell_angle_beta 90.000000
_cell_angle_gamma 90.000000
_cell_volume 2477.311785
_symmetry_space_group_name_H-M "P N N M"
_symmetry_group_IT_number 58
_symmetry_cell_setting 'orthorhombic'
loop_
_space_group_symop_operation_xyz
x,y,z
-x,-y,z
1/2+x,1/2-y,1/2-z
1/2-x,1/2+y,1/2-z
-x,-y,-z
x,y,-z
1/2-x,1/2+y,1/2+z
1/2+x,1/2-y,1/2+z
loop_
_atom_site_type_symbol
_atom_site_label
_atom_site_fract_x
_atom_site_fract_y
_atom_site_fract_z
Si Si1 0.223380 0.951547 0.631197
Si Si2 0.088844 0.785952 0.139238
Si Si3 0.142474 0.668678 0.367379
Si Si4 0.611603 0.314180 0.638595
Si Si5 0.987742 0.695186 0.144261
Si Si6 0.694179 0.170025 0.796531
O O1 0.243604 0.913384 0.500000
O O2 0.209253 0.153722 0.637144
O O3 0.178814 0.827831 0.644824
O O4 0.261047 0.906035 0.730091
O O5 0.110859 0.675933 0.247851
O O6 0.034076 0.805852 0.164916
O O7 0.111711 0.976043 0.141870
O O8 0.093199 0.717966 0.000000
O O9 0.119785 0.686560 0.500000
O O10 0.171118 0.489295 0.366656
O O11 0.613783 0.260480 0.500000
O O12 0.561775 0.256259 0.690844
O O13 0.654681 0.234139 0.705672
O O14 0.000000 0.500000 0.184309
O O15 0.982802 0.693023 0.000000
#
# Coordination Sequence:
#
# PCOD9443105 Si02
#       6
#     8   8   8   8   8   8
#     4  11  24  41  60  85 121 160 201 254 307 363
#     4  10  20  37  62  92 126 164 205 251 304 365
#     4  11  24  42  63  89 125 164 204 251 307 363
#     4  10  20  34  59  94 126 158 204 258 309 363
#     4   9  17  31  54  88 126 161 199 251 307 357
#     4  12  22  42  62  89 116 162 207 254 305 374
#
# _framework density 19.37584
#
# number of rings (size 3 to 8) (size 9 to 14) (size 15 to 20)
#    0.000    1.500    3.333    2.500    0.000    4.667 
#    0.000    0.000    0.000    7.500    0.000    0.000 
#    0.000    0.000    0.000    0.000    0.000    0.000 
#
# Total GULP energy -267706.520205 kJ/mol
# GULP energy per Si atom -5577.219171 kJ/mol
# Density = 1.933174 g / cm^3
# Si number density = 19.375840 Si / 1000 Ang^3
#
#
#
# Elastic Constant Matrix: (Units=GPa)
#
#
# Indices 1 2 3 4 5 6 
#
# 1 63.6218 13.9282 41.6517 0.0000 0.0000 0.0000
# 2 13.9282 75.0526 15.2592 0.0000 0.0000 0.0000
# 3 41.6517 15.2592 93.9234 0.0000 0.0000 0.0000
# 4 0.0000 0.0000 0.0000 13.5256 0.0000 0.0000
# 5 0.0000 0.0000 0.0000 0.0000 21.0412 0.0000
# 6 0.0000 0.0000 0.0000 0.0000 0.0000 38.2597
#
#
#
# Elastic Compliance Matrix: (Units=1/GPa)
#
#
# Indices 1 2 3 4 5 6 
#
# 1 0.022500 -0.002220 -0.009617 0.000000 0.000000 0.000000
# 2 -0.002220 0.013998 -0.001290 0.000000 0.000000 0.000000
# 3 -0.009617 -0.001290 0.015121 0.000000 0.000000 0.000000
# 4 0.000000 0.000000 0.000000 0.073934 0.000000 0.000000
# 5 0.000000 0.000000 0.000000 0.000000 0.047526 0.000000
# 6 0.000000 0.000000 0.000000 0.000000 0.000000 0.026137
#
#
# Mechanical properties :
#
#
# Convention : Reuss Voigt Hill
#
# Bulk Modulus (GPa) = 39.42366 41.58622 40.50494
# Shear Modulus (GPa) = 21.37427 25.34920 23.36174
#
# Velocity S-wave (km/s) = 3.32496 3.62095 3.47611
# Velocity P-wave (km/s) = 5.92718 6.24430 6.08780
#
# Compressibility (1/GPa) = 0.02536548
#
# Stress axis : x y z
#
# Youngs Moduli (GPa) = 44.44413 71.43763 66.13131
#
# Poissons Ratio (x) = 0.15861 0.63601
# Poissons Ratio (y) = 0.09868 0.08528
# Poissons Ratio (z) = 0.42743 0.09213
#
# Static dielectric constant tensor:
#      x y z
#    x 1.665190 0.000000 0.000000 
#    y 0.000000 1.702110 0.000000 
#    z 0.000000 0.000000 1.688960 
# 
# From -- ./inp_files/17683.got.cif
#   From: 2010.05.17/outbox.cif.g08.bks.cpg/sg58_9_cif.got.tgz:17683.got - 2010.06.03 14:20:14.
