data_PCOD9443808
_publ_section_title
;
Structure prediction by ZEFSAII (Michael W. Deem and Ramdas Pophale) SiO2 
 PCOD9443808
Probable space group: P N N M
;
_chemical_formula_sum "Si O2"
_cell_formula_units_Z 64
_cell_length_a 12.541564
_cell_length_b 28.268858
_cell_length_c 8.923703
_cell_angle_alpha 90.000000
_cell_angle_beta 90.000000
_cell_angle_gamma 90.000000
_cell_volume 3163.771217
_symmetry_space_group_name_H-M "P N N M"
_symmetry_group_IT_number 58
_symmetry_cell_setting 'orthorhombic'
loop_
_space_group_symop_operation_xyz
x,y,z
-x,-y,z
1/2+x,1/2-y,1/2-z
1/2-x,1/2+y,1/2-z
-x,-y,-z
x,y,-z
1/2-x,1/2+y,1/2+z
1/2+x,1/2-y,1/2+z
loop_
_atom_site_type_symbol
_atom_site_label
_atom_site_fract_x
_atom_site_fract_y
_atom_site_fract_z
Si Si1 0.931847 0.046440 0.182245
Si Si2 0.865775 0.682335 0.820928
Si Si3 0.090393 0.126341 0.822129
Si Si4 0.200823 0.218368 0.320940
Si Si5 0.907911 0.314819 0.668175
Si Si6 0.307288 0.082456 0.838901
Si Si7 0.710972 0.089518 0.178428
Si Si8 0.003385 0.444539 0.838375
O O1 0.807102 0.053883 0.224185
O O2 0.987151 0.096601 0.225978
O O3 0.935418 0.044438 0.000000
O O4 0.000000 0.000000 0.233822
O O5 0.838978 0.733440 0.753173
O O6 0.789246 0.640783 0.758636
O O7 0.984628 0.673609 0.756463
O O8 0.863500 0.683761 0.000000
O O9 0.130238 0.173369 0.736971
O O10 0.183329 0.086697 0.807681
O O11 0.082474 0.137998 0.000000
O O12 0.195994 0.219764 0.500000
O O13 0.323397 0.214212 0.265259
O O14 0.929495 0.295264 0.500000
O O15 0.845742 0.363687 0.645943
O O16 0.383515 0.065556 0.710565
O O17 0.324735 0.057799 0.000000
O O18 0.594886 0.069363 0.222009
O O19 0.717818 0.096465 0.000000
O O20 0.000000 0.500000 0.850815
O O21 0.029315 0.422326 0.000000
#
# Coordination Sequence:
#
# PCOD9443808 Si02
#       8
#     8   8   8   8   8   8   8   8
#     4   9  20  39  65  94 124 165 216 268 316 372
#     4  12  24  40  63  89 125 166 206 257 319 379
#     4   9  19  38  62  89 123 159 208 266 317 371
#     4  11  23  39  61  91 126 166 213 258 315 383
#     4  10  20  38  61  88 119 152 198 253 311 372
#     4   9  18  33  59  87 114 149 192 248 306 364
#     4  11  23  40  64  93 125 161 209 261 317 383
#     4  11  24  38  55  84 123 160 199 250 310 374
#
# _framework density 20.229023000000002
#
# number of rings (size 3 to 8) (size 9 to 14) (size 15 to 20)
#    0.000    1.750    1.250    4.125    1.750    4.000 
#    0.000    5.000    0.000    1.875    0.000    0.000 
#    0.000    0.000    0.000    0.000    0.000    0.000 
#
# Total GULP energy -356688.192373 kJ/mol
# GULP energy per Si atom -5573.253006 kJ/mol
# Density = 2.018298 g / cm^3
# Si number density = 20.229023 Si / 1000 Ang^3
#
#
#
# Elastic Constant Matrix: (Units=GPa)
#
#
# Indices 1 2 3 4 5 6 
#
# 1 33.5458 -0.6718 19.6889 0.0000 0.0000 0.0000
# 2 -0.6718 66.3153 27.8740 0.0000 0.0000 0.0000
# 3 19.6889 27.8740 111.1822 0.0000 0.0000 0.0000
# 4 0.0000 0.0000 0.0000 20.3166 0.0000 0.0000
# 5 0.0000 0.0000 0.0000 0.0000 67.4811 0.0000
# 6 0.0000 0.0000 0.0000 0.0000 0.0000 20.4589
#
#
#
# Elastic Compliance Matrix: (Units=1/GPa)
#
#
# Indices 1 2 3 4 5 6 
#
# 1 0.033865 0.003201 -0.006800 0.000000 0.000000 0.000000
# 2 0.003201 0.017158 -0.004869 0.000000 0.000000 0.000000
# 3 -0.006800 -0.004869 0.011419 0.000000 0.000000 0.000000
# 4 0.000000 0.000000 0.000000 0.049221 0.000000 0.000000
# 5 0.000000 0.000000 0.000000 0.000000 0.014819 0.000000
# 6 0.000000 0.000000 0.000000 0.000000 0.000000 0.048878
#
#
# Mechanical properties :
#
#
# Convention : Reuss Voigt Hill
#
# Bulk Modulus (GPa) = 21.97413 33.86951 27.92182
# Shear Modulus (GPa) = 24.10060 32.59480 28.34770
#
# Velocity S-wave (km/s) = 3.45539 4.01844 3.74751
# Velocity P-wave (km/s) = 5.17744 6.18950 5.70595
#
# Compressibility (1/GPa) = 0.04550805
#
# Stress axis : x y z
#
# Youngs Moduli (GPa) = 29.52910 58.28091 87.57386
#
# Poissons Ratio (x) = -0.18656 0.59546
# Poissons Ratio (y) = -0.09452 0.42636
# Poissons Ratio (z) = 0.20078 0.28374
#
# Static dielectric constant tensor:
#      x y z
#    x 1.283090 0.000000 0.000000 
#    y 0.000000 1.810540 0.000000 
#    z 0.000000 0.000000 1.769530 
# 
# From -- ./inp_files/4639.got.cif
#   From: 2010.05.17/outbox.cif.g08.bks.cpg/sg58_3_cif.got.tgz:4639.got - 2010.06.03 14:20:14.
