data_PCOD9443996
_publ_section_title
;
Structure prediction by ZEFSAII (Michael W. Deem and Ramdas Pophale) SiO2 
 PCOD9443996
Probable space group: P N N M
;
_chemical_formula_sum "Si O2"
_cell_formula_units_Z 40
_cell_length_a 12.214923
_cell_length_b 8.055779
_cell_length_c 18.324019
_cell_angle_alpha 90.000000
_cell_angle_beta 90.000000
_cell_angle_gamma 90.000000
_cell_volume 1803.096666
_symmetry_space_group_name_H-M "P N N M"
_symmetry_group_IT_number 58
_symmetry_cell_setting 'orthorhombic'
loop_
_space_group_symop_operation_xyz
x,y,z
-x,-y,z
1/2+x,1/2-y,1/2-z
1/2-x,1/2+y,1/2-z
-x,-y,-z
x,y,-z
1/2-x,1/2+y,1/2+z
1/2+x,1/2-y,1/2+z
loop_
_atom_site_type_symbol
_atom_site_label
_atom_site_fract_x
_atom_site_fract_y
_atom_site_fract_z
Si Si1 0.456922 0.768940 0.327412
Si Si2 0.260013 0.107504 0.815717
Si Si3 0.533586 0.692145 0.167787
Si Si4 0.346003 0.818949 0.081415
Si Si5 0.323854 0.099082 0.353183
O O1 0.367551 0.625935 0.334074
O O2 0.486361 0.780433 0.241123
O O3 0.577025 0.767373 0.361763
O O4 0.389419 0.926946 0.357103
O O5 0.338466 0.263514 0.836266
O O6 0.273591 0.098691 0.728462
O O7 0.307112 0.950552 0.858244
O O8 0.500000 0.500000 0.173714
O O9 0.469831 0.770289 0.100020
O O10 0.271740 0.654736 0.093354
O O11 0.333467 0.883390 0.000000
#
# Coordination Sequence:
#
# PCOD9443996 Si02
#       5
#     8   8   8   8   8
#     4  10  21  37  66  98 124 160 220 279 308 371
#     4  11  21  38  64  96 131 169 220 268 321 379
#     4  11  23  38  65  99 129 170 218 272 326 381
#     4  12  26  43  64  96 138 174 210 268 334 391
#     4  10  20  40  64  95 124 169 222 261 320 386
#
# _framework density 22.184056999999999
#
# number of rings (size 3 to 8) (size 9 to 14) (size 15 to 20)
#    0.000    1.200    4.000    1.800    5.600    2.000 
#    0.000    7.000    0.000    0.000    0.000    0.000 
#    0.000    0.000    0.000    0.000    0.000    0.000 
#
# Total GULP energy -223416.229163 kJ/mol
# GULP energy per Si atom -5585.405729 kJ/mol
# Density = 2.213357 g / cm^3
# Si number density = 22.184057 Si / 1000 Ang^3
#
#
#
# Elastic Constant Matrix: (Units=GPa)
#
#
# Indices 1 2 3 4 5 6 
#
# 1 86.5481 -3.8822 14.3003 0.0000 0.0000 0.0000
# 2 -3.8822 58.6262 -3.7355 0.0000 0.0000 0.0000
# 3 14.3003 -3.7355 44.9223 0.0000 0.0000 0.0000
# 4 0.0000 0.0000 0.0000 10.3187 0.0000 0.0000
# 5 0.0000 0.0000 0.0000 0.0000 4.0132 0.0000
# 6 0.0000 0.0000 0.0000 0.0000 0.0000 36.1762
#
#
#
# Elastic Compliance Matrix: (Units=1/GPa)
#
#
# Indices 1 2 3 4 5 6 
#
# 1 0.012214 0.000564 -0.003841 0.000000 0.000000 0.000000
# 2 0.000564 0.017174 0.001249 0.000000 0.000000 0.000000
# 3 -0.003841 0.001249 0.023587 0.000000 0.000000 0.000000
# 4 0.000000 0.000000 0.000000 0.096912 0.000000 0.000000
# 5 0.000000 0.000000 0.000000 0.000000 0.249180 0.000000
# 6 0.000000 0.000000 0.000000 0.000000 0.000000 0.027642
#
#
# Mechanical properties :
#
#
# Convention : Reuss Voigt Hill
#
# Bulk Modulus (GPa) = 20.44222 22.60683 21.52453
# Shear Modulus (GPa) = 11.18386 22.32921 16.75653
#
# Velocity S-wave (km/s) = 2.24774 3.17605 2.75133
# Velocity P-wave (km/s) = 3.99641 4.86440 4.45161
#
# Compressibility (1/GPa) = 0.04891837
#
# Stress axis : x y z
#
# Youngs Moduli (GPa) = 81.87144 58.22711 42.39567
#
# Poissons Ratio (x) = -0.03284 0.16285
# Poissons Ratio (y) = -0.04618 -0.05293
# Poissons Ratio (z) = 0.31449 -0.07270
#
# Static dielectric constant tensor:
#      x y z
#    x 1.831330 0.000000 0.000000 
#    y 0.000000 1.917400 0.000000 
#    z 0.000000 0.000000 1.738260 
# 
# From -- ./inp_files/24941.got.cif
#   From: 2010.05.17/outbox.cif.g08.bks.cpg/sg58_13_cif.got.tgz:24941.got - 2010.06.03 14:20:14.
