data_PCOD9443344
_publ_section_title
;
Structure prediction by ZEFSAII (Michael W. Deem and Ramdas Pophale) SiO2 
 PCOD9443344
Probable space group: P N N M
;
_chemical_formula_sum "Si O2"
_cell_formula_units_Z 56
_cell_length_a 15.083823
_cell_length_b 21.801790
_cell_length_c 7.808400
_cell_angle_alpha 90.000000
_cell_angle_beta 90.000000
_cell_angle_gamma 90.000000
_cell_volume 2567.826240
_symmetry_space_group_name_H-M "P N N M"
_symmetry_group_IT_number 58
_symmetry_cell_setting 'orthorhombic'
loop_
_space_group_symop_operation_xyz
x,y,z
-x,-y,z
1/2+x,1/2-y,1/2-z
1/2-x,1/2+y,1/2-z
-x,-y,-z
x,y,-z
1/2-x,1/2+y,1/2+z
1/2+x,1/2-y,1/2+z
loop_
_atom_site_type_symbol
_atom_site_label
_atom_site_fract_x
_atom_site_fract_y
_atom_site_fract_z
Si Si1 0.100268 0.874693 0.790583
Si Si2 0.574020 0.169379 0.798764
Si Si3 0.088108 0.470001 0.801992
Si Si4 0.391461 0.233366 0.291951
Si Si5 0.092125 0.091414 0.204594
Si Si6 0.215421 0.983184 0.796776
Si Si7 0.191254 0.216205 0.292986
O O1 0.101413 0.804278 0.735637
O O2 0.181555 0.917024 0.732719
O O3 0.008875 0.906396 0.733358
O O4 0.101139 0.872194 0.000000
O O5 0.583098 0.103357 0.713519
O O6 0.474715 0.195391 0.776032
O O7 0.642055 0.221629 0.733722
O O8 0.592639 0.160147 0.000000
O O9 0.181040 0.492373 0.728659
O O10 0.000000 0.500000 0.722784
O O11 0.090232 0.488117 0.000000
O O12 0.395931 0.231073 0.500000
O O13 0.293631 0.211442 0.238512
O O14 0.136314 0.157133 0.237127
O O15 0.154286 0.037571 0.275141
O O16 0.086149 0.083052 0.000000
O O17 0.200321 0.982190 0.000000
O O18 0.190594 0.218341 0.500000
#
# Coordination Sequence:
#
# PCOD9443344 Si02
#       7
#     8   8   8   8   8   8   8
#     4   9  17  35  61  89 122 158 196 239 296 356
#     4  11  23  41  64  90 119 154 199 251 298 347
#     4  11  26  45  63  85 118 161 203 246 302 364
#     4  10  20  36  60  86 118 160 197 238 296 358
#     4  10  20  35  60  91 121 157 201 246 293 354
#     4  10  21  38  62  91 121 157 202 250 296 348
#     4  10  22  38  58  87 124 161 196 244 304 356
#
# _framework density 21.808329000000001
#
# number of rings (size 3 to 8) (size 9 to 14) (size 15 to 20)
#    0.000    1.857    1.429    2.143    2.000    6.857 
#    0.000    2.857    0.000    1.714    0.000    0.000 
#    0.000    0.000    0.000    0.000    0.000    0.000 
#
# Total GULP energy -312977.152340 kJ/mol
# GULP energy per Si atom -5588.877720 kJ/mol
# Density = 2.175869 g / cm^3
# Si number density = 21.808329 Si / 1000 Ang^3
#
#
#
# Elastic Constant Matrix: (Units=GPa)
#
#
# Indices 1 2 3 4 5 6 
#
# 1 87.7802 -9.6989 -6.6661 0.0000 0.0000 0.0000
# 2 -9.6989 30.5254 -8.6619 0.0000 0.0000 0.0000
# 3 -6.6661 -8.6619 21.7332 0.0000 0.0000 0.0000
# 4 0.0000 0.0000 0.0000 15.5170 0.0000 0.0000
# 5 0.0000 0.0000 0.0000 0.0000 -0.4599 0.0000
# 6 0.0000 0.0000 0.0000 0.0000 0.0000 29.5714
#
#
#
# Elastic Compliance Matrix: (Units=1/GPa)
#
#
# Indices 1 2 3 4 5 6 
#
# 1 0.012485 0.005698 0.006100 0.000000 0.000000 0.000000
# 2 0.005698 0.039537 0.017506 0.000000 0.000000 0.000000
# 3 0.006100 0.017506 0.054861 0.000000 0.000000 0.000000
# 4 0.000000 0.000000 0.000000 0.064445 0.000000 0.000000
# 5 0.000000 0.000000 0.000000 0.000000 -2.174187 0.000000
# 6 0.000000 0.000000 0.000000 0.000000 0.000000 0.033816
#
#
# Mechanical properties :
#
#
# Convention : Reuss Voigt Hill
#
# Bulk Modulus (GPa) = 6.04264 9.99832 8.02048
# Shear Modulus (GPa) = -2.53487 19.93008 8.69761
#
# Velocity S-wave (km/s) = -1.07929 3.02632 1.99922
# Velocity P-wave (km/s) = 1.10619 4.09952 3.00247
#
# Compressibility (1/GPa) = 0.16549069
#
# Stress axis : x y z
#
# Youngs Moduli (GPa) = 80.09655 25.29254 18.22801
#
# Poissons Ratio (x) = -0.14412 -0.11120
# Poissons Ratio (y) = -0.45638 -0.31909
# Poissons Ratio (z) = -0.48862 -0.44276
#
# Static dielectric constant tensor:
#      x y z
#    x 1.785140 0.000000 0.000000 
#    y 0.000000 1.768680 0.000000 
#    z 0.000000 0.000000 1.814740 
# 
# From -- ./inp_files/6379.got.cif
#   From: 2010.05.17/outbox.cif.g08.bks.cpg/sg58_4_cif.got.tgz:6379.got - 2010.06.03 14:20:14.
