data_PCOD9443104
_publ_section_title
;
Structure prediction by ZEFSAII (Michael W. Deem and Ramdas Pophale) SiO2 
 PCOD9443104
Probable space group: P N N M
;
_chemical_formula_sum "Si O2"
_cell_formula_units_Z 58
_cell_length_a 12.117838
_cell_length_b 27.378455
_cell_length_c 7.475409
_cell_angle_alpha 90.000000
_cell_angle_beta 90.000000
_cell_angle_gamma 90.000000
_cell_volume 2480.099119
_symmetry_space_group_name_H-M "P N N M"
_symmetry_group_IT_number 58
_symmetry_cell_setting 'orthorhombic'
loop_
_space_group_symop_operation_xyz
x,y,z
-x,-y,z
1/2+x,1/2-y,1/2-z
1/2-x,1/2+y,1/2-z
-x,-y,-z
x,y,-z
1/2-x,1/2+y,1/2+z
1/2+x,1/2-y,1/2+z
loop_
_atom_site_type_symbol
_atom_site_label
_atom_site_fract_x
_atom_site_fract_y
_atom_site_fract_z
Si Si1 0.387404 0.558759 0.299238
Si Si2 0.333483 0.903231 0.705795
Si Si3 0.500000 0.000000 0.500000
Si Si4 0.084717 0.880659 0.781819
Si Si5 0.669146 0.988026 0.798126
Si Si6 0.245187 0.152706 0.708709
Si Si7 0.511000 0.823755 0.718581
Si Si8 0.450456 0.715499 0.715690
O O1 0.407853 0.540555 0.500000
O O2 0.505330 0.574501 0.220381
O O3 0.291982 0.524168 0.224296
O O4 0.323747 0.610714 0.304678
O O5 0.364214 0.917228 0.500000
O O6 0.208350 0.884733 0.713733
O O7 0.338708 0.953700 0.808076
O O8 0.416284 0.861693 0.770220
O O9 0.576163 0.973306 0.657978
O O10 0.029001 0.829340 0.726211
O O11 0.085923 0.882301 0.000000
O O12 0.657181 0.967798 0.000000
O O13 0.249104 0.139038 0.500000
O O14 0.368284 0.159310 0.776586
O O15 0.173175 0.201642 0.726958
O O16 0.511708 0.822799 0.500000
O O17 0.486529 0.768684 0.778808
O O18 0.453123 0.715731 0.500000
#
# Coordination Sequence:
#
# PCOD9443104 Si02
#       8
#     8   8   2   8   8   8   8   8
#     4   9  21  41  64  89 119 166 213 260 315 381
#     4  11  23  40  59  92 130 167 212 267 328 388
#     4  12  26  44  68  96 136 172 210 272 318 386
#     4   9  19  38  63  86 121 162 211 267 322 383
#     4  11  25  44  68  97 131 174 222 265 328 389
#     4  10  20  34  59  88 115 149 202 259 312 377
#     4   9  21  37  57  81 120 164 202 256 322 383
#     4   9  19  39  59  81 115 163 206 253 320 383
#
# _framework density 23.386164000000001
#
# number of rings (size 3 to 8) (size 9 to 14) (size 15 to 20)
#    0.000    2.207    0.690    1.862    4.828    2.759 
#    0.000    6.897    0.000    0.000    0.000    0.000 
#    0.000    0.000    0.000    0.000    0.000    0.000 
#
# Total GULP energy -323702.129138 kJ/mol
# GULP energy per Si atom -5581.071192 kJ/mol
# Density = 2.333294 g / cm^3
# Si number density = 23.386164 Si / 1000 Ang^3
#
#
#
# Elastic Constant Matrix: (Units=GPa)
#
#
# Indices 1 2 3 4 5 6 
#
# 1 160.3151 25.4486 8.7234 0.0000 0.0000 0.0000
# 2 25.4486 50.2579 9.0696 0.0000 0.0000 0.0000
# 3 8.7234 9.0696 88.6433 0.0000 0.0000 0.0000
# 4 0.0000 0.0000 0.0000 16.3518 0.0000 0.0000
# 5 0.0000 0.0000 0.0000 0.0000 26.9705 0.0000
# 6 0.0000 0.0000 0.0000 0.0000 0.0000 24.2422
#
#
#
# Elastic Compliance Matrix: (Units=1/GPa)
#
#
# Indices 1 2 3 4 5 6 
#
# 1 0.006792 -0.003381 -0.000322 0.000000 0.000000 0.000000
# 2 -0.003381 0.021955 -0.001914 0.000000 0.000000 0.000000
# 3 -0.000322 -0.001914 0.011509 0.000000 0.000000 0.000000
# 4 0.000000 0.000000 0.000000 0.061155 0.000000 0.000000
# 5 0.000000 0.000000 0.000000 0.000000 0.037077 0.000000
# 6 0.000000 0.000000 0.000000 0.000000 0.000000 0.041250
#
#
# Mechanical properties :
#
#
# Convention : Reuss Voigt Hill
#
# Bulk Modulus (GPa) = 34.45748 42.85549 38.65649
# Shear Modulus (GPa) = 24.91949 30.57791 27.74870
#
# Velocity S-wave (km/s) = 3.26784 3.61989 3.44836
# Velocity P-wave (km/s) = 5.38558 5.98635 5.69390
#
# Compressibility (1/GPa) = 0.02902127
#
# Stress axis : x y z
#
# Youngs Moduli (GPa) = 147.23288 45.54836 86.89085
#
# Poissons Ratio (x) = 0.15400 0.02802
# Poissons Ratio (y) = 0.49779 0.16627
# Poissons Ratio (z) = 0.04748 0.08716
#
# Static dielectric constant tensor:
#      x y z
#    x 1.960690 0.000000 0.000000 
#    y 0.000000 1.927940 0.000000 
#    z 0.000000 0.000000 1.896140 
# 
# From -- ./inp_files/4567.got.cif
#   From: 2010.05.17/outbox.cif.g08.bks.cpg/sg58_3_cif.got.tgz:4567.got - 2010.06.03 14:20:14.
