data_PCOD9443906
_publ_section_title
;
Structure prediction by ZEFSAII (Michael W. Deem and Ramdas Pophale) SiO2 
 PCOD9443906
Probable space group: P N N M
;
_chemical_formula_sum "Si O2"
_cell_formula_units_Z 40
_cell_length_a 9.069055
_cell_length_b 21.183791
_cell_length_c 10.567314
_cell_angle_alpha 90.000000
_cell_angle_beta 90.000000
_cell_angle_gamma 90.000000
_cell_volume 2030.160301
_symmetry_space_group_name_H-M "P N N M"
_symmetry_group_IT_number 58
_symmetry_cell_setting 'orthorhombic'
loop_
_space_group_symop_operation_xyz
x,y,z
-x,-y,z
1/2+x,1/2-y,1/2-z
1/2-x,1/2+y,1/2-z
-x,-y,-z
x,y,-z
1/2-x,1/2+y,1/2+z
1/2+x,1/2-y,1/2+z
loop_
_atom_site_type_symbol
_atom_site_label
_atom_site_fract_x
_atom_site_fract_y
_atom_site_fract_z
Si Si1 0.087130 0.694331 0.000000
Si Si2 0.129268 0.550472 0.000000
Si Si3 0.230840 0.241253 0.260812
Si Si4 0.044833 0.819960 0.349441
Si Si5 0.152126 0.196247 0.000000
Si Si6 0.129161 0.051989 0.718090
Si Si7 0.382920 0.556622 0.500000
O O1 0.058032 0.620237 0.000000
O O2 0.182774 0.710552 0.123377
O O3 0.950930 0.742132 0.000000
O O4 0.238975 0.544072 0.119628
O O5 0.000000 0.500000 0.000000
O O6 0.061431 0.237427 0.304525
O O7 0.303235 0.308243 0.225012
O O8 0.242288 0.202187 0.129685
O O9 0.066272 0.820138 0.500000
O O10 0.955297 0.882140 0.309891
O O11 0.064311 0.130128 0.000000
O O12 0.189681 0.050216 0.862003
O O13 0.000000 0.000000 0.703136
O O14 0.500000 0.500000 0.500000
#
# Coordination Sequence:
#
# PCOD9443906 Si02
#       7
#     4   4   8   8   4   8   4
#     4  12  22  40  62  87 132 159 203 267 311 361
#     4  12  25  42  64  91 129 170 208 263 319 366
#     4  12  22  37  63  89 125 162 204 252 313 367
#     4  12  23  39  63  94 128 162 208 263 313 369
#     4  12  22  36  60  95 120 162 211 250 317 380
#     4  11  22  42  66  91 121 167 216 257 306 381
#     4  10  20  38  67  91 121 161 210 261 307 369
#
# _framework density 19.702877000000001
#
# number of rings (size 3 to 8) (size 9 to 14) (size 15 to 20)
#    0.000    0.400    9.000    0.300    0.000    1.600 
#    0.000    0.500    0.000    0.000    0.000    0.000 
#    0.000    0.000    0.000    0.000    0.000    0.000 
#
# Total GULP energy -223127.110343 kJ/mol
# GULP energy per Si atom -5578.177759 kJ/mol
# Density = 1.965803 g / cm^3
# Si number density = 19.702877 Si / 1000 Ang^3
#
#
#
# Elastic Constant Matrix: (Units=GPa)
#
#
# Indices 1 2 3 4 5 6 
#
# 1 70.0574 59.2512 36.6368 0.0000 0.0000 0.0000
# 2 59.2512 98.8842 53.7893 0.0000 0.0000 0.0000
# 3 36.6368 53.7893 186.5612 0.0000 0.0000 0.0000
# 4 0.0000 0.0000 0.0000 16.8637 0.0000 0.0000
# 5 0.0000 0.0000 0.0000 0.0000 33.4117 0.0000
# 6 0.0000 0.0000 0.0000 0.0000 0.0000 32.0982
#
#
#
# Elastic Compliance Matrix: (Units=1/GPa)
#
#
# Indices 1 2 3 4 5 6 
#
# 1 0.029044 -0.016960 -0.000814 0.000000 0.000000 0.000000
# 2 -0.016960 0.021898 -0.002983 0.000000 0.000000 0.000000
# 3 -0.000814 -0.002983 0.006380 0.000000 0.000000 0.000000
# 4 0.000000 0.000000 0.000000 0.059299 0.000000 0.000000
# 5 0.000000 0.000000 0.000000 0.000000 0.029930 0.000000
# 6 0.000000 0.000000 0.000000 0.000000 0.000000 0.031154
#
#
# Mechanical properties :
#
#
# Convention : Reuss Voigt Hill
#
# Bulk Modulus (GPa) = 63.25937 72.76194 68.01066
# Shear Modulus (GPa) = 22.27290 30.19644 26.23467
#
# Velocity S-wave (km/s) = 3.36585 3.91908 3.65295
# Velocity P-wave (km/s) = 6.87616 7.58213 7.23776
#
# Compressibility (1/GPa) = 0.01580793
#
# Stress axis : x y z
#
# Youngs Moduli (GPa) = 34.43079 45.66603 156.73996
#
# Poissons Ratio (x) = 0.77451 0.12752
# Poissons Ratio (y) = 0.58396 0.46755
# Poissons Ratio (z) = 0.02801 0.13622
#
# Static dielectric constant tensor:
#      x y z
#    x 1.716180 0.000000 0.000000 
#    y 0.000000 1.732960 0.000000 
#    z 0.000000 0.000000 1.723700 
# 
# From -- ./inp_files/12957.got.cif
#   From: 2010.05.17/outbox.cif.g08.bks.cpg/sg58_7_cif.got.tgz:12957.got - 2010.06.03 14:20:14.
