data_PCOD9443238
_publ_section_title
;
Structure prediction by ZEFSAII (Michael W. Deem and Ramdas Pophale) SiO2 
 PCOD9443238
Probable space group: P N N M
;
_chemical_formula_sum "Si O2"
_cell_formula_units_Z 64
_cell_length_a 14.779044
_cell_length_b 24.655816
_cell_length_c 7.625073
_cell_angle_alpha 90.000000
_cell_angle_beta 90.000000
_cell_angle_gamma 90.000000
_cell_volume 2778.495696
_symmetry_space_group_name_H-M "P N N M"
_symmetry_group_IT_number 58
_symmetry_cell_setting 'orthorhombic'
loop_
_space_group_symop_operation_xyz
x,y,z
-x,-y,z
1/2+x,1/2-y,1/2-z
1/2-x,1/2+y,1/2-z
-x,-y,-z
x,y,-z
1/2-x,1/2+y,1/2+z
1/2+x,1/2-y,1/2+z
loop_
_atom_site_type_symbol
_atom_site_label
_atom_site_fract_x
_atom_site_fract_y
_atom_site_fract_z
Si Si1 0.666743 0.105260 0.709916
Si Si2 0.325782 0.326155 0.786133
Si Si3 0.195621 0.991881 0.787713
Si Si4 0.962316 0.077257 0.201714
Si Si5 0.769017 0.394278 0.293155
Si Si6 0.032891 0.740618 0.296479
Si Si7 0.025911 0.621266 0.196156
Si Si8 0.601743 0.336348 0.713254
O O1 0.656882 0.110821 0.500000
O O2 0.724313 0.158158 0.768352
O O3 0.730172 0.053831 0.744508
O O4 0.565949 0.099506 0.783759
O O5 0.388880 0.373771 0.710043
O O6 0.374790 0.270541 0.736213
O O7 0.330977 0.329384 0.000000
O O8 0.096368 0.972450 0.722577
O O9 0.232012 0.048939 0.720262
O O10 0.188604 0.993347 0.000000
O O11 0.049940 0.108331 0.272791
O O12 0.984283 0.064072 0.000000
O O13 0.751179 0.396682 0.500000
O O14 0.875543 0.388759 0.272721
O O15 0.705588 0.344698 0.231549
O O16 0.044561 0.725446 0.500000
O O17 0.953306 0.784983 0.282248
O O18 0.012773 0.686081 0.194853
O O19 0.030900 0.598743 0.000000
O O20 0.594414 0.332745 0.500000
#
# Coordination Sequence:
#
# PCOD9443238 Si02
#       8
#     8   8   8   8   8   8   8   8
#     4   9  19  36  56  76 100 135 178 221 267 320
#     4   8  15  30  52  76 101 129 163 207 260 315
#     4   9  18  33  55  82 109 138 175 221 270 317
#     4   8  14  27  50  80 108 134 169 210 252 307
#     4  10  22  38  54  77 111 147 180 218 267 318
#     4  10  20  35  57  83 109 137 171 216 271 326
#     4  11  24  39  54  75 104 141 187 231 270 319
#     4   9  18  34  56  81 112 147 178 213 264 325
#
# _framework density 23.034047999999999
#
# number of rings (size 3 to 8) (size 9 to 14) (size 15 to 20)
#    0.000    2.750    0.000    0.750    0.000    4.500 
#    0.000    7.500    0.000    0.000    0.000    9.625 
#    0.000    0.000    0.000    0.000    0.000    0.000 
#
# Total GULP energy -356993.860817 kJ/mol
# GULP energy per Si atom -5578.029075 kJ/mol
# Density = 2.298162 g / cm^3
# Si number density = 23.034048 Si / 1000 Ang^3
#
#
#
# Elastic Constant Matrix: (Units=GPa)
#
#
# Indices 1 2 3 4 5 6 
#
# 1 130.7875 18.7261 -4.7866 0.0000 0.0000 0.0000
# 2 18.7261 48.4222 -8.8272 0.0000 0.0000 0.0000
# 3 -4.7866 -8.8272 47.4678 0.0000 0.0000 0.0000
# 4 0.0000 0.0000 0.0000 9.5298 0.0000 0.0000
# 5 0.0000 0.0000 0.0000 0.0000 9.2232 0.0000
# 6 0.0000 0.0000 0.0000 0.0000 0.0000 23.1648
#
#
#
# Elastic Compliance Matrix: (Units=1/GPa)
#
#
# Indices 1 2 3 4 5 6 
#
# 1 0.008097 -0.003087 0.000242 0.000000 0.000000 0.000000
# 2 -0.003087 0.022553 0.003883 0.000000 0.000000 0.000000
# 3 0.000242 0.003883 0.021813 0.000000 0.000000 0.000000
# 4 0.000000 0.000000 0.000000 0.104934 0.000000 0.000000
# 5 0.000000 0.000000 0.000000 0.000000 0.108422 0.000000
# 6 0.000000 0.000000 0.000000 0.000000 0.000000 0.043169
#
#
# Mechanical properties :
#
#
# Convention : Reuss Voigt Hill
#
# Bulk Modulus (GPa) = 18.33524 26.32245 22.32885
# Shear Modulus (GPa) = 15.38023 23.15458 19.26741
#
# Velocity S-wave (km/s) = 2.58683 3.17398 2.89533
# Velocity P-wave (km/s) = 4.11091 4.98845 4.57079
#
# Compressibility (1/GPa) = 0.05453979
#
# Stress axis : x y z
#
# Youngs Moduli (GPa) = 123.50455 44.33931 45.84339
#
# Poissons Ratio (x) = 0.13688 -0.01111
# Poissons Ratio (y) = 0.38127 -0.17800
# Poissons Ratio (z) = -0.02994 -0.17216
#
# Static dielectric constant tensor:
#      x y z
#    x 1.909640 0.000000 0.000000 
#    y 0.000000 1.865720 0.000000 
#    z 0.000000 0.000000 2.035820 
# 
# From -- ./inp_files/6745.got.cif
#   From: 2010.05.17/outbox.cif.g08.bks.cpg/sg58_4_cif.got.tgz:6745.got - 2010.06.03 14:20:14.
