data_PCOD9443769
_publ_section_title
;
Structure prediction by ZEFSAII (Michael W. Deem and Ramdas Pophale) SiO2 
 PCOD9443769
Probable space group: P N N M
;
_chemical_formula_sum "Si O2"
_cell_formula_units_Z 58
_cell_length_a 25.195480
_cell_length_b 13.061413
_cell_length_c 7.772314
_cell_angle_alpha 90.000000
_cell_angle_beta 90.000000
_cell_angle_gamma 90.000000
_cell_volume 2557.779700
_symmetry_space_group_name_H-M "P N N M"
_symmetry_group_IT_number 58
_symmetry_cell_setting 'orthorhombic'
loop_
_space_group_symop_operation_xyz
x,y,z
-x,-y,z
1/2+x,1/2-y,1/2-z
1/2-x,1/2+y,1/2-z
-x,-y,-z
x,y,-z
1/2-x,1/2+y,1/2+z
1/2+x,1/2-y,1/2+z
loop_
_atom_site_type_symbol
_atom_site_label
_atom_site_fract_x
_atom_site_fract_y
_atom_site_fract_z
Si Si1 0.842011 0.060025 0.707960
Si Si2 0.820832 0.672574 0.688897
Si Si3 0.453155 0.145020 0.708276
Si Si4 0.783390 0.263227 0.305049
Si Si5 0.000000 0.000000 0.000000
Si Si6 0.927693 0.577549 0.206299
Si Si7 0.735344 0.977225 0.696744
Si Si8 0.045353 0.877178 0.702707
O O1 0.845230 0.062028 0.500000
O O2 0.815315 0.166639 0.766072
O O3 0.902503 0.058104 0.764168
O O4 0.797259 0.976984 0.752862
O O5 0.817619 0.719154 0.500000
O O6 0.778948 0.734484 0.801826
O O7 0.881263 0.653692 0.738576
O O8 0.796358 0.558401 0.692685
O O9 0.448918 0.151467 0.500000
O O10 0.514485 0.119826 0.754651
O O11 0.439962 0.256576 0.781851
O O12 0.422395 0.041397 0.765622
O O13 0.800519 0.280234 0.500000
O O14 0.789980 0.366878 0.203828
O O15 0.997169 0.089054 0.844637
O O16 0.926476 0.572213 0.000000
O O17 0.733832 0.015722 0.500000
O O18 0.033340 0.896735 0.500000
#
# Coordination Sequence:
#
# PCOD9443769 Si02
#       8
#     8   8   8   8   2   8   8   8
#     4   8  19  39  61  84 118 156 201 248 301 363
#     4  11  22  36  54  85 122 157 201 244 301 367
#     4   9  19  39  63  92 122 155 209 259 310 378
#     4  10  20  38  59  86 120 154 198 250 299 363
#     4  12  26  48  64  96 128 152 226 260 316 374
#     4   9  19  37  62  88 124 162 196 255 314 368
#     4  10  20  38  59  84 119 157 201 250 301 362
#     4  11  23  44  69  92 123 167 208 266 319 368
#
# _framework density 22.675916999999998
#
# number of rings (size 3 to 8) (size 9 to 14) (size 15 to 20)
#    0.000    2.207    0.690    3.931    1.931    1.103 
#    9.931    1.379    0.000    0.000    0.000    0.000 
#    0.000    0.000    0.000    0.000    0.000    0.000 
#
# Total GULP energy -323052.854231 kJ/mol
# GULP energy per Si atom -5569.876797 kJ/mol
# Density = 2.262431 g / cm^3
# Si number density = 22.675917 Si / 1000 Ang^3
#
#
#
# Elastic Constant Matrix: (Units=GPa)
#
#
# Indices 1 2 3 4 5 6 
#
# 1 56.9624 -15.1153 4.0488 0.0000 0.0000 0.0000
# 2 -15.1153 42.2949 2.0562 0.0000 0.0000 0.0000
# 3 4.0488 2.0562 81.1841 0.0000 0.0000 0.0000
# 4 0.0000 0.0000 0.0000 64.8412 0.0000 0.0000
# 5 0.0000 0.0000 0.0000 0.0000 6.5796 0.0000
# 6 0.0000 0.0000 0.0000 0.0000 0.0000 11.3084
#
#
#
# Elastic Compliance Matrix: (Units=1/GPa)
#
#
# Indices 1 2 3 4 5 6 
#
# 1 0.019501 0.007025 -0.001151 0.000000 0.000000 0.000000
# 2 0.007025 0.026204 -0.001014 0.000000 0.000000 0.000000
# 3 -0.001151 -0.001014 0.012401 0.000000 0.000000 0.000000
# 4 0.000000 0.000000 0.000000 0.015422 0.000000 0.000000
# 5 0.000000 0.000000 0.000000 0.000000 0.151985 0.000000
# 6 0.000000 0.000000 0.000000 0.000000 0.000000 0.088430
#
#
# Mechanical properties :
#
#
# Convention : Reuss Voigt Hill
#
# Bulk Modulus (GPa) = 14.74333 18.04676 16.39504
# Shear Modulus (GPa) = 15.29844 29.17594 22.23719
#
# Velocity S-wave (km/s) = 2.60023 3.59088 3.13493
# Velocity P-wave (km/s) = 3.94091 5.01681 4.51105
#
# Compressibility (1/GPa) = 0.06782729
#
# Stress axis : x y z
#
# Youngs Moduli (GPa) = 51.27829 38.16277 80.64026
#
# Poissons Ratio (x) = -0.26811 0.09278
# Poissons Ratio (y) = -0.36025 0.08177
# Poissons Ratio (z) = 0.05900 0.03870
#
# Static dielectric constant tensor:
#      x y z
#    x 1.918620 0.000000 0.000000 
#    y 0.000000 1.859540 0.000000 
#    z 0.000000 0.000000 1.803280 
# 
# From -- ./inp_files/10463.got.cif
#   From: 2010.05.17/outbox.cif.g08.bks.cpg/sg58_6_cif.got.tgz:10463.got - 2010.06.03 14:20:14.
