data_PCOD9443086
_publ_section_title
;
Structure prediction by ZEFSAII (Michael W. Deem and Ramdas Pophale) SiO2 
 PCOD9443086
Probable space group: P N N M
;
_chemical_formula_sum "Si O2"
_cell_formula_units_Z 48
_cell_length_a 16.951409
_cell_length_b 17.703018
_cell_length_c 7.641312
_cell_angle_alpha 90.000000
_cell_angle_beta 90.000000
_cell_angle_gamma 90.000000
_cell_volume 2293.089713
_symmetry_space_group_name_H-M "P N N M"
_symmetry_group_IT_number 58
_symmetry_cell_setting 'orthorhombic'
loop_
_space_group_symop_operation_xyz
x,y,z
-x,-y,z
1/2+x,1/2-y,1/2-z
1/2-x,1/2+y,1/2-z
-x,-y,-z
x,y,-z
1/2-x,1/2+y,1/2+z
1/2+x,1/2-y,1/2+z
loop_
_atom_site_type_symbol
_atom_site_label
_atom_site_fract_x
_atom_site_fract_y
_atom_site_fract_z
Si Si1 0.491142 0.583078 0.702186
Si Si2 0.323049 0.154816 0.213634
Si Si3 0.365007 0.318721 0.202135
Si Si4 0.688629 0.142756 0.205616
Si Si5 0.145811 0.191586 0.787956
Si Si6 0.409196 0.002188 0.214335
O O1 0.500000 0.500000 0.783041
O O2 0.466629 0.571077 0.500000
O O3 0.574140 0.626144 0.705904
O O4 0.424420 0.638479 0.777470
O O5 0.363629 0.232910 0.272400
O O6 0.231358 0.159418 0.265881
O O7 0.366495 0.079190 0.270540
O O8 0.324118 0.156224 0.000000
O O9 0.274789 0.346895 0.211229
O O10 0.389510 0.316205 0.000000
O O11 0.642428 0.221537 0.228947
O O12 0.639213 0.071520 0.272055
O O13 0.702781 0.131179 0.000000
O O14 0.144254 0.193706 0.000000
O O15 0.500000 0.000000 0.270316
O O16 0.409166 0.001601 0.000000
#
# Coordination Sequence:
#
# PCOD9443086 Si02
#       6
#     8   8   8   8   8   8
#     4  10  22  37  58  84 111 145 190 234 276 335
#     4   8  16  32  53  75 104 144 181 217 269 323
#     4  10  21  37  58  80 112 148 182 229 285 335
#     4  10  20  34  58  84 110 144 188 231 269 329
#     4   9  19  36  56  78 110 148 181 224 281 333
#     4   9  18  30  51  83 110 136 180 229 265 312
#
# _framework density 20.932458
#
# number of rings (size 3 to 8) (size 9 to 14) (size 15 to 20)
#    0.000    2.667    0.000    2.000    4.667    1.000 
#    0.000    0.000    0.000    5.000    0.000    0.000 
#    0.000    0.000    0.000    0.000    0.000    0.000 
#
# Total GULP energy -267969.598468 kJ/mol
# GULP energy per Si atom -5582.699968 kJ/mol
# Density = 2.088481 g / cm^3
# Si number density = 20.932458 Si / 1000 Ang^3
#
#
#
# Elastic Constant Matrix: (Units=GPa)
#
#
# Indices 1 2 3 4 5 6 
#
# 1 97.0680 112.8655 -7.4395 0.0000 0.0000 0.0000
# 2 112.8655 210.3315 -4.2927 0.0000 0.0000 0.0000
# 3 -7.4395 -4.2927 42.5277 0.0000 0.0000 0.0000
# 4 0.0000 0.0000 0.0000 16.2719 0.0000 0.0000
# 5 0.0000 0.0000 0.0000 0.0000 14.4514 0.0000
# 6 0.0000 0.0000 0.0000 0.0000 0.0000 31.4012
#
#
#
# Elastic Compliance Matrix: (Units=1/GPa)
#
#
# Indices 1 2 3 4 5 6 
#
# 1 0.027869 -0.014886 0.003373 0.000000 0.000000 0.000000
# 2 -0.014886 0.012715 -0.001321 0.000000 0.000000 0.000000
# 3 0.003373 -0.001321 0.023971 0.000000 0.000000 0.000000
# 4 0.000000 0.000000 0.000000 0.061456 0.000000 0.000000
# 5 0.000000 0.000000 0.000000 0.000000 0.069197 0.000000
# 6 0.000000 0.000000 0.000000 0.000000 0.000000 0.031846
#
#
# Mechanical properties :
#
#
# Convention : Reuss Voigt Hill
#
# Bulk Modulus (GPa) = 25.71519 61.35488 43.53503
# Shear Modulus (GPa) = 18.81931 29.01117 23.91524
#
# Velocity S-wave (km/s) = 3.00167 3.72686 3.38375
# Velocity P-wave (km/s) = 4.93202 6.92054 6.00911
#
# Compressibility (1/GPa) = 0.03888752
#
# Stress axis : x y z
#
# Youngs Moduli (GPa) = 35.88196 78.64494 41.71749
#
# Poissons Ratio (x) = 1.17071 -0.14070
# Poissons Ratio (y) = 0.53414 0.05509
# Poissons Ratio (z) = -0.12102 0.10386
#
# Static dielectric constant tensor:
#      x y z
#    x 1.706960 0.000000 0.000000 
#    y 0.000000 1.734530 0.000000 
#    z 0.000000 0.000000 1.788490 
# 
# From -- ./inp_files/5771.got.cif
#   From: 2010.05.17/outbox.cif.g08.bks.cpg/sg58_3_cif.got.tgz:5771.got - 2010.06.03 14:20:14.
