data_PCOD9443791
_publ_section_title
;
Structure prediction by ZEFSAII (Michael W. Deem and Ramdas Pophale) SiO2 
 PCOD9443791
Probable space group: P N N M
;
_chemical_formula_sum "Si O2"
_cell_formula_units_Z 56
_cell_length_a 13.635623
_cell_length_b 18.957519
_cell_length_c 9.760429
_cell_angle_alpha 90.000000
_cell_angle_beta 90.000000
_cell_angle_gamma 90.000000
_cell_volume 2523.047297
_symmetry_space_group_name_H-M "P N N M"
_symmetry_group_IT_number 58
_symmetry_cell_setting 'orthorhombic'
loop_
_space_group_symop_operation_xyz
x,y,z
-x,-y,z
1/2+x,1/2-y,1/2-z
1/2-x,1/2+y,1/2-z
-x,-y,-z
x,y,-z
1/2-x,1/2+y,1/2+z
1/2+x,1/2-y,1/2+z
loop_
_atom_site_type_symbol
_atom_site_label
_atom_site_fract_x
_atom_site_fract_y
_atom_site_fract_z
Si Si1 0.245550 0.216896 0.248007
Si Si2 0.830142 0.926519 0.349860
Si Si3 0.443927 0.139478 0.159916
Si Si4 0.458808 0.375545 0.161608
Si Si5 0.669983 0.993142 0.838354
Si Si6 0.961225 0.748324 0.845652
Si Si7 0.722788 0.625002 0.658082
O O1 0.204992 0.155301 0.346487
O O2 0.341804 0.184274 0.176469
O O3 0.153698 0.233683 0.150716
O O4 0.264906 0.291511 0.320443
O O5 0.809439 0.956979 0.500000
O O6 0.765943 0.962093 0.234214
O O7 0.946519 0.925830 0.327333
O O8 0.418309 0.058979 0.202061
O O9 0.516062 0.176488 0.266195
O O10 0.475222 0.142457 0.000000
O O11 0.489544 0.307213 0.249469
O O12 0.359769 0.399780 0.234348
O O13 0.444529 0.360408 0.000000
O O14 0.680355 0.076920 0.817797
O O15 0.676478 0.981108 0.000000
O O16 0.001218 0.748097 0.000000
O O17 0.692759 0.612370 0.500000
#
# Coordination Sequence:
#
# PCOD9443791 Si02
#       7
#     8   8   8   8   8   8   8
#     4  10  21  36  60  87 117 149 193 243 297 340
#     4   9  19  36  56  81 111 150 194 237 288 351
#     4  10  20  38  61  83 115 155 196 239 290 349
#     4  10  21  35  55  85 119 150 189 240 296 348
#     4   9  21  38  56  81 115 156 195 238 290 345
#     4  11  22  36  59  90 118 150 195 243 293 349
#     4  11  22  37  58  85 116 152 196 241 290 345
#
# _framework density 22.195381999999999
#
# number of rings (size 3 to 8) (size 9 to 14) (size 15 to 20)
#    0.000    2.000    1.429    1.714    0.000    9.714 
#    0.000    3.571    0.000    3.429    0.000    0.000 
#    0.000    0.000    0.000    0.000    0.000    0.000 
#
# Total GULP energy -312563.560557 kJ/mol
# GULP energy per Si atom -5581.492153 kJ/mol
# Density = 2.214486 g / cm^3
# Si number density = 22.195382 Si / 1000 Ang^3
#
#
#
# Elastic Constant Matrix: (Units=GPa)
#
#
# Indices 1 2 3 4 5 6 
#
# 1 40.6735 24.7794 20.6633 0.0000 0.0000 0.0000
# 2 24.7794 92.7536 15.7263 0.0000 0.0000 0.0000
# 3 20.6633 15.7263 84.6451 0.0000 0.0000 0.0000
# 4 0.0000 0.0000 0.0000 0.1464 0.0000 0.0000
# 5 0.0000 0.0000 0.0000 0.0000 29.0111 0.0000
# 6 0.0000 0.0000 0.0000 0.0000 0.0000 30.9078
#
#
#
# Elastic Compliance Matrix: (Units=1/GPa)
#
#
# Indices 1 2 3 4 5 6 
#
# 1 0.032523 -0.007581 -0.006531 0.000000 0.000000 0.000000
# 2 -0.007581 0.012899 -0.000546 0.000000 0.000000 0.000000
# 3 -0.006531 -0.000546 0.013510 0.000000 0.000000 0.000000
# 4 0.000000 0.000000 0.000000 6.831870 0.000000 0.000000
# 5 0.000000 0.000000 0.000000 0.000000 0.034470 0.000000
# 6 0.000000 0.000000 0.000000 0.000000 0.000000 0.032354
#
#
# Mechanical properties :
#
#
# Convention : Reuss Voigt Hill
#
# Bulk Modulus (GPa) = 33.76581 37.82334 35.79458
# Shear Modulus (GPa) = 0.71461 22.47326 11.59394
#
# Velocity S-wave (km/s) = 0.56803 3.18546 2.28799
# Velocity P-wave (km/s) = 3.95932 5.53242 4.81061
#
# Compressibility (1/GPa) = 0.02961575
#
# Stress axis : x y z
#
# Youngs Moduli (GPa) = 30.74793 77.52452 74.02078
#
# Poissons Ratio (x) = 0.58773 0.48341
# Poissons Ratio (y) = 0.23311 0.04040
# Poissons Ratio (z) = 0.20081 0.04232
#
# Static dielectric constant tensor:
#      x y z
#    x 1.848530 0.000000 0.000000 
#    y 0.000000 1.887970 0.000000 
#    z 0.000000 0.000000 1.748520 
# 
# From -- ./inp_files/6347.got.cif
#   From: 2010.05.17/outbox.cif.g08.bks.cpg/sg58_4_cif.got.tgz:6347.got - 2010.06.03 14:20:14.
