data_PCOD9443975
_publ_section_title
;
Structure prediction by ZEFSAII (Michael W. Deem and Ramdas Pophale) SiO2 
 PCOD9443975
Probable space group: P N N M
;
_chemical_formula_sum "Si O2"
_cell_formula_units_Z 28
_cell_length_a 13.812579
_cell_length_b 4.992289
_cell_length_c 18.866984
_cell_angle_alpha 90.000000
_cell_angle_beta 90.000000
_cell_angle_gamma 90.000000
_cell_volume 1300.999035
_symmetry_space_group_name_H-M "P N N M"
_symmetry_group_IT_number 58
_symmetry_cell_setting 'orthorhombic'
loop_
_space_group_symop_operation_xyz
x,y,z
-x,-y,z
1/2+x,1/2-y,1/2-z
1/2-x,1/2+y,1/2-z
-x,-y,-z
x,y,-z
1/2-x,1/2+y,1/2+z
1/2+x,1/2-y,1/2+z
loop_
_atom_site_type_symbol
_atom_site_label
_atom_site_fract_x
_atom_site_fract_y
_atom_site_fract_z
Si Si1 0.112335 0.288728 0.420484
Si Si2 0.750661 0.215408 0.421105
Si Si3 0.807641 0.923443 0.223998
Si Si4 0.500000 0.500000 0.805279
O O1 0.072343 0.247870 0.500000
O O2 0.159751 0.578869 0.418086
O O3 0.200745 0.074949 0.412312
O O4 0.035960 0.226238 0.359784
O O5 0.707029 0.232958 0.500000
O O6 0.684992 0.310484 0.355888
O O7 0.769227 0.664553 0.267483
O O8 0.906756 0.039615 0.255864
#
# Coordination Sequence:
#
# PCOD9443975 Si02
#       4
#     8   8   8   4
#     4  10  21  36  60  90 120 151 195 248 309 364
#     4  10  20  40  60  84 121 160 195 246 299 353
#     4  12  24  41  60  90 125 158 202 248 298 360
#     4  12  23  38  65  88 128 156 204 240 315 350
#
# _framework density 21.521922
#
# number of rings (size 3 to 8) (size 9 to 14) (size 15 to 20)
#    0.000    1.143    5.714    0.429    0.000    4.571 
#    0.000    5.000    0.000    0.000    0.000   10.000 
#    0.000    0.000    0.000    0.000    0.000    0.000 
#
# Total GULP energy -156476.920183 kJ/mol
# GULP energy per Si atom -5588.461435 kJ/mol
# Density = 2.147294 g / cm^3
# Si number density = 21.521922 Si / 1000 Ang^3
#
#
#
# Elastic Constant Matrix: (Units=GPa)
#
#
# Indices 1 2 3 4 5 6 
#
# 1 66.2088 -15.7914 44.5209 0.0000 0.0000 0.0000
# 2 -15.7914 42.3914 -3.9925 0.0000 0.0000 0.0000
# 3 44.5209 -3.9925 185.9015 0.0000 0.0000 0.0000
# 4 0.0000 0.0000 0.0000 12.4962 0.0000 0.0000
# 5 0.0000 0.0000 0.0000 0.0000 44.5314 0.0000
# 6 0.0000 0.0000 0.0000 0.0000 0.0000 23.1571
#
#
#
# Elastic Compliance Matrix: (Units=1/GPa)
#
#
# Indices 1 2 3 4 5 6 
#
# 1 0.019863 0.006965 -0.004607 0.000000 0.000000 0.000000
# 2 0.006965 0.026080 -0.001108 0.000000 0.000000 0.000000
# 3 -0.004607 -0.001108 0.006459 0.000000 0.000000 0.000000
# 4 0.000000 0.000000 0.000000 0.080024 0.000000 0.000000
# 5 0.000000 0.000000 0.000000 0.000000 0.022456 0.000000
# 6 0.000000 0.000000 0.000000 0.000000 0.000000 0.043183
#
#
# Mechanical properties :
#
#
# Convention : Reuss Voigt Hill
#
# Bulk Modulus (GPa) = 18.21428 38.21952 28.21690
# Shear Modulus (GPa) = 23.37909 34.02126 28.70018
#
# Velocity S-wave (km/s) = 3.29947 3.98021 3.65572
# Velocity P-wave (km/s) = 4.79550 6.23856 5.56402
#
# Compressibility (1/GPa) = 0.05490198
#
# Stress axis : x y z
#
# Youngs Moduli (GPa) = 50.34439 38.34354 154.82756
#
# Poissons Ratio (x) = -0.26708 0.71335
# Poissons Ratio (y) = -0.35067 0.17155
# Poissons Ratio (z) = 0.23196 0.04248
#
# Static dielectric constant tensor:
#      x y z
#    x 1.786340 0.000000 0.000000 
#    y 0.000000 1.787590 0.000000 
#    z 0.000000 0.000000 1.875700 
# 
# From -- ./inp_files/11452.got.cif
#   From: 2010.05.17/outbox.cif.g08.bks.cpg/sg58_6_cif.got.tgz:11452.got - 2010.06.03 14:20:14.
