data_PCOD9443988
_publ_section_title
;
Structure prediction by ZEFSAII (Michael W. Deem and Ramdas Pophale) SiO2 
 PCOD9443988
Probable space group: P N N M
;
_chemical_formula_sum "Si O2"
_cell_formula_units_Z 56
_cell_length_a 15.228248
_cell_length_b 16.027255
_cell_length_c 12.061501
_cell_angle_alpha 90.000000
_cell_angle_beta 90.000000
_cell_angle_gamma 90.000000
_cell_volume 2943.814532
_symmetry_space_group_name_H-M "P N N M"
_symmetry_group_IT_number 58
_symmetry_cell_setting 'orthorhombic'
loop_
_space_group_symop_operation_xyz
x,y,z
-x,-y,z
1/2+x,1/2-y,1/2-z
1/2-x,1/2+y,1/2-z
-x,-y,-z
x,y,-z
1/2-x,1/2+y,1/2+z
1/2+x,1/2-y,1/2+z
loop_
_atom_site_type_symbol
_atom_site_label
_atom_site_fract_x
_atom_site_fract_y
_atom_site_fract_z
Si Si1 0.282683 0.376836 0.265950
Si Si2 0.826303 0.856546 0.285058
Si Si3 0.602734 0.488484 0.621278
Si Si4 0.184251 0.720470 0.628331
Si Si5 0.316796 0.021285 0.628255
Si Si6 0.891077 0.692806 0.372009
Si Si7 0.957359 0.416289 0.696935
O O1 0.348090 0.427638 0.343652
O O2 0.333650 0.305288 0.197227
O O3 0.231741 0.442297 0.185410
O O4 0.206312 0.338379 0.342476
O O5 0.880313 0.925502 0.220683
O O6 0.773031 0.810331 0.187102
O O7 0.752530 0.902321 0.358905
O O8 0.885955 0.791259 0.349867
O O9 0.500000 0.500000 0.612919
O O10 0.636781 0.460208 0.500000
O O11 0.195112 0.740397 0.500000
O O12 0.114644 0.644238 0.639137
O O13 0.336043 0.005484 0.500000
O O14 0.403527 0.047790 0.697512
O O15 0.913848 0.675034 0.500000
O O16 0.959781 0.645582 0.292640
O O17 0.000000 0.500000 0.642446
#
# Coordination Sequence:
#
# PCOD9443988 Si02
#       7
#     8   8   8   8   8   8   8
#     4  10  21  39  60  89 117 153 204 244 291 366
#     4   9  21  38  60  85 116 151 203 243 291 361
#     4  10  21  38  61  87 119 154 193 246 300 347
#     4  10  21  37  60  85 117 155 195 248 297 347
#     4  10  20  40  63  84 118 156 196 245 305 359
#     4  11  22  38  60  85 121 158 196 244 301 353
#     4  11  23  40  56  92 120 154 200 246 295 363
#
# _framework density 19.022936999999999
#
# number of rings (size 3 to 8) (size 9 to 14) (size 15 to 20)
#    0.000    1.857    1.429    2.143    2.000    1.429 
#    0.000    2.143    0.000    2.571    0.000    0.000 
#    0.000    0.000    0.000    0.000    0.000    0.000 
#
# Total GULP energy -312052.996945 kJ/mol
# GULP energy per Si atom -5572.374945 kJ/mol
# Density = 1.897964 g / cm^3
# Si number density = 19.022937 Si / 1000 Ang^3
#
#
#
# Elastic Constant Matrix: (Units=GPa)
#
#
# Indices 1 2 3 4 5 6 
#
# 1 66.6379 18.6660 24.3533 0.0000 0.0000 0.0000
# 2 18.6660 78.0884 16.8199 0.0000 0.0000 0.0000
# 3 24.3533 16.8199 88.8386 0.0000 0.0000 0.0000
# 4 0.0000 0.0000 0.0000 10.8870 0.0000 0.0000
# 5 0.0000 0.0000 0.0000 0.0000 5.3213 0.0000
# 6 0.0000 0.0000 0.0000 0.0000 0.0000 28.9798
#
#
#
# Elastic Compliance Matrix: (Units=1/GPa)
#
#
# Indices 1 2 3 4 5 6 
#
# 1 0.017445 -0.003273 -0.004162 0.000000 0.000000 0.000000
# 2 -0.003273 0.013965 -0.001747 0.000000 0.000000 0.000000
# 3 -0.004162 -0.001747 0.012728 0.000000 0.000000 0.000000
# 4 0.000000 0.000000 0.000000 0.091852 0.000000 0.000000
# 5 0.000000 0.000000 0.000000 0.000000 0.187925 0.000000
# 6 0.000000 0.000000 0.000000 0.000000 0.000000 0.034507
#
#
# Mechanical properties :
#
#
# Convention : Reuss Voigt Hill
#
# Bulk Modulus (GPa) = 38.80075 39.24926 39.02501
# Shear Modulus (GPa) = 12.97433 20.61934 16.79684
#
# Velocity S-wave (km/s) = 2.61442 3.29587 2.97472
# Velocity P-wave (km/s) = 5.43642 5.92967 5.68840
#
# Compressibility (1/GPa) = 0.02577270
#
# Stress axis : x y z
#
# Youngs Moduli (GPa) = 57.32461 71.60929 78.56644
#
# Poissons Ratio (x) = 0.23440 0.32702
# Poissons Ratio (y) = 0.18764 0.13723
# Poissons Ratio (z) = 0.23860 0.12507
#
# Static dielectric constant tensor:
#      x y z
#    x 1.649760 0.000000 0.000000 
#    y 0.000000 1.713220 0.000000 
#    z 0.000000 0.000000 1.640730 
# 
# From -- ./inp_files/15676.got.cif
#   From: 2010.05.17/outbox.cif.g08.bks.cpg/sg58_8_cif.got.tgz:15676.got - 2010.06.03 14:20:14.
