data_PCOD9443152
_publ_section_title
;
Structure prediction by ZEFSAII (Michael W. Deem and Ramdas Pophale) SiO2 
 PCOD9443152
Probable space group: P N N M
;
_chemical_formula_sum "Si O2"
_cell_formula_units_Z 56
_cell_length_a 19.505012
_cell_length_b 6.941761
_cell_length_c 15.424735
_cell_angle_alpha 90.000000
_cell_angle_beta 90.000000
_cell_angle_gamma 90.000000
_cell_volume 2088.495724
_symmetry_space_group_name_H-M "P N N M"
_symmetry_group_IT_number 58
_symmetry_cell_setting 'orthorhombic'
loop_
_space_group_symop_operation_xyz
x,y,z
-x,-y,z
1/2+x,1/2-y,1/2-z
1/2-x,1/2+y,1/2-z
-x,-y,-z
x,y,-z
1/2-x,1/2+y,1/2+z
1/2+x,1/2-y,1/2+z
loop_
_atom_site_type_symbol
_atom_site_label
_atom_site_fract_x
_atom_site_fract_y
_atom_site_fract_z
Si Si1 0.144164 0.283329 0.724030
Si Si2 0.979266 0.776975 0.596555
Si Si3 0.290400 0.295504 0.904411
Si Si4 0.246046 0.843593 0.095439
Si Si5 0.863224 0.676717 0.093721
Si Si6 0.598135 0.784396 0.779341
Si Si7 0.585633 0.757226 0.406091
O O1 0.088050 0.233867 0.653647
O O2 0.217014 0.252746 0.678827
O O3 0.129048 0.200836 0.819193
O O4 0.133912 0.512311 0.740919
O O5 0.031854 0.296819 0.500000
O O6 0.041782 0.679678 0.647288
O O7 0.000000 0.000000 0.592056
O O8 0.216151 0.394441 0.901279
O O9 0.342406 0.338472 0.826644
O O10 0.268604 0.068886 0.901430
O O11 0.322037 0.329567 0.000000
O O12 0.164952 0.812229 0.096434
O O13 0.270829 0.774086 0.000000
O O14 0.911835 0.491195 0.091173
O O15 0.869852 0.776447 0.000000
O O16 0.561355 0.711035 0.691626
O O17 0.555639 0.695858 0.500000
#
# Coordination Sequence:
#
# PCOD9443152 Si02
#       7
#     8   8   8   8   8   8   8
#     4  10  20  35  55  76 102 140 178 210 251 304
#     4  11  25  41  56  77 102 128 165 215 264 307
#     4   9  17  29  48  76 106 136 172 212 255 304
#     4   9  17  29  48  76 106 136 172 212 255 304
#     4   9  18  32  51  78 109 138 171 211 253 298
#     4  10  20  35  55  76 102 140 178 210 251 304
#     4   9  18  32  51  78 109 138 171 211 253 298
#
# _framework density 26.813558
#
# number of rings (size 3 to 8) (size 9 to 14) (size 15 to 20)
#    0.000    2.429    0.000    2.143    0.000    4.571 
#    0.000    3.571    0.000    4.286    0.000    0.000 
#    0.000    0.000    0.000    0.000    0.000    0.000 
#
# Total GULP energy -313240.803771 kJ/mol
# GULP energy per Si atom -5593.585782 kJ/mol
# Density = 2.675253 g / cm^3
# Si number density = 26.813558 Si / 1000 Ang^3
#
#
#
# Elastic Constant Matrix: (Units=GPa)
#
#
# Indices 1 2 3 4 5 6 
#
# 1 52.6226 -8.3775 42.1366 0.0000 0.0000 0.0000
# 2 -8.3775 80.0045 7.0827 0.0000 0.0000 0.0000
# 3 42.1366 7.0827 270.6197 0.0000 0.0000 0.0000
# 4 0.0000 0.0000 0.0000 11.3412 0.0000 0.0000
# 5 0.0000 0.0000 0.0000 0.0000 23.2041 0.0000
# 6 0.0000 0.0000 0.0000 0.0000 0.0000 26.1070
#
#
#
# Elastic Compliance Matrix: (Units=1/GPa)
#
#
# Indices 1 2 3 4 5 6 
#
# 1 0.022254 0.002643 -0.003534 0.000000 0.000000 0.000000
# 2 0.002643 0.012842 -0.000748 0.000000 0.000000 0.000000
# 3 -0.003534 -0.000748 0.004265 0.000000 0.000000 0.000000
# 4 0.000000 0.000000 0.000000 0.088174 0.000000 0.000000
# 5 0.000000 0.000000 0.000000 0.000000 0.043096 0.000000
# 6 0.000000 0.000000 0.000000 0.000000 0.000000 0.038304
#
#
# Mechanical properties :
#
#
# Convention : Reuss Voigt Hill
#
# Bulk Modulus (GPa) = 27.71320 53.88115 40.79718
# Shear Modulus (GPa) = 22.29749 36.29080 29.29415
#
# Velocity S-wave (km/s) = 2.88683 3.68292 3.30890
# Velocity P-wave (km/s) = 4.63354 6.18252 5.46321
#
# Compressibility (1/GPa) = 0.03608389
#
# Stress axis : x y z
#
# Youngs Moduli (GPa) = 44.93579 77.86796 234.46210
#
# Poissons Ratio (x) = -0.20582 0.82864
# Poissons Ratio (y) = -0.11877 0.17530
# Poissons Ratio (z) = 0.15881 0.05822
#
# Static dielectric constant tensor:
#      x y z
#    x 2.034500 0.000000 0.000000 
#    y 0.000000 2.153010 0.000000 
#    z 0.000000 0.000000 2.146980 
# 
# From -- ./inp_files/6366.got.cif
#   From: 2010.05.17/outbox.cif.g08.bks.cpg/sg58_4_cif.got.tgz:6366.got - 2010.06.03 14:20:14.
