data_PCOD9443278
_publ_section_title
;
Structure prediction by ZEFSAII (Michael W. Deem and Ramdas Pophale) SiO2 
 PCOD9443278
Probable space group: P N N M
;
_chemical_formula_sum "Si O2"
_cell_formula_units_Z 58
_cell_length_a 24.039585
_cell_length_b 12.201959
_cell_length_c 9.793856
_cell_angle_alpha 90.000000
_cell_angle_beta 90.000000
_cell_angle_gamma 90.000000
_cell_volume 2872.832080
_symmetry_space_group_name_H-M "P N N M"
_symmetry_group_IT_number 58
_symmetry_cell_setting 'orthorhombic'
loop_
_space_group_symop_operation_xyz
x,y,z
-x,-y,z
1/2+x,1/2-y,1/2-z
1/2-x,1/2+y,1/2-z
-x,-y,-z
x,y,-z
1/2-x,1/2+y,1/2+z
1/2+x,1/2-y,1/2+z
loop_
_atom_site_type_symbol
_atom_site_label
_atom_site_fract_x
_atom_site_fract_y
_atom_site_fract_z
Si Si1 0.043365 0.673823 0.224499
Si Si2 0.651087 0.285366 0.338759
Si Si3 0.154213 0.000271 0.661962
Si Si4 0.430138 0.832009 0.852030
Si Si5 0.000000 0.500000 0.000000
Si Si6 0.275629 0.929364 0.342126
Si Si7 0.053537 0.923516 0.155108
Si Si8 0.858784 0.445128 0.344328
O O1 0.027097 0.580635 0.117009
O O2 0.038918 0.795732 0.165568
O O3 0.105150 0.651584 0.279581
O O4 0.996114 0.662884 0.339888
O O5 0.645531 0.309311 0.500000
O O6 0.665542 0.388162 0.245345
O O7 0.594302 0.236025 0.274831
O O8 0.696229 0.188839 0.321624
O O9 0.145788 0.017960 0.500000
O O10 0.209818 0.928225 0.678929
O O11 0.100551 0.949477 0.734212
O O12 0.401280 0.950794 0.844548
O O13 0.414112 0.783892 0.000000
O O14 0.286460 0.960884 0.500000
O O15 0.306716 0.015190 0.244447
O O16 0.073138 0.947144 0.000000
O O17 0.000000 0.000000 0.179985
O O18 0.842732 0.421670 0.500000
#
# Coordination Sequence:
#
# PCOD9443278 Si02
#       8
#     8   8   8   8   2   8   8   8
#     4  12  23  37  63  94 137 172 216 268 326 392
#     4  10  21  38  64  89 120 166 217 268 324 394
#     4  11  24  44  65  92 127 163 212 268 327 387
#     4  10  20  35  57  88 127 167 210 259 321 384
#     4  12  24  36  60 104 136 180 210 262 346 392
#     4   9  22  41  64  91 123 164 215 266 326 398
#     4  11  26  45  65  92 124 168 223 264 312 379
#     4  10  21  36  58  92 128 164 208 262 321 388
#
# _framework density 20.189138
#
# number of rings (size 3 to 8) (size 9 to 14) (size 15 to 20)
#    0.000    1.517    2.069    2.069    1.931    6.345 
#    0.000    2.759    0.000    0.000    0.000    0.000 
#    0.000    0.000    0.000    0.000    0.000    0.000 
#
# Total GULP energy -323452.659072 kJ/mol
# GULP energy per Si atom -5576.769984 kJ/mol
# Density = 2.014319 g / cm^3
# Si number density = 20.189138 Si / 1000 Ang^3
#
#
#
# Elastic Constant Matrix: (Units=GPa)
#
#
# Indices 1 2 3 4 5 6 
#
# 1 87.1071 30.0766 62.9055 0.0000 0.0000 0.0000
# 2 30.0766 58.7029 46.0953 0.0000 0.0000 0.0000
# 3 62.9055 46.0953 150.1767 0.0000 0.0000 0.0000
# 4 0.0000 0.0000 0.0000 41.9875 0.0000 0.0000
# 5 0.0000 0.0000 0.0000 0.0000 36.8838 0.0000
# 6 0.0000 0.0000 0.0000 0.0000 0.0000 18.9759
#
#
#
# Elastic Compliance Matrix: (Units=1/GPa)
#
#
# Indices 1 2 3 4 5 6 
#
# 1 0.017195 -0.004156 -0.005927 0.000000 0.000000 0.000000
# 2 -0.004156 0.023449 -0.005457 0.000000 0.000000 0.000000
# 3 -0.005927 -0.005457 0.010816 0.000000 0.000000 0.000000
# 4 0.000000 0.000000 0.000000 0.023817 0.000000 0.000000
# 5 0.000000 0.000000 0.000000 0.000000 0.027112 0.000000
# 6 0.000000 0.000000 0.000000 0.000000 0.000000 0.052699
#
#
# Mechanical properties :
#
#
# Convention : Reuss Voigt Hill
#
# Bulk Modulus (GPa) = 49.06433 63.79351 56.42892
# Shear Modulus (GPa) = 25.91192 30.03005 27.97099
#
# Velocity S-wave (km/s) = 3.58643 3.86091 3.72620
# Velocity P-wave (km/s) = 6.44244 7.17928 6.82082
#
# Compressibility (1/GPa) = 0.02038140
#
# Stress axis : x y z
#
# Youngs Moduli (GPa) = 58.15486 42.64582 92.45215
#
# Poissons Ratio (x) = 0.17724 0.54798
# Poissons Ratio (y) = 0.24169 0.50447
# Poissons Ratio (z) = 0.34469 0.23270
#
# Static dielectric constant tensor:
#      x y z
#    x 1.715270 0.000000 0.000000 
#    y 0.000000 1.726420 0.000000 
#    z 0.000000 0.000000 1.700820 
# 
# From -- ./inp_files/10457.got.cif
#   From: 2010.05.17/outbox.cif.g08.bks.cpg/sg58_6_cif.got.tgz:10457.got - 2010.06.03 14:20:14.
