data_PCOD9443491
_publ_section_title
;
Structure prediction by ZEFSAII (Michael W. Deem and Ramdas Pophale) SiO2 
 PCOD9443491
Probable space group: P N N M
;
_chemical_formula_sum "Si O2"
_cell_formula_units_Z 64
_cell_length_a 18.174987
_cell_length_b 9.480413
_cell_length_c 20.187234
_cell_angle_alpha 90.000000
_cell_angle_beta 90.000000
_cell_angle_gamma 90.000000
_cell_volume 3478.389274
_symmetry_space_group_name_H-M "P N N M"
_symmetry_group_IT_number 58
_symmetry_cell_setting 'orthorhombic'
loop_
_space_group_symop_operation_xyz
x,y,z
-x,-y,z
1/2+x,1/2-y,1/2-z
1/2-x,1/2+y,1/2-z
-x,-y,-z
x,y,-z
1/2-x,1/2+y,1/2+z
1/2+x,1/2-y,1/2+z
loop_
_atom_site_type_symbol
_atom_site_label
_atom_site_fract_x
_atom_site_fract_y
_atom_site_fract_z
Si Si1 0.506266 0.160208 0.077366
Si Si2 0.766307 0.426333 0.925263
Si Si3 0.804670 0.439161 0.700214
Si Si4 0.174976 0.354742 0.577905
Si Si5 0.716660 0.619031 0.805669
Si Si6 0.453072 0.363152 0.820078
Si Si7 0.560560 0.874664 0.572062
Si Si8 0.046508 0.642180 0.780670
O O1 0.591567 0.203677 0.085383
O O2 0.453146 0.264392 0.115583
O O3 0.500000 0.000000 0.103095
O O4 0.488219 0.157669 0.000000
O O5 0.733105 0.271041 0.908935
O O6 0.739937 0.538018 0.871892
O O7 0.854915 0.426284 0.926075
O O8 0.740381 0.458315 0.000000
O O9 0.818204 0.518069 0.630370
O O10 0.757298 0.545035 0.744809
O O11 0.767750 0.286077 0.690523
O O12 0.877663 0.401685 0.743581
O O13 0.182318 0.397708 0.500000
O O14 0.629102 0.601034 0.798662
O O15 0.500000 0.500000 0.832795
O O16 0.488420 0.264092 0.763860
O O17 0.551691 0.800315 0.500000
O O18 0.553174 0.803162 0.643910
O O19 0.500000 0.000000 0.571770
O O20 0.000000 0.500000 0.781849
#
# Coordination Sequence:
#
# PCOD9443491 Si02
#       8
#     8   8   8   8   8   8   8   8
#     4  10  20  37  59  83 114 155 199 234 271 334
#     4  10  20  37  59  84 113 144 188 234 288 347
#     4  11  22  36  56  80 117 147 189 233 277 340
#     4  10  21  36  59  85 113 154 192 233 286 339
#     4  11  23  37  55  82 113 153 186 232 285 330
#     4  11  23  36  53  83 117 150 185 233 285 338
#     4   9  18  35  59  83 105 137 188 240 282 335
#     4  10  20  36  60  83 106 145 189 230 278 339
#
# _framework density 18.399322000000002
#
# number of rings (size 3 to 8) (size 9 to 14) (size 15 to 20)
#    0.000    1.750    1.250    4.125    1.750    2.250 
#    0.000    0.000    0.000    0.375    0.000    0.000 
#    0.000    0.000    0.000    0.000    0.000    0.000 
#
# Total GULP energy -356812.871258 kJ/mol
# GULP energy per Si atom -5575.201113 kJ/mol
# Density = 1.835744 g / cm^3
# Si number density = 18.399322 Si / 1000 Ang^3
#
#
#
# Elastic Constant Matrix: (Units=GPa)
#
#
# Indices 1 2 3 4 5 6 
#
# 1 55.4115 16.5416 3.3580 0.0000 0.0000 0.0000
# 2 16.5416 75.4561 46.3330 0.0000 0.0000 0.0000
# 3 3.3580 46.3330 113.8916 0.0000 0.0000 0.0000
# 4 0.0000 0.0000 0.0000 8.3166 0.0000 0.0000
# 5 0.0000 0.0000 0.0000 0.0000 25.0200 0.0000
# 6 0.0000 0.0000 0.0000 0.0000 0.0000 18.7101
#
#
#
# Elastic Compliance Matrix: (Units=1/GPa)
#
#
# Indices 1 2 3 4 5 6 
#
# 1 0.019514 -0.005232 0.001553 0.000000 0.000000 0.000000
# 2 -0.005232 0.019068 -0.007603 0.000000 0.000000 0.000000
# 3 0.001553 -0.007603 0.011828 0.000000 0.000000 0.000000
# 4 0.000000 0.000000 0.000000 0.120241 0.000000 0.000000
# 5 0.000000 0.000000 0.000000 0.000000 0.039968 0.000000
# 6 0.000000 0.000000 0.000000 0.000000 0.000000 0.053447
#
#
# Mechanical properties :
#
#
# Convention : Reuss Voigt Hill
#
# Bulk Modulus (GPa) = 35.91071 41.91382 38.91226
# Shear Modulus (GPa) = 16.89694 22.31113 19.60404
#
# Velocity S-wave (km/s) = 3.03371 3.48603 3.26770
# Velocity P-wave (km/s) = 5.64189 6.24762 5.95247
#
# Compressibility (1/GPa) = 0.02784685
#
# Stress axis : x y z
#
# Youngs Moduli (GPa) = 51.24422 52.44349 84.54864
#
# Poissons Ratio (x) = 0.27436 -0.13130
# Poissons Ratio (y) = 0.26808 0.64282
# Poissons Ratio (z) = -0.07958 0.39873
#
# Static dielectric constant tensor:
#      x y z
#    x 1.643470 0.000000 0.000000 
#    y 0.000000 1.616890 0.000000 
#    z 0.000000 0.000000 1.675200 
# 
# From -- ./inp_files/30305.got.cif
#   From: 2010.05.17/outbox.cif.g08.bks.cpg/sg58_16_cif.got.tgz:30305.got - 2010.06.03 14:20:14.
