data_PCOD9443422
_publ_section_title
;
Structure prediction by ZEFSAII (Michael W. Deem and Ramdas Pophale) SiO2 
 PCOD9443422
Probable space group: P N N M
;
_chemical_formula_sum "Si O2"
_cell_formula_units_Z 56
_cell_length_a 14.820239
_cell_length_b 21.171716
_cell_length_c 9.719202
_cell_angle_alpha 90.000000
_cell_angle_beta 90.000000
_cell_angle_gamma 90.000000
_cell_volume 3049.592954
_symmetry_space_group_name_H-M "P N N M"
_symmetry_group_IT_number 58
_symmetry_cell_setting 'orthorhombic'
loop_
_space_group_symop_operation_xyz
x,y,z
-x,-y,z
1/2+x,1/2-y,1/2-z
1/2-x,1/2+y,1/2-z
-x,-y,-z
x,y,-z
1/2-x,1/2+y,1/2+z
1/2+x,1/2-y,1/2+z
loop_
_atom_site_type_symbol
_atom_site_label
_atom_site_fract_x
_atom_site_fract_y
_atom_site_fract_z
Si Si1 0.567935 0.779836 0.839613
Si Si2 0.217678 0.904418 0.836586
Si Si3 0.990847 0.074207 0.836312
Si Si4 0.150535 0.484973 0.159380
Si Si5 0.259699 0.260354 0.335784
Si Si6 0.528050 0.898356 0.339858
Si Si7 0.087023 0.174544 0.341305
O O1 0.656204 0.760776 0.754871
O O2 0.527567 0.840935 0.764521
O O3 0.496097 0.723328 0.832699
O O4 0.587387 0.792221 0.000000
O O5 0.111464 0.904899 0.800902
O O6 0.271993 0.957574 0.755125
O O7 0.257375 0.834612 0.807521
O O8 0.224654 0.915884 0.000000
O O9 0.062722 0.116078 0.754950
O O10 0.002685 0.083323 0.000000
O O11 0.000000 0.000000 0.806449
O O12 0.111348 0.554362 0.191228
O O13 0.063475 0.438977 0.170345
O O14 0.179572 0.484686 0.000000
O O15 0.279505 0.255809 0.500000
O O16 0.175565 0.215001 0.305379
O O17 0.536728 0.877942 0.500000
O O18 0.096124 0.153718 0.500000
#
# Coordination Sequence:
#
# PCOD9443422 Si02
#       7
#     8   8   8   8   8   8   8
#     4  11  22  36  57  86 115 145 188 241 283 337
#     4  10  20  36  58  83 115 153 190 237 294 347
#     4  10  22  40  61  84 113 152 196 239 288 349
#     4   9  19  35  56  81 111 149 193 234 275 340
#     4  10  21  38  59  83 114 154 192 232 295 355
#     4   9  19  36  55  80 115 152 187 230 287 342
#     4  10  22  39  59  85 117 150 193 244 292 347
#
# _framework density 18.363105999999998
#
# number of rings (size 3 to 8) (size 9 to 14) (size 15 to 20)
#    0.000    2.143    1.429    2.143    0.000    6.000 
#    0.000    4.286    0.000    0.000    0.000    0.000 
#    0.000    0.000    0.000    0.000    0.000    0.000 
#
# Total GULP energy -312628.537366 kJ/mol
# GULP energy per Si atom -5582.652453 kJ/mol
# Density = 1.832131 g / cm^3
# Si number density = 18.363106 Si / 1000 Ang^3
#
#
#
# Elastic Constant Matrix: (Units=GPa)
#
#
# Indices 1 2 3 4 5 6 
#
# 1 39.9920 -5.9326 13.0982 0.0000 0.0000 0.0000
# 2 -5.9326 59.9682 28.4348 0.0000 0.0000 0.0000
# 3 13.0982 28.4348 37.3823 0.0000 0.0000 0.0000
# 4 0.0000 0.0000 0.0000 22.1491 0.0000 0.0000
# 5 0.0000 0.0000 0.0000 0.0000 23.6257 0.0000
# 6 0.0000 0.0000 0.0000 0.0000 0.0000 22.5447
#
#
#
# Elastic Compliance Matrix: (Units=1/GPa)
#
#
# Indices 1 2 3 4 5 6 
#
# 1 0.034708 0.014390 -0.023107 0.000000 0.000000 0.000000
# 2 0.014390 0.032049 -0.029420 0.000000 0.000000 0.000000
# 3 -0.023107 -0.029420 0.057225 0.000000 0.000000 0.000000
# 4 0.000000 0.000000 0.000000 0.045149 0.000000 0.000000
# 5 0.000000 0.000000 0.000000 0.000000 0.042327 0.000000
# 6 0.000000 0.000000 0.000000 0.000000 0.000000 0.044356
#
#
# Mechanical properties :
#
#
# Convention : Reuss Voigt Hill
#
# Bulk Modulus (GPa) = 20.96074 23.17145 22.06610
# Shear Modulus (GPa) = 14.36823 20.44670 17.40747
#
# Velocity S-wave (km/s) = 2.80027 3.34048 3.08223
# Velocity P-wave (km/s) = 4.67918 5.24636 4.97087
#
# Compressibility (1/GPa) = 0.04770825
#
# Stress axis : x y z
#
# Youngs Moduli (GPa) = 28.81215 31.20214 17.47483
#
# Poissons Ratio (x) = -0.44900 0.40379
# Poissons Ratio (y) = -0.41461 0.51411
# Poissons Ratio (z) = 0.66575 0.91797
#
# Static dielectric constant tensor:
#      x y z
#    x 1.624980 0.000000 0.000000 
#    y 0.000000 1.626770 0.000000 
#    z 0.000000 0.000000 1.606660 
# 
# From -- ./inp_files/6252.got.cif
#   From: 2010.05.17/outbox.cif.g08.bks.cpg/sg58_4_cif.got.tgz:6252.got - 2010.06.03 14:20:14.
