data_PCOD9443602
_publ_section_title
;
Structure prediction by ZEFSAII (Michael W. Deem and Ramdas Pophale) SiO2 
 PCOD9443602
Probable space group: P N N M
;
_chemical_formula_sum "Si O2"
_cell_formula_units_Z 52
_cell_length_a 8.177568
_cell_length_b 10.214303
_cell_length_c 28.306903
_cell_angle_alpha 90.000000
_cell_angle_beta 90.000000
_cell_angle_gamma 90.000000
_cell_volume 2364.423448
_symmetry_space_group_name_H-M "P N N M"
_symmetry_group_IT_number 58
_symmetry_cell_setting 'orthorhombic'
loop_
_space_group_symop_operation_xyz
x,y,z
-x,-y,z
1/2+x,1/2-y,1/2-z
1/2-x,1/2+y,1/2-z
-x,-y,-z
x,y,-z
1/2-x,1/2+y,1/2+z
1/2+x,1/2-y,1/2+z
loop_
_atom_site_type_symbol
_atom_site_label
_atom_site_fract_x
_atom_site_fract_y
_atom_site_fract_z
Si Si1 0.689053 0.478526 0.152109
Si Si2 0.596747 0.661591 0.553951
Si Si3 0.500000 0.000000 0.859692
Si Si4 0.304203 0.599116 0.606014
Si Si5 0.716055 0.233830 0.305126
Si Si6 0.892445 0.723902 0.302150
Si Si7 0.310807 0.043614 0.447584
O O1 0.500000 0.500000 0.165528
O O2 0.803007 0.584286 0.177550
O O3 0.712616 0.329151 0.168205
O O4 0.710578 0.505558 0.096869
O O5 0.613712 0.615079 0.500000
O O6 0.405425 0.680611 0.567352
O O7 0.655769 0.550546 0.590441
O O8 0.686914 0.798852 0.556915
O O9 0.607517 0.902870 0.891687
O O10 0.377577 0.919287 0.825682
O O11 0.354022 0.663223 0.656503
O O12 0.653098 0.242438 0.252199
O O13 0.911701 0.256184 0.304817
O O14 0.253261 0.006414 0.500000
O O15 0.500000 0.000000 0.443407
#
# Coordination Sequence:
#
# PCOD9443602 Si02
#       7
#     8   8   4   8   8   8   8
#     4  10  22  41  60  86 123 156 201 253 305 363
#     4  10  21  39  61  88 120 156 200 254 303 368
#     4  10  22  38  59  84 122 152 199 246 304 354
#     4  10  20  37  57  87 113 156 196 245 301 363
#     4  10  23  38  58  85 117 157 203 245 303 359
#     4  10  23  40  58  85 118 159 197 253 292 366
#     4  10  21  38  62  91 119 156 204 252 308 370
#
# _framework density 21.992675999999999
#
# number of rings (size 3 to 8) (size 9 to 14) (size 15 to 20)
#    0.000    2.000    0.000    2.769    4.308    5.231 
#    2.769    2.308    0.000   14.769    0.000    0.000 
#    0.000    0.000    0.000    0.000    0.000    0.000 
#
# Total GULP energy -289799.196699 kJ/mol
# GULP energy per Si atom -5573.061475 kJ/mol
# Density = 2.194262 g / cm^3
# Si number density = 21.992676 Si / 1000 Ang^3
#
#
#
# Elastic Constant Matrix: (Units=GPa)
#
#
# Indices 1 2 3 4 5 6 
#
# 1 19.2274 -3.6199 16.9575 0.0000 0.0000 0.0000
# 2 -3.6199 75.3669 34.0363 0.0000 0.0000 0.0000
# 3 16.9575 34.0363 136.3232 0.0000 0.0000 0.0000
# 4 0.0000 0.0000 0.0000 27.0896 0.0000 0.0000
# 5 0.0000 0.0000 0.0000 0.0000 33.6706 0.0000
# 6 0.0000 0.0000 0.0000 0.0000 0.0000 16.0661
#
#
#
# Elastic Compliance Matrix: (Units=1/GPa)
#
#
# Indices 1 2 3 4 5 6 
#
# 1 0.061745 0.007252 -0.009491 0.000000 0.000000 0.000000
# 2 0.007252 0.015806 -0.004849 0.000000 0.000000 0.000000
# 3 -0.009491 -0.004849 0.009727 0.000000 0.000000 0.000000
# 4 0.000000 0.000000 0.000000 0.036915 0.000000 0.000000
# 5 0.000000 0.000000 0.000000 0.000000 0.029699 0.000000
# 6 0.000000 0.000000 0.000000 0.000000 0.000000 0.062243
#
#
# Mechanical properties :
#
#
# Convention : Reuss Voigt Hill
#
# Bulk Modulus (GPa) = 13.67942 36.18502 24.93222
# Shear Modulus (GPa) = 19.63266 27.60152 23.61709
#
# Velocity S-wave (km/s) = 2.99103 3.54649 3.28054
# Velocity P-wave (km/s) = 4.26168 5.76706 5.07055
#
# Compressibility (1/GPa) = 0.07310250
#
# Stress axis : x y z
#
# Youngs Moduli (GPa) = 16.19565 63.26568 102.81006
#
# Poissons Ratio (x) = -0.45880 0.97579
# Poissons Ratio (y) = -0.11745 0.49848
# Poissons Ratio (z) = 0.15372 0.30674
#
# Static dielectric constant tensor:
#      x y z
#    x 1.855790 0.000000 0.000000 
#    y 0.000000 1.925340 0.000000 
#    z 0.000000 0.000000 1.777210 
# 
# From -- ./inp_files/33291.got.cif
#   From: 2010.05.17/outbox.cif.g08.bks.cpg/sg58_17_cif.got.tgz:33291.got - 2010.06.03 14:20:14.
