data_PCOD9443608
_publ_section_title
;
Structure prediction by ZEFSAII (Michael W. Deem and Ramdas Pophale) SiO2 
 PCOD9443608
Probable space group: P N N M
;
_chemical_formula_sum "Si O2"
_cell_formula_units_Z 48
_cell_length_a 28.450108
_cell_length_b 10.314510
_cell_length_c 7.629498
_cell_angle_alpha 90.000000
_cell_angle_beta 90.000000
_cell_angle_gamma 90.000000
_cell_volume 2238.867975
_symmetry_space_group_name_H-M "P N N M"
_symmetry_group_IT_number 58
_symmetry_cell_setting 'orthorhombic'
loop_
_space_group_symop_operation_xyz
x,y,z
-x,-y,z
1/2+x,1/2-y,1/2-z
1/2-x,1/2+y,1/2-z
-x,-y,-z
x,y,-z
1/2-x,1/2+y,1/2+z
1/2+x,1/2-y,1/2+z
loop_
_atom_site_type_symbol
_atom_site_label
_atom_site_fract_x
_atom_site_fract_y
_atom_site_fract_z
Si Si1 0.286809 0.250511 0.290976
Si Si2 0.679930 0.254439 0.211933
Si Si3 0.538217 0.601840 0.710207
Si Si4 0.641764 0.535124 0.708846
Si Si5 0.858064 0.478669 0.711591
Si Si6 0.038548 0.602325 0.710961
O O1 0.282284 0.268158 0.500000
O O2 0.233792 0.242212 0.222322
O O3 0.317214 0.371290 0.220222
O O4 0.317147 0.121698 0.260054
O O5 0.653734 0.385757 0.262266
O O6 0.654655 0.123082 0.272847
O O7 0.680732 0.250524 0.000000
O O8 0.500000 0.500000 0.778727
O O9 0.540050 0.585361 0.500000
O O10 0.590606 0.573496 0.779858
O O11 0.525596 0.750392 0.746022
O O12 0.640291 0.558106 0.500000
O O13 0.859998 0.481433 0.500000
O O14 0.908817 0.429662 0.776227
O O15 0.039888 0.591422 0.500000
O O16 0.000000 0.500000 0.776098
#
# Coordination Sequence:
#
# PCOD9443608 Si02
#       6
#     8   8   8   8   8   8
#     4  10  20  37  58  81 111 148 190 234 280 329
#     4  10  22  36  55  84 114 147 189 233 277 331
#     4  10  22  40  61  86 114 147 187 231 281 336
#     4  10  21  38  58  82 115 149 186 232 280 333
#     4  10  21  38  58  82 115 150 187 231 279 333
#     4  10  22  39  60  87 115 147 187 231 281 336
#
# _framework density 21.439405000000001
#
# number of rings (size 3 to 8) (size 9 to 14) (size 15 to 20)
#    0.000    2.000    1.667    1.000    2.333    4.667 
#    0.000    0.000    0.000    0.000    0.000    0.000 
#    0.000    0.000    0.000    0.000    0.000    0.000 
#
# Total GULP energy -268279.899500 kJ/mol
# GULP energy per Si atom -5589.164573 kJ/mol
# Density = 2.139061 g / cm^3
# Si number density = 21.439405 Si / 1000 Ang^3
#
#
#
# Elastic Constant Matrix: (Units=GPa)
#
#
# Indices 1 2 3 4 5 6 
#
# 1 111.0749 61.3255 1.0547 0.0000 0.0000 0.0000
# 2 61.3255 159.5427 -22.4338 0.0000 0.0000 0.0000
# 3 1.0547 -22.4338 38.0933 0.0000 0.0000 0.0000
# 4 0.0000 0.0000 0.0000 54.3507 0.0000 0.0000
# 5 0.0000 0.0000 0.0000 0.0000 3.6200 0.0000
# 6 0.0000 0.0000 0.0000 0.0000 0.0000 42.7884
#
#
#
# Elastic Compliance Matrix: (Units=1/GPa)
#
#
# Indices 1 2 3 4 5 6 
#
# 1 0.011789 -0.004991 -0.003266 0.000000 0.000000 0.000000
# 2 -0.004991 0.008947 0.005407 0.000000 0.000000 0.000000
# 3 -0.003266 0.005407 0.029526 0.000000 0.000000 0.000000
# 4 0.000000 0.000000 0.000000 0.018399 0.000000 0.000000
# 5 0.000000 0.000000 0.000000 0.000000 0.276241 0.000000
# 6 0.000000 0.000000 0.000000 0.000000 0.000000 0.023371
#
#
# Mechanical properties :
#
#
# Convention : Reuss Voigt Hill
#
# Bulk Modulus (GPa) = 22.44008 43.17819 32.80914
# Shear Modulus (GPa) = 12.85922 38.06946 25.46434
#
# Velocity S-wave (km/s) = 2.45173 4.21845 3.45009
# Velocity P-wave (km/s) = 4.30164 6.62650 5.58635
#
# Compressibility (1/GPa) = 0.04456312
#
# Stress axis : x y z
#
# Youngs Moduli (GPa) = 84.82173 111.77426 33.86843
#
# Poissons Ratio (x) = 0.55785 0.11060
# Poissons Ratio (y) = 0.42333 -0.18313
# Poissons Ratio (z) = 0.27700 -0.60436
#
# Static dielectric constant tensor:
#      x y z
#    x 1.771860 0.000000 0.000000 
#    y 0.000000 1.721630 0.000000 
#    z 0.000000 0.000000 1.800360 
# 
# From -- ./inp_files/2912.got.cif
#   From: 2010.05.17/outbox.cif.g08.bks.cpg/sg58_2_cif.got.tgz:2912.got - 2010.06.03 14:20:14.
