data_PCOD9443566
_publ_section_title
;
Structure prediction by ZEFSAII (Michael W. Deem and Ramdas Pophale) SiO2 
 PCOD9443566
Probable space group: P N N M
;
_chemical_formula_sum "Si O2"
_cell_formula_units_Z 28
_cell_length_a 21.176121
_cell_length_b 5.268083
_cell_length_c 10.243434
_cell_angle_alpha 90.000000
_cell_angle_beta 90.000000
_cell_angle_gamma 90.000000
_cell_volume 1142.732534
_symmetry_space_group_name_H-M "P N N M"
_symmetry_group_IT_number 58
_symmetry_cell_setting 'orthorhombic'
loop_
_space_group_symop_operation_xyz
x,y,z
-x,-y,z
1/2+x,1/2-y,1/2-z
1/2-x,1/2+y,1/2-z
-x,-y,-z
x,y,-z
1/2-x,1/2+y,1/2+z
1/2+x,1/2-y,1/2+z
loop_
_atom_site_type_symbol
_atom_site_label
_atom_site_fract_x
_atom_site_fract_y
_atom_site_fract_z
Si Si1 0.000000 0.000000 0.217208
Si Si2 0.928596 0.616979 0.358211
Si Si3 0.266567 0.519658 0.659485
Si Si4 0.888234 0.286475 0.136469
O O1 0.054696 0.105687 0.309542
O O2 0.961532 0.201506 0.134993
O O3 0.900865 0.613191 0.500000
O O4 0.885329 0.467504 0.259475
O O5 0.000000 0.500000 0.362297
O O6 0.256370 0.774036 0.749339
O O7 0.246532 0.535066 0.500000
O O8 0.340659 0.446951 0.646966
O O9 0.873157 0.421465 0.000000
#
# Coordination Sequence:
#
# PCOD9443566 Si02
#       4
#     4   8   8   8
#     4  10  20  36  62  96 130 174 216 276 344 410
#     4   9  19  35  55  85 124 163 207 258 321 395
#     4  11  26  49  74 105 141 188 243 304 362 431
#     4  10  23  40  63  93 130 170 223 283 347 418
#
# _framework density 24.502673999999999
#
# number of rings (size 3 to 8) (size 9 to 14) (size 15 to 20)
#    0.000    2.000    0.000    1.714    4.000    9.714 
#    0.000    0.000    0.000    0.000    0.000    0.000 
#    0.000    0.000    0.000    0.000    0.000    0.000 
#
# Total GULP energy -155889.223045 kJ/mol
# GULP energy per Si atom -5567.472252 kJ/mol
# Density = 2.444691 g / cm^3
# Si number density = 24.502674 Si / 1000 Ang^3
#
#
#
# Elastic Constant Matrix: (Units=GPa)
#
#
# Indices 1 2 3 4 5 6 
#
# 1 76.7841 13.2152 31.7056 0.0000 0.0000 0.0000
# 2 13.2152 100.9228 71.5891 0.0000 0.0000 0.0000
# 3 31.7056 71.5891 252.9375 0.0000 0.0000 0.0000
# 4 0.0000 0.0000 0.0000 26.7708 0.0000 0.0000
# 5 0.0000 0.0000 0.0000 0.0000 99.2726 0.0000
# 6 0.0000 0.0000 0.0000 0.0000 0.0000 50.4921
#
#
#
# Elastic Compliance Matrix: (Units=1/GPa)
#
#
# Indices 1 2 3 4 5 6 
#
# 1 0.013777 -0.000724 -0.001522 0.000000 0.000000 0.000000
# 2 -0.000724 0.012436 -0.003429 0.000000 0.000000 0.000000
# 3 -0.001522 -0.003429 0.005115 0.000000 0.000000 0.000000
# 4 0.000000 0.000000 0.000000 0.037354 0.000000 0.000000
# 5 0.000000 0.000000 0.000000 0.000000 0.010073 0.000000
# 6 0.000000 0.000000 0.000000 0.000000 0.000000 0.019805
#
#
# Mechanical properties :
#
#
# Convention : Reuss Voigt Hill
#
# Bulk Modulus (GPa) = 50.05823 73.74049 61.89936
# Shear Modulus (GPa) = 42.89310 56.24940 49.57125
#
# Velocity S-wave (km/s) = 4.18849 4.79648 4.50276
# Velocity P-wave (km/s) = 6.62309 7.79969 7.23535
#
# Compressibility (1/GPa) = 0.01997673
#
# Stress axis : x y z
#
# Youngs Moduli (GPa) = 72.58681 80.41376 195.51153
#
# Poissons Ratio (x) = 0.05826 0.29754
# Poissons Ratio (y) = 0.05259 0.67038
# Poissons Ratio (z) = 0.11047 0.27573
#
# Static dielectric constant tensor:
#      x y z
#    x 1.949060 0.000000 0.000000 
#    y 0.000000 2.044500 0.000000 
#    z 0.000000 0.000000 2.012720 
# 
# From -- ./inp_files/10199.got.cif
#   From: 2010.05.17/outbox.cif.g08.bks.cpg/sg58_6_cif.got.tgz:10199.got - 2010.06.03 14:20:14.
