data_PCOD9443010
_publ_section_title
;
Structure prediction by ZEFSAII (Michael W. Deem and Ramdas Pophale) SiO2 
 PCOD9443010
Probable space group: P N N M
;
_chemical_formula_sum "Si O2"
_cell_formula_units_Z 58
_cell_length_a 14.168727
_cell_length_b 25.864314
_cell_length_c 8.679060
_cell_angle_alpha 90.000000
_cell_angle_beta 90.000000
_cell_angle_gamma 90.000000
_cell_volume 3180.566551
_symmetry_space_group_name_H-M "P N N M"
_symmetry_group_IT_number 58
_symmetry_cell_setting 'orthorhombic'
loop_
_space_group_symop_operation_xyz
x,y,z
-x,-y,z
1/2+x,1/2-y,1/2-z
1/2-x,1/2+y,1/2-z
-x,-y,-z
x,y,-z
1/2-x,1/2+y,1/2+z
1/2+x,1/2-y,1/2+z
loop_
_atom_site_type_symbol
_atom_site_label
_atom_site_fract_x
_atom_site_fract_y
_atom_site_fract_z
Si Si1 0.085741 0.096509 0.670970
Si Si2 0.759323 0.164671 0.186973
Si Si3 0.000000 0.000000 0.500000
Si Si4 0.669831 0.056580 0.184865
Si Si5 0.283879 0.054302 0.686431
Si Si6 0.983060 0.395555 0.184896
Si Si7 0.562166 0.210135 0.184827
Si Si8 0.030318 0.812881 0.816224
O O1 0.098662 0.121635 0.500000
O O2 0.189004 0.083486 0.736052
O O3 0.024745 0.135086 0.771719
O O4 0.034156 0.042477 0.631860
O O5 0.732529 0.106125 0.233701
O O6 0.671143 0.200400 0.233380
O O7 0.861693 0.182065 0.241678
O O8 0.761798 0.164750 0.000000
O O9 0.565086 0.067459 0.249281
O O10 0.710416 0.003343 0.247969
O O11 0.665785 0.055601 0.000000
O O12 0.279065 0.050574 0.500000
O O13 0.379795 0.083933 0.728665
O O14 0.004343 0.338597 0.248976
O O15 0.989476 0.395233 0.000000
O O16 0.520891 0.263577 0.244037
O O17 0.558685 0.207937 0.000000
O O18 0.032107 0.806736 0.000000
#
# Coordination Sequence:
#
# PCOD9443010 Si02
#       8
#     8   8   2   8   8   8   8   8
#     4   9  21  38  57  82 110 148 184 228 273 328
#     4   8  19  37  56  78 108 145 183 226 278 332
#     4   8  20  40  62  76 118 148 190 232 274 324
#     4  10  20  34  55  82 112 149 193 234 277 332
#     4  10  21  35  54  80 115 152 186 227 285 336
#     4  10  20  36  55  80 112 149 187 231 281 335
#     4  10  21  40  60  81 110 147 188 230 278 331
#     4  11  22  38  60  86 113 143 184 231 278 334
#
# _framework density 18.235744
#
# number of rings (size 3 to 8) (size 9 to 14) (size 15 to 20)
#    0.414    1.931    0.000    2.897    1.931    4.414 
#    0.000   13.448    0.000    0.000    0.000    0.000 
#    0.000    0.000    0.000    0.000    0.000    0.000 
#
# Total GULP energy -322989.610524 kJ/mol
# GULP energy per Si atom -5568.786388 kJ/mol
# Density = 1.819424 g / cm^3
# Si number density = 18.235744 Si / 1000 Ang^3
#
#
#
# Elastic Constant Matrix: (Units=GPa)
#
#
# Indices 1 2 3 4 5 6 
#
# 1 147.6780 89.1335 26.4353 0.0000 0.0000 0.0000
# 2 89.1335 98.9521 21.9289 0.0000 0.0000 0.0000
# 3 26.4353 21.9289 28.2360 0.0000 0.0000 0.0000
# 4 0.0000 0.0000 0.0000 33.7257 0.0000 0.0000
# 5 0.0000 0.0000 0.0000 0.0000 21.3183 0.0000
# 6 0.0000 0.0000 0.0000 0.0000 0.0000 21.8339
#
#
#
# Elastic Compliance Matrix: (Units=1/GPa)
#
#
# Indices 1 2 3 4 5 6 
#
# 1 0.015272 -0.012789 -0.004366 0.000000 0.000000 0.000000
# 2 -0.012789 0.022917 -0.005824 0.000000 0.000000 0.000000
# 3 -0.004366 -0.005824 0.044026 0.000000 0.000000 0.000000
# 4 0.000000 0.000000 0.000000 0.029651 0.000000 0.000000
# 5 0.000000 0.000000 0.000000 0.000000 0.046908 0.000000
# 6 0.000000 0.000000 0.000000 0.000000 0.000000 0.045800
#
#
# Mechanical properties :
#
#
# Convention : Reuss Voigt Hill
#
# Bulk Modulus (GPa) = 27.58090 61.09573 44.33831
# Shear Modulus (GPa) = 19.03900 24.53347 21.78623
#
# Velocity S-wave (km/s) = 3.23468 3.67188 3.46019
# Velocity P-wave (km/s) = 5.39521 7.18004 6.35064
#
# Compressibility (1/GPa) = 0.03625698
#
# Stress axis : x y z
#
# Youngs Moduli (GPa) = 65.47860 43.63597 22.71367
#
# Poissons Ratio (x) = 0.55807 0.09916
# Poissons Ratio (y) = 0.83742 0.13229
# Poissons Ratio (z) = 0.28586 0.25415
#
# Static dielectric constant tensor:
#      x y z
#    x 1.637720 0.000000 0.000000 
#    y 0.000000 1.593650 0.000000 
#    z 0.000000 0.000000 1.627530 
# 
# From -- ./inp_files/4580.got.cif
#   From: 2010.05.17/outbox.cif.g08.bks.cpg/sg58_3_cif.got.tgz:4580.got - 2010.06.03 14:20:14.
