data_PCOD9443949
_publ_section_title
;
Structure prediction by ZEFSAII (Michael W. Deem and Ramdas Pophale) SiO2 
 PCOD9443949
Probable space group: P N N M
;
_chemical_formula_sum "Si O2"
_cell_formula_units_Z 64
_cell_length_a 15.172613
_cell_length_b 23.995675
_cell_length_c 8.919239
_cell_angle_alpha 90.000000
_cell_angle_beta 90.000000
_cell_angle_gamma 90.000000
_cell_volume 3247.290584
_symmetry_space_group_name_H-M "P N N M"
_symmetry_group_IT_number 58
_symmetry_cell_setting 'orthorhombic'
loop_
_space_group_symop_operation_xyz
x,y,z
-x,-y,z
1/2+x,1/2-y,1/2-z
1/2-x,1/2+y,1/2-z
-x,-y,-z
x,y,-z
1/2-x,1/2+y,1/2+z
1/2+x,1/2-y,1/2+z
loop_
_atom_site_type_symbol
_atom_site_label
_atom_site_fract_x
_atom_site_fract_y
_atom_site_fract_z
Si Si1 0.877509 0.739378 0.820936
Si Si2 0.268858 0.447473 0.819883
Si Si3 0.803816 0.179283 0.682408
Si Si4 0.600645 0.000291 0.176012
Si Si5 0.685693 0.878728 0.828181
Si Si6 0.364085 0.640394 0.174699
Si Si7 0.559813 0.772724 0.177344
Si Si8 0.407891 0.531526 0.327031
O O1 0.788338 0.708127 0.770177
O O2 0.877208 0.801963 0.759367
O O3 0.968933 0.715112 0.760675
O O4 0.876888 0.739242 0.000000
O O5 0.300901 0.385507 0.773137
O O6 0.170302 0.461067 0.762480
O O7 0.333537 0.493811 0.750916
O O8 0.271021 0.450498 0.000000
O O9 0.805506 0.180732 0.500000
O O10 0.886409 0.217686 0.731081
O O11 0.635147 0.936871 0.183881
O O12 0.500000 0.000000 0.231286
O O13 0.600051 0.016964 0.000000
O O14 0.763807 0.877041 0.709635
O O15 0.623781 0.825520 0.806090
O O16 0.720660 0.874221 0.000000
O O17 0.419216 0.590043 0.243802
O O18 0.381510 0.647018 0.000000
O O19 0.541376 0.765472 0.000000
O O20 0.500000 0.500000 0.322674
O O21 0.382060 0.540644 0.500000
#
# Coordination Sequence:
#
# PCOD9443949 Si02
#       8
#     8   8   8   8   8   8   8   8
#     4  11  23  42  64  90 125 167 208 253 307 364
#     4  11  23  40  62  91 124 163 206 254 310 367
#     4   9  21  41  61  84 124 166 198 246 312 364
#     4  10  22  39  61  90 123 165 208 251 307 367
#     4  10  20  39  65  87 122 164 204 254 309 365
#     4  12  24  40  65  94 123 159 207 260 311 368
#     4  10  21  40  63  90 121 162 207 252 307 366
#     4  11  25  44  65  91 123 162 206 255 313 375
#
# _framework density 19.708739000000001
#
# number of rings (size 3 to 8) (size 9 to 14) (size 15 to 20)
#    0.000    1.500    2.500    2.250    3.500    1.750 
#    0.000    2.500    0.000    0.000    0.000    0.000 
#    0.000    0.000    0.000    0.000    0.000    0.000 
#
# Total GULP energy -357623.095487 kJ/mol
# GULP energy per Si atom -5587.860867 kJ/mol
# Density = 1.966388 g / cm^3
# Si number density = 19.708739 Si / 1000 Ang^3
#
#
#
# Elastic Constant Matrix: (Units=GPa)
#
#
# Indices 1 2 3 4 5 6 
#
# 1 44.4852 -21.5739 8.7190 0.0000 0.0000 0.0000
# 2 -21.5739 47.6870 -0.7037 0.0000 0.0000 0.0000
# 3 8.7190 -0.7037 44.7184 0.0000 0.0000 0.0000
# 4 0.0000 0.0000 0.0000 22.0097 0.0000 0.0000
# 5 0.0000 0.0000 0.0000 0.0000 28.9812 0.0000
# 6 0.0000 0.0000 0.0000 0.0000 0.0000 25.3382
#
#
#
# Elastic Compliance Matrix: (Units=1/GPa)
#
#
# Indices 1 2 3 4 5 6 
#
# 1 0.030169 0.013565 -0.005669 0.000000 0.000000 0.000000
# 2 0.013565 0.027074 -0.002219 0.000000 0.000000 0.000000
# 3 -0.005669 -0.002219 0.023433 0.000000 0.000000 0.000000
# 4 0.000000 0.000000 0.000000 0.045434 0.000000 0.000000
# 5 0.000000 0.000000 0.000000 0.000000 0.034505 0.000000
# 6 0.000000 0.000000 0.000000 0.000000 0.000000 0.039466
#
#
# Mechanical properties :
#
#
# Convention : Reuss Voigt Hill
#
# Bulk Modulus (GPa) = 10.86595 12.19705 11.53150
# Shear Modulus (GPa) = 22.78906 25.29577 24.04241
#
# Velocity S-wave (km/s) = 3.40412 3.58646 3.49648
# Velocity P-wave (km/s) = 4.57995 4.83242 4.70788
#
# Compressibility (1/GPa) = 0.09203062
#
# Stress axis : x y z
#
# Youngs Moduli (GPa) = 33.14657 36.93551 42.67574
#
# Poissons Ratio (x) = -0.50103 0.24192
# Poissons Ratio (y) = -0.44963 0.09469
# Poissons Ratio (z) = 0.18790 0.08195
#
# Static dielectric constant tensor:
#      x y z
#    x 1.706330 0.000000 0.000000 
#    y 0.000000 1.751770 0.000000 
#    z 0.000000 0.000000 1.675250 
# 
# From -- ./inp_files/6795.got.cif
#   From: 2010.05.17/outbox.cif.g08.bks.cpg/sg58_4_cif.got.tgz:6795.got - 2010.06.03 14:20:14.
