data_PCOD9443809
_publ_section_title
;
Structure prediction by ZEFSAII (Michael W. Deem and Ramdas Pophale) SiO2 
 PCOD9443809
Probable space group: P N N M
;
_chemical_formula_sum "Si O2"
_cell_formula_units_Z 36
_cell_length_a 12.758559
_cell_length_b 9.484435
_cell_length_c 15.722510
_cell_angle_alpha 90.000000
_cell_angle_beta 90.000000
_cell_angle_gamma 90.000000
_cell_volume 1902.545143
_symmetry_space_group_name_H-M "P N N M"
_symmetry_group_IT_number 58
_symmetry_cell_setting 'orthorhombic'
loop_
_space_group_symop_operation_xyz
x,y,z
-x,-y,z
1/2+x,1/2-y,1/2-z
1/2-x,1/2+y,1/2-z
-x,-y,-z
x,y,-z
1/2-x,1/2+y,1/2+z
1/2+x,1/2-y,1/2+z
loop_
_atom_site_type_symbol
_atom_site_label
_atom_site_fract_x
_atom_site_fract_y
_atom_site_fract_z
Si Si1 0.967802 0.730088 0.756122
Si Si2 0.000000 0.000000 0.640105
Si Si3 0.674245 0.960622 0.234666
Si Si4 0.330384 0.668544 0.402273
Si Si5 0.728902 0.522893 0.089005
O O1 0.878250 0.616274 0.729874
O O2 0.935306 0.791371 0.848956
O O3 0.077372 0.647613 0.744765
O O4 0.975246 0.864317 0.696635
O O5 0.104609 0.970663 0.589327
O O6 0.754240 0.926573 0.157713
O O7 0.734449 0.951593 0.324242
O O8 0.346249 0.618150 0.500000
O O9 0.271957 0.818659 0.408196
O O10 0.766751 0.456480 0.000000
#
# Coordination Sequence:
#
# PCOD9443809 Si02
#       5
#     8   4   8   8   8
#     4  10  22  36  63  87 116 159 195 240 294 352
#     4  12  19  36  61  84 118 148 199 242 293 344
#     4  10  20  40  60  86 120 157 199 240 295 353
#     4  10  20  38  61  88 120 156 194 243 297 350
#     4  10  21  35  60  88 117 153 197 246 293 345
#
# _framework density 18.922021999999998
#
# number of rings (size 3 to 8) (size 9 to 14) (size 15 to 20)
#    0.000    1.778    4.444    0.333    0.000    0.889 
#    0.000    9.444    0.000    0.000    0.000    0.000 
#    0.000    0.000    0.000    0.000    0.000    0.000 
#
# Total GULP energy -200548.022196 kJ/mol
# GULP energy per Si atom -5570.778394 kJ/mol
# Density = 1.887895 g / cm^3
# Si number density = 18.922022 Si / 1000 Ang^3
#
#
#
# Elastic Constant Matrix: (Units=GPa)
#
#
# Indices 1 2 3 4 5 6 
#
# 1 46.0831 20.5142 26.8568 0.0000 0.0000 0.0000
# 2 20.5142 62.2735 49.4612 0.0000 0.0000 0.0000
# 3 26.8568 49.4612 163.8478 0.0000 0.0000 0.0000
# 4 0.0000 0.0000 0.0000 41.5404 0.0000 0.0000
# 5 0.0000 0.0000 0.0000 0.0000 12.9805 0.0000
# 6 0.0000 0.0000 0.0000 0.0000 0.0000 8.5268
#
#
#
# Elastic Compliance Matrix: (Units=1/GPa)
#
#
# Indices 1 2 3 4 5 6 
#
# 1 0.026022 -0.006819 -0.002207 0.000000 0.000000 0.000000
# 2 -0.006819 0.022910 -0.005798 0.000000 0.000000 0.000000
# 3 -0.002207 -0.005798 0.008215 0.000000 0.000000 0.000000
# 4 0.000000 0.000000 0.000000 0.024073 0.000000 0.000000
# 5 0.000000 0.000000 0.000000 0.000000 0.077038 0.000000
# 6 0.000000 0.000000 0.000000 0.000000 0.000000 0.117277
#
#
# Mechanical properties :
#
#
# Convention : Reuss Voigt Hill
#
# Bulk Modulus (GPa) = 36.36577 51.76319 44.06448
# Shear Modulus (GPa) = 15.90585 24.30102 20.10343
#
# Velocity S-wave (km/s) = 2.90246 3.58756 3.26304
# Velocity P-wave (km/s) = 5.52203 6.67654 6.12654
#
# Compressibility (1/GPa) = 0.02749838
#
# Stress axis : x y z
#
# Youngs Moduli (GPa) = 38.42950 43.64943 121.72536
#
# Poissons Ratio (x) = 0.29766 0.26861
# Poissons Ratio (y) = 0.26207 0.70577
# Poissons Ratio (z) = 0.08480 0.25308
#
# Static dielectric constant tensor:
#      x y z
#    x 1.711600 0.000000 0.000000 
#    y 0.000000 1.636730 0.000000 
#    z 0.000000 0.000000 1.701470 
# 
# From -- ./inp_files/19388.got.cif
#   From: 2010.05.17/outbox.cif.g08.bks.cpg/sg58_10_cif.got.tgz:19388.got - 2010.06.03 14:20:14.
