data_PCOD9443666
_publ_section_title
;
Structure prediction by ZEFSAII (Michael W. Deem and Ramdas Pophale) SiO2 
 PCOD9443666
Probable space group: P N N M
;
_chemical_formula_sum "Si O2"
_cell_formula_units_Z 56
_cell_length_a 13.768417
_cell_length_b 23.793413
_cell_length_c 8.756782
_cell_angle_alpha 90.000000
_cell_angle_beta 90.000000
_cell_angle_gamma 90.000000
_cell_volume 2868.701047
_symmetry_space_group_name_H-M "P N N M"
_symmetry_group_IT_number 58
_symmetry_cell_setting 'orthorhombic'
loop_
_space_group_symop_operation_xyz
x,y,z
-x,-y,z
1/2+x,1/2-y,1/2-z
1/2-x,1/2+y,1/2-z
-x,-y,-z
x,y,-z
1/2-x,1/2+y,1/2+z
1/2+x,1/2-y,1/2+z
loop_
_atom_site_type_symbol
_atom_site_label
_atom_site_fract_x
_atom_site_fract_y
_atom_site_fract_z
Si Si1 0.395663 0.026333 0.684744
Si Si2 0.801743 0.363925 0.174207
Si Si3 0.099024 0.065695 0.325099
Si Si4 0.692162 0.265004 0.317259
Si Si5 0.000201 0.169397 0.817825
Si Si6 0.292927 0.466376 0.681075
Si Si7 0.798650 0.157251 0.317843
O O1 0.380363 0.023339 0.500000
O O2 0.383490 0.092130 0.727636
O O3 0.500000 0.000000 0.718787
O O4 0.309978 0.992612 0.766736
O O5 0.703114 0.401600 0.174789
O O6 0.775409 0.308799 0.267476
O O7 0.822667 0.347398 0.000000
O O8 0.064346 0.063460 0.500000
O O9 0.031201 0.105503 0.223791
O O10 0.123907 0.004462 0.260398
O O11 0.689630 0.264408 0.500000
O O12 0.589241 0.290747 0.266832
O O13 0.718095 0.202334 0.266170
O O14 0.902722 0.182624 0.727806
O O15 0.986628 0.174218 0.000000
O O16 0.304104 0.470255 0.500000
O O17 0.293444 0.402560 0.736589
O O18 0.791892 0.149330 0.500000
#
# Coordination Sequence:
#
# PCOD9443666 Si02
#       7
#     8   8   8   8   8   8   8
#     4   9  18  35  57  82 114 152 192 231 281 347
#     4   8  15  29  53  80 104 138 182 226 271 322
#     4   9  17  33  57  83 111 145 181 219 273 344
#     4   9  20  38  58  78 108 147 187 233 284 336
#     4  10  20  37  60  87 112 142 187 240 289 336
#     4  11  22  36  55  83 116 149 186 239 291 331
#     4  11  23  40  58  80 114 156 193 232 284 346
#
# _framework density 19.521031000000001
#
# number of rings (size 3 to 8) (size 9 to 14) (size 15 to 20)
#    0.000    2.429    0.000    3.429    0.000    6.000 
#    2.571    2.857    0.000    0.000    0.000    0.000 
#    0.000    0.000    0.000    0.000    0.000    0.000 
#
# Total GULP energy -312543.550532 kJ/mol
# GULP energy per Si atom -5581.134831 kJ/mol
# Density = 1.947660 g / cm^3
# Si number density = 19.521031 Si / 1000 Ang^3
#
#
#
# Elastic Constant Matrix: (Units=GPa)
#
#
# Indices 1 2 3 4 5 6 
#
# 1 36.9875 9.8784 4.0054 0.0000 0.0000 0.0000
# 2 9.8784 94.1939 14.4501 0.0000 0.0000 0.0000
# 3 4.0054 14.4501 38.9546 0.0000 0.0000 0.0000
# 4 0.0000 0.0000 0.0000 24.6815 0.0000 0.0000
# 5 0.0000 0.0000 0.0000 0.0000 5.0280 0.0000
# 6 0.0000 0.0000 0.0000 0.0000 0.0000 25.5773
#
#
#
# Elastic Compliance Matrix: (Units=1/GPa)
#
#
# Indices 1 2 3 4 5 6 
#
# 1 0.027946 -0.002640 -0.001894 0.000000 0.000000 0.000000
# 2 -0.002640 0.011506 -0.003997 0.000000 0.000000 0.000000
# 3 -0.001894 -0.003997 0.027348 0.000000 0.000000 0.000000
# 4 0.000000 0.000000 0.000000 0.040516 0.000000 0.000000
# 5 0.000000 0.000000 0.000000 0.000000 0.198885 0.000000
# 6 0.000000 0.000000 0.000000 0.000000 0.000000 0.039097
#
#
# Mechanical properties :
#
#
# Convention : Reuss Voigt Hill
#
# Bulk Modulus (GPa) = 20.10503 25.20043 22.65273
# Shear Modulus (GPa) = 13.19467 20.51085 16.85276
#
# Velocity S-wave (km/s) = 2.60267 3.24498 2.94141
# Velocity P-wave (km/s) = 4.39925 5.19396 4.81303
#
# Compressibility (1/GPa) = 0.04973879
#
# Stress axis : x y z
#
# Youngs Moduli (GPa) = 35.78274 86.90790 36.56540
#
# Poissons Ratio (x) = 0.22946 0.06926
# Poissons Ratio (y) = 0.09448 0.14615
# Poissons Ratio (z) = 0.06778 0.34735
#
# Static dielectric constant tensor:
#      x y z
#    x 1.714080 0.000000 0.000000 
#    y 0.000000 1.699610 0.000000 
#    z 0.000000 0.000000 1.655320 
# 
# From -- ./inp_files/6410.got.cif
#   From: 2010.05.17/outbox.cif.g08.bks.cpg/sg58_4_cif.got.tgz:6410.got - 2010.06.03 14:20:14.
