data_PCOD9443628
_publ_section_title
;
Structure prediction by ZEFSAII (Michael W. Deem and Ramdas Pophale) SiO2 
 PCOD9443628
Probable space group: P N N M
;
_chemical_formula_sum "Si O2"
_cell_formula_units_Z 64
_cell_length_a 24.143067
_cell_length_b 15.539603
_cell_length_c 8.322522
_cell_angle_alpha 90.000000
_cell_angle_beta 90.000000
_cell_angle_gamma 90.000000
_cell_volume 3122.391176
_symmetry_space_group_name_H-M "P N N M"
_symmetry_group_IT_number 58
_symmetry_cell_setting 'orthorhombic'
loop_
_space_group_symop_operation_xyz
x,y,z
-x,-y,z
1/2+x,1/2-y,1/2-z
1/2-x,1/2+y,1/2-z
-x,-y,-z
x,y,-z
1/2-x,1/2+y,1/2+z
1/2+x,1/2-y,1/2+z
loop_
_atom_site_type_symbol
_atom_site_label
_atom_site_fract_x
_atom_site_fract_y
_atom_site_fract_z
Si Si1 0.050370 0.437682 0.193058
Si Si2 0.619811 0.646815 0.304260
Si Si3 0.188721 0.190514 0.809554
Si Si4 0.192595 0.697419 0.193613
Si Si5 0.671274 0.999562 0.306406
Si Si6 0.708283 0.506479 0.693923
Si Si7 0.925261 0.746874 0.311638
Si Si8 0.501301 0.400469 0.694435
O O1 0.112176 0.464626 0.252409
O O2 0.045818 0.336217 0.231509
O O3 0.000000 0.500000 0.251068
O O4 0.051040 0.446961 0.000000
O O5 0.619030 0.642643 0.500000
O O6 0.645395 0.737112 0.257195
O O7 0.660801 0.571287 0.250274
O O8 0.557403 0.636649 0.250968
O O9 0.249418 0.225292 0.769528
O O10 0.139467 0.244799 0.732953
O O11 0.193095 0.090668 0.751253
O O12 0.179181 0.189462 0.000000
O O13 0.176336 0.600920 0.239412
O O14 0.198720 0.699654 0.000000
O O15 0.671186 0.006684 0.500000
O O16 0.730287 0.035556 0.246685
O O17 0.708347 0.504541 0.500000
O O18 0.931462 0.736900 0.500000
O O19 0.951507 0.837496 0.257082
O O20 0.500000 0.500000 0.744627
O O21 0.505212 0.399774 0.500000
#
# Coordination Sequence:
#
# PCOD9443628 Si02
#       8
#     8   8   8   8   8   8   8   8
#     4  10  23  42  65  88 116 158 208 258 307 367
#     4   9  18  32  57  86 114 148 190 237 290 356
#     4  10  20  37  59  83 116 155 200 244 292 357
#     4   9  18  33  55  85 118 150 186 235 300 363
#     4   9  19  35  56  84 115 150 192 239 295 353
#     4   9  18  34  57  87 118 153 189 233 291 354
#     4  12  26  41  61  90 125 163 204 255 310 363
#     4  10  21  40  66  92 120 160 208 252 298 361
#
# _framework density 20.497112000000001
#
# number of rings (size 3 to 8) (size 9 to 14) (size 15 to 20)
#    0.000    2.250    0.000    2.250    3.500    3.500 
#    0.000    1.250    0.000    0.000    0.000    0.000 
#    0.000    0.000    0.000    0.000    0.000    0.000 
#
# Total GULP energy -357216.093325 kJ/mol
# GULP energy per Si atom -5581.501458 kJ/mol
# Density = 2.045046 g / cm^3
# Si number density = 20.497112 Si / 1000 Ang^3
#
#
#
# Elastic Constant Matrix: (Units=GPa)
#
#
# Indices 1 2 3 4 5 6 
#
# 1 77.2509 11.6917 6.1710 0.0000 0.0000 0.0000
# 2 11.6917 47.8590 1.9726 0.0000 0.0000 0.0000
# 3 6.1710 1.9726 8.0638 0.0000 0.0000 0.0000
# 4 0.0000 0.0000 0.0000 16.0434 0.0000 0.0000
# 5 0.0000 0.0000 0.0000 0.0000 30.1520 0.0000
# 6 0.0000 0.0000 0.0000 0.0000 0.0000 36.8872
#
#
#
# Elastic Compliance Matrix: (Units=1/GPa)
#
#
# Indices 1 2 3 4 5 6 
#
# 1 0.014217 -0.003055 -0.010132 0.000000 0.000000 0.000000
# 2 -0.003055 0.021764 -0.002986 0.000000 0.000000 0.000000
# 3 -0.010132 -0.002986 0.132496 0.000000 0.000000 0.000000
# 4 0.000000 0.000000 0.000000 0.062331 0.000000 0.000000
# 5 0.000000 0.000000 0.000000 0.000000 0.033165 0.000000
# 6 0.000000 0.000000 0.000000 0.000000 0.000000 0.027110
#
#
# Mechanical properties :
#
#
# Convention : Reuss Voigt Hill
#
# Bulk Modulus (GPa) = 7.34593 19.20491 13.27542
# Shear Modulus (GPa) = 13.55726 24.17242 18.86484
#
# Velocity S-wave (km/s) = 2.57460 3.43783 3.03704
# Velocity P-wave (km/s) = 3.52559 5.01479 4.33462
#
# Compressibility (1/GPa) = 0.13612985
#
# Stress axis : x y z
#
# Youngs Moduli (GPa) = 70.33999 45.94703 7.54741
#
# Poissons Ratio (x) = 0.14039 0.07647
# Poissons Ratio (y) = 0.21492 0.02253
# Poissons Ratio (z) = 0.71270 0.13718
#
# Static dielectric constant tensor:
#      x y z
#    x 1.719780 0.000000 0.000000 
#    y 0.000000 1.733700 0.000000 
#    z 0.000000 0.000000 1.716370 
# 
# From -- ./inp_files/10001.got.cif
#   From: 2010.05.17/outbox.cif.g08.bks.cpg/sg58_6_cif.got.tgz:10001.got - 2010.06.03 14:20:14.
