data_PCOD9443186
_publ_section_title
;
Structure prediction by ZEFSAII (Michael W. Deem and Ramdas Pophale) SiO2 
 PCOD9443186
Probable space group: P N N M
;
_chemical_formula_sum "Si O2"
_cell_formula_units_Z 64
_cell_length_a 20.349025
_cell_length_b 20.391261
_cell_length_c 9.046581
_cell_angle_alpha 90.000000
_cell_angle_beta 90.000000
_cell_angle_gamma 90.000000
_cell_volume 3753.808945
_symmetry_space_group_name_H-M "P N N M"
_symmetry_group_IT_number 58
_symmetry_cell_setting 'orthorhombic'
loop_
_space_group_symop_operation_xyz
x,y,z
-x,-y,z
1/2+x,1/2-y,1/2-z
1/2-x,1/2+y,1/2-z
-x,-y,-z
x,y,-z
1/2-x,1/2+y,1/2+z
1/2+x,1/2-y,1/2+z
loop_
_atom_site_type_symbol
_atom_site_label
_atom_site_fract_x
_atom_site_fract_y
_atom_site_fract_z
Si Si1 0.826475 0.920415 0.324405
Si Si2 0.433581 0.325688 0.177147
Si Si3 0.673345 0.928199 0.676146
Si Si4 0.320337 0.931888 0.176984
Si Si5 0.819464 0.072603 0.677017
Si Si6 0.423739 0.173695 0.824302
Si Si7 0.923963 0.681212 0.323047
Si Si8 0.573773 0.321036 0.676009
O O1 0.836719 0.909954 0.500000
O O2 0.749292 0.909494 0.291699
O O3 0.873285 0.872864 0.234351
O O4 0.839326 0.997258 0.292288
O O5 0.376809 0.376881 0.216533
O O6 0.412542 0.250691 0.208692
O O7 0.501866 0.338415 0.259551
O O8 0.445242 0.329774 0.000000
O O9 0.667727 0.935686 0.500000
O O10 0.623967 0.873721 0.735972
O O11 0.660949 0.998201 0.752784
O O12 0.248598 0.914032 0.239875
O O13 0.373128 0.875956 0.214713
O O14 0.317692 0.937993 0.000000
O O15 0.807804 0.076991 0.500000
O O16 0.500672 0.161187 0.790894
O O17 0.413889 0.163862 0.000000
O O18 0.920526 0.693536 0.500000
O O19 0.909972 0.748875 0.239527
O O20 0.572059 0.319625 0.500000
#
# Coordination Sequence:
#
# PCOD9443186 Si02
#       8
#     8   8   8   8   8   8   8   8
#     4   9  19  36  54  73 104 142 174 208 257 316
#     4   9  19  37  57  76 105 142 174 209 260 319
#     4  10  21  36  54  77 106 139 175 215 258 308
#     4  10  20  35  56  79 105 137 173 216 262 309
#     4   9  19  36  57  80 105 137 176 214 257 310
#     4   9  18  34  55  77 104 138 175 214 255 306
#     4   9  20  38  56  76 105 141 175 208 259 320
#     4  11  22  34  53  80 106 134 174 222 260 298
#
# _framework density 17.049348999999999
#
# number of rings (size 3 to 8) (size 9 to 14) (size 15 to 20)
#    0.000    2.500    0.000    3.375    0.000    8.000 
#    0.000    7.500    0.000    0.000    0.000    0.000 
#    0.000    0.000    0.000    0.000    0.000    0.000 
#
# Total GULP energy -357132.486936 kJ/mol
# GULP energy per Si atom -5580.195108 kJ/mol
# Density = 1.701054 g / cm^3
# Si number density = 17.049349 Si / 1000 Ang^3
#
#
#
# Elastic Constant Matrix: (Units=GPa)
#
#
# Indices 1 2 3 4 5 6 
#
# 1 134.7578 128.7646 79.2737 0.0000 0.0000 0.0000
# 2 128.7646 138.0902 79.3076 0.0000 0.0000 0.0000
# 3 79.2737 79.3076 66.3573 0.0000 0.0000 0.0000
# 4 0.0000 0.0000 0.0000 26.4639 0.0000 0.0000
# 5 0.0000 0.0000 0.0000 0.0000 33.2416 0.0000
# 6 0.0000 0.0000 0.0000 0.0000 0.0000 38.2642
#
#
#
# Elastic Compliance Matrix: (Units=1/GPa)
#
#
# Indices 1 2 3 4 5 6 
#
# 1 0.075030 -0.058943 -0.019189 0.000000 0.000000 0.000000
# 2 -0.058943 0.069397 -0.012524 0.000000 0.000000 0.000000
# 3 -0.019189 -0.012524 0.052962 0.000000 0.000000 0.000000
# 4 0.000000 0.000000 0.000000 0.037787 0.000000 0.000000
# 5 0.000000 0.000000 0.000000 0.000000 0.030083 0.000000
# 6 0.000000 0.000000 0.000000 0.000000 0.000000 0.026134
#
#
# Mechanical properties :
#
#
# Convention : Reuss Voigt Hill
#
# Bulk Modulus (GPa) = 62.19814 101.54412 81.87113
# Shear Modulus (GPa) = 10.45886 23.05124 16.75505
#
# Velocity S-wave (km/s) = 2.47947 3.68099 3.13827
# Velocity P-wave (km/s) = 6.69010 8.81785 7.82662
#
# Compressibility (1/GPa) = 0.01607765
#
# Stress axis : x y z
#
# Youngs Moduli (GPa) = 13.32801 14.40993 18.88135
#
# Poissons Ratio (x) = 0.84936 0.36231
# Poissons Ratio (y) = 0.78559 0.23648
# Poissons Ratio (z) = 0.25575 0.18047
#
# Static dielectric constant tensor:
#      x y z
#    x 1.554670 0.000000 0.000000 
#    y 0.000000 1.556270 0.000000 
#    z 0.000000 0.000000 1.568810 
# 
# From -- ./inp_files/8388.got.cif
#   From: 2010.05.17/outbox.cif.g08.bks.cpg/sg58_5_cif.got.tgz:8388.got - 2010.06.03 14:20:14.
