data_PCOD9443893
_publ_section_title
;
Structure prediction by ZEFSAII (Michael W. Deem and Ramdas Pophale) SiO2 
 PCOD9443893
Probable space group: P N N M
;
_chemical_formula_sum "Si O2"
_cell_formula_units_Z 40
_cell_length_a 12.192809
_cell_length_b 10.914271
_cell_length_c 14.360835
_cell_angle_alpha 90.000000
_cell_angle_beta 90.000000
_cell_angle_gamma 90.000000
_cell_volume 1911.077045
_symmetry_space_group_name_H-M "P N N M"
_symmetry_group_IT_number 58
_symmetry_cell_setting 'orthorhombic'
loop_
_space_group_symop_operation_xyz
x,y,z
-x,-y,z
1/2+x,1/2-y,1/2-z
1/2-x,1/2+y,1/2-z
-x,-y,-z
x,y,-z
1/2-x,1/2+y,1/2+z
1/2+x,1/2-y,1/2+z
loop_
_atom_site_type_symbol
_atom_site_label
_atom_site_fract_x
_atom_site_fract_y
_atom_site_fract_z
Si Si1 0.942177 0.135608 0.305106
Si Si2 0.483558 0.647652 0.396585
Si Si3 0.352830 0.737390 0.896872
Si Si4 0.128775 0.517517 0.600582
Si Si5 0.256277 0.713560 0.303469
O O1 0.813851 0.162707 0.324054
O O2 0.953399 0.182640 0.198170
O O3 0.018196 0.213235 0.375639
O O4 0.000000 0.000000 0.308908
O O5 0.500000 0.500000 0.400345
O O6 0.515300 0.693425 0.500000
O O7 0.359786 0.689295 0.371245
O O8 0.324745 0.881105 0.898451
O O9 0.296974 0.695694 0.801899
O O10 0.326948 0.686959 0.000000
O O11 0.155204 0.574033 0.500000
O O12 0.174119 0.602709 0.678814
O O13 0.000000 0.500000 0.607417
#
# Coordination Sequence:
#
# PCOD9443893 Si02
#       5
#     8   8   8   8   8
#     4  10  22  39  60  88 127 169 210 259 318 383
#     4   9  20  38  61  91 121 154 207 269 316 365
#     4  10  23  39  59  90 122 159 208 261 315 377
#     4  10  20  38  65  91 115 152 215 271 306 361
#     4  11  22  37  64  91 125 167 206 258 324 377
#
# _framework density 20.930605
#
# number of rings (size 3 to 8) (size 9 to 14) (size 15 to 20)
#    0.000    2.000    2.000    0.600    8.400    2.000 
#    0.000    0.000    0.000    0.600    0.000    0.000 
#    0.000    0.000    0.000    0.000    0.000    0.000 
#
# Total GULP energy -222722.222639 kJ/mol
# GULP energy per Si atom -5568.055566 kJ/mol
# Density = 2.088297 g / cm^3
# Si number density = 20.930605 Si / 1000 Ang^3
#
#
#
# Elastic Constant Matrix: (Units=GPa)
#
#
# Indices 1 2 3 4 5 6 
#
# 1 71.2541 21.3668 11.6253 0.0000 0.0000 0.0000
# 2 21.3668 45.8295 27.7006 0.0000 0.0000 0.0000
# 3 11.6253 27.7006 117.5386 0.0000 0.0000 0.0000
# 4 0.0000 0.0000 0.0000 -21.8524 0.0000 0.0000
# 5 0.0000 0.0000 0.0000 0.0000 6.5824 0.0000
# 6 0.0000 0.0000 0.0000 0.0000 0.0000 32.3501
#
#
#
# Elastic Compliance Matrix: (Units=1/GPa)
#
#
# Indices 1 2 3 4 5 6 
#
# 1 0.016320 -0.007735 0.000209 0.000000 0.000000 0.000000
# 2 -0.007735 0.029110 -0.006095 0.000000 0.000000 0.000000
# 3 0.000209 -0.006095 0.009924 0.000000 0.000000 0.000000
# 4 0.000000 0.000000 0.000000 -0.045762 0.000000 0.000000
# 5 0.000000 0.000000 0.000000 0.000000 0.151921 0.000000
# 6 0.000000 0.000000 0.000000 0.000000 0.000000 0.030912
#
#
# Mechanical properties :
#
#
# Convention : Reuss Voigt Hill
#
# Bulk Modulus (GPa) = 35.57360 39.55641 37.56500
# Shear Modulus (GPa) = 21.83044 15.01132 18.42088
#
# Velocity S-wave (km/s) = 3.23304 2.68095 2.96985
# Velocity P-wave (km/s) = 5.56503 5.34071 5.45403
#
# Compressibility (1/GPa) = 0.02811074
#
# Stress axis : x y z
#
# Youngs Moduli (GPa) = 61.27586 34.35197 100.76853
#
# Poissons Ratio (x) = 0.26571 -0.02104
# Poissons Ratio (y) = 0.47396 0.61423
# Poissons Ratio (z) = -0.01279 0.20939
#
# Static dielectric constant tensor:
#      x y z
#    x 1.840800 0.000000 0.000000 
#    y 0.000000 1.804050 0.000000 
#    z 0.000000 0.000000 1.773530 
# 
# From -- ./inp_files/20886.got.cif
#   From: 2010.05.17/outbox.cif.g08.bks.cpg/sg58_11_cif.got.tgz:20886.got - 2010.06.03 14:20:14.
