data_PCOD9443684
_publ_section_title
;
Structure prediction by ZEFSAII (Michael W. Deem and Ramdas Pophale) SiO2 
 PCOD9443684
Probable space group: P N N M
;
_chemical_formula_sum "Si O2"
_cell_formula_units_Z 64
_cell_length_a 16.815972
_cell_length_b 15.680457
_cell_length_c 13.365992
_cell_angle_alpha 90.000000
_cell_angle_beta 90.000000
_cell_angle_gamma 90.000000
_cell_volume 3524.373185
_symmetry_space_group_name_H-M "P N N M"
_symmetry_group_IT_number 58
_symmetry_cell_setting 'orthorhombic'
loop_
_space_group_symop_operation_xyz
x,y,z
-x,-y,z
1/2+x,1/2-y,1/2-z
1/2-x,1/2+y,1/2-z
-x,-y,-z
x,y,-z
1/2-x,1/2+y,1/2+z
1/2+x,1/2-y,1/2+z
loop_
_atom_site_type_symbol
_atom_site_label
_atom_site_fract_x
_atom_site_fract_y
_atom_site_fract_z
Si Si1 0.410860 0.537851 0.616707
Si Si2 0.423376 0.733300 0.317017
Si Si3 0.753747 0.710734 0.882390
Si Si4 0.098224 0.728757 0.885643
Si Si5 0.973811 0.692458 0.615558
Si Si6 0.811792 0.109954 0.798742
Si Si7 0.848798 0.547377 0.616709
Si Si8 0.353681 0.141200 0.190885
O O1 0.500000 0.500000 0.622442
O O2 0.384946 0.531425 0.500000
O O3 0.412238 0.635820 0.649738
O O4 0.354361 0.480491 0.686051
O O5 0.345877 0.785745 0.350022
O O6 0.503511 0.768196 0.368647
O O7 0.439283 0.743289 0.198360
O O8 0.705709 0.644144 0.812749
O O9 0.717730 0.803801 0.855403
O O10 0.745929 0.694490 0.000000
O O11 0.132868 0.820816 0.853755
O O12 0.136841 0.663881 0.807305
O O13 0.116959 0.710797 0.000000
O O14 0.961795 0.717627 0.500000
O O15 0.927438 0.603422 0.632544
O O16 0.066246 0.676056 0.637767
O O17 0.726761 0.103593 0.852578
O O18 0.844203 0.525760 0.500000
O O19 0.847061 0.458876 0.674877
#
# Coordination Sequence:
#
# PCOD9443684 Si02
#       8
#     8   8   8   8   8   8   8   8
#     4  11  21  35  60  91 119 148 192 246 295 340
#     4  11  21  38  61  90 120 152 198 240 292 357
#     4  11  22  38  58  84 119 159 195 235 289 351
#     4  10  20  37  61  86 118 155 190 241 298 348
#     4  10  21  38  60  85 117 153 194 242 288 342
#     4  11  22  37  57  89 120 151 193 244 288 349
#     4  11  20  35  59  85 115 150 190 240 291 335
#     4  10  22  36  58  85 115 151 199 238 284 349
#
# _framework density 18.159258000000001
#
# number of rings (size 3 to 8) (size 9 to 14) (size 15 to 20)
#    0.000    1.375    2.500    4.500    0.000    1.000 
#    0.000    1.250    0.000    2.250    0.000    0.000 
#    0.000    0.000    0.000    0.000    0.000    0.000 
#
# Total GULP energy -357507.305099 kJ/mol
# GULP energy per Si atom -5586.051642 kJ/mol
# Density = 1.811793 g / cm^3
# Si number density = 18.159258 Si / 1000 Ang^3
#
#
#
# Elastic Constant Matrix: (Units=GPa)
#
#
# Indices 1 2 3 4 5 6 
#
# 1 70.8155 1.9338 22.9201 0.0000 0.0000 0.0000
# 2 1.9338 43.4601 34.7151 0.0000 0.0000 0.0000
# 3 22.9201 34.7151 129.9485 0.0000 0.0000 0.0000
# 4 0.0000 0.0000 0.0000 14.2180 0.0000 0.0000
# 5 0.0000 0.0000 0.0000 0.0000 16.0662 0.0000
# 6 0.0000 0.0000 0.0000 0.0000 0.0000 20.1314
#
#
#
# Elastic Compliance Matrix: (Units=1/GPa)
#
#
# Indices 1 2 3 4 5 6 
#
# 1 0.015092 0.001849 -0.003156 0.000000 0.000000 0.000000
# 2 0.001849 0.029478 -0.008201 0.000000 0.000000 0.000000
# 3 -0.003156 -0.008201 0.010443 0.000000 0.000000 0.000000
# 4 0.000000 0.000000 0.000000 0.070333 0.000000 0.000000
# 5 0.000000 0.000000 0.000000 0.000000 0.062243 0.000000
# 6 0.000000 0.000000 0.000000 0.000000 0.000000 0.049674
#
#
# Mechanical properties :
#
#
# Convention : Reuss Voigt Hill
#
# Bulk Modulus (GPa) = 27.77945 40.37356 34.07650
# Shear Modulus (GPa) = 18.63740 22.39345 20.51542
#
# Velocity S-wave (km/s) = 3.20711 3.51546 3.36482
# Velocity P-wave (km/s) = 5.38934 6.22569 5.82255
#
# Compressibility (1/GPa) = 0.03599784
#
# Stress axis : x y z
#
# Youngs Moduli (GPa) = 66.25951 33.92333 95.75875
#
# Poissons Ratio (x) = -0.06274 0.30221
# Poissons Ratio (y) = -0.12254 0.78533
# Poissons Ratio (z) = 0.20911 0.27821
#
# Static dielectric constant tensor:
#      x y z
#    x 1.642140 0.000000 0.000000 
#    y 0.000000 1.605210 0.000000 
#    z 0.000000 0.000000 1.613960 
# 
# From -- ./inp_files/15916.got.cif
#   From: 2010.05.17/outbox.cif.g08.bks.cpg/sg58_8_cif.got.tgz:15916.got - 2010.06.03 14:20:14.
