data_PCOD9443901
_publ_section_title
;
Structure prediction by ZEFSAII (Michael W. Deem and Ramdas Pophale) SiO2 
 PCOD9443901
Probable space group: P N N M
;
_chemical_formula_sum "Si O2"
_cell_formula_units_Z 64
_cell_length_a 19.735377
_cell_length_b 12.151971
_cell_length_c 13.536873
_cell_angle_alpha 90.000000
_cell_angle_beta 90.000000
_cell_angle_gamma 90.000000
_cell_volume 3246.463362
_symmetry_space_group_name_H-M "P N N M"
_symmetry_group_IT_number 58
_symmetry_cell_setting 'orthorhombic'
loop_
_space_group_symop_operation_xyz
x,y,z
-x,-y,z
1/2+x,1/2-y,1/2-z
1/2-x,1/2+y,1/2-z
-x,-y,-z
x,y,-z
1/2-x,1/2+y,1/2+z
1/2+x,1/2-y,1/2+z
loop_
_atom_site_type_symbol
_atom_site_label
_atom_site_fract_x
_atom_site_fract_y
_atom_site_fract_z
Si Si1 0.171110 0.708252 0.382139
Si Si2 0.782947 0.425782 0.886262
Si Si3 0.177400 0.390037 0.260887
Si Si4 0.860454 0.036608 0.615021
Si Si5 0.923888 0.484409 0.618923
Si Si6 0.421415 0.490356 0.681216
Si Si7 0.175964 0.187058 0.117140
Si Si8 0.191122 0.830932 0.884169
O O1 0.167452 0.703189 0.500000
O O2 0.165014 0.838333 0.361216
O O3 0.111036 0.629730 0.346418
O O4 0.245225 0.660103 0.357755
O O5 0.819486 0.507888 0.813294
O O6 0.702845 0.452922 0.875539
O O7 0.802679 0.299886 0.869071
O O8 0.799327 0.453073 0.000000
O O9 0.121270 0.415868 0.341930
O O10 0.161392 0.285870 0.192378
O O11 0.248747 0.380432 0.317976
O O12 0.882813 0.035057 0.500000
O O13 0.913632 0.007268 0.699665
O O14 0.924093 0.484654 0.500000
O O15 0.000000 0.500000 0.654571
O O16 0.500000 0.500000 0.652946
O O17 0.375594 0.588513 0.636968
O O18 0.381472 0.381592 0.644465
O O19 0.174112 0.217096 0.000000
O O20 0.203607 0.854668 0.000000
#
# Coordination Sequence:
#
# PCOD9443901 Si02
#       8
#     8   8   8   8   8   8   8   8
#     4   9  18  35  63  90 120 162 205 256 314 376
#     4  10  21  39  65  97 129 154 198 269 329 372
#     4  12  22  37  69  95 123 161 210 262 322 381
#     4  10  20  38  65  99 130 159 205 265 328 383
#     4  10  23  40  59  90 132 171 210 257 313 379
#     4  12  26  42  63  89 127 176 220 256 312 380
#     4  11  23  41  64  92 122 162 217 268 315 379
#     4  11  24  41  64  95 127 163 211 268 319 370
#
# _framework density 19.713761000000002
#
# number of rings (size 3 to 8) (size 9 to 14) (size 15 to 20)
#    0.000    1.375    2.500    2.625    3.500    3.250 
#    0.000    0.625    0.000    0.750    0.000    0.000 
#    0.000    0.000    0.000    0.000    0.000    0.000 
#
# Total GULP energy -357467.304277 kJ/mol
# GULP energy per Si atom -5585.426629 kJ/mol
# Density = 1.966889 g / cm^3
# Si number density = 19.713761 Si / 1000 Ang^3
#
#
#
# Elastic Constant Matrix: (Units=GPa)
#
#
# Indices 1 2 3 4 5 6 
#
# 1 122.2051 51.4252 25.5856 0.0000 0.0000 0.0000
# 2 51.4252 99.4335 37.2679 0.0000 0.0000 0.0000
# 3 25.5856 37.2679 74.7437 0.0000 0.0000 0.0000
# 4 0.0000 0.0000 0.0000 29.5615 0.0000 0.0000
# 5 0.0000 0.0000 0.0000 0.0000 25.4743 0.0000
# 6 0.0000 0.0000 0.0000 0.0000 0.0000 9.1767
#
#
#
# Elastic Compliance Matrix: (Units=1/GPa)
#
#
# Indices 1 2 3 4 5 6 
#
# 1 0.010531 -0.005037 -0.001094 0.000000 0.000000 0.000000
# 2 -0.005037 0.014777 -0.005644 0.000000 0.000000 0.000000
# 3 -0.001094 -0.005644 0.016568 0.000000 0.000000 0.000000
# 4 0.000000 0.000000 0.000000 0.033828 0.000000 0.000000
# 5 0.000000 0.000000 0.000000 0.000000 0.039255 0.000000
# 6 0.000000 0.000000 0.000000 0.000000 0.000000 0.108971
#
#
# Mechanical properties :
#
#
# Convention : Reuss Voigt Hill
#
# Bulk Modulus (GPa) = 54.56271 58.32665 56.44468
# Shear Modulus (GPa) = 19.71697 24.98275 22.34986
#
# Velocity S-wave (km/s) = 3.16597 3.56374 3.37073
# Velocity P-wave (km/s) = 6.41109 6.82530 6.62143
#
# Compressibility (1/GPa) = 0.01832754
#
# Stress axis : x y z
#
# Youngs Moduli (GPa) = 94.95353 67.67155 60.35901
#
# Poissons Ratio (x) = 0.34085 0.06601
# Poissons Ratio (y) = 0.47826 0.34066
# Poissons Ratio (z) = 0.10385 0.38193
#
# Static dielectric constant tensor:
#      x y z
#    x 1.663470 0.000000 0.000000 
#    y 0.000000 1.714430 0.000000 
#    z 0.000000 0.000000 1.737840 
# 
# From -- ./inp_files/22954.got.cif
#   From: 2010.05.17/outbox.cif.g08.bks.cpg/sg58_12_cif.got.tgz:22954.got - 2010.06.03 14:20:14.
