data_PCOD9443575
_publ_section_title
;
Structure prediction by ZEFSAII (Michael W. Deem and Ramdas Pophale) SiO2 
 PCOD9443575
Probable space group: P N N M
;
_chemical_formula_sum "Si O2"
_cell_formula_units_Z 64
_cell_length_a 10.578376
_cell_length_b 32.450724
_cell_length_c 9.402102
_cell_angle_alpha 90.000000
_cell_angle_beta 90.000000
_cell_angle_gamma 90.000000
_cell_volume 3227.515590
_symmetry_space_group_name_H-M "P N N M"
_symmetry_group_IT_number 58
_symmetry_cell_setting 'orthorhombic'
loop_
_space_group_symop_operation_xyz
x,y,z
-x,-y,z
1/2+x,1/2-y,1/2-z
1/2-x,1/2+y,1/2-z
-x,-y,-z
x,y,-z
1/2-x,1/2+y,1/2+z
1/2+x,1/2-y,1/2+z
loop_
_atom_site_type_symbol
_atom_site_label
_atom_site_fract_x
_atom_site_fract_y
_atom_site_fract_z
Si Si1 0.919576 0.147949 0.338609
Si Si2 0.545064 0.201536 0.836659
Si Si3 0.530206 0.283418 0.338909
Si Si4 0.324925 0.594934 0.835318
Si Si5 0.781103 0.338513 0.344548
Si Si6 0.140015 0.377159 0.165676
Si Si7 0.381839 0.969920 0.671263
Si Si8 0.147436 0.010586 0.829280
O O1 0.923924 0.164382 0.500000
O O2 0.792338 0.122040 0.322671
O O3 0.926961 0.187164 0.235285
O O4 0.040140 0.118225 0.321906
O O5 0.564905 0.243106 0.749694
O O6 0.395464 0.192857 0.834581
O O7 0.599651 0.160898 0.762288
O O8 0.587671 0.205279 0.000000
O O9 0.494588 0.272600 0.500000
O O10 0.653476 0.312323 0.341017
O O11 0.223225 0.627870 0.779034
O O12 0.327072 0.555684 0.734708
O O13 0.304284 0.583824 0.000000
O O14 0.788867 0.359441 0.500000
O O15 0.087653 0.422122 0.204604
O O16 0.108360 0.368834 0.000000
O O17 0.360037 0.972438 0.500000
O O18 0.500000 0.000000 0.705258
O O19 0.253997 0.982537 0.753664
O O20 0.161767 0.009046 0.000000
O O21 0.000000 0.000000 0.796309
#
# Coordination Sequence:
#
# PCOD9443575 Si02
#       8
#     8   8   8   8   8   8   8   8
#     4   9  19  37  60  87 121 159 196 244 301 355
#     4  11  24  39  58  85 118 156 198 241 290 356
#     4  10  21  38  60  86 115 153 196 245 298 348
#     4  10  20  36  63  92 118 153 199 249 299 353
#     4   9  21  40  58  81 118 156 192 240 297 355
#     4  10  22  40  61  86 121 159 198 246 301 357
#     4  10  23  43  66  94 127 164 210 262 314 372
#     4  11  24  40  62  93 128 165 206 255 309 370
#
# _framework density 19.829494
#
# number of rings (size 3 to 8) (size 9 to 14) (size 15 to 20)
#    0.000    2.000    0.000    2.250    3.500    5.250 
#    0.000    0.000    0.000    0.000    0.000    0.000 
#    0.000    0.000    0.000    0.000    0.000    0.000 
#
# Total GULP energy -357250.536903 kJ/mol
# GULP energy per Si atom -5582.039639 kJ/mol
# Density = 1.978436 g / cm^3
# Si number density = 19.829494 Si / 1000 Ang^3
#
#
#
# Elastic Constant Matrix: (Units=GPa)
#
#
# Indices 1 2 3 4 5 6 
#
# 1 32.8843 0.2442 18.3921 0.0000 0.0000 0.0000
# 2 0.2442 92.8953 56.8047 0.0000 0.0000 0.0000
# 3 18.3921 56.8047 87.8955 0.0000 0.0000 0.0000
# 4 0.0000 0.0000 0.0000 32.0994 0.0000 0.0000
# 5 0.0000 0.0000 0.0000 0.0000 -3.9999 0.0000
# 6 0.0000 0.0000 0.0000 0.0000 0.0000 10.3635
#
#
#
# Elastic Compliance Matrix: (Units=1/GPa)
#
#
# Indices 1 2 3 4 5 6 
#
# 1 0.037561 0.007783 -0.012890 0.000000 0.000000 0.000000
# 2 0.007783 0.019412 -0.014174 0.000000 0.000000 0.000000
# 3 -0.012890 -0.014174 0.023234 0.000000 0.000000 0.000000
# 4 0.000000 0.000000 0.000000 0.031153 0.000000 0.000000
# 5 0.000000 0.000000 0.000000 0.000000 -0.250009 0.000000
# 6 0.000000 0.000000 0.000000 0.000000 0.000000 0.096492
#
#
# Mechanical properties :
#
#
# Convention : Reuss Voigt Hill
#
# Bulk Modulus (GPa) = 24.01164 40.50631 32.25898
# Shear Modulus (GPa) = 486.09423 16.90823 251.50123
#
# Velocity S-wave (km/s) = 15.67384 2.92324 11.27418
# Velocity P-wave (km/s) = 18.43080 5.64495 13.63011
#
# Compressibility (1/GPa) = 0.04164646
#
# Stress axis : x y z
#
# Youngs Moduli (GPa) = 26.62330 51.51583 43.03946
#
# Poissons Ratio (x) = -0.40096 0.55477
# Poissons Ratio (y) = -0.20722 0.61003
# Poissons Ratio (z) = 0.34317 0.73018
#
# Static dielectric constant tensor:
#      x y z
#    x 1.728000 0.000000 0.000000 
#    y 0.000000 1.673390 0.000000 
#    z 0.000000 0.000000 1.703600 
# 
# From -- ./inp_files/4842.got.cif
#   From: 2010.05.17/outbox.cif.g08.bks.cpg/sg58_3_cif.got.tgz:4842.got - 2010.06.03 14:20:14.
