data_PCOD9443859
_publ_section_title
;
Structure prediction by ZEFSAII (Michael W. Deem and Ramdas Pophale) SiO2 
 PCOD9443859
Probable space group: P N N M
;
_chemical_formula_sum "Si O2"
_cell_formula_units_Z 64
_cell_length_a 13.411101
_cell_length_b 13.918818
_cell_length_c 18.796631
_cell_angle_alpha 90.000000
_cell_angle_beta 90.000000
_cell_angle_gamma 90.000000
_cell_volume 3508.704591
_symmetry_space_group_name_H-M "P N N M"
_symmetry_group_IT_number 58
_symmetry_cell_setting 'orthorhombic'
loop_
_space_group_symop_operation_xyz
x,y,z
-x,-y,z
1/2+x,1/2-y,1/2-z
1/2-x,1/2+y,1/2-z
-x,-y,-z
x,y,-z
1/2-x,1/2+y,1/2+z
1/2+x,1/2-y,1/2+z
loop_
_atom_site_type_symbol
_atom_site_label
_atom_site_fract_x
_atom_site_fract_y
_atom_site_fract_z
Si Si1 0.521860 0.200521 0.918838
Si Si2 0.128482 0.767991 0.703958
Si Si3 0.805671 0.559444 0.584989
Si Si4 0.853756 0.216949 0.866547
Si Si5 0.534724 0.392958 0.419529
Si Si6 0.804762 0.862671 0.581014
Si Si7 0.880094 0.009431 0.695862
Si Si8 0.718583 0.394347 0.674804
O O1 0.448662 0.226022 0.854170
O O2 0.583368 0.102077 0.907458
O O3 0.608425 0.281769 0.918523
O O4 0.478697 0.199474 0.000000
O O5 0.101103 0.772842 0.787558
O O6 0.222970 0.697842 0.702185
O O7 0.146307 0.879237 0.685783
O O8 0.783228 0.558208 0.500000
O O9 0.729162 0.632778 0.623960
O O10 0.787454 0.458032 0.622383
O O11 0.795106 0.312372 0.889309
O O12 0.943528 0.180140 0.915108
O O13 0.500000 0.500000 0.396362
O O14 0.570561 0.403317 0.500000
O O15 0.623377 0.361447 0.369596
O O16 0.788063 0.891936 0.500000
O O17 0.844481 0.948684 0.628482
O O18 0.822855 0.961825 0.762327
O O19 0.000000 0.000000 0.705356
#
# Coordination Sequence:
#
# PCOD9443859 Si02
#       8
#     8   8   8   8   8   8   8   8
#     4   9  21  39  62  93 124 162 206 251 307 375
#     4  12  24  38  63  92 124 162 203 256 309 364
#     4  10  20  38  63  89 127 167 202 251 315 377
#     4  11  20  37  61  90 124 161 208 251 300 368
#     4  11  21  35  60  92 122 157 202 251 305 360
#     4  10  21  39  65  91 120 162 208 252 303 363
#     4  12  23  42  64  90 125 160 203 258 307 356
#     4  12  24  38  59  93 127 164 203 253 306 369
#
# _framework density 18.240349999999999
#
# number of rings (size 3 to 8) (size 9 to 14) (size 15 to 20)
#    0.000    1.125    5.000    3.375    0.000    2.250 
#    0.000    1.250    0.000    0.750    0.000    1.750 
#    0.000    0.000    0.000    0.000    0.000    0.000 
#
# Total GULP energy -357233.922646 kJ/mol
# GULP energy per Si atom -5581.780041 kJ/mol
# Density = 1.819883 g / cm^3
# Si number density = 18.240350 Si / 1000 Ang^3
#
#
#
# Elastic Constant Matrix: (Units=GPa)
#
#
# Indices 1 2 3 4 5 6 
#
# 1 55.6600 50.7372 33.1658 0.0000 0.0000 0.0000
# 2 50.7372 93.5614 34.0648 0.0000 0.0000 0.0000
# 3 33.1658 34.0648 107.3502 0.0000 0.0000 0.0000
# 4 0.0000 0.0000 0.0000 44.1845 0.0000 0.0000
# 5 0.0000 0.0000 0.0000 0.0000 25.8699 0.0000
# 6 0.0000 0.0000 0.0000 0.0000 0.0000 23.6594
#
#
#
# Elastic Compliance Matrix: (Units=1/GPa)
#
#
# Indices 1 2 3 4 5 6 
#
# 1 0.038652 -0.018783 -0.005981 0.000000 0.000000 0.000000
# 2 -0.018783 0.021212 -0.000928 0.000000 0.000000 0.000000
# 3 -0.005981 -0.000928 0.011458 0.000000 0.000000 0.000000
# 4 0.000000 0.000000 0.000000 0.022632 0.000000 0.000000
# 5 0.000000 0.000000 0.000000 0.000000 0.038655 0.000000
# 6 0.000000 0.000000 0.000000 0.000000 0.000000 0.042266
#
#
# Mechanical properties :
#
#
# Convention : Reuss Voigt Hill
#
# Bulk Modulus (GPa) = 50.15765 54.72303 52.44034
# Shear Modulus (GPa) = 21.46807 27.98303 24.72555
#
# Velocity S-wave (km/s) = 3.43440 3.92104 3.68576
# Velocity P-wave (km/s) = 6.57911 7.11095 6.85019
#
# Compressibility (1/GPa) = 0.01993714
#
# Stress axis : x y z
#
# Youngs Moduli (GPa) = 25.87218 47.14404 87.27744
#
# Poissons Ratio (x) = 0.88548 0.52203
# Poissons Ratio (y) = 0.48594 0.08100
# Poissons Ratio (z) = 0.15475 0.04375
#
# Static dielectric constant tensor:
#      x y z
#    x 1.627080 0.000000 0.000000 
#    y 0.000000 1.621670 0.000000 
#    z 0.000000 0.000000 1.629280 
# 
# From -- ./inp_files/26371.got.cif
#   From: 2010.05.17/outbox.cif.g08.bks.cpg/sg58_14_cif.got.tgz:26371.got - 2010.06.03 14:20:14.
