data_PCOD9443982
_publ_section_title
;
Structure prediction by ZEFSAII (Michael W. Deem and Ramdas Pophale) SiO2 
 PCOD9443982
Probable space group: P N N M
;
_chemical_formula_sum "Si O2"
_cell_formula_units_Z 64
_cell_length_a 12.246044
_cell_length_b 31.101313
_cell_length_c 9.210898
_cell_angle_alpha 90.000000
_cell_angle_beta 90.000000
_cell_angle_gamma 90.000000
_cell_volume 3508.136737
_symmetry_space_group_name_H-M "P N N M"
_symmetry_group_IT_number 58
_symmetry_cell_setting 'orthorhombic'
loop_
_space_group_symop_operation_xyz
x,y,z
-x,-y,z
1/2+x,1/2-y,1/2-z
1/2-x,1/2+y,1/2-z
-x,-y,-z
x,y,-z
1/2-x,1/2+y,1/2+z
1/2+x,1/2-y,1/2+z
loop_
_atom_site_type_symbol
_atom_site_label
_atom_site_fract_x
_atom_site_fract_y
_atom_site_fract_z
Si Si1 0.043081 0.787776 0.672197
Si Si2 0.733161 0.075888 0.171973
Si Si3 0.084941 0.126223 0.676862
Si Si4 0.261837 0.836504 0.670217
Si Si5 0.005210 0.697883 0.173254
Si Si6 0.835504 0.379050 0.176354
Si Si7 0.488623 0.948949 0.671382
Si Si8 0.436997 0.455464 0.172513
O O1 0.023919 0.782374 0.500000
O O2 0.169494 0.800811 0.692516
O O3 0.018021 0.743718 0.752231
O O4 0.970715 0.828781 0.721448
O O5 0.763217 0.123283 0.228817
O O6 0.614659 0.066168 0.237328
O O7 0.824082 0.045165 0.241491
O O8 0.732786 0.073336 0.000000
O O9 0.085510 0.126274 0.500000
O O10 0.210331 0.122072 0.726890
O O11 0.012078 0.085031 0.718649
O O12 0.255048 0.849883 0.500000
O O13 0.383642 0.820145 0.698946
O O14 0.093988 0.662486 0.223092
O O15 0.017969 0.702737 0.000000
O O16 0.904144 0.421780 0.214773
O O17 0.831945 0.378041 0.000000
O O18 0.468646 0.939605 0.500000
O O19 0.500000 0.000000 0.687288
O O20 0.500000 0.500000 0.193596
O O21 0.414483 0.450737 0.000000
#
# Coordination Sequence:
#
# PCOD9443982 Si02
#       8
#     8   8   8   8   8   8   8   8
#     4  10  21  36  57  82 114 149 189 241 290 346
#     4  12  24  38  60  87 122 157 193 247 302 354
#     4   9  18  34  56  85 116 145 184 239 290 333
#     4  10  20  40  62  81 110 155 205 247 288 342
#     4  10  21  36  57  82 114 149 189 241 290 346
#     4   9  18  34  56  85 116 145 184 239 290 333
#     4  10  21  38  64  90 115 152 200 244 285 349
#     4  10  21  38  64  90 115 152 200 244 285 349
#
# _framework density 18.243303000000001
#
# number of rings (size 3 to 8) (size 9 to 14) (size 15 to 20)
#    0.000    2.000    2.500    1.125    3.500    1.500 
#    0.000    0.000    0.000    1.500    0.000    0.000 
#    0.000    0.000    0.000    0.000    0.000    0.000 
#
# Total GULP energy -357231.413471 kJ/mol
# GULP energy per Si atom -5581.740835 kJ/mol
# Density = 1.820178 g / cm^3
# Si number density = 18.243303 Si / 1000 Ang^3
#
#
#
# Elastic Constant Matrix: (Units=GPa)
#
#
# Indices 1 2 3 4 5 6 
#
# 1 101.5861 18.9051 19.2864 0.0000 0.0000 0.0000
# 2 18.9051 78.7586 20.9285 0.0000 0.0000 0.0000
# 3 19.2864 20.9285 27.5303 0.0000 0.0000 0.0000
# 4 0.0000 0.0000 0.0000 22.2443 0.0000 0.0000
# 5 0.0000 0.0000 0.0000 0.0000 15.8908 0.0000
# 6 0.0000 0.0000 0.0000 0.0000 0.0000 21.3658
#
#
#
# Elastic Compliance Matrix: (Units=1/GPa)
#
#
# Indices 1 2 3 4 5 6 
#
# 1 0.011391 -0.000769 -0.007395 0.000000 0.000000 0.000000
# 2 -0.000769 0.015963 -0.011596 0.000000 0.000000 0.000000
# 3 -0.007395 -0.011596 0.050320 0.000000 0.000000 0.000000
# 4 0.000000 0.000000 0.000000 0.044955 0.000000 0.000000
# 5 0.000000 0.000000 0.000000 0.000000 0.062929 0.000000
# 6 0.000000 0.000000 0.000000 0.000000 0.000000 0.046804
#
#
# Mechanical properties :
#
#
# Convention : Reuss Voigt Hill
#
# Bulk Modulus (GPa) = 26.21059 36.23500 31.22279
# Shear Modulus (GPa) = 17.56843 21.81719 19.69281
#
# Velocity S-wave (km/s) = 3.10660 3.46193 3.28907
# Velocity P-wave (km/s) = 5.22172 5.99042 5.61923
#
# Compressibility (1/GPa) = 0.03815251
#
# Stress axis : x y z
#
# Youngs Moduli (GPa) = 87.78852 62.64430 19.87287
#
# Poissons Ratio (x) = 0.04818 0.14697
# Poissons Ratio (y) = 0.06752 0.23045
# Poissons Ratio (z) = 0.64922 0.72644
#
# Static dielectric constant tensor:
#      x y z
#    x 1.628990 0.000000 0.000000 
#    y 0.000000 1.620820 0.000000 
#    z 0.000000 0.000000 1.604610 
# 
# From -- ./inp_files/4742.got.cif
#   From: 2010.05.17/outbox.cif.g08.bks.cpg/sg58_3_cif.got.tgz:4742.got - 2010.06.03 14:20:14.
