data_PCOD9443734
_publ_section_title
;
Structure prediction by ZEFSAII (Michael W. Deem and Ramdas Pophale) SiO2 
 PCOD9443734
Probable space group: P N N M
;
_chemical_formula_sum "Si O2"
_cell_formula_units_Z 64
_cell_length_a 15.704813
_cell_length_b 24.284817
_cell_length_c 8.582802
_cell_angle_alpha 90.000000
_cell_angle_beta 90.000000
_cell_angle_gamma 90.000000
_cell_volume 3273.382064
_symmetry_space_group_name_H-M "P N N M"
_symmetry_group_IT_number 58
_symmetry_cell_setting 'orthorhombic'
loop_
_space_group_symop_operation_xyz
x,y,z
-x,-y,z
1/2+x,1/2-y,1/2-z
1/2-x,1/2+y,1/2-z
-x,-y,-z
x,y,-z
1/2-x,1/2+y,1/2+z
1/2+x,1/2-y,1/2+z
loop_
_atom_site_type_symbol
_atom_site_label
_atom_site_fract_x
_atom_site_fract_y
_atom_site_fract_z
Si Si1 0.239284 0.055027 0.186167
Si Si2 0.154416 0.742926 0.316437
Si Si3 0.157627 0.250569 0.312759
Si Si4 0.412060 0.629465 0.185641
Si Si5 0.251356 0.928574 0.189583
Si Si6 0.091099 0.854674 0.814072
Si Si7 0.893519 0.375427 0.183367
Si Si8 0.077183 0.366044 0.312189
O O1 0.161670 0.088060 0.262712
O O2 0.326600 0.085665 0.229432
O O3 0.242668 0.991672 0.239312
O O4 0.228183 0.056158 0.000000
O O5 0.145824 0.733464 0.500000
O O6 0.251833 0.756181 0.271063
O O7 0.098892 0.795121 0.265431
O O8 0.128327 0.687468 0.228328
O O9 0.172694 0.252199 0.500000
O O10 0.117768 0.191584 0.273148
O O11 0.097591 0.302179 0.274469
O O12 0.501653 0.618561 0.268122
O O13 0.423079 0.627271 0.000000
O O14 0.170973 0.891770 0.238474
O O15 0.340359 0.901052 0.237371
O O16 0.251462 0.928057 0.000000
O O17 0.096593 0.847703 0.000000
O O18 0.990281 0.385423 0.234861
O O19 0.882816 0.383000 0.000000
O O20 0.068510 0.369931 0.500000
#
# Coordination Sequence:
#
# PCOD9443734 Si02
#       8
#     8   8   8   8   8   8   8   8
#     4  11  23  42  65  90 119 162 215 259 303 361
#     4  12  23  37  62  94 126 161 202 248 307 373
#     4  10  20  37  63  89 124 160 198 249 307 365
#     4  11  23  39  61  94 129 163 202 253 310 364
#     4   9  21  41  66  91 120 161 210 258 304 360
#     4  11  22  41  66  93 125 163 205 252 307 367
#     4  12  25  41  61  91 127 163 204 254 312 370
#     4  10  20  40  66  92 122 161 204 251 306 368
#
# _framework density 19.551642999999999
#
# number of rings (size 3 to 8) (size 9 to 14) (size 15 to 20)
#    0.000    1.250    2.500    4.125    0.000    3.000 
#    0.000    8.750    0.000    0.000    0.000    0.000 
#    0.000    0.000    0.000    0.000    0.000    0.000 
#
# Total GULP energy -357965.553544 kJ/mol
# GULP energy per Si atom -5593.211774 kJ/mol
# Density = 1.950714 g / cm^3
# Si number density = 19.551643 Si / 1000 Ang^3
#
#
#
# Elastic Constant Matrix: (Units=GPa)
#
#
# Indices 1 2 3 4 5 6 
#
# 1 82.1563 9.0600 -1.7666 0.0000 0.0000 0.0000
# 2 9.0600 93.7501 -5.3377 0.0000 0.0000 0.0000
# 3 -1.7666 -5.3377 19.1452 0.0000 0.0000 0.0000
# 4 0.0000 0.0000 0.0000 21.4474 0.0000 0.0000
# 5 0.0000 0.0000 0.0000 0.0000 28.3719 0.0000
# 6 0.0000 0.0000 0.0000 0.0000 0.0000 0.8706
#
#
#
# Elastic Compliance Matrix: (Units=1/GPa)
#
#
# Indices 1 2 3 4 5 6 
#
# 1 0.012316 -0.001144 0.000818 0.000000 0.000000 0.000000
# 2 -0.001144 0.010945 0.002946 0.000000 0.000000 0.000000
# 3 0.000818 0.002946 0.053129 0.000000 0.000000 0.000000
# 4 0.000000 0.000000 0.000000 0.046626 0.000000 0.000000
# 5 0.000000 0.000000 0.000000 0.000000 0.035246 0.000000
# 6 0.000000 0.000000 0.000000 0.000000 0.000000 1.148597
#
#
# Mechanical properties :
#
#
# Convention : Reuss Voigt Hill
#
# Bulk Modulus (GPa) = 12.25049 22.10700 17.17875
# Shear Modulus (GPa) = 3.76271 23.01104 13.38688
#
# Velocity S-wave (km/s) = 1.38877 3.43437 2.61950
# Velocity P-wave (km/s) = 2.97504 5.20174 4.23727
#
# Compressibility (1/GPa) = 0.08162937
#
# Stress axis : x y z
#
# Youngs Moduli (GPa) = 81.19771 91.36675 18.82204
#
# Poissons Ratio (x) = 0.10449 -0.01539
# Poissons Ratio (y) = 0.09286 -0.05545
# Poissons Ratio (z) = -0.06638 -0.26916
#
# Static dielectric constant tensor:
#      x y z
#    x 1.671390 0.000000 0.000000 
#    y 0.000000 1.665920 0.000000 
#    z 0.000000 0.000000 1.659740 
# 
# From -- ./inp_files/6821.got.cif
#   From: 2010.05.17/outbox.cif.g08.bks.cpg/sg58_4_cif.got.tgz:6821.got - 2010.06.03 14:20:14.
