data_PCOD9443226
_publ_section_title
;
Structure prediction by ZEFSAII (Michael W. Deem and Ramdas Pophale) SiO2 
 PCOD9443226
Probable space group: P N N M
;
_chemical_formula_sum "Si O2"
_cell_formula_units_Z 40
_cell_length_a 26.303455
_cell_length_b 7.901962
_cell_length_c 8.066607
_cell_angle_alpha 90.000000
_cell_angle_beta 90.000000
_cell_angle_gamma 90.000000
_cell_volume 1676.635407
_symmetry_space_group_name_H-M "P N N M"
_symmetry_group_IT_number 58
_symmetry_cell_setting 'orthorhombic'
loop_
_space_group_symop_operation_xyz
x,y,z
-x,-y,z
1/2+x,1/2-y,1/2-z
1/2-x,1/2+y,1/2-z
-x,-y,-z
x,y,-z
1/2-x,1/2+y,1/2+z
1/2+x,1/2-y,1/2+z
loop_
_atom_site_type_symbol
_atom_site_label
_atom_site_fract_x
_atom_site_fract_y
_atom_site_fract_z
Si Si1 0.082307 0.916421 0.000000
Si Si2 0.924457 0.593334 0.316717
Si Si3 0.633316 0.731929 0.184371
Si Si4 0.672186 0.268156 0.692376
Si Si5 0.021371 0.269343 0.000000
Si Si6 0.729677 0.911393 0.308783
O O1 0.115131 0.885768 0.834502
O O2 0.037767 0.775123 0.000000
O O3 0.052176 0.092042 0.000000
O O4 0.947218 0.611972 0.500000
O O5 0.899647 0.406613 0.302739
O O6 0.877674 0.725615 0.296258
O O7 0.961217 0.634056 0.165088
O O8 0.691274 0.793667 0.206086
O O9 0.625586 0.660647 0.000000
O O10 0.658476 0.290870 0.500000
O O11 0.712260 0.406222 0.751726
O O12 0.705901 0.096989 0.703303
O O13 0.727261 0.856317 0.500000
#
# Coordination Sequence:
#
# PCOD9443226 Si02
#       6
#     4   8   8   8   4   8
#     4  11  25  43  63  89 123 161 201 253 312 367
#     4  10  21  40  65  90 120 158 203 254 302 358
#     4  10  21  40  65  90 120 158 203 254 302 358
#     4  10  20  35  56  84 120 159 198 242 292 350
#     4  11  25  43  63  89 123 161 201 253 312 367
#     4  10  20  35  56  84 120 159 198 242 292 350
#
# _framework density 23.857303999999999
#
# number of rings (size 3 to 8) (size 9 to 14) (size 15 to 20)
#    0.000    1.800    2.000    1.800    0.000    7.200 
#    0.000    4.000    0.000    0.000    0.000    0.000 
#    0.000    0.000    0.000    0.000    0.000    0.000 
#
# Total GULP energy -224119.247726 kJ/mol
# GULP energy per Si atom -5602.981193 kJ/mol
# Density = 2.380300 g / cm^3
# Si number density = 23.857304 Si / 1000 Ang^3
#
#
#
# Elastic Constant Matrix: (Units=GPa)
#
#
# Indices 1 2 3 4 5 6 
#
# 1 116.6875 14.5205 50.9722 0.0000 0.0000 0.0000
# 2 14.5205 68.8772 45.0648 0.0000 0.0000 0.0000
# 3 50.9722 45.0648 179.0916 0.0000 0.0000 0.0000
# 4 0.0000 0.0000 0.0000 29.8309 0.0000 0.0000
# 5 0.0000 0.0000 0.0000 0.0000 -21.4862 0.0000
# 6 0.0000 0.0000 0.0000 0.0000 0.0000 45.6265
#
#
#
# Elastic Compliance Matrix: (Units=1/GPa)
#
#
# Indices 1 2 3 4 5 6 
#
# 1 0.009791 -0.000288 -0.002714 0.000000 0.000000 0.000000
# 2 -0.000288 0.017388 -0.004293 0.000000 0.000000 0.000000
# 3 -0.002714 -0.004293 0.007437 0.000000 0.000000 0.000000
# 4 0.000000 0.000000 0.000000 0.033522 0.000000 0.000000
# 5 0.000000 0.000000 0.000000 0.000000 -0.046541 0.000000
# 6 0.000000 0.000000 0.000000 0.000000 0.000000 0.021917
#
#
# Mechanical properties :
#
#
# Convention : Reuss Voigt Hill
#
# Bulk Modulus (GPa) = 49.93872 65.08570 57.51221
# Shear Modulus (GPa) = 77.18280 27.73413 52.45847
#
# Velocity S-wave (km/s) = 5.69404 3.41325 4.69427
# Velocity P-wave (km/s) = 8.01294 6.54783 7.31715
#
# Compressibility (1/GPa) = 0.02002454
#
# Stress axis : x y z
#
# Youngs Moduli (GPa) = 102.13007 57.50946 134.47018
#
# Poissons Ratio (x) = 0.01658 0.36498
# Poissons Ratio (y) = 0.02945 0.57733
# Poissons Ratio (z) = 0.27721 0.24691
#
# Static dielectric constant tensor:
#      x y z
#    x 1.891960 0.000000 0.000000 
#    y 0.000000 1.965070 0.000000 
#    z 0.000000 0.000000 1.850190 
# 
# From -- ./inp_files/2437.got.cif
#   From: 2010.05.17/outbox.cif.g08.bks.cpg/sg58_2_cif.got.tgz:2437.got - 2010.06.03 14:20:14.
