data_PCOD9443255
_publ_section_title
;
Structure prediction by ZEFSAII (Michael W. Deem and Ramdas Pophale) SiO2 
 PCOD9443255
Probable space group: P N N M
;
_chemical_formula_sum "Si O2"
_cell_formula_units_Z 64
_cell_length_a 12.195806
_cell_length_b 30.011588
_cell_length_c 8.980537
_cell_angle_alpha 90.000000
_cell_angle_beta 90.000000
_cell_angle_gamma 90.000000
_cell_volume 3287.015785
_symmetry_space_group_name_H-M "P N N M"
_symmetry_group_IT_number 58
_symmetry_cell_setting 'orthorhombic'
loop_
_space_group_symop_operation_xyz
x,y,z
-x,-y,z
1/2+x,1/2-y,1/2-z
1/2-x,1/2+y,1/2-z
-x,-y,-z
x,y,-z
1/2-x,1/2+y,1/2+z
1/2+x,1/2-y,1/2+z
loop_
_atom_site_type_symbol
_atom_site_label
_atom_site_fract_x
_atom_site_fract_y
_atom_site_fract_z
Si Si1 0.135475 0.660871 0.673390
Si Si2 0.978095 0.433753 0.329960
Si Si3 0.534988 0.223370 0.321517
Si Si4 0.158429 0.113464 0.323162
Si Si5 0.984442 0.186428 0.322072
Si Si6 0.758500 0.663474 0.181123
Si Si7 0.796439 0.562074 0.823243
Si Si8 0.237199 0.025622 0.175860
O O1 0.156805 0.670965 0.500000
O O2 0.054091 0.618220 0.679850
O O3 0.245378 0.643829 0.752570
O O4 0.074261 0.701115 0.753712
O O5 0.013777 0.443549 0.500000
O O6 0.864473 0.459311 0.301823
O O7 0.075918 0.444414 0.219402
O O8 0.529970 0.222504 0.500000
O O9 0.543196 0.273352 0.261919
O O10 0.639012 0.193629 0.271882
O O11 0.176313 0.109857 0.500000
O O12 0.166863 0.064663 0.251464
O O13 0.045886 0.139758 0.296221
O O14 0.988146 0.194984 0.500000
O O15 0.858306 0.183171 0.273410
O O16 0.768518 0.612093 0.229246
O O17 0.760131 0.662776 0.000000
O O18 0.727564 0.523066 0.746051
O O19 0.781953 0.559484 0.000000
O O20 0.217043 0.025071 0.000000
#
# Coordination Sequence:
#
# PCOD9443255 Si02
#       8
#     8   8   8   8   8   8   8   8
#     4  10  20  35  57  84 119 158 190 233 297 352
#     4   9  18  32  50  77 115 154 187 229 288 351
#     4  11  22  38  61  90 119 151 197 244 293 357
#     4  10  21  38  61  87 116 152 203 251 289 349
#     4  10  23  43  63  85 117 157 198 246 301 356
#     4   9  21  41  61  85 120 157 193 242 300 354
#     4  11  20  33  56  84 114 153 198 244 294 348
#     4  10  21  36  55  82 119 159 196 239 299 358
#
# _framework density 19.470548999999998
#
# number of rings (size 3 to 8) (size 9 to 14) (size 15 to 20)
#    0.000    2.000    1.250    3.000    1.750    5.000 
#    0.000    2.500    0.000    3.750    0.000    0.000 
#    0.000    0.000    0.000    0.000    0.000    0.000 
#
# Total GULP energy -357449.611312 kJ/mol
# GULP energy per Si atom -5585.150177 kJ/mol
# Density = 1.942623 g / cm^3
# Si number density = 19.470549 Si / 1000 Ang^3
#
#
#
# Elastic Constant Matrix: (Units=GPa)
#
#
# Indices 1 2 3 4 5 6 
#
# 1 37.3508 16.7309 15.2595 0.0000 0.0000 0.0000
# 2 16.7309 112.9453 38.2638 0.0000 0.0000 0.0000
# 3 15.2595 38.2638 53.8723 0.0000 0.0000 0.0000
# 4 0.0000 0.0000 0.0000 34.1418 0.0000 0.0000
# 5 0.0000 0.0000 0.0000 0.0000 9.2451 0.0000
# 6 0.0000 0.0000 0.0000 0.0000 0.0000 12.3417
#
#
#
# Elastic Compliance Matrix: (Units=1/GPa)
#
#
# Indices 1 2 3 4 5 6 
#
# 1 0.030653 -0.002106 -0.007187 0.000000 0.000000 0.000000
# 2 -0.002106 0.011804 -0.007788 0.000000 0.000000 0.000000
# 3 -0.007187 -0.007788 0.026129 0.000000 0.000000 0.000000
# 4 0.000000 0.000000 0.000000 0.029290 0.000000 0.000000
# 5 0.000000 0.000000 0.000000 0.000000 0.108165 0.000000
# 6 0.000000 0.000000 0.000000 0.000000 0.000000 0.081026
#
#
# Mechanical properties :
#
#
# Convention : Reuss Voigt Hill
#
# Bulk Modulus (GPa) = 29.04809 38.29742 33.67276
# Shear Modulus (GPa) = 15.02845 20.07335 17.55090
#
# Velocity S-wave (km/s) = 2.78124 3.21434 3.00560
# Velocity P-wave (km/s) = 5.02644 5.78689 5.42002
#
# Compressibility (1/GPa) = 0.03442567
#
# Stress axis : x y z
#
# Youngs Moduli (GPa) = 32.62371 84.71647 38.27120
#
# Poissons Ratio (x) = 0.17841 0.27504
# Poissons Ratio (y) = 0.06870 0.29804
# Poissons Ratio (z) = 0.23445 0.65973
#
# Static dielectric constant tensor:
#      x y z
#    x 1.664140 0.000000 0.000000 
#    y 0.000000 1.692210 0.000000 
#    z 0.000000 0.000000 1.654870 
# 
# From -- ./inp_files/4748.got.cif
#   From: 2010.05.17/outbox.cif.g08.bks.cpg/sg58_3_cif.got.tgz:4748.got - 2010.06.03 14:20:14.
