data_PCOD9443593
_publ_section_title
;
Structure prediction by ZEFSAII (Michael W. Deem and Ramdas Pophale) SiO2 
 PCOD9443593
Probable space group: P N N M
;
_chemical_formula_sum "Si O2"
_cell_formula_units_Z 64
_cell_length_a 9.388889
_cell_length_b 13.859349
_cell_length_c 26.451126
_cell_angle_alpha 90.000000
_cell_angle_beta 90.000000
_cell_angle_gamma 90.000000
_cell_volume 3441.923393
_symmetry_space_group_name_H-M "P N N M"
_symmetry_group_IT_number 58
_symmetry_cell_setting 'orthorhombic'
loop_
_space_group_symop_operation_xyz
x,y,z
-x,-y,z
1/2+x,1/2-y,1/2-z
1/2-x,1/2+y,1/2-z
-x,-y,-z
x,y,-z
1/2-x,1/2+y,1/2+z
1/2+x,1/2-y,1/2+z
loop_
_atom_site_type_symbol
_atom_site_label
_atom_site_fract_x
_atom_site_fract_y
_atom_site_fract_z
Si Si1 0.631802 0.570379 0.828069
Si Si2 0.392706 0.412832 0.560577
Si Si3 0.506065 0.266495 0.365567
Si Si4 0.352262 0.224824 0.132689
Si Si5 0.857742 0.438577 0.286391
Si Si6 0.131196 0.570687 0.172477
Si Si7 0.439240 0.892337 0.941026
Si Si8 0.620591 0.579600 0.713469
O O1 0.500000 0.500000 0.824272
O O2 0.598655 0.665947 0.858904
O O3 0.752106 0.500571 0.851138
O O4 0.670039 0.606120 0.770620
O O5 0.500000 0.500000 0.578627
O O6 0.392768 0.418787 0.500000
O O7 0.458900 0.315685 0.582480
O O8 0.225893 0.405411 0.576259
O O9 0.678498 0.266474 0.368598
O O10 0.428851 0.164448 0.355497
O O11 0.443650 0.335661 0.320698
O O12 0.377903 0.155379 0.180373
O O13 0.449940 0.175664 0.089310
O O14 0.813276 0.406929 0.229521
O O15 0.746758 0.515143 0.309642
O O16 0.000000 0.500000 0.284064
O O17 0.000000 0.500000 0.179552
O O18 0.500000 0.000000 0.938056
O O19 0.436391 0.862026 0.000000
O O20 0.500000 0.500000 0.719145
#
# Coordination Sequence:
#
# PCOD9443593 Si02
#       8
#     8   8   8   8   8   8   8   8
#     4  10  23  39  58  81 119 162 204 248 291 344
#     4  10  23  42  64  92 122 152 188 238 304 369
#     4  12  23  35  62  86 118 159 204 245 292 356
#     4  12  23  37  59  90 118 157 205 243 297 356
#     4  10  22  35  56  84 123 157 193 242 292 356
#     4  10  21  41  55  79 119 164 202 245 292 334
#     4  10  23  42  63  90 124 152 186 242 305 366
#     4  10  20  37  54  84 122 155 194 242 295 349
#
# _framework density 18.594253999999999
#
# number of rings (size 3 to 8) (size 9 to 14) (size 15 to 20)
#    0.000    1.500    2.500    2.250    5.250    1.500 
#    0.000    0.000    0.000    1.500    0.000    0.000 
#    0.000    0.000    0.000    0.000    0.000    0.000 
#
# Total GULP energy -356384.063611 kJ/mol
# GULP energy per Si atom -5568.500994 kJ/mol
# Density = 1.855193 g / cm^3
# Si number density = 18.594254 Si / 1000 Ang^3
#
#
#
# Elastic Constant Matrix: (Units=GPa)
#
#
# Indices 1 2 3 4 5 6 
#
# 1 91.6805 47.3302 20.8918 0.0000 0.0000 0.0000
# 2 47.3302 120.0703 38.3763 0.0000 0.0000 0.0000
# 3 20.8918 38.3763 38.6237 0.0000 0.0000 0.0000
# 4 0.0000 0.0000 0.0000 32.9115 0.0000 0.0000
# 5 0.0000 0.0000 0.0000 0.0000 24.7977 0.0000
# 6 0.0000 0.0000 0.0000 0.0000 0.0000 35.3615
#
#
#
# Elastic Compliance Matrix: (Units=1/GPa)
#
#
# Indices 1 2 3 4 5 6 
#
# 1 0.013935 -0.004519 -0.003047 0.000000 0.000000 0.000000
# 2 -0.004519 0.013670 -0.011138 0.000000 0.000000 0.000000
# 3 -0.003047 -0.011138 0.038606 0.000000 0.000000 0.000000
# 4 0.000000 0.000000 0.000000 0.030384 0.000000 0.000000
# 5 0.000000 0.000000 0.000000 0.000000 0.040326 0.000000
# 6 0.000000 0.000000 0.000000 0.000000 0.000000 0.028279
#
#
# Mechanical properties :
#
#
# Convention : Reuss Voigt Hill
#
# Bulk Modulus (GPa) = 34.72001 51.50789 43.11395
# Shear Modulus (GPa) = 23.56173 28.19922 25.88048
#
# Velocity S-wave (km/s) = 3.56357 3.89852 3.73480
# Velocity P-wave (km/s) = 5.97034 6.93006 6.46803
#
# Compressibility (1/GPa) = 0.02880184
#
# Stress axis : x y z
#
# Youngs Moduli (GPa) = 71.76286 73.15556 25.90303
#
# Poissons Ratio (x) = 0.33058 0.07894
# Poissons Ratio (y) = 0.32429 0.28850
# Poissons Ratio (z) = 0.21869 0.81478
#
# Static dielectric constant tensor:
#      x y z
#    x 1.658640 0.000000 0.000000 
#    y 0.000000 1.613030 0.000000 
#    z 0.000000 0.000000 1.687410 
# 
# From -- ./inp_files/34773.got.cif
#   From: 2010.05.17/outbox.cif.g08.bks.cpg/sg58_18_cif.got.tgz:34773.got - 2010.06.03 14:20:14.
