data_PCOD9443738
_publ_section_title
;
Structure prediction by ZEFSAII (Michael W. Deem and Ramdas Pophale) SiO2 
 PCOD9443738
Probable space group: P N N M
;
_chemical_formula_sum "Si O2"
_cell_formula_units_Z 48
_cell_length_a 28.068976
_cell_length_b 9.862634
_cell_length_c 9.016748
_cell_angle_alpha 90.000000
_cell_angle_beta 90.000000
_cell_angle_gamma 90.000000
_cell_volume 2496.142750
_symmetry_space_group_name_H-M "P N N M"
_symmetry_group_IT_number 58
_symmetry_cell_setting 'orthorhombic'
loop_
_space_group_symop_operation_xyz
x,y,z
-x,-y,z
1/2+x,1/2-y,1/2-z
1/2-x,1/2+y,1/2-z
-x,-y,-z
x,y,-z
1/2-x,1/2+y,1/2+z
1/2+x,1/2-y,1/2+z
loop_
_atom_site_type_symbol
_atom_site_label
_atom_site_fract_x
_atom_site_fract_y
_atom_site_fract_z
Si Si1 0.206070 0.833815 0.177927
Si Si2 0.052925 0.454093 0.679106
Si Si3 0.387288 0.209151 0.173961
Si Si4 0.788583 0.847185 0.178991
Si Si5 0.895784 0.793226 0.175014
Si Si6 0.554988 0.529139 0.171000
O O1 0.156681 0.771805 0.238007
O O2 0.247880 0.740963 0.244368
O O3 0.211855 0.992831 0.221083
O O4 0.206633 0.828314 0.000000
O O5 0.052401 0.449251 0.500000
O O6 0.092334 0.565393 0.725112
O O7 0.070156 0.311596 0.741876
O O8 0.000000 0.500000 0.726790
O O9 0.431149 0.314328 0.183094
O O10 0.373676 0.198741 0.000000
O O11 0.840313 0.785542 0.218026
O O12 0.783256 0.841037 0.000000
O O13 0.913082 0.942528 0.218996
O O14 0.899434 0.772049 0.000000
O O15 0.500000 0.500000 0.200151
O O16 0.565151 0.487827 0.000000
#
# Coordination Sequence:
#
# PCOD9443738 Si02
#       6
#     8   8   8   8   8   8
#     4  11  24  42  65  90 120 158 200 250 305 363
#     4  10  22  41  63  89 124 164 207 251 295 353
#     4  10  21  38  62  90 122 158 199 251 302 355
#     4  10  24  44  62  89 125 157 198 249 304 365
#     4  11  23  40  61  89 126 160 197 251 303 358
#     4  10  20  37  63  91 119 157 203 246 295 358
#
# _framework density 19.229669999999999
#
# number of rings (size 3 to 8) (size 9 to 14) (size 15 to 20)
#    0.000    1.667    1.667    2.000    2.333    6.667 
#    0.000    1.667    0.000    0.000    0.000    0.000 
#    0.000    0.000    0.000    0.000    0.000    0.000 
#
# Total GULP energy -268123.098810 kJ/mol
# GULP energy per Si atom -5585.897892 kJ/mol
# Density = 1.918590 g / cm^3
# Si number density = 19.229670 Si / 1000 Ang^3
#
#
#
# Elastic Constant Matrix: (Units=GPa)
#
#
# Indices 1 2 3 4 5 6 
#
# 1 70.1915 2.6025 24.1808 0.0000 0.0000 0.0000
# 2 2.6025 60.1837 10.3791 0.0000 0.0000 0.0000
# 3 24.1808 10.3791 16.7982 0.0000 0.0000 0.0000
# 4 0.0000 0.0000 0.0000 23.3832 0.0000 0.0000
# 5 0.0000 0.0000 0.0000 0.0000 19.9927 0.0000
# 6 0.0000 0.0000 0.0000 0.0000 0.0000 32.3370
#
#
#
# Elastic Compliance Matrix: (Units=1/GPa)
#
#
# Indices 1 2 3 4 5 6 
#
# 1 0.030720 0.007049 -0.048576 0.000000 0.000000 0.000000
# 2 0.007049 0.020215 -0.022637 0.000000 0.000000 0.000000
# 3 -0.048576 -0.022637 0.143441 0.000000 0.000000 0.000000
# 4 0.000000 0.000000 0.000000 0.042766 0.000000 0.000000
# 5 0.000000 0.000000 0.000000 0.000000 0.050018 0.000000
# 6 0.000000 0.000000 0.000000 0.000000 0.000000 0.030924
#
#
# Mechanical properties :
#
#
# Convention : Reuss Voigt Hill
#
# Bulk Modulus (GPa) = 15.14055 24.61090 19.87572
# Shear Modulus (GPa) = 10.67404 22.47665 16.57535
#
# Velocity S-wave (km/s) = 2.35857 3.42256 2.93911
# Velocity P-wave (km/s) = 3.91252 5.33336 4.67721
#
# Compressibility (1/GPa) = 0.06604781
#
# Stress axis : x y z
#
# Youngs Moduli (GPa) = 32.55251 49.46864 6.97153
#
# Poissons Ratio (x) = -0.34869 0.33865
# Poissons Ratio (y) = -0.22946 0.15781
# Poissons Ratio (z) = 1.58126 1.11981
#
# Static dielectric constant tensor:
#      x y z
#    x 1.660880 0.000000 0.000000 
#    y 0.000000 1.644190 0.000000 
#    z 0.000000 0.000000 1.647430 
# 
# From -- ./inp_files/2937.got.cif
#   From: 2010.05.17/outbox.cif.g08.bks.cpg/sg58_2_cif.got.tgz:2937.got - 2010.06.03 14:20:14.
