data_PCOD9443210
_publ_section_title
;
Structure prediction by ZEFSAII (Michael W. Deem and Ramdas Pophale) SiO2 
 PCOD9443210
Probable space group: P N N M
;
_chemical_formula_sum "Si O2"
_cell_formula_units_Z 56
_cell_length_a 9.909999
_cell_length_b 18.806442
_cell_length_c 15.042120
_cell_angle_alpha 90.000000
_cell_angle_beta 90.000000
_cell_angle_gamma 90.000000
_cell_volume 2803.427302
_symmetry_space_group_name_H-M "P N N M"
_symmetry_group_IT_number 58
_symmetry_cell_setting 'orthorhombic'
loop_
_space_group_symop_operation_xyz
x,y,z
-x,-y,z
1/2+x,1/2-y,1/2-z
1/2-x,1/2+y,1/2-z
-x,-y,-z
x,y,-z
1/2-x,1/2+y,1/2+z
1/2+x,1/2-y,1/2+z
loop_
_atom_site_type_symbol
_atom_site_label
_atom_site_fract_x
_atom_site_fract_y
_atom_site_fract_z
Si Si1 0.549216 0.219000 0.601842
Si Si2 0.154554 0.747664 0.401891
Si Si3 0.847790 0.508282 0.600795
Si Si4 0.649242 0.689545 0.717112
Si Si5 0.374520 0.945756 0.394250
Si Si6 0.884936 0.675316 0.402629
Si Si7 0.852868 0.028891 0.245555
O O1 0.500200 0.219262 0.500000
O O2 0.686596 0.265607 0.604561
O O3 0.444165 0.255901 0.665474
O O4 0.582689 0.136526 0.623937
O O5 0.134143 0.779678 0.500000
O O6 0.128047 0.799494 0.321110
O O7 0.045503 0.685162 0.392508
O O8 0.838051 0.478093 0.500000
O O9 0.844446 0.593557 0.592643
O O10 0.731432 0.486419 0.669340
O O11 0.000000 0.500000 0.636489
O O12 0.799866 0.705171 0.679673
O O13 0.620340 0.606829 0.703571
O O14 0.340114 0.949881 0.500000
O O15 0.250294 0.963770 0.328720
O O16 0.500000 0.000000 0.379158
O O17 0.849628 0.707408 0.500000
O O18 0.000000 0.000000 0.269145
#
# Coordination Sequence:
#
# PCOD9443210 Si02
#       7
#     8   8   8   8   8   8   8
#     4  10  21  39  63  91 119 155 201 247 301 362
#     4  10  20  35  56  82 115 151 191 239 294 353
#     4   9  19  37  60  83 114 161 208 246 290 351
#     4  11  21  37  60  85 121 156 194 245 300 353
#     4  10  22  45  68  87 118 162 208 257 305 359
#     4   9  19  35  55  81 113 148 190 241 294 348
#     4  11  24  40  58  92 126 163 201 249 308 368
#
# _framework density 19.975549999999998
#
# number of rings (size 3 to 8) (size 9 to 14) (size 15 to 20)
#    0.000    2.000    1.429    1.714    2.000    2.286 
#    5.143    1.429    0.000    0.000    0.000    0.000 
#    0.000    0.000    0.000    0.000    0.000    0.000 
#
# Total GULP energy -311891.023458 kJ/mol
# GULP energy per Si atom -5569.482562 kJ/mol
# Density = 1.993008 g / cm^3
# Si number density = 19.975550 Si / 1000 Ang^3
#
#
#
# Elastic Constant Matrix: (Units=GPa)
#
#
# Indices 1 2 3 4 5 6 
#
# 1 123.5272 32.6158 67.0578 0.0000 0.0000 0.0000
# 2 32.6158 25.1127 31.0220 0.0000 0.0000 0.0000
# 3 67.0578 31.0220 99.3033 0.0000 0.0000 0.0000
# 4 0.0000 0.0000 0.0000 27.0017 0.0000 0.0000
# 5 0.0000 0.0000 0.0000 0.0000 21.9078 0.0000
# 6 0.0000 0.0000 0.0000 0.0000 0.0000 30.1574
#
#
#
# Elastic Compliance Matrix: (Units=1/GPa)
#
#
# Indices 1 2 3 4 5 6 
#
# 1 0.014406 -0.010899 -0.006323 0.000000 0.000000 0.000000
# 2 -0.010899 0.073090 -0.015473 0.000000 0.000000 0.000000
# 3 -0.006323 -0.015473 0.019174 0.000000 0.000000 0.000000
# 4 0.000000 0.000000 0.000000 0.037035 0.000000 0.000000
# 5 0.000000 0.000000 0.000000 0.000000 0.045646 0.000000
# 6 0.000000 0.000000 0.000000 0.000000 0.000000 0.033159
#
#
# Mechanical properties :
#
#
# Convention : Reuss Voigt Hill
#
# Bulk Modulus (GPa) = 24.22537 56.59268 40.40902
# Shear Modulus (GPa) = 16.57500 23.62987 20.10244
#
# Velocity S-wave (km/s) = 2.88369 3.44312 3.17575
# Velocity P-wave (km/s) = 4.82093 6.64825 5.80692
#
# Compressibility (1/GPa) = 0.04127904
#
# Stress axis : x y z
#
# Youngs Moduli (GPa) = 69.41742 13.68182 52.15426
#
# Poissons Ratio (x) = 0.14911 0.32978
# Poissons Ratio (y) = 0.75655 0.80700
# Poissons Ratio (z) = 0.43894 0.21170
#
# Static dielectric constant tensor:
#      x y z
#    x 2.253660 0.000000 0.000000 
#    y 0.000000 1.723990 0.000000 
#    z 0.000000 0.000000 1.767130 
# 
# From -- ./inp_files/20120.got.cif
#   From: 2010.05.17/outbox.cif.g08.bks.cpg/sg58_11_cif.got.tgz:20120.got - 2010.06.03 14:20:14.
