data_PCOD9443089
_publ_section_title
;
Structure prediction by ZEFSAII (Michael W. Deem and Ramdas Pophale) SiO2 
 PCOD9443089
Probable space group: P N N M
;
_chemical_formula_sum "Si O2"
_cell_formula_units_Z 58
_cell_length_a 16.767113
_cell_length_b 19.630294
_cell_length_c 9.989496
_cell_angle_alpha 90.000000
_cell_angle_beta 90.000000
_cell_angle_gamma 90.000000
_cell_volume 3287.976255
_symmetry_space_group_name_H-M "P N N M"
_symmetry_group_IT_number 58
_symmetry_cell_setting 'orthorhombic'
loop_
_space_group_symop_operation_xyz
x,y,z
-x,-y,z
1/2+x,1/2-y,1/2-z
1/2-x,1/2+y,1/2-z
-x,-y,-z
x,y,-z
1/2-x,1/2+y,1/2+z
1/2+x,1/2-y,1/2+z
loop_
_atom_site_type_symbol
_atom_site_label
_atom_site_fract_x
_atom_site_fract_y
_atom_site_fract_z
Si Si1 0.860115 0.595621 0.345543
Si Si2 0.282406 0.379512 0.151201
Si Si3 0.544724 0.426917 0.340928
Si Si4 0.314424 0.538497 0.850329
Si Si5 0.500000 0.000000 0.500000
Si Si6 0.631678 0.952802 0.720300
Si Si7 0.950983 0.181039 0.341009
Si Si8 0.972578 0.338549 0.339950
O O1 0.847892 0.613235 0.500000
O O2 0.788776 0.623832 0.255552
O O3 0.862736 0.513947 0.328256
O O4 0.943851 0.627167 0.299423
O O5 0.317236 0.456256 0.157784
O O6 0.356171 0.329908 0.174884
O O7 0.251395 0.370037 0.000000
O O8 0.500000 0.500000 0.328225
O O9 0.550976 0.411858 0.500000
O O10 0.629911 0.432884 0.266517
O O11 0.495538 0.370825 0.257406
O O12 0.221109 0.556076 0.834989
O O13 0.342134 0.558636 0.000000
O O14 0.432456 0.019204 0.614599
O O15 0.597707 0.882349 0.775707
O O16 0.968719 0.168149 0.500000
O O17 0.971843 0.258839 0.307899
O O18 0.966005 0.344783 0.500000
#
# Coordination Sequence:
#
# PCOD9443089 Si02
#       8
#     8   8   8   8   2   8   8   8
#     4  10  20  34  58  86 116 152 190 238 296 351
#     4   9  19  34  58  85 111 145 193 243 290 345
#     4  11  23  39  60  87 117 150 195 250 300 345
#     4  10  20  35  59  89 114 147 196 241 293 347
#     4  12  20  36  62  88 126 152 196 244 284 350
#     4  11  21  36  60  90 120 151 196 248 293 343
#     4  10  21  41  62  82 112 160 202 240 292 359
#     4  10  21  38  59  83 117 155 196 239 297 359
#
# _framework density 17.640028999999998
#
# number of rings (size 3 to 8) (size 9 to 14) (size 15 to 20)
#    0.000    1.793    3.448    0.828    0.966    4.966 
#    3.724    0.000    0.000    0.000    0.000    0.000 
#    0.000    0.000    0.000    0.000    0.000    0.000 
#
# Total GULP energy -322977.366524 kJ/mol
# GULP energy per Si atom -5568.575285 kJ/mol
# Density = 1.759988 g / cm^3
# Si number density = 17.640029 Si / 1000 Ang^3
#
#
#
# Elastic Constant Matrix: (Units=GPa)
#
#
# Indices 1 2 3 4 5 6 
#
# 1 89.1513 32.1840 60.1112 0.0000 0.0000 0.0000
# 2 32.1840 79.3885 44.0648 0.0000 0.0000 0.0000
# 3 60.1112 44.0648 97.3547 0.0000 0.0000 0.0000
# 4 0.0000 0.0000 0.0000 7.6710 0.0000 0.0000
# 5 0.0000 0.0000 0.0000 0.0000 6.3526 0.0000
# 6 0.0000 0.0000 0.0000 0.0000 0.0000 13.4025
#
#
#
# Elastic Compliance Matrix: (Units=1/GPa)
#
#
# Indices 1 2 3 4 5 6 
#
# 1 0.019373 -0.001622 -0.011227 0.000000 0.000000 0.000000
# 2 -0.001622 0.016958 -0.006674 0.000000 0.000000 0.000000
# 3 -0.011227 -0.006674 0.020225 0.000000 0.000000 0.000000
# 4 0.000000 0.000000 0.000000 0.130361 0.000000 0.000000
# 5 0.000000 0.000000 0.000000 0.000000 0.157416 0.000000
# 6 0.000000 0.000000 0.000000 0.000000 0.000000 0.074613
#
#
# Mechanical properties :
#
#
# Convention : Reuss Voigt Hill
#
# Bulk Modulus (GPa) = 57.11421 59.84604 58.48012
# Shear Modulus (GPa) = 10.77984 14.12086 12.45035
#
# Velocity S-wave (km/s) = 2.47473 2.83238 2.65957
# Velocity P-wave (km/s) = 6.37288 6.68554 6.53108
#
# Compressibility (1/GPa) = 0.01750878
#
# Stress axis : x y z
#
# Youngs Moduli (GPa) = 51.61937 58.96788 49.44374
#
# Poissons Ratio (x) = 0.09563 0.55513
# Poissons Ratio (y) = 0.08372 0.33001
# Poissons Ratio (z) = 0.57955 0.39357
#
# Static dielectric constant tensor:
#      x y z
#    x 1.592190 0.000000 0.000000 
#    y 0.000000 1.590350 0.000000 
#    z 0.000000 0.000000 1.599930 
# 
# From -- ./inp_files/8043.got.cif
#   From: 2010.05.17/outbox.cif.g08.bks.cpg/sg58_5_cif.got.tgz:8043.got - 2010.06.03 14:20:14.
