data_PCOD9443601
_publ_section_title
;
Structure prediction by ZEFSAII (Michael W. Deem and Ramdas Pophale) SiO2 
 PCOD9443601
Probable space group: P N N M
;
_chemical_formula_sum "Si O2"
_cell_formula_units_Z 58
_cell_length_a 8.726854
_cell_length_b 26.417336
_cell_length_c 12.896615
_cell_angle_alpha 90.000000
_cell_angle_beta 90.000000
_cell_angle_gamma 90.000000
_cell_volume 2973.188644
_symmetry_space_group_name_H-M "P N N M"
_symmetry_group_IT_number 58
_symmetry_cell_setting 'orthorhombic'
loop_
_space_group_symop_operation_xyz
x,y,z
-x,-y,z
1/2+x,1/2-y,1/2-z
1/2-x,1/2+y,1/2-z
-x,-y,-z
x,y,-z
1/2-x,1/2+y,1/2+z
1/2+x,1/2-y,1/2+z
loop_
_atom_site_type_symbol
_atom_site_label
_atom_site_fract_x
_atom_site_fract_y
_atom_site_fract_z
Si Si1 0.513923 0.076010 0.884667
Si Si2 0.872502 0.673944 0.704994
Si Si3 0.905300 0.354259 0.879984
Si Si4 0.778718 0.931722 0.236648
Si Si5 0.383627 0.715958 0.119453
Si Si6 0.000000 0.500000 0.000000
Si Si7 0.072150 0.871165 0.272185
Si Si8 0.784113 0.538394 0.811509
O O1 0.538416 0.136456 0.872399
O O2 0.337155 0.064717 0.859489
O O3 0.614541 0.052380 0.791089
O O4 0.558022 0.059710 0.000000
O O5 0.896316 0.732562 0.683092
O O6 0.695416 0.657593 0.701020
O O7 0.942970 0.659680 0.817156
O O8 0.818966 0.400525 0.823298
O O9 0.786573 0.307682 0.871997
O O10 0.931204 0.366424 0.000000
O O11 0.932271 0.900222 0.216620
O O12 0.805469 0.987158 0.282228
O O13 0.496676 0.671611 0.156304
O O14 0.413087 0.727913 0.000000
O O15 0.892717 0.526357 0.091995
O O16 0.168291 0.915222 0.329124
#
# Coordination Sequence:
#
# PCOD9443601 Si02
#       8
#     8   8   8   8   8   2   8   8
#     4  10  21  40  64  92 119 165 210 249 301 365
#     4  10  20  37  61  85 117 157 198 258 304 374
#     4   9  20  35  57  80 112 154 201 243 304 371
#     4  10  20  38  57  87 123 158 199 253 303 357
#     4  10  20  37  57  84 115 156 198 257 315 365
#     4  12  24  40  64  96 128 176 218 238 320 380
#     4  10  23  38  58  90 127 152 206 256 314 368
#     4  11  23  39  63  92 128 170 206 258 297 382
#
# _framework density 19.507677000000001
#
# number of rings (size 3 to 8) (size 9 to 14) (size 15 to 20)
#    0.000    1.931    1.379    1.655    1.931    1.655 
#    0.000    4.138    0.000   10.759    0.000    0.000 
#    0.000    0.000    0.000    0.000    0.000    0.000 
#
# Total GULP energy -323187.461357 kJ/mol
# GULP energy per Si atom -5572.197610 kJ/mol
# Density = 1.946328 g / cm^3
# Si number density = 19.507677 Si / 1000 Ang^3
#
#
#
# Elastic Constant Matrix: (Units=GPa)
#
#
# Indices 1 2 3 4 5 6 
#
# 1 99.0713 40.2311 25.1754 0.0000 0.0000 0.0000
# 2 40.2311 119.0563 22.4635 0.0000 0.0000 0.0000
# 3 25.1754 22.4635 101.2224 0.0000 0.0000 0.0000
# 4 0.0000 0.0000 0.0000 12.3105 0.0000 0.0000
# 5 0.0000 0.0000 0.0000 0.0000 11.6241 0.0000
# 6 0.0000 0.0000 0.0000 0.0000 0.0000 25.1006
#
#
#
# Elastic Compliance Matrix: (Units=1/GPa)
#
#
# Indices 1 2 3 4 5 6 
#
# 1 0.012152 -0.003691 -0.002203 0.000000 0.000000 0.000000
# 2 -0.003691 0.009887 -0.001276 0.000000 0.000000 0.000000
# 3 -0.002203 -0.001276 0.010710 0.000000 0.000000 0.000000
# 4 0.000000 0.000000 0.000000 0.081231 0.000000 0.000000
# 5 0.000000 0.000000 0.000000 0.000000 0.086028 0.000000
# 6 0.000000 0.000000 0.000000 0.000000 0.000000 0.039840
#
#
# Mechanical properties :
#
#
# Convention : Reuss Voigt Hill
#
# Bulk Modulus (GPa) = 54.32021 55.01001 54.66511
# Shear Modulus (GPa) = 19.20660 25.23902 22.22281
#
# Velocity S-wave (km/s) = 3.14118 3.60084 3.37884
# Velocity P-wave (km/s) = 6.40797 6.74896 6.58067
#
# Compressibility (1/GPa) = 0.01840935
#
# Stress axis : x y z
#
# Youngs Moduli (GPa) = 82.28822 101.13911 93.36638
#
# Poissons Ratio (x) = 0.37328 0.20572
# Poissons Ratio (y) = 0.30371 0.11916
# Poissons Ratio (z) = 0.18131 0.12908
#
# Static dielectric constant tensor:
#      x y z
#    x 1.705680 0.000000 0.000000 
#    y 0.000000 1.726440 0.000000 
#    z 0.000000 0.000000 1.659860 
# 
# From -- ./inp_files/13310.got.cif
#   From: 2010.05.17/outbox.cif.g08.bks.cpg/sg58_7_cif.got.tgz:13310.got - 2010.06.03 14:20:14.
