data_PCOD9443515
_publ_section_title
;
Structure prediction by ZEFSAII (Michael W. Deem and Ramdas Pophale) SiO2 
 PCOD9443515
Probable space group: P N N M
;
_chemical_formula_sum "Si O2"
_cell_formula_units_Z 48
_cell_length_a 11.745140
_cell_length_b 10.148713
_cell_length_c 18.291845
_cell_angle_alpha 90.000000
_cell_angle_beta 90.000000
_cell_angle_gamma 90.000000
_cell_volume 2180.352346
_symmetry_space_group_name_H-M "P N N M"
_symmetry_group_IT_number 58
_symmetry_cell_setting 'orthorhombic'
loop_
_space_group_symop_operation_xyz
x,y,z
-x,-y,z
1/2+x,1/2-y,1/2-z
1/2-x,1/2+y,1/2-z
-x,-y,-z
x,y,-z
1/2-x,1/2+y,1/2+z
1/2+x,1/2-y,1/2+z
loop_
_atom_site_type_symbol
_atom_site_label
_atom_site_fract_x
_atom_site_fract_y
_atom_site_fract_z
Si Si1 0.584031 0.384748 0.083845
Si Si2 0.102998 0.583506 0.317678
Si Si3 0.161830 0.497446 0.083676
Si Si4 0.177853 0.211929 0.154972
Si Si5 0.433617 0.239164 0.669226
Si Si6 0.812066 0.688852 0.311044
O O1 0.500000 0.500000 0.112185
O O2 0.711150 0.442086 0.083850
O O3 0.599576 0.253777 0.131985
O O4 0.549176 0.355644 0.000000
O O5 0.203397 0.643106 0.368153
O O6 0.062165 0.684123 0.253647
O O7 0.161791 0.455681 0.280588
O O8 0.000000 0.500000 0.354218
O O9 0.174965 0.358602 0.123282
O O10 0.082205 0.606712 0.121503
O O11 0.128361 0.476075 0.000000
O O12 0.192608 0.214010 0.242465
O O13 0.044216 0.176406 0.146981
O O14 0.315897 0.316297 0.658156
#
# Coordination Sequence:
#
# PCOD9443515 Si02
#       6
#     8   8   8   8   8   8
#     4   9  20  37  59  87 118 156 203 251 302 360
#     4  11  21  37  56  85 122 157 193 246 301 358
#     4  10  20  36  60  88 117 151 199 259 310 352
#     4  11  22  35  56  85 119 157 199 244 299 365
#     4  10  20  38  57  85 120 150 204 252 298 360
#     4  10  21  36  58  84 118 160 193 252 303 355
#
# _framework density 22.014790000000001
#
# number of rings (size 3 to 8) (size 9 to 14) (size 15 to 20)
#    0.000    1.833    3.333    0.500    2.333    2.000 
#    0.000    0.833    0.000    1.000    0.000    5.833 
#    0.000    0.000    0.000    0.000    0.000    0.000 
#
# Total GULP energy -267221.536708 kJ/mol
# GULP energy per Si atom -5567.115348 kJ/mol
# Density = 2.196468 g / cm^3
# Si number density = 22.014790 Si / 1000 Ang^3
#
#
#
# Elastic Constant Matrix: (Units=GPa)
#
#
# Indices 1 2 3 4 5 6 
#
# 1 142.7781 38.0172 18.4308 0.0000 0.0000 0.0000
# 2 38.0172 46.5916 7.1520 0.0000 0.0000 0.0000
# 3 18.4308 7.1520 51.5207 0.0000 0.0000 0.0000
# 4 0.0000 0.0000 0.0000 23.0230 0.0000 0.0000
# 5 0.0000 0.0000 0.0000 0.0000 21.8986 0.0000
# 6 0.0000 0.0000 0.0000 0.0000 0.0000 50.4503
#
#
#
# Elastic Compliance Matrix: (Units=1/GPa)
#
#
# Indices 1 2 3 4 5 6 
#
# 1 0.009207 -0.007160 -0.002300 0.000000 0.000000 0.000000
# 2 -0.007160 0.027498 -0.001256 0.000000 0.000000 0.000000
# 3 -0.002300 -0.001256 0.020407 0.000000 0.000000 0.000000
# 4 0.000000 0.000000 0.000000 0.043435 0.000000 0.000000
# 5 0.000000 0.000000 0.000000 0.000000 0.045665 0.000000
# 6 0.000000 0.000000 0.000000 0.000000 0.000000 0.019821
#
#
# Mechanical properties :
#
#
# Convention : Reuss Voigt Hill
#
# Bulk Modulus (GPa) = 28.02613 40.89890 34.46252
# Shear Modulus (GPa) = 25.08054 30.89374 27.98714
#
# Velocity S-wave (km/s) = 3.37895 3.75015 3.56938
# Velocity P-wave (km/s) = 5.28974 6.11308 5.71625
#
# Compressibility (1/GPa) = 0.03568098
#
# Stress axis : x y z
#
# Youngs Moduli (GPa) = 108.61128 36.36634 49.00337
#
# Poissons Ratio (x) = 0.26037 0.11270
# Poissons Ratio (y) = 0.77762 0.06154
# Poissons Ratio (z) = 0.24979 0.04567
#
# Static dielectric constant tensor:
#      x y z
#    x 2.026860 0.000000 0.000000 
#    y 0.000000 1.840310 0.000000 
#    z 0.000000 0.000000 1.782820 
# 
# From -- ./inp_files/26136.got.cif
#   From: 2010.05.17/outbox.cif.g08.bks.cpg/sg58_14_cif.got.tgz:26136.got - 2010.06.03 14:20:14.
