data_PCOD9443984
_publ_section_title
;
Structure prediction by ZEFSAII (Michael W. Deem and Ramdas Pophale) SiO2 
 PCOD9443984
Probable space group: P N N M
;
_chemical_formula_sum "Si O2"
_cell_formula_units_Z 64
_cell_length_a 10.286367
_cell_length_b 10.965056
_cell_length_c 27.318768
_cell_angle_alpha 90.000000
_cell_angle_beta 90.000000
_cell_angle_gamma 90.000000
_cell_volume 3081.299966
_symmetry_space_group_name_H-M "P N N M"
_symmetry_group_IT_number 58
_symmetry_cell_setting 'orthorhombic'
loop_
_space_group_symop_operation_xyz
x,y,z
-x,-y,z
1/2+x,1/2-y,1/2-z
1/2-x,1/2+y,1/2-z
-x,-y,-z
x,y,-z
1/2-x,1/2+y,1/2+z
1/2+x,1/2-y,1/2+z
loop_
_atom_site_type_symbol
_atom_site_label
_atom_site_fract_x
_atom_site_fract_y
_atom_site_fract_z
Si Si1 0.677085 0.160759 0.679143
Si Si2 0.693206 0.716152 0.558847
Si Si3 0.346975 0.008964 0.588834
Si Si4 0.382371 0.903242 0.788891
Si Si5 0.553935 0.770828 0.143041
Si Si6 0.698054 0.997149 0.113750
Si Si7 0.453796 0.628948 0.622597
Si Si8 0.092143 0.883835 0.551632
O O1 0.667657 0.128602 0.735743
O O2 0.815561 0.223593 0.669016
O O3 0.572029 0.260547 0.659944
O O4 0.660693 0.042249 0.644384
O O5 0.695224 0.718925 0.500000
O O6 0.702244 0.853684 0.579547
O O7 0.795375 0.617130 0.580335
O O8 0.556920 0.668557 0.581760
O O9 0.500000 0.000000 0.573591
O O10 0.242063 0.923118 0.561124
O O11 0.443022 0.787158 0.816994
O O12 0.500000 0.000000 0.782385
O O13 0.285575 0.958733 0.829523
O O14 0.580620 0.902587 0.118777
O O15 0.534452 0.683779 0.097924
O O16 0.816748 0.908804 0.098723
O O17 0.500000 0.500000 0.645068
O O18 0.085018 0.814853 0.500000
O O19 0.000000 0.000000 0.547598
#
# Coordination Sequence:
#
# PCOD9443984 Si02
#       8
#     8   8   8   8   8   8   8   8
#     4  10  20  40  62  90 124 168 204 264 334 386
#     4  11  23  37  62  94 130 167 207 269 330 383
#     4  11  22  41  63  99 132 162 216 266 321 402
#     4  10  21  39  64  87 119 166 212 265 319 383
#     4   9  21  41  61  89 123 163 219 264 318 394
#     4   9  21  40  56  85 122 163 210 265 309 381
#     4   9  19  37  56  85 125 153 200 257 312 382
#     4  10  23  42  64  90 131 176 214 264 324 385
#
# _framework density 20.770454000000001
#
# number of rings (size 3 to 8) (size 9 to 14) (size 15 to 20)
#    0.000    2.125    1.250    0.750    1.750    5.750 
#    4.500    0.625    0.000    2.250    0.000    0.000 
#    0.000    0.000    0.000    0.000    0.000    0.000 
#
# Total GULP energy -356776.030198 kJ/mol
# GULP energy per Si atom -5574.625472 kJ/mol
# Density = 2.072318 g / cm^3
# Si number density = 20.770454 Si / 1000 Ang^3
#
#
#
# Elastic Constant Matrix: (Units=GPa)
#
#
# Indices 1 2 3 4 5 6 
#
# 1 63.8591 6.2578 28.1341 0.0000 0.0000 0.0000
# 2 6.2578 108.6831 69.0442 0.0000 0.0000 0.0000
# 3 28.1341 69.0442 164.5442 0.0000 0.0000 0.0000
# 4 0.0000 0.0000 0.0000 3.6970 0.0000 0.0000
# 5 0.0000 0.0000 0.0000 0.0000 395.3573 0.0000
# 6 0.0000 0.0000 0.0000 0.0000 0.0000 26.9081
#
#
#
# Elastic Compliance Matrix: (Units=1/GPa)
#
#
# Indices 1 2 3 4 5 6 
#
# 1 0.017047 0.001186 -0.003412 0.000000 0.000000 0.000000
# 2 0.001186 0.012628 -0.005502 0.000000 0.000000 0.000000
# 3 -0.003412 -0.005502 0.008969 0.000000 0.000000 0.000000
# 4 0.000000 0.000000 0.000000 0.270489 0.000000 0.000000
# 5 0.000000 0.000000 0.000000 0.000000 0.002529 0.000000
# 6 0.000000 0.000000 0.000000 0.000000 0.000000 0.037164
#
#
# Mechanical properties :
#
#
# Convention : Reuss Voigt Hill
#
# Bulk Modulus (GPa) = 43.12498 60.43984 51.78241
# Shear Modulus (GPa) = 13.44047 100.76917 57.10482
#
# Velocity S-wave (km/s) = 2.54657 6.97287 5.24909
# Velocity P-wave (km/s) = 5.42719 9.69485 7.85635
#
# Compressibility (1/GPa) = 0.02318842
#
# Stress axis : x y z
#
# Youngs Moduli (GPa) = 58.66262 79.19043 111.49043
#
# Poissons Ratio (x) = -0.09395 0.38046
# Poissons Ratio (y) = -0.06960 0.61337
# Poissons Ratio (z) = 0.20019 0.43567
#
# Static dielectric constant tensor:
#      x y z
#    x 1.829890 0.000000 0.000000 
#    y 0.000000 1.778050 0.000000 
#    z 0.000000 0.000000 1.703680 
# 
# From -- ./inp_files/33626.got.cif
#   From: 2010.05.17/outbox.cif.g08.bks.cpg/sg58_17_cif.got.tgz:33626.got - 2010.06.03 14:20:14.
