data_PCOD9443916
_publ_section_title
;
Structure prediction by ZEFSAII (Michael W. Deem and Ramdas Pophale) SiO2 
 PCOD9443916
Probable space group: P N N M
;
_chemical_formula_sum "Si O2"
_cell_formula_units_Z 36
_cell_length_a 14.030308
_cell_length_b 8.090248
_cell_length_c 15.307250
_cell_angle_alpha 90.000000
_cell_angle_beta 90.000000
_cell_angle_gamma 90.000000
_cell_volume 1737.505608
_symmetry_space_group_name_H-M "P N N M"
_symmetry_group_IT_number 58
_symmetry_cell_setting 'orthorhombic'
loop_
_space_group_symop_operation_xyz
x,y,z
-x,-y,z
1/2+x,1/2-y,1/2-z
1/2-x,1/2+y,1/2-z
-x,-y,-z
x,y,-z
1/2-x,1/2+y,1/2+z
1/2+x,1/2-y,1/2+z
loop_
_atom_site_type_symbol
_atom_site_label
_atom_site_fract_x
_atom_site_fract_y
_atom_site_fract_z
Si Si1 0.405004 0.377011 0.500000
Si Si2 0.441882 0.172070 0.329223
Si Si3 0.789755 0.791486 0.000000
Si Si4 0.362233 0.700520 0.684502
Si Si5 0.811603 0.512539 0.308075
Si Si6 0.612762 0.967152 0.000000
O O1 0.500000 0.500000 0.500000
O O2 0.400875 0.255993 0.416446
O O3 0.323141 0.515314 0.500000
O O4 0.525281 0.301114 0.303725
O O5 0.371373 0.121245 0.250399
O O6 0.500000 0.000000 0.347814
O O7 0.835111 0.724322 0.088840
O O8 0.674661 0.793237 0.000000
O O9 0.298703 0.538258 0.689455
O O10 0.323473 0.819086 0.758088
O O11 0.853872 0.530289 0.404866
O O12 0.500000 0.000000 0.000000
#
# Coordination Sequence:
#
# PCOD9443916 Si02
#       6
#     4   8   4   8   8   4
#     4  12  21  34  61  94 117 153 187 241 311 370
#     4  10  21  37  57  87 123 155 191 245 303 364
#     4  10  22  36  59  88 122 147 190 252 298 354
#     4  10  20  39  55  85 117 152 193 242 298 350
#     4  10  23  36  62  85 118 158 198 247 292 355
#     4  10  20  40  59  80 111 160 207 234 285 347
#
# _framework density 20.719358
#
# number of rings (size 3 to 8) (size 9 to 14) (size 15 to 20)
#    0.000    1.778    2.222    2.333    6.222    2.667 
#    0.000    1.111    0.000    0.000    0.000    8.556 
#    0.000    0.000    0.000    0.000    0.000    0.000 
#
# Total GULP energy -200480.874336 kJ/mol
# GULP energy per Si atom -5568.913176 kJ/mol
# Density = 2.067220 g / cm^3
# Si number density = 20.719358 Si / 1000 Ang^3
#
#
#
# Elastic Constant Matrix: (Units=GPa)
#
#
# Indices 1 2 3 4 5 6 
#
# 1 93.9380 20.4295 9.8312 0.0000 0.0000 0.0000
# 2 20.4295 49.8412 45.6196 0.0000 0.0000 0.0000
# 3 9.8312 45.6196 155.4348 0.0000 0.0000 0.0000
# 4 0.0000 0.0000 0.0000 39.6772 0.0000 0.0000
# 5 0.0000 0.0000 0.0000 0.0000 9.7215 0.0000
# 6 0.0000 0.0000 0.0000 0.0000 0.0000 40.7101
#
#
#
# Elastic Compliance Matrix: (Units=1/GPa)
#
#
# Indices 1 2 3 4 5 6 
#
# 1 0.011782 -0.005671 0.000919 0.000000 0.000000 0.000000
# 2 -0.005671 0.030163 -0.008494 0.000000 0.000000 0.000000
# 3 0.000919 -0.008494 0.008868 0.000000 0.000000 0.000000
# 4 0.000000 0.000000 0.000000 0.025203 0.000000 0.000000
# 5 0.000000 0.000000 0.000000 0.000000 0.102865 0.000000
# 6 0.000000 0.000000 0.000000 0.000000 0.000000 0.024564
#
#
# Mechanical properties :
#
#
# Convention : Reuss Voigt Hill
#
# Bulk Modulus (GPa) = 41.11471 50.10829 45.61150
# Shear Modulus (GPa) = 21.00450 32.91067 26.95758
#
# Velocity S-wave (km/s) = 3.18742 3.98980 3.61096
# Velocity P-wave (km/s) = 5.78212 6.74251 6.28070
#
# Compressibility (1/GPa) = 0.02432220
#
# Stress axis : x y z
#
# Youngs Moduli (GPa) = 84.87237 33.15356 112.76008
#
# Poissons Ratio (x) = 0.18801 -0.10364
# Poissons Ratio (y) = 0.48129 0.95778
# Poissons Ratio (z) = -0.07801 0.28161
#
# Static dielectric constant tensor:
#      x y z
#    x 1.852890 0.000000 0.000000 
#    y 0.000000 1.764550 0.000000 
#    z 0.000000 0.000000 1.772490 
# 
# From -- ./inp_files/21849.got.cif
#   From: 2010.05.17/outbox.cif.g08.bks.cpg/sg58_11_cif.got.tgz:21849.got - 2010.06.03 14:20:14.
