data_PCOD9443312
_publ_section_title
;
Structure prediction by ZEFSAII (Michael W. Deem and Ramdas Pophale) SiO2 
 PCOD9443312
Probable space group: P N N M
;
_chemical_formula_sum "Si O2"
_cell_formula_units_Z 64
_cell_length_a 14.273668
_cell_length_b 25.180370
_cell_length_c 8.892525
_cell_angle_alpha 90.000000
_cell_angle_beta 90.000000
_cell_angle_gamma 90.000000
_cell_volume 3196.117913
_symmetry_space_group_name_H-M "P N N M"
_symmetry_group_IT_number 58
_symmetry_cell_setting 'orthorhombic'
loop_
_space_group_symop_operation_xyz
x,y,z
-x,-y,z
1/2+x,1/2-y,1/2-z
1/2-x,1/2+y,1/2-z
-x,-y,-z
x,y,-z
1/2-x,1/2+y,1/2+z
1/2+x,1/2-y,1/2+z
loop_
_atom_site_type_symbol
_atom_site_label
_atom_site_fract_x
_atom_site_fract_y
_atom_site_fract_z
Si Si1 0.955317 0.216887 0.174487
Si Si2 0.155326 0.059663 0.322325
Si Si3 0.739531 0.335610 0.323148
Si Si4 0.036257 0.671494 0.324012
Si Si5 0.868963 0.621584 0.821242
Si Si6 0.720625 0.548548 0.678873
Si Si7 0.042660 0.894408 0.678269
Si Si8 0.728633 0.223962 0.824861
O O1 0.986691 0.270217 0.258220
O O2 0.984904 0.162827 0.255277
O O3 0.841539 0.217614 0.179770
O O4 0.984141 0.217726 0.000000
O O5 0.171209 0.052039 0.500000
O O6 0.198741 0.114850 0.266502
O O7 0.043726 0.065582 0.298662
O O8 0.198582 0.010891 0.231951
O O9 0.716435 0.339044 0.500000
O O10 0.706063 0.279532 0.255591
O O11 0.852563 0.336475 0.307809
O O12 0.013171 0.669337 0.500000
O O13 0.975008 0.628786 0.234998
O O14 0.815020 0.571793 0.750776
O O15 0.816386 0.673987 0.758226
O O16 0.863582 0.620164 0.000000
O O17 0.725012 0.552485 0.500000
O O18 0.634877 0.584294 0.740213
O O19 0.060307 0.889665 0.500000
O O20 0.700795 0.225060 0.000000
#
# Coordination Sequence:
#
# PCOD9443312 Si02
#       8
#     8   8   8   8   8   8   8   8
#     4  10  20  35  58  89 125 164 205 249 303 365
#     4  11  25  43  64  90 123 165 209 258 311 370
#     4  10  22  41  64  91 124 163 207 258 311 366
#     4  10  22  40  62  89 127 165 205 257 314 370
#     4  12  24  39  63  92 124 163 208 256 311 374
#     4  12  25  43  65  91 124 162 208 261 312 370
#     4  11  23  39  61  90 126 166 207 252 309 370
#     4  10  20  36  59  88 124 162 201 250 307 365
#
# _framework density 20.024293
#
# number of rings (size 3 to 8) (size 9 to 14) (size 15 to 20)
#    0.000    1.250    1.250    4.875    1.750    6.000 
#    0.000    0.625    0.000    3.750    0.000    0.000 
#    0.000    0.000    0.000    0.000    0.000    0.000 
#
# Total GULP energy -358216.773831 kJ/mol
# GULP energy per Si atom -5597.137091 kJ/mol
# Density = 1.997872 g / cm^3
# Si number density = 20.024293 Si / 1000 Ang^3
#
#
#
# Elastic Constant Matrix: (Units=GPa)
#
#
# Indices 1 2 3 4 5 6 
#
# 1 35.3752 -5.0262 12.7679 0.0000 0.0000 0.0000
# 2 -5.0262 53.0949 4.8249 0.0000 0.0000 0.0000
# 3 12.7679 4.8249 119.3324 0.0000 0.0000 0.0000
# 4 0.0000 0.0000 0.0000 38.0619 0.0000 0.0000
# 5 0.0000 0.0000 0.0000 0.0000 29.9666 0.0000
# 6 0.0000 0.0000 0.0000 0.0000 0.0000 25.1671
#
#
#
# Elastic Compliance Matrix: (Units=1/GPa)
#
#
# Indices 1 2 3 4 5 6 
#
# 1 0.029915 0.003134 -0.003327 0.000000 0.000000 0.000000
# 2 0.003134 0.019232 -0.001113 0.000000 0.000000 0.000000
# 3 -0.003327 -0.001113 0.008781 0.000000 0.000000 0.000000
# 4 0.000000 0.000000 0.000000 0.026273 0.000000 0.000000
# 5 0.000000 0.000000 0.000000 0.000000 0.033371 0.000000
# 6 0.000000 0.000000 0.000000 0.000000 0.000000 0.039734
#
#
# Mechanical properties :
#
#
# Convention : Reuss Voigt Hill
#
# Bulk Modulus (GPa) = 18.07818 25.88175 21.97996
# Shear Modulus (GPa) = 28.03378 31.65485 29.84432
#
# Velocity S-wave (km/s) = 3.74570 3.98027 3.86477
# Velocity P-wave (km/s) = 5.26828 5.83752 5.56019
#
# Compressibility (1/GPa) = 0.05531532
#
# Stress axis : x y z
#
# Youngs Moduli (GPa) = 33.42844 51.99661 113.88265
#
# Poissons Ratio (x) = -0.16297 0.37894
# Poissons Ratio (y) = -0.10477 0.12674
# Poissons Ratio (z) = 0.11123 0.05787
#
# Static dielectric constant tensor:
#      x y z
#    x 1.741070 0.000000 0.000000 
#    y 0.000000 1.671580 0.000000 
#    z 0.000000 0.000000 1.662380 
# 
# From -- ./inp_files/6838.got.cif
#   From: 2010.05.17/outbox.cif.g08.bks.cpg/sg58_4_cif.got.tgz:6838.got - 2010.06.03 14:20:14.
