data_PCOD9443543
_publ_section_title
;
Structure prediction by ZEFSAII (Michael W. Deem and Ramdas Pophale) SiO2 
 PCOD9443543
Probable space group: P N N M
;
_chemical_formula_sum "Si O2"
_cell_formula_units_Z 56
_cell_length_a 19.353250
_cell_length_b 11.392165
_cell_length_c 12.681507
_cell_angle_alpha 90.000000
_cell_angle_beta 90.000000
_cell_angle_gamma 90.000000
_cell_volume 2795.960548
_symmetry_space_group_name_H-M "P N N M"
_symmetry_group_IT_number 58
_symmetry_cell_setting 'orthorhombic'
loop_
_space_group_symop_operation_xyz
x,y,z
-x,-y,z
1/2+x,1/2-y,1/2-z
1/2-x,1/2+y,1/2-z
-x,-y,-z
x,y,-z
1/2-x,1/2+y,1/2+z
1/2+x,1/2-y,1/2+z
loop_
_atom_site_type_symbol
_atom_site_label
_atom_site_fract_x
_atom_site_fract_y
_atom_site_fract_z
Si Si1 0.678005 0.779198 0.809064
Si Si2 0.538107 0.879819 0.876677
Si Si3 0.882043 0.051320 0.283071
Si Si4 0.221958 0.279902 0.620940
Si Si5 0.012991 0.861205 0.117457
Si Si6 0.278036 0.535141 0.612910
Si Si7 0.072924 0.193144 0.306159
O O1 0.607881 0.854530 0.812776
O O2 0.658108 0.648679 0.849785
O O3 0.716218 0.764650 0.696131
O O4 0.733649 0.848458 0.877842
O O5 0.484727 0.771737 0.863510
O O6 0.500000 0.000000 0.844457
O O7 0.556976 0.890691 0.000000
O O8 0.924507 0.133271 0.200987
O O9 0.829019 0.979875 0.210005
O O10 0.925493 0.946332 0.334926
O O11 0.228469 0.237999 0.500000
O O12 0.229114 0.420958 0.618550
O O13 0.147656 0.244255 0.666205
O O14 0.949876 0.804700 0.182622
O O15 0.025293 0.813281 0.000000
O O16 0.000000 0.000000 0.106350
O O17 0.315809 0.529527 0.500000
#
# Coordination Sequence:
#
# PCOD9443543 Si02
#       7
#     8   8   8   8   8   8   8
#     4  11  21  39  61  92 123 152 207 260 302 357
#     4  11  24  42  66  91 120 165 215 258 305 366
#     4  10  20  36  61  89 123 159 196 250 313 368
#     4  10  22  40  64  88 118 167 211 248 302 376
#     4   9  18  33  58  88 118 151 198 249 299 359
#     4  10  20  37  63  87 116 158 208 254 299 354
#     4  11  20  39  62  92 127 158 204 251 311 367
#
# _framework density 20.028896
#
# number of rings (size 3 to 8) (size 9 to 14) (size 15 to 20)
#    0.000    1.714    2.857    2.143    0.000    3.429 
#    0.000    3.571    0.000    4.286    0.000    0.000 
#    0.000    0.000    0.000    0.000    0.000    0.000 
#
# Total GULP energy -312096.572835 kJ/mol
# GULP energy per Si atom -5573.153086 kJ/mol
# Density = 1.998331 g / cm^3
# Si number density = 20.028896 Si / 1000 Ang^3
#
#
#
# Elastic Constant Matrix: (Units=GPa)
#
#
# Indices 1 2 3 4 5 6 
#
# 1 100.4875 26.9535 18.3287 0.0000 0.0000 0.0000
# 2 26.9535 72.2423 28.6235 0.0000 0.0000 0.0000
# 3 18.3287 28.6235 57.8494 0.0000 0.0000 0.0000
# 4 0.0000 0.0000 0.0000 22.6917 0.0000 0.0000
# 5 0.0000 0.0000 0.0000 0.0000 8.0586 0.0000
# 6 0.0000 0.0000 0.0000 0.0000 0.0000 39.5445
#
#
#
# Elastic Compliance Matrix: (Units=1/GPa)
#
#
# Indices 1 2 3 4 5 6 
#
# 1 0.011214 -0.003453 -0.001844 0.000000 0.000000 0.000000
# 2 -0.003453 0.018281 -0.007951 0.000000 0.000000 0.000000
# 3 -0.001844 -0.007951 0.021805 0.000000 0.000000 0.000000
# 4 0.000000 0.000000 0.000000 0.044069 0.000000 0.000000
# 5 0.000000 0.000000 0.000000 0.000000 0.124091 0.000000
# 6 0.000000 0.000000 0.000000 0.000000 0.000000 0.025288
#
#
# Mechanical properties :
#
#
# Convention : Reuss Voigt Hill
#
# Bulk Modulus (GPa) = 40.31875 42.04340 41.18108
# Shear Modulus (GPa) = 17.88823 24.50386 21.19605
#
# Velocity S-wave (km/s) = 2.99176 3.50154 3.25664
# Velocity P-wave (km/s) = 5.66640 6.11430 5.89461
#
# Compressibility (1/GPa) = 0.02480236
#
# Stress axis : x y z
#
# Youngs Moduli (GPa) = 89.17309 54.70129 45.86129
#
# Poissons Ratio (x) = 0.18889 0.08459
# Poissons Ratio (y) = 0.30793 0.36466
# Poissons Ratio (z) = 0.16447 0.43494
#
# Static dielectric constant tensor:
#      x y z
#    x 1.761110 0.000000 0.000000 
#    y 0.000000 1.731400 0.000000 
#    z 0.000000 0.000000 1.741320 
# 
# From -- ./inp_files/17049.got.cif
#   From: 2010.05.17/outbox.cif.g08.bks.cpg/sg58_9_cif.got.tgz:17049.got - 2010.06.03 14:20:14.
