data_PCOD9443129
_publ_section_title
;
Structure prediction by ZEFSAII (Michael W. Deem and Ramdas Pophale) SiO2 
 PCOD9443129
Probable space group: P N N M
;
_chemical_formula_sum "Si O2"
_cell_formula_units_Z 56
_cell_length_a 7.198432
_cell_length_b 16.095022
_cell_length_c 22.143298
_cell_angle_alpha 90.000000
_cell_angle_beta 90.000000
_cell_angle_gamma 90.000000
_cell_volume 2565.498623
_symmetry_space_group_name_H-M "P N N M"
_symmetry_group_IT_number 58
_symmetry_cell_setting 'orthorhombic'
loop_
_space_group_symop_operation_xyz
x,y,z
-x,-y,z
1/2+x,1/2-y,1/2-z
1/2-x,1/2+y,1/2-z
-x,-y,-z
x,y,-z
1/2-x,1/2+y,1/2+z
1/2+x,1/2-y,1/2+z
loop_
_atom_site_type_symbol
_atom_site_label
_atom_site_fract_x
_atom_site_fract_y
_atom_site_fract_z
Si Si1 0.064007 0.229783 0.930155
Si Si2 0.579730 0.590597 0.099281
Si Si3 0.465149 0.162064 0.809905
Si Si4 0.484938 0.762468 0.932314
Si Si5 0.921912 0.908522 0.832994
Si Si6 0.016360 0.409631 0.067178
Si Si7 0.320200 0.342179 0.771482
O O1 0.289214 0.233163 0.930421
O O2 0.023754 0.152416 0.887824
O O3 0.979595 0.317545 0.906252
O O4 0.007149 0.221035 0.000000
O O5 0.500000 0.500000 0.093580
O O6 0.444404 0.665385 0.080268
O O7 0.762920 0.595832 0.060061
O O8 0.649505 0.607753 0.167069
O O9 0.567350 0.183779 0.873671
O O10 0.301121 0.096022 0.822091
O O11 0.356854 0.245973 0.788815
O O12 0.621264 0.143914 0.760056
O O13 0.425823 0.786672 0.000000
O O14 0.022206 0.871825 0.774315
O O15 0.000000 0.000000 0.843588
O O16 0.000000 0.500000 0.098654
O O17 0.929181 0.415095 0.000000
#
# Coordination Sequence:
#
# PCOD9443129 Si02
#       7
#     8   8   8   8   8   8   8
#     4   8  16  35  61  85 118 161 205 259 317 372
#     4  10  20  35  52  83 122 159 199 244 308 378
#     4  10  21  40  66  86 123 166 206 264 319 370
#     4   8  16  33  59  87 115 157 204 248 312 377
#     4  11  23  40  62  91 125 163 213 261 312 384
#     4   9  18  35  58  87 120 158 203 251 310 376
#     4  11  22  41  61  88 117 163 216 258 314 376
#
# _framework density 21.828115
#
# number of rings (size 3 to 8) (size 9 to 14) (size 15 to 20)
#    0.000    2.429    1.429    2.571    0.000    2.000 
#   10.286    0.714    0.000    0.000    0.000    5.000 
#    0.000    0.000    0.000    0.000    0.000    0.000 
#
# Total GULP energy -312371.635997 kJ/mol
# GULP energy per Si atom -5578.064929 kJ/mol
# Density = 2.177843 g / cm^3
# Si number density = 21.828115 Si / 1000 Ang^3
#
#
#
# Elastic Constant Matrix: (Units=GPa)
#
#
# Indices 1 2 3 4 5 6 
#
# 1 77.7571 5.3552 12.8497 0.0000 0.0000 0.0000
# 2 5.3552 91.2183 37.4054 0.0000 0.0000 0.0000
# 3 12.8497 37.4054 121.5909 0.0000 0.0000 0.0000
# 4 0.0000 0.0000 0.0000 25.2756 0.0000 0.0000
# 5 0.0000 0.0000 0.0000 0.0000 3.7450 0.0000
# 6 0.0000 0.0000 0.0000 0.0000 0.0000 19.1714
#
#
#
# Elastic Compliance Matrix: (Units=1/GPa)
#
#
# Indices 1 2 3 4 5 6 
#
# 1 0.013093 -0.000230 -0.001313 0.000000 0.000000 0.000000
# 2 -0.000230 0.012549 -0.003836 0.000000 0.000000 0.000000
# 3 -0.001313 -0.003836 0.009543 0.000000 0.000000 0.000000
# 4 0.000000 0.000000 0.000000 0.039564 0.000000 0.000000
# 5 0.000000 0.000000 0.000000 0.000000 0.267025 0.000000
# 6 0.000000 0.000000 0.000000 0.000000 0.000000 0.052161
#
#
# Mechanical properties :
#
#
# Convention : Reuss Voigt Hill
#
# Bulk Modulus (GPa) = 40.93822 44.64300 42.79061
# Shear Modulus (GPa) = 12.11132 25.30213 18.70673
#
# Velocity S-wave (km/s) = 2.35808 3.40833 2.93063
# Velocity P-wave (km/s) = 5.11953 5.99878 5.57651
#
# Compressibility (1/GPa) = 0.02442705
#
# Stress axis : x y z
#
# Youngs Moduli (GPa) = 76.37449 79.68545 104.78662
#
# Poissons Ratio (x) = 0.01835 0.13757
# Poissons Ratio (y) = 0.01759 0.40199
# Poissons Ratio (z) = 0.10027 0.30569
#
# Static dielectric constant tensor:
#      x y z
#    x 1.838800 0.000000 0.000000 
#    y 0.000000 1.859140 0.000000 
#    z 0.000000 0.000000 1.819870 
# 
# From -- ./inp_files/28976.got.cif
#   From: 2010.05.17/outbox.cif.g08.bks.cpg/sg58_15_cif.got.tgz:28976.got - 2010.06.03 14:20:14.
