data_PCOD9443438
_publ_section_title
;
Structure prediction by ZEFSAII (Michael W. Deem and Ramdas Pophale) SiO2 
 PCOD9443438
Probable space group: P N N M
;
_chemical_formula_sum "Si O2"
_cell_formula_units_Z 64
_cell_length_a 14.389971
_cell_length_b 25.235023
_cell_length_c 8.885725
_cell_angle_alpha 90.000000
_cell_angle_beta 90.000000
_cell_angle_gamma 90.000000
_cell_volume 3226.684419
_symmetry_space_group_name_H-M "P N N M"
_symmetry_group_IT_number 58
_symmetry_cell_setting 'orthorhombic'
loop_
_space_group_symop_operation_xyz
x,y,z
-x,-y,z
1/2+x,1/2-y,1/2-z
1/2-x,1/2+y,1/2-z
-x,-y,-z
x,y,-z
1/2-x,1/2+y,1/2+z
1/2+x,1/2-y,1/2+z
loop_
_atom_site_type_symbol
_atom_site_label
_atom_site_fract_x
_atom_site_fract_y
_atom_site_fract_z
Si Si1 0.548278 0.602648 0.324231
Si Si2 0.228923 0.277977 0.173975
Si Si3 0.948441 0.329143 0.680506
Si Si4 0.847299 0.935608 0.821564
Si Si5 0.453600 0.288837 0.827513
Si Si6 0.862734 0.619585 0.678954
Si Si7 0.253679 0.666932 0.178891
Si Si8 0.719094 0.544415 0.178434
O O1 0.574152 0.600715 0.500000
O O2 0.458557 0.565935 0.299919
O O3 0.521062 0.662305 0.277620
O O4 0.634733 0.583267 0.226265
O O5 0.341148 0.284180 0.175012
O O6 0.187062 0.326803 0.264935
O O7 0.208555 0.221180 0.247671
O O8 0.198656 0.279634 0.000000
O O9 0.928805 0.328469 0.500000
O O10 0.986190 0.269942 0.717050
O O11 0.853698 0.337926 0.769143
O O12 0.028383 0.371617 0.711205
O O13 0.806326 0.884089 0.741132
O O14 0.802849 0.988429 0.754824
O O15 0.829746 0.932397 0.000000
O O16 0.482878 0.299743 0.000000
O O17 0.850842 0.614520 0.500000
O O18 0.812986 0.571069 0.760724
O O19 0.260181 0.670397 0.000000
O O20 0.721949 0.539260 0.000000
#
# Coordination Sequence:
#
# PCOD9443438 Si02
#       8
#     8   8   8   8   8   8   8   8
#     4  11  23  38  60  90 122 160 204 250 304 365
#     4  10  20  36  58  87 124 163 199 246 303 359
#     4   9  21  40  61  88 125 164 202 250 308 363
#     4  11  25  44  64  88 120 161 207 259 309 364
#     4   9  18  34  56  85 122 160 196 241 297 358
#     4  11  22  38  63  93 123 162 207 253 305 365
#     4  11  23  40  63  91 123 161 205 254 307 366
#     4  12  25  42  63  90 124 163 204 254 307 364
#
# _framework density 19.834602
#
# number of rings (size 3 to 8) (size 9 to 14) (size 15 to 20)
#    0.000    1.500    1.250    4.875    1.750    6.500 
#    0.000    0.625    0.000    3.750    0.000    0.000 
#    0.000    0.000    0.000    0.000    0.000    0.000 
#
# Total GULP energy -357949.802125 kJ/mol
# GULP energy per Si atom -5592.965658 kJ/mol
# Density = 1.978946 g / cm^3
# Si number density = 19.834602 Si / 1000 Ang^3
#
#
#
# Elastic Constant Matrix: (Units=GPa)
#
#
# Indices 1 2 3 4 5 6 
#
# 1 32.3445 -1.1404 10.2476 0.0000 0.0000 0.0000
# 2 -1.1404 61.0557 6.9593 0.0000 0.0000 0.0000
# 3 10.2476 6.9593 59.4807 0.0000 0.0000 0.0000
# 4 0.0000 0.0000 0.0000 36.6432 0.0000 0.0000
# 5 0.0000 0.0000 0.0000 0.0000 -34.7801 0.0000
# 6 0.0000 0.0000 0.0000 0.0000 0.0000 30.4233
#
#
#
# Elastic Compliance Matrix: (Units=1/GPa)
#
#
# Indices 1 2 3 4 5 6 
#
# 1 0.032800 0.001274 -0.005800 0.000000 0.000000 0.000000
# 2 0.001274 0.016649 -0.002167 0.000000 0.000000 0.000000
# 3 -0.005800 -0.002167 0.018065 0.000000 0.000000 0.000000
# 4 0.000000 0.000000 0.000000 0.027290 0.000000 0.000000
# 5 0.000000 0.000000 0.000000 0.000000 -0.028752 0.000000
# 6 0.000000 0.000000 0.000000 0.000000 0.000000 0.032870
#
#
# Mechanical properties :
#
#
# Convention : Reuss Voigt Hill
#
# Bulk Modulus (GPa) = 18.47516 20.55710 19.51613
# Shear Modulus (GPa) = 38.35793 15.57822 26.96808
#
# Velocity S-wave (km/s) = 4.40237 2.80555 3.69134
# Velocity P-wave (km/s) = 5.93094 4.56964 5.29422
#
# Compressibility (1/GPa) = 0.05412673
#
# Stress axis : x y z
#
# Youngs Moduli (GPa) = 30.48817 60.06244 55.35563
#
# Poissons Ratio (x) = -0.07650 0.32106
# Poissons Ratio (y) = -0.03883 0.11998
# Poissons Ratio (z) = 0.17683 0.13018
#
# Static dielectric constant tensor:
#      x y z
#    x 1.718590 0.000000 0.000000 
#    y 0.000000 1.683380 0.000000 
#    z 0.000000 0.000000 1.659800 
# 
# From -- ./inp_files/6734.got.cif
#   From: 2010.05.17/outbox.cif.g08.bks.cpg/sg58_4_cif.got.tgz:6734.got - 2010.06.03 14:20:14.
