data_PCOD9443830
_publ_section_title
;
Structure prediction by ZEFSAII (Michael W. Deem and Ramdas Pophale) SiO2 
 PCOD9443830
Probable space group: P N N M
;
_chemical_formula_sum "Si O2"
_cell_formula_units_Z 64
_cell_length_a 19.749504
_cell_length_b 17.135521
_cell_length_c 7.802666
_cell_angle_alpha 90.000000
_cell_angle_beta 90.000000
_cell_angle_gamma 90.000000
_cell_volume 2640.562939
_symmetry_space_group_name_H-M "P N N M"
_symmetry_group_IT_number 58
_symmetry_cell_setting 'orthorhombic'
loop_
_space_group_symop_operation_xyz
x,y,z
-x,-y,z
1/2+x,1/2-y,1/2-z
1/2-x,1/2+y,1/2-z
-x,-y,-z
x,y,-z
1/2-x,1/2+y,1/2+z
1/2+x,1/2-y,1/2+z
loop_
_atom_site_type_symbol
_atom_site_label
_atom_site_fract_x
_atom_site_fract_y
_atom_site_fract_z
Si Si1 0.329739 0.753851 0.201526
Si Si2 0.901713 0.904193 0.197633
Si Si3 0.913676 0.594595 0.710059
Si Si4 0.341543 0.431717 0.706377
Si Si5 0.706950 0.995407 0.792831
Si Si6 0.965603 0.160172 0.299350
Si Si7 0.955008 0.331636 0.704003
Si Si8 0.699779 0.825938 0.698214
O O1 0.372314 0.673782 0.216700
O O2 0.373109 0.827093 0.265241
O O3 0.255219 0.733307 0.274680
O O4 0.319718 0.770196 0.000000
O O5 0.982780 0.898499 0.210199
O O6 0.875126 0.986538 0.265633
O O7 0.879983 0.900428 0.000000
O O8 0.913177 0.590556 0.500000
O O9 0.867176 0.522540 0.765611
O O10 0.991369 0.604181 0.767067
O O11 0.346417 0.426778 0.500000
O O12 0.262626 0.438916 0.749820
O O13 0.387635 0.363354 0.778099
O O14 0.729224 0.913307 0.715638
O O15 0.707042 0.986440 0.000000
O O16 0.982255 0.159188 0.500000
O O17 0.976176 0.246742 0.227491
O O18 0.965046 0.329382 0.500000
O O19 0.875055 0.336076 0.728272
O O20 0.690906 0.805234 0.500000
#
# Coordination Sequence:
#
# PCOD9443830 Si02
#       8
#     8   8   8   8   8   8   8   8
#     4  10  20  38  62  87 117 153 197 242 292 353
#     4  11  21  36  59  87 120 158 194 239 297 357
#     4   9  19  39  65  87 111 153 204 245 289 351
#     4  10  22  37  56  87 124 157 197 246 296 359
#     4  10  21  40  65  87 115 157 202 247 295 355
#     4  11  23  38  58  86 121 160 200 247 293 351
#     4  10  22  41  62  85 117 155 202 248 292 353
#     4  11  24  39  62  91 123 157 194 247 300 350
#
# _framework density 24.237255000000001
#
# number of rings (size 3 to 8) (size 9 to 14) (size 15 to 20)
#    0.000    1.750    2.500    1.500    1.750    5.000 
#    0.000    3.750    0.000    0.000    0.000    0.000 
#    0.000    0.000    0.000    0.000    0.000    0.000 
#
# Total GULP energy -357662.502483 kJ/mol
# GULP energy per Si atom -5588.476601 kJ/mol
# Density = 2.418209 g / cm^3
# Si number density = 24.237255 Si / 1000 Ang^3
#
#
#
# Elastic Constant Matrix: (Units=GPa)
#
#
# Indices 1 2 3 4 5 6 
#
# 1 116.4696 -4.6688 -6.0277 0.0000 0.0000 0.0000
# 2 -4.6688 30.5790 -6.7858 0.0000 0.0000 0.0000
# 3 -6.0277 -6.7858 25.9221 0.0000 0.0000 0.0000
# 4 0.0000 0.0000 0.0000 13.6494 0.0000 0.0000
# 5 0.0000 0.0000 0.0000 0.0000 22.3221 0.0000
# 6 0.0000 0.0000 0.0000 0.0000 0.0000 39.6424
#
#
#
# Elastic Compliance Matrix: (Units=1/GPa)
#
#
# Indices 1 2 3 4 5 6 
#
# 1 0.008794 0.001907 0.002544 0.000000 0.000000 0.000000
# 2 0.001907 0.035133 0.009640 0.000000 0.000000 0.000000
# 3 0.002544 0.009640 0.041692 0.000000 0.000000 0.000000
# 4 0.000000 0.000000 0.000000 0.073263 0.000000 0.000000
# 5 0.000000 0.000000 0.000000 0.000000 0.044799 0.000000
# 6 0.000000 0.000000 0.000000 0.000000 0.000000 0.025226
#
#
# Mechanical properties :
#
#
# Convention : Reuss Voigt Hill
#
# Bulk Modulus (GPa) = 8.78712 15.33400 12.06056
# Shear Modulus (GPa) = 20.95058 27.81966 24.38512
#
# Velocity S-wave (km/s) = 2.94325 3.39160 3.17535
# Velocity P-wave (km/s) = 3.89662 4.65593 4.29309
#
# Compressibility (1/GPa) = 0.11380296
#
# Stress axis : x y z
#
# Youngs Moduli (GPa) = 113.71314 28.46353 23.98516
#
# Poissons Ratio (x) = -0.05429 -0.06102
# Poissons Ratio (y) = -0.21688 -0.23123
# Poissons Ratio (z) = -0.28931 -0.27440
#
# Static dielectric constant tensor:
#      x y z
#    x 1.979920 0.000000 0.000000 
#    y 0.000000 1.935220 0.000000 
#    z 0.000000 0.000000 1.904770 
# 
# From -- ./inp_files/8370.got.cif
#   From: 2010.05.17/outbox.cif.g08.bks.cpg/sg58_5_cif.got.tgz:8370.got - 2010.06.03 14:20:14.
