data_PCOD9443650
_publ_section_title
;
Structure prediction by ZEFSAII (Michael W. Deem and Ramdas Pophale) SiO2 
 PCOD9443650
Probable space group: P N N M
;
_chemical_formula_sum "Si O2"
_cell_formula_units_Z 48
_cell_length_a 15.393631
_cell_length_b 19.225374
_cell_length_c 8.090192
_cell_angle_alpha 90.000000
_cell_angle_beta 90.000000
_cell_angle_gamma 90.000000
_cell_volume 2394.278676
_symmetry_space_group_name_H-M "P N N M"
_symmetry_group_IT_number 58
_symmetry_cell_setting 'orthorhombic'
loop_
_space_group_symop_operation_xyz
x,y,z
-x,-y,z
1/2+x,1/2-y,1/2-z
1/2-x,1/2+y,1/2-z
-x,-y,-z
x,y,-z
1/2-x,1/2+y,1/2+z
1/2+x,1/2-y,1/2+z
loop_
_atom_site_type_symbol
_atom_site_label
_atom_site_fract_x
_atom_site_fract_y
_atom_site_fract_z
Si Si1 0.110440 0.930526 0.701766
Si Si2 0.234345 0.332587 0.803854
Si Si3 0.746279 0.323689 0.200579
Si Si4 0.385547 0.062186 0.691008
Si Si5 0.584166 0.411333 0.798770
Si Si6 0.071803 0.412682 0.311648
O O1 0.111191 0.929386 0.500000
O O2 0.189977 0.883827 0.759591
O O3 0.015586 0.902959 0.754578
O O4 0.115405 0.011392 0.750916
O O5 0.258694 0.253398 0.767093
O O6 0.142634 0.354532 0.726583
O O7 0.226648 0.342827 0.000000
O O8 0.819516 0.379217 0.252761
O O9 0.653008 0.354052 0.254620
O O10 0.748159 0.320662 0.000000
O O11 0.363222 0.047637 0.500000
O O12 0.484648 0.088916 0.703376
O O13 0.384539 0.988221 0.782221
O O14 0.583748 0.410954 0.000000
O O15 0.042544 0.407936 0.500000
#
# Coordination Sequence:
#
# PCOD9443650 Si02
#       6
#     8   8   8   8   8   8
#     4   8  15  29  52  78 100 128 170 218 264 312
#     4  11  22  35  52  78 112 148 183 220 269 326
#     4  10  21  35  53  80 113 146 177 216 270 332
#     4  10  20  37  60  84 111 143 182 229 282 336
#     4   8  14  29  53  78 101 127 167 217 265 314
#     4  11  22  37  58  82 108 142 188 236 280 328
#
# _framework density 20.047792000000001
#
# number of rings (size 3 to 8) (size 9 to 14) (size 15 to 20)
#    0.000    2.333    0.000    5.500    0.000    5.333 
#    0.000    1.667    0.000    1.000    0.000    7.000 
#    0.000    0.000    0.000    0.000    0.000    0.000 
#
# Total GULP energy -268001.367577 kJ/mol
# GULP energy per Si atom -5583.361825 kJ/mol
# Density = 2.000216 g / cm^3
# Si number density = 20.047792 Si / 1000 Ang^3
#
#
#
# Elastic Constant Matrix: (Units=GPa)
#
#
# Indices 1 2 3 4 5 6 
#
# 1 43.8721 15.2598 -8.0281 0.0000 0.0000 0.0000
# 2 15.2598 34.2392 -6.6060 0.0000 0.0000 0.0000
# 3 -8.0281 -6.6060 23.3922 0.0000 0.0000 0.0000
# 4 0.0000 0.0000 0.0000 27.4688 0.0000 0.0000
# 5 0.0000 0.0000 0.0000 0.0000 10.7027 0.0000
# 6 0.0000 0.0000 0.0000 0.0000 0.0000 11.5794
#
#
#
# Elastic Compliance Matrix: (Units=1/GPa)
#
#
# Indices 1 2 3 4 5 6 
#
# 1 0.027853 -0.011178 0.006402 0.000000 0.000000 0.000000
# 2 -0.011178 0.035376 0.006154 0.000000 0.000000 0.000000
# 3 0.006402 0.006154 0.046684 0.000000 0.000000 0.000000
# 4 0.000000 0.000000 0.000000 0.036405 0.000000 0.000000
# 5 0.000000 0.000000 0.000000 0.000000 0.093435 0.000000
# 6 0.000000 0.000000 0.000000 0.000000 0.000000 0.086360
#
#
# Mechanical properties :
#
#
# Convention : Reuss Voigt Hill
#
# Bulk Modulus (GPa) = 8.87561 11.41721 10.14641
# Shear Modulus (GPa) = 13.85372 16.67535 15.26454
#
# Velocity S-wave (km/s) = 2.63161 2.88719 2.76235
# Velocity P-wave (km/s) = 3.69738 4.10144 3.90464
#
# Compressibility (1/GPa) = 0.11266833
#
# Stress axis : x y z
#
# Youngs Moduli (GPa) = 35.90253 28.26803 21.42047
#
# Poissons Ratio (x) = 0.31599 -0.13714
# Poissons Ratio (y) = 0.40133 -0.13182
# Poissons Ratio (z) = -0.22986 -0.17396
#
# Static dielectric constant tensor:
#      x y z
#    x 1.707120 0.000000 0.000000 
#    y 0.000000 1.674810 0.000000 
#    z 0.000000 0.000000 1.725330 
# 
# From -- ./inp_files/5822.got.cif
#   From: 2010.05.17/outbox.cif.g08.bks.cpg/sg58_3_cif.got.tgz:5822.got - 2010.06.03 14:20:14.
