data_PCOD9443038
_publ_section_title
;
Structure prediction by ZEFSAII (Michael W. Deem and Ramdas Pophale) SiO2 
 PCOD9443038
Probable space group: P N N M
;
_chemical_formula_sum "Si O2"
_cell_formula_units_Z 64
_cell_length_a 14.897048
_cell_length_b 25.524916
_cell_length_c 7.678786
_cell_angle_alpha 90.000000
_cell_angle_beta 90.000000
_cell_angle_gamma 90.000000
_cell_volume 2919.826885
_symmetry_space_group_name_H-M "P N N M"
_symmetry_group_IT_number 58
_symmetry_cell_setting 'orthorhombic'
loop_
_space_group_symop_operation_xyz
x,y,z
-x,-y,z
1/2+x,1/2-y,1/2-z
1/2-x,1/2+y,1/2-z
-x,-y,-z
x,y,-z
1/2-x,1/2+y,1/2+z
1/2+x,1/2-y,1/2+z
loop_
_atom_site_type_symbol
_atom_site_label
_atom_site_fract_x
_atom_site_fract_y
_atom_site_fract_z
Si Si1 0.249496 0.659646 0.213624
Si Si2 0.054185 0.285675 0.708791
Si Si3 0.222694 0.454511 0.301355
Si Si4 0.544937 0.329374 0.209322
Si Si5 0.133978 0.876902 0.791497
Si Si6 0.134844 0.562305 0.204734
Si Si7 0.548707 0.099147 0.298839
Si Si8 0.266553 0.274265 0.710246
O O1 0.353966 0.658373 0.268034
O O2 0.194795 0.609624 0.276407
O O3 0.209545 0.715718 0.270564
O O4 0.249728 0.659341 0.000000
O O5 0.042860 0.289125 0.500000
O O6 0.020660 0.339978 0.787510
O O7 0.161066 0.282697 0.746305
O O8 0.017693 0.229362 0.771560
O O9 0.242591 0.468602 0.500000
O O10 0.310148 0.426418 0.222745
O O11 0.183570 0.507067 0.219899
O O12 0.142053 0.412081 0.296192
O O13 0.471259 0.371898 0.258973
O O14 0.548163 0.326176 0.000000
O O15 0.177545 0.823104 0.720525
O O16 0.148255 0.877293 0.000000
O O17 0.033544 0.565177 0.275125
O O18 0.122915 0.573336 0.000000
O O19 0.566130 0.085181 0.500000
O O20 0.275498 0.274032 0.500000
#
# Coordination Sequence:
#
# PCOD9443038 Si02
#       8
#     8   8   8   8   8   8   8   8
#     4   8  16  34  57  78 106 144 183 221 272 329
#     4   9  17  33  53  78 114 149 180 214 264 331
#     4  11  23  40  58  78 108 150 189 223 275 335
#     4   9  19  34  56  83 112 146 183 226 273 325
#     4  10  20  34  56  81 108 145 186 224 273 329
#     4  10  22  38  57  81 107 141 186 233 275 323
#     4  11  22  34  54  85 115 143 182 230 275 321
#     4   8  14  29  53  76 103 143 180 213 259 324
#
# _framework density 21.919107
#
# number of rings (size 3 to 8) (size 9 to 14) (size 15 to 20)
#    0.000    2.500    1.250    2.625    1.750    4.000 
#    0.000    1.250    0.000    4.500    0.000    0.000 
#    0.000    0.000    0.000    0.000    0.000    0.000 
#
# Total GULP energy -357295.614949 kJ/mol
# GULP energy per Si atom -5582.743984 kJ/mol
# Density = 2.186922 g / cm^3
# Si number density = 21.919107 Si / 1000 Ang^3
#
#
#
# Elastic Constant Matrix: (Units=GPa)
#
#
# Indices 1 2 3 4 5 6 
#
# 1 27.5052 2.8636 0.8410 0.0000 0.0000 0.0000
# 2 2.8636 67.3864 -0.2486 0.0000 0.0000 0.0000
# 3 0.8410 -0.2486 37.9418 0.0000 0.0000 0.0000
# 4 0.0000 0.0000 0.0000 20.4981 0.0000 0.0000
# 5 0.0000 0.0000 0.0000 0.0000 17.1917 0.0000
# 6 0.0000 0.0000 0.0000 0.0000 0.0000 35.1092
#
#
#
# Elastic Compliance Matrix: (Units=1/GPa)
#
#
# Indices 1 2 3 4 5 6 
#
# 1 0.036544 -0.001556 -0.000820 0.000000 0.000000 0.000000
# 2 -0.001556 0.014906 0.000132 0.000000 0.000000 0.000000
# 3 -0.000820 0.000132 0.026375 0.000000 0.000000 0.000000
# 4 0.000000 0.000000 0.000000 0.048785 0.000000 0.000000
# 5 0.000000 0.000000 0.000000 0.000000 0.058168 0.000000
# 6 0.000000 0.000000 0.000000 0.000000 0.000000 0.028483
#
#
# Mechanical properties :
#
#
# Convention : Reuss Voigt Hill
#
# Bulk Modulus (GPa) = 13.63559 15.52725 14.58142
# Shear Modulus (GPa) = 20.64456 23.18497 21.91476
#
# Velocity S-wave (km/s) = 3.07229 3.25584 3.16539
# Velocity P-wave (km/s) = 4.33816 4.60795 4.47509
#
# Compressibility (1/GPa) = 0.07333748
#
# Stress axis : x y z
#
# Youngs Moduli (GPa) = 27.36435 67.08533 37.91439
#
# Poissons Ratio (x) = 0.10438 0.03110
# Poissons Ratio (y) = 0.04258 -0.00501
# Poissons Ratio (z) = 0.02245 -0.00887
#
# Static dielectric constant tensor:
#      x y z
#    x 1.810050 0.000000 0.000000 
#    y 0.000000 1.806850 0.000000 
#    z 0.000000 0.000000 1.809740 
# 
# From -- ./inp_files/6778.got.cif
#   From: 2010.05.17/outbox.cif.g08.bks.cpg/sg58_4_cif.got.tgz:6778.got - 2010.06.03 14:20:14.
