data_PCOD9443118
_publ_section_title
;
Structure prediction by ZEFSAII (Michael W. Deem and Ramdas Pophale) SiO2 
 PCOD9443118
Probable space group: P N N M
;
_chemical_formula_sum "Si O2"
_cell_formula_units_Z 64
_cell_length_a 9.815309
_cell_length_b 27.024352
_cell_length_c 14.806421
_cell_angle_alpha 90.000000
_cell_angle_beta 90.000000
_cell_angle_gamma 90.000000
_cell_volume 3927.438193
_symmetry_space_group_name_H-M "P N N M"
_symmetry_group_IT_number 58
_symmetry_cell_setting 'orthorhombic'
loop_
_space_group_symop_operation_xyz
x,y,z
-x,-y,z
1/2+x,1/2-y,1/2-z
1/2-x,1/2+y,1/2-z
-x,-y,-z
x,y,-z
1/2-x,1/2+y,1/2+z
1/2+x,1/2-y,1/2+z
loop_
_atom_site_type_symbol
_atom_site_label
_atom_site_fract_x
_atom_site_fract_y
_atom_site_fract_z
Si Si1 0.986227 0.823607 0.100425
Si Si2 0.008298 0.137020 0.710637
Si Si3 0.680412 0.282078 0.891825
Si Si4 0.815319 0.668531 0.601354
Si Si5 0.502194 0.791288 0.607796
Si Si6 0.355077 0.973664 0.605372
Si Si7 0.388525 0.543166 0.896896
Si Si8 0.818489 0.628401 0.210308
O O1 0.946758 0.856922 0.185128
O O2 0.956451 0.765816 0.120459
O O3 0.150674 0.828233 0.096120
O O4 0.933338 0.835829 0.000000
O O5 0.076756 0.181922 0.656948
O O6 0.062298 0.086860 0.666482
O O7 0.844020 0.138768 0.702833
O O8 0.644524 0.224776 0.873821
O O9 0.837783 0.293087 0.864788
O O10 0.674592 0.288470 0.000000
O O11 0.864549 0.656358 0.500000
O O12 0.852745 0.632554 0.683114
O O13 0.496552 0.801111 0.500000
O O14 0.407693 0.830100 0.659293
O O15 0.324124 0.960441 0.500000
O O16 0.346398 0.924697 0.665493
O O17 0.500000 0.000000 0.608273
O O18 0.247276 0.015399 0.633559
O O19 0.500000 0.500000 0.899260
O O20 0.369414 0.561912 0.000000
#
# Coordination Sequence:
#
# PCOD9443118 Si02
#       8
#     8   8   8   8   8   8   8   8
#     4   8  16  32  50  71 101 134 165 201 241 284
#     4  11  20  30  52  77  98 129 167 202 246 294
#     4   9  18  31  48  74 105 135 163 193 238 297
#     4   8  16  32  51  72 101 133 165 199 240 291
#     4   9  18  31  48  72 104 136 164 196 238 289
#     4  10  22  37  52  72  97 126 162 201 245 297
#     4  10  20  35  50  70 102 127 150 198 254 293
#     4  11  20  31  52  77  98 127 169 208 240 284
#
# _framework density 16.295608999999999
#
# number of rings (size 3 to 8) (size 9 to 14) (size 15 to 20)
#    0.000    2.500    1.250    3.000    1.750    1.500 
#    0.000    0.000    0.000    3.750    0.000    0.000 
#    0.000    0.000    0.000    0.000    0.000    0.000 
#
# Total GULP energy -356630.678991 kJ/mol
# GULP energy per Si atom -5572.354359 kJ/mol
# Density = 1.625852 g / cm^3
# Si number density = 16.295609 Si / 1000 Ang^3
#
#
#
# Elastic Constant Matrix: (Units=GPa)
#
#
# Indices 1 2 3 4 5 6 
#
# 1 48.2853 22.6511 23.9322 0.0000 0.0000 0.0000
# 2 22.6511 73.0913 73.1939 0.0000 0.0000 0.0000
# 3 23.9322 73.1939 94.9896 0.0000 0.0000 0.0000
# 4 0.0000 0.0000 0.0000 34.9996 0.0000 0.0000
# 5 0.0000 0.0000 0.0000 0.0000 16.9921 0.0000
# 6 0.0000 0.0000 0.0000 0.0000 0.0000 22.9657
#
#
#
# Elastic Compliance Matrix: (Units=1/GPa)
#
#
# Indices 1 2 3 4 5 6 
#
# 1 0.024276 -0.006123 -0.001398 0.000000 0.000000 0.000000
# 2 -0.006123 0.061454 -0.045810 0.000000 0.000000 0.000000
# 3 -0.001398 -0.045810 0.046179 0.000000 0.000000 0.000000
# 4 0.000000 0.000000 0.000000 0.028572 0.000000 0.000000
# 5 0.000000 0.000000 0.000000 0.000000 0.058851 0.000000
# 6 0.000000 0.000000 0.000000 0.000000 0.000000 0.043543
#
#
# Mechanical properties :
#
#
# Convention : Reuss Voigt Hill
#
# Bulk Modulus (GPa) = 39.61148 50.65785 45.13466
# Shear Modulus (GPa) = 13.22922 21.43074 17.32998
#
# Velocity S-wave (km/s) = 2.85235 3.63040 3.26463
# Velocity P-wave (km/s) = 5.93369 6.98050 6.47827
#
# Compressibility (1/GPa) = 0.02524521
#
# Stress axis : x y z
#
# Youngs Moduli (GPa) = 41.19372 16.27245 21.65506
#
# Poissons Ratio (x) = 0.09964 0.03027
# Poissons Ratio (y) = 0.25223 0.99202
# Poissons Ratio (z) = 0.05759 0.74544
#
# Static dielectric constant tensor:
#      x y z
#    x 1.505040 0.000000 0.000000 
#    y 0.000000 1.524650 0.000000 
#    z 0.000000 0.000000 1.571650 
# 
# From -- ./inp_files/20299.got.cif
#   From: 2010.05.17/outbox.cif.g08.bks.cpg/sg58_11_cif.got.tgz:20299.got - 2010.06.03 14:20:14.
