data_PCOD9443387
_publ_section_title
;
Structure prediction by ZEFSAII (Michael W. Deem and Ramdas Pophale) SiO2 
 PCOD9443387
Probable space group: P N N M
;
_chemical_formula_sum "Si O2"
_cell_formula_units_Z 64
_cell_length_a 13.921816
_cell_length_b 17.001350
_cell_length_c 14.768582
_cell_angle_alpha 90.000000
_cell_angle_beta 90.000000
_cell_angle_gamma 90.000000
_cell_volume 3495.570748
_symmetry_space_group_name_H-M "P N N M"
_symmetry_group_IT_number 58
_symmetry_cell_setting 'orthorhombic'
loop_
_space_group_symop_operation_xyz
x,y,z
-x,-y,z
1/2+x,1/2-y,1/2-z
1/2-x,1/2+y,1/2-z
-x,-y,-z
x,y,-z
1/2-x,1/2+y,1/2+z
1/2+x,1/2-y,1/2+z
loop_
_atom_site_type_symbol
_atom_site_label
_atom_site_fract_x
_atom_site_fract_y
_atom_site_fract_z
Si Si1 0.440523 0.214139 0.608141
Si Si2 0.610277 0.977558 0.107368
Si Si3 0.395289 0.034122 0.607419
Si Si4 0.755786 0.030052 0.252068
Si Si5 0.138541 0.226213 0.896027
Si Si6 0.852384 0.295100 0.609006
Si Si7 0.401111 0.331550 0.759893
Si Si8 0.933739 0.930968 0.820175
O O1 0.437696 0.230621 0.500000
O O2 0.399257 0.127812 0.623164
O O3 0.552781 0.218995 0.638989
O O4 0.390480 0.280808 0.667777
O O5 0.624728 0.885492 0.131350
O O6 0.500000 0.000000 0.124476
O O7 0.683940 0.028335 0.166350
O O8 0.629406 0.986295 0.000000
O O9 0.383332 0.019727 0.500000
O O10 0.500000 0.000000 0.633315
O O11 0.309872 0.996373 0.664343
O O12 0.810097 0.111547 0.270723
O O13 0.841327 0.969075 0.227202
O O14 0.244591 0.224562 0.856362
O O15 0.100261 0.136821 0.888087
O O16 0.151320 0.248765 0.000000
O O17 0.857970 0.288172 0.500000
O O18 0.915367 0.230916 0.660137
O O19 0.494726 0.386350 0.748544
O O20 0.000000 0.000000 0.861647
#
# Coordination Sequence:
#
# PCOD9443387 Si02
#       8
#     8   8   8   8   8   8   8   8
#     4   9  19  36  55  81 115 143 180 235 287 332
#     4  10  21  38  58  83 115 146 183 229 276 336
#     4  10  22  38  57  82 112 145 188 240 282 327
#     4  11  21  36  58  82 110 150 188 226 283 334
#     4   9  17  31  55  81 106 143 179 224 280 327
#     4  10  20  36  57  81 111 148 189 229 273 328
#     4  10  22  36  55  83 112 147 185 232 277 334
#     4   9  19  35  52  76 110 141 181 227 270 327
#
# _framework density 18.308883999999999
#
# number of rings (size 3 to 8) (size 9 to 14) (size 15 to 20)
#    0.000    2.250    1.250    1.125    1.750    1.250 
#    2.250    3.125    0.000    5.250    0.000    0.000 
#    0.000    0.000    0.000    0.000    0.000    0.000 
#
# Total GULP energy -356782.430994 kJ/mol
# GULP energy per Si atom -5574.725484 kJ/mol
# Density = 1.826721 g / cm^3
# Si number density = 18.308884 Si / 1000 Ang^3
#
#
#
# Elastic Constant Matrix: (Units=GPa)
#
#
# Indices 1 2 3 4 5 6 
#
# 1 90.9027 27.2681 29.4093 0.0000 0.0000 0.0000
# 2 27.2681 52.2370 20.0435 0.0000 0.0000 0.0000
# 3 29.4093 20.0435 46.7688 0.0000 0.0000 0.0000
# 4 0.0000 0.0000 0.0000 16.1731 0.0000 0.0000
# 5 0.0000 0.0000 0.0000 0.0000 7.4938 0.0000
# 6 0.0000 0.0000 0.0000 0.0000 0.0000 23.8886
#
#
#
# Elastic Compliance Matrix: (Units=1/GPa)
#
#
# Indices 1 2 3 4 5 6 
#
# 1 0.014819 -0.004979 -0.007185 0.000000 0.000000 0.000000
# 2 -0.004979 0.024584 -0.007405 0.000000 0.000000 0.000000
# 3 -0.007185 -0.007405 0.029073 0.000000 0.000000 0.000000
# 4 0.000000 0.000000 0.000000 0.061831 0.000000 0.000000
# 5 0.000000 0.000000 0.000000 0.000000 0.133444 0.000000
# 6 0.000000 0.000000 0.000000 0.000000 0.000000 0.041861
#
#
# Mechanical properties :
#
#
# Convention : Reuss Voigt Hill
#
# Bulk Modulus (GPa) = 34.08447 38.15007 36.11727
# Shear Modulus (GPa) = 14.10323 17.05691 15.58007
#
# Velocity S-wave (km/s) = 2.77843 3.05556 2.92028
# Velocity P-wave (km/s) = 5.38049 5.77328 5.58034
#
# Compressibility (1/GPa) = 0.02933887
#
# Stress axis : x y z
#
# Youngs Moduli (GPa) = 67.48262 40.67722 34.39596
#
# Poissons Ratio (x) = 0.20252 0.24712
# Poissons Ratio (y) = 0.33597 0.25470
# Poissons Ratio (z) = 0.48484 0.30122
#
# Static dielectric constant tensor:
#      x y z
#    x 1.648370 0.000000 0.000000 
#    y 0.000000 1.631470 0.000000 
#    z 0.000000 0.000000 1.628020 
# 
# From -- ./inp_files/21533.got.cif
#   From: 2010.05.17/outbox.cif.g08.bks.cpg/sg58_11_cif.got.tgz:21533.got - 2010.06.03 14:20:14.
