data_PCOD9443747
_publ_section_title
;
Structure prediction by ZEFSAII (Michael W. Deem and Ramdas Pophale) SiO2 
 PCOD9443747
Probable space group: P N N M
;
_chemical_formula_sum "Si O2"
_cell_formula_units_Z 64
_cell_length_a 15.091425
_cell_length_b 24.146899
_cell_length_c 8.305066
_cell_angle_alpha 90.000000
_cell_angle_beta 90.000000
_cell_angle_gamma 90.000000
_cell_volume 3026.458363
_symmetry_space_group_name_H-M "P N N M"
_symmetry_group_IT_number 58
_symmetry_cell_setting 'orthorhombic'
loop_
_space_group_symop_operation_xyz
x,y,z
-x,-y,z
1/2+x,1/2-y,1/2-z
1/2-x,1/2+y,1/2-z
-x,-y,-z
x,y,-z
1/2-x,1/2+y,1/2+z
1/2+x,1/2-y,1/2+z
loop_
_atom_site_type_symbol
_atom_site_label
_atom_site_fract_x
_atom_site_fract_y
_atom_site_fract_z
Si Si1 0.957006 0.787294 0.313756
Si Si2 0.240947 0.418071 0.806824
Si Si3 0.692078 0.204278 0.687931
Si Si4 0.602668 0.990143 0.805931
Si Si5 0.644404 0.867083 0.814627
Si Si6 0.328385 0.613154 0.810599
Si Si7 0.632594 0.752699 0.319071
Si Si8 0.399109 0.492383 0.195649
O O1 0.983351 0.780657 0.500000
O O2 0.883325 0.740844 0.272982
O O3 0.912294 0.847118 0.293324
O O4 0.044533 0.782082 0.208683
O O5 0.208683 0.358061 0.746365
O O6 0.167622 0.464438 0.768152
O O7 0.336175 0.442013 0.747467
O O8 0.249018 0.412720 0.000000
O O9 0.667684 0.200790 0.500000
O O10 0.787072 0.234159 0.706153
O O11 0.623385 0.927954 0.750041
O O12 0.500000 0.000000 0.770215
O O13 0.614879 0.991872 0.000000
O O14 0.750112 0.863233 0.797082
O O15 0.605843 0.815850 0.718265
O O16 0.616101 0.863523 0.000000
O O17 0.349449 0.550012 0.768730
O O18 0.301907 0.615727 0.000000
O O19 0.666442 0.748209 0.500000
O O20 0.500000 0.500000 0.254385
O O21 0.404120 0.487747 0.000000
#
# Coordination Sequence:
#
# PCOD9443747 Si02
#       8
#     8   8   8   8   8   8   8   8
#     4  11  24  41  64  93 124 165 208 254 315 372
#     4  10  22  39  62  91 123 161 203 253 303 361
#     4  11  24  42  63  93 129 164 210 260 311 372
#     4  10  23  41  61  89 123 163 204 249 311 373
#     4  11  22  39  64  90 122 160 205 263 315 366
#     4  10  20  37  64  91 119 156 204 253 306 370
#     4  12  26  43  64  91 124 167 212 259 315 371
#     4   9  18  34  60  90 120 156 198 244 295 356
#
# _framework density 21.146830999999999
#
# number of rings (size 3 to 8) (size 9 to 14) (size 15 to 20)
#    0.000    1.500    2.500    2.250    3.500    2.250 
#    0.000    0.000    0.000    0.750    0.000    0.000 
#    0.000    0.000    0.000    0.000    0.000    0.000 
#
# Total GULP energy -357589.642163 kJ/mol
# GULP energy per Si atom -5587.338159 kJ/mol
# Density = 2.109870 g / cm^3
# Si number density = 21.146831 Si / 1000 Ang^3
#
#
#
# Elastic Constant Matrix: (Units=GPa)
#
#
# Indices 1 2 3 4 5 6 
#
# 1 35.4799 -22.7139 -15.7692 0.0000 0.0000 0.0000
# 2 -22.7139 57.5788 -1.6506 0.0000 0.0000 0.0000
# 3 -15.7692 -1.6506 16.0785 0.0000 0.0000 0.0000
# 4 0.0000 0.0000 0.0000 21.3227 0.0000 0.0000
# 5 0.0000 0.0000 0.0000 0.0000 0.2989 0.0000
# 6 0.0000 0.0000 0.0000 0.0000 0.0000 21.2431
#
#
#
# Elastic Compliance Matrix: (Units=1/GPa)
#
#
# Indices 1 2 3 4 5 6 
#
# 1 0.103085 0.043692 0.105587 0.000000 0.000000 0.000000
# 2 0.043692 0.035938 0.046541 0.000000 0.000000 0.000000
# 3 0.105587 0.046541 0.170528 0.000000 0.000000 0.000000
# 4 0.000000 0.000000 0.000000 0.046898 0.000000 0.000000
# 5 0.000000 0.000000 0.000000 0.000000 3.345509 0.000000
# 6 0.000000 0.000000 0.000000 0.000000 0.000000 0.047074
#
#
# Mechanical properties :
#
#
# Convention : Reuss Voigt Hill
#
# Bulk Modulus (GPa) = 1.42615 3.20775 2.31695
# Shear Modulus (GPa) = 1.39232 18.52434 9.95833
#
# Velocity S-wave (km/s) = 0.81230 2.96292 2.17241
# Velocity P-wave (km/s) = 1.24726 3.63667 2.71855
#
# Compressibility (1/GPa) = 0.70119084
#
# Stress axis : x y z
#
# Youngs Moduli (GPa) = 9.70073 27.82602 5.86414
#
# Poissons Ratio (x) = -1.21578 -0.61918
# Poissons Ratio (y) = -0.42385 -0.27292
# Poissons Ratio (z) = -1.02427 -1.29505
#
# Static dielectric constant tensor:
#      x y z
#    x 1.749030 0.000000 0.000000 
#    y 0.000000 1.718870 0.000000 
#    z 0.000000 0.000000 1.737740 
# 
# From -- ./inp_files/6789.got.cif
#   From: 2010.05.17/outbox.cif.g08.bks.cpg/sg58_4_cif.got.tgz:6789.got - 2010.06.03 14:20:14.
