data_PCOD9443405
_publ_section_title
;
Structure prediction by ZEFSAII (Michael W. Deem and Ramdas Pophale) SiO2 
 PCOD9443405
Probable space group: P N N M
;
_chemical_formula_sum "Si O2"
_cell_formula_units_Z 64
_cell_length_a 16.291355
_cell_length_b 9.949028
_cell_length_c 18.003548
_cell_angle_alpha 90.000000
_cell_angle_beta 90.000000
_cell_angle_gamma 90.000000
_cell_volume 2918.071718
_symmetry_space_group_name_H-M "P N N M"
_symmetry_group_IT_number 58
_symmetry_cell_setting 'orthorhombic'
loop_
_space_group_symop_operation_xyz
x,y,z
-x,-y,z
1/2+x,1/2-y,1/2-z
1/2-x,1/2+y,1/2-z
-x,-y,-z
x,y,-z
1/2-x,1/2+y,1/2+z
1/2+x,1/2-y,1/2+z
loop_
_atom_site_type_symbol
_atom_site_label
_atom_site_fract_x
_atom_site_fract_y
_atom_site_fract_z
Si Si1 0.943720 0.627617 0.175530
Si Si2 0.356219 0.779747 0.803430
Si Si3 0.091286 0.811283 0.184897
Si Si4 0.269629 0.940147 0.367848
Si Si5 0.726138 0.766486 0.417318
Si Si6 0.144823 0.716336 0.350245
Si Si7 0.715560 0.454704 0.293217
Si Si8 0.515572 0.339472 0.914932
O O1 0.912000 0.613887 0.260819
O O2 0.862258 0.613834 0.125604
O O3 0.000000 0.500000 0.158588
O O4 0.996715 0.765906 0.175643
O O5 0.280617 0.813004 0.857113
O O6 0.319288 0.686523 0.738581
O O7 0.414582 0.694207 0.856298
O O8 0.135352 0.741132 0.115516
O O9 0.120227 0.749503 0.264169
O O10 0.134292 0.959055 0.184005
O O11 0.202254 0.830942 0.385472
O O12 0.253161 0.076427 0.412079
O O13 0.253245 0.976878 0.280923
O O14 0.734776 0.714870 0.500000
O O15 0.207872 0.590813 0.345309
O O16 0.060149 0.739946 0.394525
O O17 0.500000 0.500000 0.907160
O O18 0.540749 0.315362 0.000000
#
# Coordination Sequence:
#
# PCOD9443405 Si02
#       8
#     8   8   8   8   8   8   8   8
#     4  12  21  36  63  94 123 152 208 276 318 361
#     4  11  21  36  62  92 125 161 206 260 317 379
#     4  11  21  36  60  91 120 160 216 267 310 366
#     4  10  20  36  57  87 118 156 210 257 319 364
#     4  11  22  40  61  86 125 167 207 255 318 386
#     4  11  19  38  61  85 125 169 212 255 310 380
#     4  10  20  37  61  89 123 165 213 262 310 378
#     4  11  23  37  57  94 138 170 202 255 323 388
#
# _framework density 21.932292
#
# number of rings (size 3 to 8) (size 9 to 14) (size 15 to 20)
#    0.000    1.125    6.250    3.375    0.000    1.500 
#    0.000    1.875    0.000    0.750    0.000    0.875 
#    0.000    0.000    0.000    0.000    0.000    0.000 
#
# Total GULP energy -356794.016611 kJ/mol
# GULP energy per Si atom -5574.906510 kJ/mol
# Density = 2.188237 g / cm^3
# Si number density = 21.932292 Si / 1000 Ang^3
#
#
#
# Elastic Constant Matrix: (Units=GPa)
#
#
# Indices 1 2 3 4 5 6 
#
# 1 100.6235 12.6864 -12.2642 0.0000 0.0000 0.0000
# 2 12.6864 69.0304 -7.2978 0.0000 0.0000 0.0000
# 3 -12.2642 -7.2978 25.5052 0.0000 0.0000 0.0000
# 4 0.0000 0.0000 0.0000 18.3679 0.0000 0.0000
# 5 0.0000 0.0000 0.0000 0.0000 -7.6665 0.0000
# 6 0.0000 0.0000 0.0000 0.0000 0.0000 41.5356
#
#
#
# Elastic Compliance Matrix: (Units=1/GPa)
#
#
# Indices 1 2 3 4 5 6 
#
# 1 0.010699 -0.001467 0.004725 0.000000 0.000000 0.000000
# 2 -0.001467 0.015139 0.003627 0.000000 0.000000 0.000000
# 3 0.004725 0.003627 0.042517 0.000000 0.000000 0.000000
# 4 0.000000 0.000000 0.000000 0.054443 0.000000 0.000000
# 5 0.000000 0.000000 0.000000 0.000000 -0.130438 0.000000
# 6 0.000000 0.000000 0.000000 0.000000 0.000000 0.024076
#
#
# Mechanical properties :
#
#
# Convention : Reuss Voigt Hill
#
# Bulk Modulus (GPa) = 12.17658 20.15642 16.16650
# Shear Modulus (GPa) = 166.43888 23.91639 95.17763
#
# Velocity S-wave (km/s) = 8.72080 3.30580 6.59472
# Velocity P-wave (km/s) = 10.34249 4.87661 8.08543
#
# Compressibility (1/GPa) = 0.08212486
#
# Stress axis : x y z
#
# Youngs Moduli (GPa) = 93.46810 66.05315 23.51982
#
# Poissons Ratio (x) = 0.09688 -0.11113
# Poissons Ratio (y) = 0.13709 -0.08529
# Poissons Ratio (z) = -0.44163 -0.23954
#
# Static dielectric constant tensor:
#      x y z
#    x 1.866180 0.000000 0.000000 
#    y 0.000000 1.920960 0.000000 
#    z 0.000000 0.000000 1.768480 
# 
# From -- ./inp_files/26999.got.cif
#   From: 2010.05.17/outbox.cif.g08.bks.cpg/sg58_14_cif.got.tgz:26999.got - 2010.06.03 14:20:14.
