data_PCOD9443271
_publ_section_title
;
Structure prediction by ZEFSAII (Michael W. Deem and Ramdas Pophale) SiO2 
 PCOD9443271
Probable space group: P N N M
;
_chemical_formula_sum "Si O2"
_cell_formula_units_Z 56
_cell_length_a 20.518570
_cell_length_b 13.253158
_cell_length_c 10.175780
_cell_angle_alpha 90.000000
_cell_angle_beta 90.000000
_cell_angle_gamma 90.000000
_cell_volume 2767.159385
_symmetry_space_group_name_H-M "P N N M"
_symmetry_group_IT_number 58
_symmetry_cell_setting 'orthorhombic'
loop_
_space_group_symop_operation_xyz
x,y,z
-x,-y,z
1/2+x,1/2-y,1/2-z
1/2-x,1/2+y,1/2-z
-x,-y,-z
x,y,-z
1/2-x,1/2+y,1/2+z
1/2+x,1/2-y,1/2+z
loop_
_atom_site_type_symbol
_atom_site_label
_atom_site_fract_x
_atom_site_fract_y
_atom_site_fract_z
Si Si1 0.894990 0.763354 0.774475
Si Si2 0.125411 0.849436 0.353341
Si Si3 0.290252 0.009317 0.157489
Si Si4 0.432256 0.951791 0.156864
Si Si5 0.765795 0.672540 0.146994
Si Si6 0.017838 0.886011 0.851396
Si Si7 0.685965 0.424730 0.145108
O O1 0.920467 0.656553 0.722296
O O2 0.829025 0.741681 0.854144
O O3 0.868408 0.839612 0.664163
O O4 0.952410 0.820734 0.847794
O O5 0.099228 0.831568 0.500000
O O6 0.192314 0.786159 0.338256
O O7 0.070954 0.837797 0.244497
O O8 0.150879 0.965877 0.345452
O O9 0.241303 0.077684 0.242559
O O10 0.367983 0.021002 0.178884
O O11 0.276401 0.900928 0.228204
O O12 0.277516 0.010677 0.000000
O O13 0.500000 0.000000 0.202367
O O14 0.436143 0.936599 0.000000
O O15 0.764854 0.623465 0.000000
O O16 0.043456 0.893256 0.000000
O O17 0.000000 0.000000 0.807904
O O18 0.714781 0.412537 0.000000
#
# Coordination Sequence:
#
# PCOD9443271 Si02
#       7
#     8   8   8   8   8   8   8
#     4  11  21  37  62  88 121 165 213 253 311 371
#     4   9  19  37  58  82 116 159 201 249 302 360
#     4   9  18  33  58  86 112 149 194 247 310 363
#     4   9  19  38  62  88 121 159 206 258 307 363
#     4   9  19  37  59  83 112 152 203 253 299 359
#     4  11  23  38  58  91 131 167 200 250 313 372
#     4  10  20  35  57  86 119 156 202 252 305 366
#
# _framework density 20.237359000000001
#
# number of rings (size 3 to 8) (size 9 to 14) (size 15 to 20)
#    0.000    2.286    1.429    2.143    0.000    5.429 
#    2.571    0.000    0.000   14.571    0.000    0.000 
#    0.000    0.000    0.000    0.000    0.000    0.000 
#
# Total GULP energy -311981.612203 kJ/mol
# GULP energy per Si atom -5571.100218 kJ/mol
# Density = 2.019130 g / cm^3
# Si number density = 20.237359 Si / 1000 Ang^3
#
#
#
# Elastic Constant Matrix: (Units=GPa)
#
#
# Indices 1 2 3 4 5 6 
#
# 1 128.2920 30.2350 64.3358 0.0000 0.0000 0.0000
# 2 30.2350 51.7072 9.3709 0.0000 0.0000 0.0000
# 3 64.3358 9.3709 109.7095 0.0000 0.0000 0.0000
# 4 0.0000 0.0000 0.0000 -36.8486 0.0000 0.0000
# 5 0.0000 0.0000 0.0000 0.0000 31.0653 0.0000
# 6 0.0000 0.0000 0.0000 0.0000 0.0000 41.2293
#
#
#
# Elastic Compliance Matrix: (Units=1/GPa)
#
#
# Indices 1 2 3 4 5 6 
#
# 1 0.012732 -0.006188 -0.006938 0.000000 0.000000 0.000000
# 2 -0.006188 0.022651 0.001694 0.000000 0.000000 0.000000
# 3 -0.006938 0.001694 0.013039 0.000000 0.000000 0.000000
# 4 0.000000 0.000000 0.000000 -0.027138 0.000000 0.000000
# 5 0.000000 0.000000 0.000000 0.000000 0.032190 0.000000
# 6 0.000000 0.000000 0.000000 0.000000 0.000000 0.024255
#
#
# Mechanical properties :
#
#
# Convention : Reuss Voigt Hill
#
# Bulk Modulus (GPa) = 39.12602 55.28801 47.20702
# Shear Modulus (GPa) = 45.82473 19.47367 32.64920
#
# Velocity S-wave (km/s) = 4.76369 3.10540 4.02096
# Velocity P-wave (km/s) = 7.04504 6.34327 6.70335
#
# Compressibility (1/GPa) = 0.02555844
#
# Stress axis : x y z
#
# Youngs Moduli (GPa) = 78.54124 44.14852 76.69417
#
# Poissons Ratio (x) = 0.27317 0.53209
# Poissons Ratio (y) = 0.48598 -0.12990
# Poissons Ratio (z) = 0.54491 -0.07478
#
# Static dielectric constant tensor:
#      x y z
#    x 1.729370 0.000000 0.000000 
#    y 0.000000 1.777940 0.000000 
#    z 0.000000 0.000000 1.711460 
# 
# From -- ./inp_files/8996.got.cif
#   From: 2010.05.17/outbox.cif.g08.bks.cpg/sg58_5_cif.got.tgz:8996.got - 2010.06.03 14:20:14.
