data_PCOD9443556
_publ_section_title
;
Structure prediction by ZEFSAII (Michael W. Deem and Ramdas Pophale) SiO2 
 PCOD9443556
Probable space group: P N N M
;
_chemical_formula_sum "Si O2"
_cell_formula_units_Z 48
_cell_length_a 10.031097
_cell_length_b 16.454074
_cell_length_c 15.268569
_cell_angle_alpha 90.000000
_cell_angle_beta 90.000000
_cell_angle_gamma 90.000000
_cell_volume 2520.114146
_symmetry_space_group_name_H-M "P N N M"
_symmetry_group_IT_number 58
_symmetry_cell_setting 'orthorhombic'
loop_
_space_group_symop_operation_xyz
x,y,z
-x,-y,z
1/2+x,1/2-y,1/2-z
1/2-x,1/2+y,1/2-z
-x,-y,-z
x,y,-z
1/2-x,1/2+y,1/2+z
1/2+x,1/2-y,1/2+z
loop_
_atom_site_type_symbol
_atom_site_label
_atom_site_fract_x
_atom_site_fract_y
_atom_site_fract_z
Si Si1 0.746365 0.927036 0.303686
Si Si2 0.499948 0.678170 0.768491
Si Si3 0.583645 0.583614 0.405860
Si Si4 0.291155 0.400416 0.897260
Si Si5 0.966954 0.642108 0.195279
Si Si6 0.361064 0.975388 0.849627
O O1 0.607134 0.892382 0.339313
O O2 0.861161 0.860472 0.300409
O O3 0.791914 0.008527 0.354720
O O4 0.709918 0.951435 0.203469
O O5 0.546010 0.633577 0.679594
O O6 0.606685 0.655413 0.842884
O O7 0.486834 0.771554 0.741526
O O8 0.500000 0.500000 0.401557
O O9 0.551856 0.622794 0.500000
O O10 0.741471 0.564927 0.402020
O O11 0.145417 0.362574 0.878804
O O12 0.320950 0.404388 0.000000
O O13 0.910574 0.583166 0.271313
O O14 0.500000 0.000000 0.894995
#
# Coordination Sequence:
#
# PCOD9443556 Si02
#       6
#     8   8   8   8   8   8
#     4  10  20  36  62  89 117 160 202 244 299 367
#     4  12  21  39  61  92 125 160 195 260 313 361
#     4  11  21  36  59  86 114 154 203 249 298 363
#     4  11  23  41  65  91 123 164 210 252 302 371
#     4  10  22  37  63  87 120 160 198 245 312 358
#     4   9  18  37  58  84 109 151 200 244 293 359
#
# _framework density 19.046756999999999
#
# number of rings (size 3 to 8) (size 9 to 14) (size 15 to 20)
#    0.000    1.500    5.000    3.000    0.000    3.667 
#    0.000    0.833    0.000    0.000    0.000    0.000 
#    0.000    0.000    0.000    0.000    0.000    0.000 
#
# Total GULP energy -267755.352324 kJ/mol
# GULP energy per Si atom -5578.236507 kJ/mol
# Density = 1.900341 g / cm^3
# Si number density = 19.046757 Si / 1000 Ang^3
#
#
#
# Elastic Constant Matrix: (Units=GPa)
#
#
# Indices 1 2 3 4 5 6 
#
# 1 82.9019 -0.8593 3.2101 0.0000 0.0000 0.0000
# 2 -0.8593 56.7235 -10.5400 0.0000 0.0000 0.0000
# 3 3.2101 -10.5400 71.7195 0.0000 0.0000 0.0000
# 4 0.0000 0.0000 0.0000 4.4771 0.0000 0.0000
# 5 0.0000 0.0000 0.0000 0.0000 4.3195 0.0000
# 6 0.0000 0.0000 0.0000 0.0000 0.0000 20.6244
#
#
#
# Elastic Compliance Matrix: (Units=1/GPa)
#
#
# Indices 1 2 3 4 5 6 
#
# 1 0.012084 0.000085 -0.000528 0.000000 0.000000 0.000000
# 2 0.000085 0.018125 0.002660 0.000000 0.000000 0.000000
# 3 -0.000528 0.002660 0.014358 0.000000 0.000000 0.000000
# 4 0.000000 0.000000 0.000000 0.223359 0.000000 0.000000
# 5 0.000000 0.000000 0.000000 0.000000 0.231507 0.000000
# 6 0.000000 0.000000 0.000000 0.000000 0.000000 0.048486
#
#
# Mechanical properties :
#
#
# Convention : Reuss Voigt Hill
#
# Bulk Modulus (GPa) = 20.40852 21.66295 21.03574
# Shear Modulus (GPa) = 8.93146 20.51981 14.72564
#
# Velocity S-wave (km/s) = 2.16781 3.28584 2.78354
# Velocity P-wave (km/s) = 4.12360 5.07878 4.62591
#
# Compressibility (1/GPa) = 0.04899914
#
# Stress axis : x y z
#
# Youngs Moduli (GPa) = 82.75552 55.17274 69.64880
#
# Poissons Ratio (x) = -0.00468 0.03680
# Poissons Ratio (y) = -0.00702 -0.18526
# Poissons Ratio (z) = 0.04373 -0.14675
#
# Static dielectric constant tensor:
#      x y z
#    x 1.704350 0.000000 0.000000 
#    y 0.000000 1.666450 0.000000 
#    z 0.000000 0.000000 1.652850 
# 
# From -- ./inp_files/19856.got.cif
#   From: 2010.05.17/outbox.cif.g08.bks.cpg/sg58_10_cif.got.tgz:19856.got - 2010.06.03 14:20:14.
