data_PCOD9443846
_publ_section_title
;
Structure prediction by ZEFSAII (Michael W. Deem and Ramdas Pophale) SiO2 
 PCOD9443846
Probable space group: P N N M
;
_chemical_formula_sum "Si O2"
_cell_formula_units_Z 40
_cell_length_a 6.104287
_cell_length_b 23.889323
_cell_length_c 12.509610
_cell_angle_alpha 90.000000
_cell_angle_beta 90.000000
_cell_angle_gamma 90.000000
_cell_volume 1824.242448
_symmetry_space_group_name_H-M "P N N M"
_symmetry_group_IT_number 58
_symmetry_cell_setting 'orthorhombic'
loop_
_space_group_symop_operation_xyz
x,y,z
-x,-y,z
1/2+x,1/2-y,1/2-z
1/2-x,1/2+y,1/2-z
-x,-y,-z
x,y,-z
1/2-x,1/2+y,1/2+z
1/2+x,1/2-y,1/2+z
loop_
_atom_site_type_symbol
_atom_site_label
_atom_site_fract_x
_atom_site_fract_y
_atom_site_fract_z
Si Si1 0.117568 0.621412 0.239859
Si Si2 0.259619 0.420594 0.881612
Si Si3 0.738408 0.493056 0.317178
Si Si4 0.324341 0.805978 0.879966
Si Si5 0.997833 0.193332 0.314716
O O1 0.263359 0.571396 0.282381
O O2 0.257066 0.674526 0.209381
O O3 0.989464 0.599238 0.136921
O O4 0.950832 0.640561 0.332128
O O5 0.283091 0.465676 0.786020
O O6 0.391908 0.362133 0.867827
O O7 0.298574 0.443542 0.000000
O O8 0.500000 0.500000 0.375866
O O9 0.000000 0.500000 0.355715
O O10 0.130234 0.797137 0.795674
O O11 0.482602 0.751608 0.876630
O O12 0.247874 0.815353 0.000000
#
# Coordination Sequence:
#
# PCOD9443846 Si02
#       5
#     8   8   8   8   8
#     4  10  22  40  60  87 129 168 214 265 326 398
#     4  10  22  37  61  96 131 171 216 268 340 411
#     4  10  20  38  62  91 130 179 215 272 338 397
#     4  11  24  41  64  91 127 174 219 270 336 400
#     4  11  21  42  60  91 129 166 215 273 330 398
#
# _framework density 21.926909999999999
#
# number of rings (size 3 to 8) (size 9 to 14) (size 15 to 20)
#    0.000    1.600    4.000    0.600    0.000    6.400 
#    0.000    0.000    0.000   15.600    0.000    0.000 
#    0.000    0.000    0.000    0.000    0.000    0.000 
#
# Total GULP energy -222740.186840 kJ/mol
# GULP energy per Si atom -5568.504671 kJ/mol
# Density = 2.187700 g / cm^3
# Si number density = 21.926910 Si / 1000 Ang^3
#
#
#
# Elastic Constant Matrix: (Units=GPa)
#
#
# Indices 1 2 3 4 5 6 
#
# 1 92.2408 -2.4900 11.2704 0.0000 0.0000 0.0000
# 2 -2.4900 91.6851 8.8339 0.0000 0.0000 0.0000
# 3 11.2704 8.8339 101.0470 0.0000 0.0000 0.0000
# 4 0.0000 0.0000 0.0000 0.0111 0.0000 0.0000
# 5 0.0000 0.0000 0.0000 0.0000 6.4178 0.0000
# 6 0.0000 0.0000 0.0000 0.0000 0.0000 42.5405
#
#
#
# Elastic Compliance Matrix: (Units=1/GPa)
#
#
# Indices 1 2 3 4 5 6 
#
# 1 0.011007 0.000421 -0.001264 0.000000 0.000000 0.000000
# 2 0.000421 0.011016 -0.001010 0.000000 0.000000 0.000000
# 3 -0.001264 -0.001010 0.010126 0.000000 0.000000 0.000000
# 4 0.000000 0.000000 0.000000 89.980579 0.000000 0.000000
# 5 0.000000 0.000000 0.000000 0.000000 0.155817 0.000000
# 6 0.000000 0.000000 0.000000 0.000000 0.000000 0.023507
#
#
# Mechanical properties :
#
#
# Convention : Reuss Voigt Hill
#
# Bulk Modulus (GPa) = 35.16041 35.57794 35.36918
# Shear Modulus (GPa) = 0.05543 27.61779 13.83661
#
# Velocity S-wave (km/s) = 0.15917 3.55285 2.51476
# Velocity P-wave (km/s) = 4.01296 5.75250 4.95959
#
# Compressibility (1/GPa) = 0.02844108
#
# Stress axis : x y z
#
# Youngs Moduli (GPa) = 90.85085 90.78005 98.75847
#
# Poissons Ratio (x) = -0.03820 0.12488
# Poissons Ratio (y) = -0.03823 0.09974
# Poissons Ratio (z) = 0.11488 0.09168
#
# Static dielectric constant tensor:
#      x y z
#    x 1.896700 0.000000 0.000000 
#    y 0.000000 1.810410 0.000000 
#    z 0.000000 0.000000 1.774630 
# 
# From -- ./inp_files/11739.got.cif
#   From: 2010.05.17/outbox.cif.g08.bks.cpg/sg58_6_cif.got.tgz:11739.got - 2010.06.03 14:20:14.
