data_PCOD9443824
_publ_section_title
;
Structure prediction by ZEFSAII (Michael W. Deem and Ramdas Pophale) SiO2 
 PCOD9443824
Probable space group: P N N M
;
_chemical_formula_sum "Si O2"
_cell_formula_units_Z 56
_cell_length_a 9.235625
_cell_length_b 18.659662
_cell_length_c 16.972314
_cell_angle_alpha 90.000000
_cell_angle_beta 90.000000
_cell_angle_gamma 90.000000
_cell_volume 2924.900665
_symmetry_space_group_name_H-M "P N N M"
_symmetry_group_IT_number 58
_symmetry_cell_setting 'orthorhombic'
loop_
_space_group_symop_operation_xyz
x,y,z
-x,-y,z
1/2+x,1/2-y,1/2-z
1/2-x,1/2+y,1/2-z
-x,-y,-z
x,y,-z
1/2-x,1/2+y,1/2+z
1/2+x,1/2-y,1/2+z
loop_
_atom_site_type_symbol
_atom_site_label
_atom_site_fract_x
_atom_site_fract_y
_atom_site_fract_z
Si Si1 0.690370 0.883578 0.653866
Si Si2 0.054707 0.839344 0.906529
Si Si3 0.574713 0.575539 0.000000
Si Si4 0.667143 0.980852 0.500000
Si Si5 0.946723 0.919876 0.236237
Si Si6 0.904625 0.698674 0.167182
Si Si7 0.164091 0.271214 0.349156
Si Si8 0.917071 0.178866 0.635812
O O1 0.701492 0.935418 0.578814
O O2 0.784559 0.911694 0.728236
O O3 0.521674 0.865334 0.669317
O O4 0.759774 0.805685 0.636702
O O5 0.226617 0.828790 0.886276
O O6 0.978368 0.901268 0.854739
O O7 0.978389 0.766517 0.874981
O O8 0.037541 0.847045 0.000000
O O9 0.500000 0.500000 0.000000
O O10 0.529135 0.620934 0.074194
O O11 0.742148 0.553868 0.000000
O O12 0.500000 0.000000 0.500000
O O13 0.039970 0.858018 0.281384
O O14 0.000000 0.000000 0.254765
O O15 0.855321 0.716198 0.256222
O O16 0.753507 0.683565 0.125234
O O17 0.999990 0.253995 0.376657
#
# Coordination Sequence:
#
# PCOD9443824 Si02
#       8
#     8   8   4   4   8   8   8   8
#     4  10  22  36  62  87 127 166 209 251 311 375
#     4  11  24  39  62  92 122 157 202 270 321 363
#     4  12  24  36  54  86 132 168 203 238 289 377
#     4  12  24  40  54  92 140 176 199 247 299 377
#     4  11  22  41  62  84 115 170 220 253 308 377
#     4  11  20  39  61  94 119 154 204 260 314 368
#     4  10  20  38  62  85 117 154 203 259 313 367
#     4  11  21  36  61  90 119 162 205 251 305 374
#
# _framework density 19.145949000000002
#
# number of rings (size 3 to 8) (size 9 to 14) (size 15 to 20)
#    0.000    1.143    4.286    4.714    6.000    0.286 
#    0.000    0.000    0.000    0.000    0.000    1.000 
#    0.000    0.000    0.000    0.000    0.000    0.000 
#
# Total GULP energy -312283.860527 kJ/mol
# GULP energy per Si atom -5576.497509 kJ/mol
# Density = 1.910237 g / cm^3
# Si number density = 19.145949 Si / 1000 Ang^3
#
#
#
# Elastic Constant Matrix: (Units=GPa)
#
#
# Indices 1 2 3 4 5 6 
#
# 1 136.1173 23.4186 26.8688 0.0000 0.0000 0.0000
# 2 23.4186 41.1301 21.1866 0.0000 0.0000 0.0000
# 3 26.8688 21.1866 110.6414 0.0000 0.0000 0.0000
# 4 0.0000 0.0000 0.0000 19.0479 0.0000 0.0000
# 5 0.0000 0.0000 0.0000 0.0000 16.4559 0.0000
# 6 0.0000 0.0000 0.0000 0.0000 0.0000 24.9412
#
#
#
# Elastic Compliance Matrix: (Units=1/GPa)
#
#
# Indices 1 2 3 4 5 6 
#
# 1 0.008293 -0.004088 -0.001231 0.000000 0.000000 0.000000
# 2 -0.004088 0.028989 -0.004558 0.000000 0.000000 0.000000
# 3 -0.001231 -0.004558 0.010210 0.000000 0.000000 0.000000
# 4 0.000000 0.000000 0.000000 0.052499 0.000000 0.000000
# 5 0.000000 0.000000 0.000000 0.000000 0.060768 0.000000
# 6 0.000000 0.000000 0.000000 0.000000 0.000000 0.040094
#
#
# Mechanical properties :
#
#
# Convention : Reuss Voigt Hill
#
# Bulk Modulus (GPa) = 36.05253 47.87075 41.96164
# Shear Modulus (GPa) = 21.75300 26.51666 24.13483
#
# Velocity S-wave (km/s) = 3.37436 3.72556 3.55430
# Velocity P-wave (km/s) = 5.83550 6.60029 6.22964
#
# Compressibility (1/GPa) = 0.02773730
#
# Stress axis : x y z
#
# Youngs Moduli (GPa) = 120.58520 34.49636 97.94260
#
# Poissons Ratio (x) = 0.14101 0.12058
# Poissons Ratio (y) = 0.49291 0.44645
# Poissons Ratio (z) = 0.14846 0.15725
#
# Static dielectric constant tensor:
#      x y z
#    x 1.850480 0.000000 0.000000 
#    y 0.000000 1.659560 0.000000 
#    z 0.000000 0.000000 1.697160 
# 
# From -- ./inp_files/20174.got.cif
#   From: 2010.05.17/outbox.cif.g08.bks.cpg/sg58_11_cif.got.tgz:20174.got - 2010.06.03 14:20:14.
