data_PCOD9443813
_publ_section_title
;
Structure prediction by ZEFSAII (Michael W. Deem and Ramdas Pophale) SiO2 
 PCOD9443813
Probable space group: P N N M
;
_chemical_formula_sum "Si O2"
_cell_formula_units_Z 28
_cell_length_a 8.230103
_cell_length_b 4.970333
_cell_length_c 32.387703
_cell_angle_alpha 90.000000
_cell_angle_beta 90.000000
_cell_angle_gamma 90.000000
_cell_volume 1324.862797
_symmetry_space_group_name_H-M "P N N M"
_symmetry_group_IT_number 58
_symmetry_cell_setting 'orthorhombic'
loop_
_space_group_symop_operation_xyz
x,y,z
-x,-y,z
1/2+x,1/2-y,1/2-z
1/2-x,1/2+y,1/2-z
-x,-y,-z
x,y,-z
1/2-x,1/2+y,1/2+z
1/2+x,1/2-y,1/2+z
loop_
_atom_site_type_symbol
_atom_site_label
_atom_site_fract_x
_atom_site_fract_y
_atom_site_fract_z
Si Si1 0.621602 0.248895 0.500000
Si Si2 0.680736 0.126653 0.589587
Si Si3 0.179546 0.377363 0.367274
Si Si4 0.822493 0.631308 0.271001
O O1 0.500000 0.500000 0.500000
O O2 0.716910 0.226252 0.542953
O O3 0.500000 0.000000 0.500000
O O4 0.699680 0.386526 0.618330
O O5 0.500000 0.000000 0.590812
O O6 0.794894 0.887863 0.605576
O O7 0.204434 0.308909 0.319257
O O8 0.000000 0.500000 0.372098
O O9 0.700387 0.403385 0.254512
O O10 0.000000 0.500000 0.266232
#
# Coordination Sequence:
#
# PCOD9443813 Si02
#       4
#     4   8   8   8
#     4  10  20  38  61  90 123 154 197 254 301 342
#     4  11  22  39  64  90 116 158 206 246 291 357
#     4  11  24  41  59  88 127 158 191 249 311 355
#     4  11  24  41  62  87 120 159 200 248 301 355
#
# _framework density 21.134263000000001
#
# number of rings (size 3 to 8) (size 9 to 14) (size 15 to 20)
#    0.000    1.143    0.000    7.714    0.000   11.429 
#    0.000    4.286    0.000    0.000    0.000    0.000 
#    0.000    0.000    0.000    0.000    0.000    0.000 
#
# Total GULP energy -156628.157994 kJ/mol
# GULP energy per Si atom -5593.862785 kJ/mol
# Density = 2.108616 g / cm^3
# Si number density = 21.134263 Si / 1000 Ang^3
#
#
#
# Elastic Constant Matrix: (Units=GPa)
#
#
# Indices 1 2 3 4 5 6 
#
# 1 48.0387 16.1200 54.5265 0.0000 0.0000 0.0000
# 2 16.1200 133.5940 46.8142 0.0000 0.0000 0.0000
# 3 54.5265 46.8142 137.7905 0.0000 0.0000 0.0000
# 4 0.0000 0.0000 0.0000 122.3526 0.0000 0.0000
# 5 0.0000 0.0000 0.0000 0.0000 -26.7188 0.0000
# 6 0.0000 0.0000 0.0000 0.0000 0.0000 30.6789
#
#
#
# Elastic Compliance Matrix: (Units=1/GPa)
#
#
# Indices 1 2 3 4 5 6 
#
# 1 0.037861 0.000774 -0.015245 0.000000 0.000000 0.000000
# 2 0.000774 0.008513 -0.003198 0.000000 0.000000 0.000000
# 3 -0.015245 -0.003198 0.014377 0.000000 0.000000 0.000000
# 4 0.000000 0.000000 0.000000 0.008173 0.000000 0.000000
# 5 0.000000 0.000000 0.000000 0.000000 -0.037427 0.000000
# 6 0.000000 0.000000 0.000000 0.000000 0.000000 0.032596
#
#
# Mechanical properties :
#
#
# Convention : Reuss Voigt Hill
#
# Bulk Modulus (GPa) = 39.35301 61.59384 50.47343
# Shear Modulus (GPa) = 46.33783 38.72670 42.53226
#
# Velocity S-wave (km/s) = 4.68754 4.28531 4.49093
# Velocity P-wave (km/s) = 6.92519 7.32752 7.12920
#
# Compressibility (1/GPa) = 0.02541101
#
# Stress axis : x y z
#
# Youngs Moduli (GPa) = 26.41226 117.47029 69.55568
#
# Poissons Ratio (x) = -0.09090 1.06040
# Poissons Ratio (y) = -0.02044 0.22247
# Poissons Ratio (z) = 0.40266 0.37572
#
# Static dielectric constant tensor:
#      x y z
#    x 1.796210 0.000000 0.000000 
#    y 0.000000 1.721860 0.000000 
#    z 0.000000 0.000000 1.787030 
# 
# From -- ./inp_files/33068.got.cif
#   From: 2010.05.17/outbox.cif.g08.bks.cpg/sg58_17_cif.got.tgz:33068.got - 2010.06.03 14:20:14.
