data_PCOD9443366
_publ_section_title
;
Structure prediction by ZEFSAII (Michael W. Deem and Ramdas Pophale) SiO2 
 PCOD9443366
Probable space group: P N N M
;
_chemical_formula_sum "Si O2"
_cell_formula_units_Z 64
_cell_length_a 9.509115
_cell_length_b 16.754271
_cell_length_c 19.063640
_cell_angle_alpha 90.000000
_cell_angle_beta 90.000000
_cell_angle_gamma 90.000000
_cell_volume 3037.186520
_symmetry_space_group_name_H-M "P N N M"
_symmetry_group_IT_number 58
_symmetry_cell_setting 'orthorhombic'
loop_
_space_group_symop_operation_xyz
x,y,z
-x,-y,z
1/2+x,1/2-y,1/2-z
1/2-x,1/2+y,1/2-z
-x,-y,-z
x,y,-z
1/2-x,1/2+y,1/2+z
1/2+x,1/2-y,1/2+z
loop_
_atom_site_type_symbol
_atom_site_label
_atom_site_fract_x
_atom_site_fract_y
_atom_site_fract_z
Si Si1 0.984712 0.379882 0.270134
Si Si2 0.810212 0.183820 0.417575
Si Si3 0.905602 0.740215 0.629923
Si Si4 0.315433 0.391127 0.416957
Si Si5 0.338822 0.488656 0.143277
Si Si6 0.039245 0.233746 0.920917
Si Si7 0.736191 0.996216 0.798464
Si Si8 0.661351 0.866631 0.623332
O O1 0.850835 0.415430 0.312099
O O2 0.933702 0.380838 0.191122
O O3 0.032134 0.294791 0.298218
O O4 0.115087 0.439151 0.279505
O O5 0.782243 0.166661 0.500000
O O6 0.803901 0.102392 0.373925
O O7 0.687098 0.241226 0.389087
O O8 0.962207 0.224708 0.411581
O O9 0.821849 0.666428 0.593719
O O10 0.793553 0.809964 0.640922
O O11 0.327842 0.408021 0.500000
O O12 0.444897 0.336563 0.389615
O O13 0.306802 0.468321 0.367732
O O14 0.500000 0.500000 0.120886
O O15 0.325078 0.508472 0.226638
O O16 0.231839 0.549109 0.103968
O O17 0.939111 0.312121 0.923932
O O18 0.069609 0.207211 0.000000
#
# Coordination Sequence:
#
# PCOD9443366 Si02
#       8
#     8   8   8   8   8   8   8   8
#     4   9  19  35  57  85 114 147 193 233 289 344
#     4  11  23  38  56  82 115 152 190 237 288 341
#     4  10  20  36  55  84 114 149 187 237 289 335
#     4   9  18  37  62  87 113 149 191 233 286 346
#     4  11  22  39  54  81 114 147 193 236 289 341
#     4   9  20  36  56  83 112 146 190 235 286 342
#     4   9  19  37  59  84 116 151 186 240 289 342
#     4  10  20  37  56  80 109 150 190 238 283 343
#
# _framework density 21.072133000000001
#
# number of rings (size 3 to 8) (size 9 to 14) (size 15 to 20)
#    0.000    2.250    1.250    1.125    0.000    6.750 
#    4.500    6.875    0.000    0.375    0.000    0.000 
#    0.000    0.000    0.000    0.000    0.000    0.000 
#
# Total GULP energy -356947.146057 kJ/mol
# GULP energy per Si atom -5577.299157 kJ/mol
# Density = 2.102417 g / cm^3
# Si number density = 21.072133 Si / 1000 Ang^3
#
#
#
# Elastic Constant Matrix: (Units=GPa)
#
#
# Indices 1 2 3 4 5 6 
#
# 1 73.4973 2.0283 -5.7515 0.0000 0.0000 0.0000
# 2 2.0283 26.8008 -8.2678 0.0000 0.0000 0.0000
# 3 -5.7515 -8.2678 21.3920 0.0000 0.0000 0.0000
# 4 0.0000 0.0000 0.0000 28.4370 0.0000 0.0000
# 5 0.0000 0.0000 0.0000 0.0000 16.2161 0.0000
# 6 0.0000 0.0000 0.0000 0.0000 0.0000 16.2896
#
#
#
# Elastic Compliance Matrix: (Units=1/GPa)
#
#
# Indices 1 2 3 4 5 6 
#
# 1 0.013899 0.000115 0.003781 0.000000 0.000000 0.000000
# 2 0.000115 0.042364 0.016404 0.000000 0.000000 0.000000
# 3 0.003781 0.016404 0.054103 0.000000 0.000000 0.000000
# 4 0.000000 0.000000 0.000000 0.035165 0.000000 0.000000
# 5 0.000000 0.000000 0.000000 0.000000 0.061667 0.000000
# 6 0.000000 0.000000 0.000000 0.000000 0.000000 0.061389
#
#
# Mechanical properties :
#
#
# Convention : Reuss Voigt Hill
#
# Bulk Modulus (GPa) = 6.62402 10.85645 8.74024
# Shear Modulus (GPa) = 17.96561 21.10061 19.53311
#
# Velocity S-wave (km/s) = 2.92306 3.16785 3.04791
# Velocity P-wave (km/s) = 3.81349 4.30622 4.06732
#
# Compressibility (1/GPa) = 0.15096573
#
# Stress axis : x y z
#
# Youngs Moduli (GPa) = 71.94934 23.60486 18.48319
#
# Poissons Ratio (x) = -0.00270 -0.06989
# Poissons Ratio (y) = -0.00824 -0.30320
# Poissons Ratio (z) = -0.27205 -0.38722
#
# Static dielectric constant tensor:
#      x y z
#    x 1.774630 0.000000 0.000000 
#    y 0.000000 1.768180 0.000000 
#    z 0.000000 0.000000 1.763140 
# 
# From -- ./inp_files/29127.got.cif
#   From: 2010.05.17/outbox.cif.g08.bks.cpg/sg58_15_cif.got.tgz:29127.got - 2010.06.03 14:20:14.
