data_PCOD9443870
_publ_section_title
;
Structure prediction by ZEFSAII (Michael W. Deem and Ramdas Pophale) SiO2 
 PCOD9443870
Probable space group: P N N M
;
_chemical_formula_sum "Si O2"
_cell_formula_units_Z 40
_cell_length_a 14.271093
_cell_length_b 6.855143
_cell_length_c 19.262322
_cell_angle_alpha 90.000000
_cell_angle_beta 90.000000
_cell_angle_gamma 90.000000
_cell_volume 1884.440344
_symmetry_space_group_name_H-M "P N N M"
_symmetry_group_IT_number 58
_symmetry_cell_setting 'orthorhombic'
loop_
_space_group_symop_operation_xyz
x,y,z
-x,-y,z
1/2+x,1/2-y,1/2-z
1/2-x,1/2+y,1/2-z
-x,-y,-z
x,y,-z
1/2-x,1/2+y,1/2+z
1/2+x,1/2-y,1/2+z
loop_
_atom_site_type_symbol
_atom_site_label
_atom_site_fract_x
_atom_site_fract_y
_atom_site_fract_z
Si Si1 0.712667 0.947675 0.420509
Si Si2 0.772235 0.818068 0.819815
Si Si3 0.081585 0.854641 0.861733
Si Si4 0.432454 0.245703 0.794425
Si Si5 0.632102 0.309621 0.173823
O O1 0.724887 0.004429 0.500000
O O2 0.620845 0.814086 0.410522
O O3 0.800931 0.820860 0.392468
O O4 0.709173 0.136077 0.370659
O O5 0.833247 0.999735 0.844164
O O6 0.661874 0.866570 0.815509
O O7 0.807031 0.764140 0.742479
O O8 0.052190 0.753194 0.788792
O O9 0.000000 0.000000 0.886601
O O10 0.401558 0.466185 0.813769
O O11 0.532609 0.201093 0.828080
#
# Coordination Sequence:
#
# PCOD9443870 Si02
#       5
#     8   8   8   8   8
#     4  11  25  40  60  92 127 159 199 252 313 366
#     4  10  20  38  64  87 118 157 205 254 295 356
#     4  11  21  38  61  84 122 160 202 251 301 359
#     4   9  16  33  61  96 112 150 212 251 292 351
#     4   9  17  35  63  86 121 157 201 251 297 356
#
# _framework density 21.226459999999999
#
# number of rings (size 3 to 8) (size 9 to 14) (size 15 to 20)
#    0.000    2.000    6.000    0.000    0.000    2.000 
#    0.000   12.000    0.000    1.200    0.000    0.000 
#    0.000    0.000    0.000    0.000    0.000    0.000 
#
# Total GULP energy -223418.448767 kJ/mol
# GULP energy per Si atom -5585.461219 kJ/mol
# Density = 2.117815 g / cm^3
# Si number density = 21.226460 Si / 1000 Ang^3
#
#
#
# Elastic Constant Matrix: (Units=GPa)
#
#
# Indices 1 2 3 4 5 6 
#
# 1 110.4062 27.5597 5.2183 0.0000 0.0000 0.0000
# 2 27.5597 65.4525 16.1845 0.0000 0.0000 0.0000
# 3 5.2183 16.1845 56.2244 0.0000 0.0000 0.0000
# 4 0.0000 0.0000 0.0000 8.9972 0.0000 0.0000
# 5 0.0000 0.0000 0.0000 0.0000 5.9480 0.0000
# 6 0.0000 0.0000 0.0000 0.0000 0.0000 40.3120
#
#
#
# Elastic Compliance Matrix: (Units=1/GPa)
#
#
# Indices 1 2 3 4 5 6 
#
# 1 0.010126 -0.004340 0.000310 0.000000 0.000000 0.000000
# 2 -0.004340 0.018309 -0.004868 0.000000 0.000000 0.000000
# 3 0.000310 -0.004868 0.019158 0.000000 0.000000 0.000000
# 4 0.000000 0.000000 0.000000 0.111146 0.000000 0.000000
# 5 0.000000 0.000000 0.000000 0.000000 0.168123 0.000000
# 6 0.000000 0.000000 0.000000 0.000000 0.000000 0.024807
#
#
# Mechanical properties :
#
#
# Convention : Reuss Voigt Hill
#
# Bulk Modulus (GPa) = 33.56023 36.66756 35.11390
# Shear Modulus (GPa) = 13.17875 23.25949 18.21912
#
# Velocity S-wave (km/s) = 2.49442 3.31384 2.93289
# Velocity P-wave (km/s) = 4.91335 5.65279 5.29599
#
# Compressibility (1/GPa) = 0.02979717
#
# Stress axis : x y z
#
# Youngs Moduli (GPa) = 98.75304 54.61667 52.19670
#
# Poissons Ratio (x) = 0.23706 -0.01616
# Poissons Ratio (y) = 0.42862 0.25407
# Poissons Ratio (z) = -0.03057 0.26585
#
# Static dielectric constant tensor:
#      x y z
#    x 1.838280 0.000000 0.000000 
#    y 0.000000 1.882380 0.000000 
#    z 0.000000 0.000000 1.698520 
# 
# From -- ./inp_files/26672.got.cif
#   From: 2010.05.17/outbox.cif.g08.bks.cpg/sg58_14_cif.got.tgz:26672.got - 2010.06.03 14:20:14.
