data_PCOD9443343
_publ_section_title
;
Structure prediction by ZEFSAII (Michael W. Deem and Ramdas Pophale) SiO2 
 PCOD9443343
Probable space group: P N N M
;
_chemical_formula_sum "Si O2"
_cell_formula_units_Z 44
_cell_length_a 11.489194
_cell_length_b 8.271613
_cell_length_c 25.752302
_cell_angle_alpha 90.000000
_cell_angle_beta 90.000000
_cell_angle_gamma 90.000000
_cell_volume 2447.348555
_symmetry_space_group_name_H-M "P N N M"
_symmetry_group_IT_number 58
_symmetry_cell_setting 'orthorhombic'
loop_
_space_group_symop_operation_xyz
x,y,z
-x,-y,z
1/2+x,1/2-y,1/2-z
1/2-x,1/2+y,1/2-z
-x,-y,-z
x,y,-z
1/2-x,1/2+y,1/2+z
1/2+x,1/2-y,1/2+z
loop_
_atom_site_type_symbol
_atom_site_label
_atom_site_fract_x
_atom_site_fract_y
_atom_site_fract_z
Si Si1 0.628079 0.542741 0.394179
Si Si2 0.500000 0.000000 0.658329
Si Si3 0.932756 0.232980 0.000000
Si Si4 0.321006 0.912130 0.500000
Si Si5 0.216255 0.316418 0.890878
Si Si6 0.182580 0.743402 0.200087
Si Si7 0.364427 0.467739 0.201547
O O1 0.500000 0.500000 0.372085
O O2 0.602505 0.630111 0.449149
O O3 0.697305 0.375011 0.395734
O O4 0.689333 0.663177 0.354428
O O5 0.591408 0.100660 0.623560
O O6 0.424944 0.120562 0.693081
O O7 0.869231 0.405827 0.000000
O O8 0.069409 0.284567 0.000000
O O9 0.251586 0.882353 0.552625
O O10 0.304497 0.373005 0.846422
O O11 0.296582 0.636403 0.208380
O O12 0.158165 0.864035 0.246808
O O13 0.500000 0.500000 0.193515
#
# Coordination Sequence:
#
# PCOD9443343 Si02
#       7
#     8   4   4   4   8   8   8
#     4  12  20  34  58  93 129 156 193 247 312 369
#     4  10  20  35  60  90 124 151 200 246 310 368
#     4  11  20  31  56  97 131 155 192 254 319 368
#     4  11  19  34  58  87 127 166 196 248 309 366
#     4  11  22  38  58  90 122 166 202 249 304 360
#     4  11  23  39  63  86 119 160 198 251 306 357
#     4  11  26  43  60  88 121 160 209 248 300 363
#
# _framework density 17.978641
#
# number of rings (size 3 to 8) (size 9 to 14) (size 15 to 20)
#    0.000    0.909    3.636    5.727    5.091    0.000 
#    0.000    0.455    0.000    0.000    0.000    3.818 
#    0.000    0.000    0.000    0.000    0.000    0.000 
#
# Total GULP energy -245939.549603 kJ/mol
# GULP energy per Si atom -5589.535218 kJ/mol
# Density = 1.793772 g / cm^3
# Si number density = 17.978641 Si / 1000 Ang^3
#
#
#
# Elastic Constant Matrix: (Units=GPa)
#
#
# Indices 1 2 3 4 5 6 
#
# 1 82.1105 45.3682 42.3657 0.0000 0.0000 0.0000
# 2 45.3682 128.1262 55.1723 0.0000 0.0000 0.0000
# 3 42.3657 55.1723 130.6523 0.0000 0.0000 0.0000
# 4 0.0000 0.0000 0.0000 32.5380 0.0000 0.0000
# 5 0.0000 0.0000 0.0000 0.0000 13.0280 0.0000
# 6 0.0000 0.0000 0.0000 0.0000 0.0000 20.4812
#
#
#
# Elastic Compliance Matrix: (Units=1/GPa)
#
#
# Indices 1 2 3 4 5 6 
#
# 1 0.016348 -0.004285 -0.003491 0.000000 0.000000 0.000000
# 2 -0.004285 0.010663 -0.003113 0.000000 0.000000 0.000000
# 3 -0.003491 -0.003113 0.010101 0.000000 0.000000 0.000000
# 4 0.000000 0.000000 0.000000 0.030733 0.000000 0.000000
# 5 0.000000 0.000000 0.000000 0.000000 0.076758 0.000000
# 6 0.000000 0.000000 0.000000 0.000000 0.000000 0.048825
#
#
# Mechanical properties :
#
#
# Convention : Reuss Voigt Hill
#
# Bulk Modulus (GPa) = 65.22443 69.63350 67.42897
# Shear Modulus (GPa) = 22.69450 26.40829 24.55139
#
# Velocity S-wave (km/s) = 3.55675 3.83674 3.69939
# Velocity P-wave (km/s) = 7.29554 7.64479 7.47220
#
# Compressibility (1/GPa) = 0.01533168
#
# Stress axis : x y z
#
# Youngs Moduli (GPa) = 61.17023 93.78497 99.00318
#
# Poissons Ratio (x) = 0.40188 0.34566
# Poissons Ratio (y) = 0.26212 0.30821
# Poissons Ratio (z) = 0.21357 0.29197
#
# Static dielectric constant tensor:
#      x y z
#    x 1.592650 0.000000 0.000000 
#    y 0.000000 1.638100 0.000000 
#    z 0.000000 0.000000 1.622320 
# 
# From -- ./inp_files/31428.got.cif
#   From: 2010.05.17/outbox.cif.g08.bks.cpg/sg58_16_cif.got.tgz:31428.got - 2010.06.03 14:20:14.
