data_PCOD9443895
_publ_section_title
;
Structure prediction by ZEFSAII (Michael W. Deem and Ramdas Pophale) SiO2 
 PCOD9443895
Probable space group: P N N M
;
_chemical_formula_sum "Si O2"
_cell_formula_units_Z 58
_cell_length_a 12.566924
_cell_length_b 24.593110
_cell_length_c 9.516298
_cell_angle_alpha 90.000000
_cell_angle_beta 90.000000
_cell_angle_gamma 90.000000
_cell_volume 2941.104627
_symmetry_space_group_name_H-M "P N N M"
_symmetry_group_IT_number 58
_symmetry_cell_setting 'orthorhombic'
loop_
_space_group_symop_operation_xyz
x,y,z
-x,-y,z
1/2+x,1/2-y,1/2-z
1/2-x,1/2+y,1/2-z
-x,-y,-z
x,y,-z
1/2-x,1/2+y,1/2+z
1/2+x,1/2-y,1/2+z
loop_
_atom_site_type_symbol
_atom_site_label
_atom_site_fract_x
_atom_site_fract_y
_atom_site_fract_z
Si Si1 0.604909 0.037231 0.169176
Si Si2 0.137465 0.107491 0.841769
Si Si3 0.192011 0.664506 0.162833
Si Si4 0.589062 0.631247 0.663531
Si Si5 0.228697 0.287066 0.331455
Si Si6 0.500000 0.500000 0.000000
Si Si7 0.057996 0.350641 0.831821
Si Si8 0.339516 0.488601 0.263455
O O1 0.587081 0.094250 0.248450
O O2 0.710870 0.010920 0.236348
O O3 0.500000 0.000000 0.186550
O O4 0.621866 0.044620 0.000000
O O5 0.240157 0.123679 0.755484
O O6 0.029536 0.131595 0.773649
O O7 0.125755 0.042592 0.845344
O O8 0.149385 0.127956 0.000000
O O9 0.234647 0.725347 0.187654
O O10 0.066685 0.660901 0.188613
O O11 0.210401 0.651100 0.000000
O O12 0.575960 0.645290 0.500000
O O13 0.676207 0.672979 0.718772
O O14 0.631817 0.570006 0.673024
O O15 0.210681 0.296145 0.500000
O O16 0.127092 0.303334 0.240135
O O17 0.593188 0.507297 0.878696
O O18 0.078483 0.355102 0.000000
#
# Coordination Sequence:
#
# PCOD9443895 Si02
#       8
#     8   8   8   8   8   2   8   8
#     4  11  24  43  69  99 134 180 231 277 326 403
#     4  11  23  39  66  97 128 170 220 268 322 390
#     4  10  25  44  64  92 134 174 214 271 336 394
#     4  10  20  38  65  91 120 162 213 265 318 380
#     4  10  22  43  68  91 121 171 219 269 326 391
#     4  12  28  40  60 100 148 176 218 286 336 414
#     4  11  24  42  64  97 133 169 216 274 334 398
#     4  12  23  41  63  96 135 176 215 272 334 396
#
# _framework density 19.720482000000001
#
# number of rings (size 3 to 8) (size 9 to 14) (size 15 to 20)
#    0.000    1.241    2.759    2.483    3.862    4.138 
#    0.000    0.000    0.000    0.000    0.000    0.000 
#    0.000    0.000    0.000    0.000    0.000    0.000 
#
# Total GULP energy -323283.390427 kJ/mol
# GULP energy per Si atom -5573.851559 kJ/mol
# Density = 1.967560 g / cm^3
# Si number density = 19.720482 Si / 1000 Ang^3
#
#
#
# Elastic Constant Matrix: (Units=GPa)
#
#
# Indices 1 2 3 4 5 6 
#
# 1 118.1750 16.0015 60.4500 0.0000 0.0000 0.0000
# 2 16.0015 48.3553 30.7446 0.0000 0.0000 0.0000
# 3 60.4500 30.7446 80.7969 0.0000 0.0000 0.0000
# 4 0.0000 0.0000 0.0000 53.9734 0.0000 0.0000
# 5 0.0000 0.0000 0.0000 0.0000 44.8763 0.0000
# 6 0.0000 0.0000 0.0000 0.0000 0.0000 20.4526
#
#
#
# Elastic Compliance Matrix: (Units=1/GPa)
#
#
# Indices 1 2 3 4 5 6 
#
# 1 0.013964 0.002667 -0.011463 0.000000 0.000000 0.000000
# 2 0.002667 0.027790 -0.012570 0.000000 0.000000 0.000000
# 3 -0.011463 -0.012570 0.025736 0.000000 0.000000 0.000000
# 4 0.000000 0.000000 0.000000 0.018528 0.000000 0.000000
# 5 0.000000 0.000000 0.000000 0.000000 0.022283 0.000000
# 6 0.000000 0.000000 0.000000 0.000000 0.000000 0.048894
#
#
# Mechanical properties :
#
#
# Convention : Reuss Voigt Hill
#
# Bulk Modulus (GPa) = 40.38946 51.30214 45.84580
# Shear Modulus (GPa) = 24.01788 33.20252 28.61020
#
# Velocity S-wave (km/s) = 3.49365 4.10769 3.81305
# Velocity P-wave (km/s) = 6.06626 6.96912 6.53331
#
# Compressibility (1/GPa) = 0.02475894
#
# Stress axis : x y z
#
# Youngs Moduli (GPa) = 71.61094 35.98459 38.85652
#
# Poissons Ratio (x) = -0.09597 0.44540
# Poissons Ratio (y) = -0.19098 0.48842
# Poissons Ratio (z) = 0.82084 0.45232
#
# Static dielectric constant tensor:
#      x y z
#    x 1.719820 0.000000 0.000000 
#    y 0.000000 1.684850 0.000000 
#    z 0.000000 0.000000 1.670890 
# 
# From -- ./inp_files/4421.got.cif
#   From: 2010.05.17/outbox.cif.g08.bks.cpg/sg58_3_cif.got.tgz:4421.got - 2010.06.03 14:20:14.
