data_PCOD9443339
_publ_section_title
;
Structure prediction by ZEFSAII (Michael W. Deem and Ramdas Pophale) SiO2 
 PCOD9443339
Probable space group: P N N M
;
_chemical_formula_sum "Si O2"
_cell_formula_units_Z 64
_cell_length_a 10.616538
_cell_length_b 33.573888
_cell_length_c 8.866563
_cell_angle_alpha 90.000000
_cell_angle_beta 90.000000
_cell_angle_gamma 90.000000
_cell_volume 3160.384041
_symmetry_space_group_name_H-M "P N N M"
_symmetry_group_IT_number 58
_symmetry_cell_setting 'orthorhombic'
loop_
_space_group_symop_operation_xyz
x,y,z
-x,-y,z
1/2+x,1/2-y,1/2-z
1/2-x,1/2+y,1/2-z
-x,-y,-z
x,y,-z
1/2-x,1/2+y,1/2+z
1/2+x,1/2-y,1/2+z
loop_
_atom_site_type_symbol
_atom_site_label
_atom_site_fract_x
_atom_site_fract_y
_atom_site_fract_z
Si Si1 0.397619 0.967211 0.317140
Si Si2 0.356995 0.512231 0.181241
Si Si3 0.795537 0.331303 0.829948
Si Si4 0.031684 0.302872 0.323661
Si Si5 0.409930 0.359778 0.325090
Si Si6 0.470811 0.713486 0.174033
Si Si7 0.843811 0.619585 0.179614
Si Si8 0.819218 0.902807 0.175200
O O1 0.408306 0.966594 0.500000
O O2 0.410379 0.921322 0.265278
O O3 0.500000 0.000000 0.263222
O O4 0.254970 0.981371 0.282330
O O5 0.500000 0.500000 0.220806
O O6 0.324364 0.552652 0.266455
O O7 0.354164 0.518580 0.000000
O O8 0.885874 0.311185 0.709762
O O9 0.662310 0.309064 0.828691
O O10 0.770702 0.376357 0.779613
O O11 0.847854 0.329226 0.000000
O O12 0.062708 0.303580 0.500000
O O13 0.053036 0.257937 0.266449
O O14 0.101563 0.339505 0.245221
O O15 0.372621 0.359108 0.500000
O O16 0.436163 0.314846 0.267365
O O17 0.302096 0.380524 0.228097
O O18 0.540956 0.383710 0.311532
O O19 0.516141 0.716455 0.000000
O O20 0.853506 0.620473 0.000000
O O21 0.782018 0.900078 0.000000
#
# Coordination Sequence:
#
# PCOD9443339 Si02
#       8
#     8   8   8   8   8   8   8   8
#     4   9  20  38  59  85 119 156 201 252 301 359
#     4  10  20  35  60  90 117 153 201 254 303 359
#     4  10  21  39  61  85 115 156 202 242 287 353
#     4  11  24  40  59  88 124 156 194 247 300 355
#     4  10  21  38  61  88 124 161 196 245 299 352
#     4   9  21  40  61  87 118 156 198 244 294 347
#     4  11  23  39  62  89 118 159 205 245 297 361
#     4  10  21  37  59  89 121 156 194 245 306 356
#
# _framework density 20.250703000000001
#
# number of rings (size 3 to 8) (size 9 to 14) (size 15 to 20)
#    0.000    2.000    0.000    2.625    3.500    4.250 
#    0.000    1.250    0.000    1.875    0.000    0.000 
#    0.000    0.000    0.000    0.000    0.000    0.000 
#
# Total GULP energy -357307.083101 kJ/mol
# GULP energy per Si atom -5582.923173 kJ/mol
# Density = 2.020461 g / cm^3
# Si number density = 20.250703 Si / 1000 Ang^3
#
#
#
# Elastic Constant Matrix: (Units=GPa)
#
#
# Indices 1 2 3 4 5 6 
#
# 1 35.9140 7.5360 5.3199 0.0000 0.0000 0.0000
# 2 7.5360 134.8975 29.5737 0.0000 0.0000 0.0000
# 3 5.3199 29.5737 23.0030 0.0000 0.0000 0.0000
# 4 0.0000 0.0000 0.0000 25.8609 0.0000 0.0000
# 5 0.0000 0.0000 0.0000 0.0000 21.0476 0.0000
# 6 0.0000 0.0000 0.0000 0.0000 0.0000 20.0103
#
#
#
# Elastic Compliance Matrix: (Units=1/GPa)
#
#
# Indices 1 2 3 4 5 6 
#
# 1 0.028836 -0.000207 -0.006402 0.000000 0.000000 0.000000
# 2 -0.000207 0.010324 -0.013225 0.000000 0.000000 0.000000
# 3 -0.006402 -0.013225 0.061956 0.000000 0.000000 0.000000
# 4 0.000000 0.000000 0.000000 0.038668 0.000000 0.000000
# 5 0.000000 0.000000 0.000000 0.000000 0.047511 0.000000
# 6 0.000000 0.000000 0.000000 0.000000 0.000000 0.049974
#
#
# Mechanical properties :
#
#
# Convention : Reuss Voigt Hill
#
# Bulk Modulus (GPa) = 16.27426 30.96374 23.61900
# Shear Modulus (GPa) = 16.81112 23.47606 20.14359
#
# Velocity S-wave (km/s) = 2.88436 3.40850 3.15733
# Velocity P-wave (km/s) = 4.37568 5.55103 4.99802
#
# Compressibility (1/GPa) = 0.06144673
#
# Stress axis : x y z
#
# Youngs Moduli (GPa) = 34.67866 96.86202 16.14046
#
# Poissons Ratio (x) = 0.02008 0.10334
# Poissons Ratio (y) = 0.00719 0.21346
# Poissons Ratio (z) = 0.22203 1.28100
#
# Static dielectric constant tensor:
#      x y z
#    x 1.743090 0.000000 0.000000 
#    y 0.000000 1.765030 0.000000 
#    z 0.000000 0.000000 1.687420 
# 
# From -- ./inp_files/4687.got.cif
#   From: 2010.05.17/outbox.cif.g08.bks.cpg/sg58_3_cif.got.tgz:4687.got - 2010.06.03 14:20:14.
