data_PCOD9443143
_publ_section_title
;
Structure prediction by ZEFSAII (Michael W. Deem and Ramdas Pophale) SiO2 
 PCOD9443143
Probable space group: P N N M
;
_chemical_formula_sum "Si O2"
_cell_formula_units_Z 58
_cell_length_a 12.245194
_cell_length_b 25.942561
_cell_length_c 9.385680
_cell_angle_alpha 90.000000
_cell_angle_beta 90.000000
_cell_angle_gamma 90.000000
_cell_volume 2981.564849
_symmetry_space_group_name_H-M "P N N M"
_symmetry_group_IT_number 58
_symmetry_cell_setting 'orthorhombic'
loop_
_space_group_symop_operation_xyz
x,y,z
-x,-y,z
1/2+x,1/2-y,1/2-z
1/2-x,1/2+y,1/2-z
-x,-y,-z
x,y,-z
1/2-x,1/2+y,1/2+z
1/2+x,1/2-y,1/2+z
loop_
_atom_site_type_symbol
_atom_site_label
_atom_site_fract_x
_atom_site_fract_y
_atom_site_fract_z
Si Si1 0.608347 0.215906 0.335553
Si Si2 0.270432 0.003765 0.155364
Si Si3 0.885262 0.930748 0.663371
Si Si4 0.809878 0.814663 0.665992
Si Si5 0.403311 0.417933 0.333532
Si Si6 0.406653 0.199212 0.166369
Si Si7 0.353492 0.320012 0.841881
Si Si8 0.000000 0.500000 0.500000
O O1 0.573483 0.223721 0.500000
O O2 0.631945 0.270292 0.257840
O O3 0.519342 0.186172 0.242692
O O4 0.723001 0.186386 0.337407
O O5 0.222284 0.043409 0.268870
O O6 0.208985 0.949880 0.188317
O O7 0.399902 0.999839 0.123222
O O8 0.224589 0.020872 0.000000
O O9 0.896278 0.946710 0.500000
O O10 0.870239 0.868964 0.669373
O O11 0.995098 0.942313 0.750004
O O12 0.799406 0.798344 0.500000
O O13 0.693150 0.821856 0.741708
O O14 0.427551 0.417448 0.500000
O O15 0.388919 0.360211 0.275428
O O16 0.396307 0.261650 0.173187
O O17 0.401237 0.184280 0.000000
O O18 0.386630 0.338622 0.000000
#
# Coordination Sequence:
#
# PCOD9443143 Si02
#       8
#     8   8   8   8   8   8   8   2
#     4  10  20  35  54  78 113 154 200 246 295 352
#     4   9  21  42  65  86 115 153 192 234 295 348
#     4  11  23  38  60  92 123 153 190 245 302 358
#     4  10  21  36  53  79 116 151 195 242 297 350
#     4  11  22  36  59  92 119 148 195 240 293 357
#     4  10  20  35  54  78 108 153 202 244 293 353
#     4   9  20  36  52  77 116 152 189 239 299 347
#     4   8  20  48  68  80 120 160 182 254 288 336
#
# _framework density 19.452870999999998
#
# number of rings (size 3 to 8) (size 9 to 14) (size 15 to 20)
#    0.414    1.655    0.000    4.138    0.000   11.586 
#    2.483    0.345    0.000    0.000    0.000    0.000 
#    0.000    0.000    0.000    0.000    0.000    0.000 
#
# Total GULP energy -322988.814968 kJ/mol
# GULP energy per Si atom -5568.772672 kJ/mol
# Density = 1.940860 g / cm^3
# Si number density = 19.452871 Si / 1000 Ang^3
#
#
#
# Elastic Constant Matrix: (Units=GPa)
#
#
# Indices 1 2 3 4 5 6 
#
# 1 131.6819 8.1536 48.8986 0.0000 0.0000 0.0000
# 2 8.1536 36.1611 35.9674 0.0000 0.0000 0.0000
# 3 48.8986 35.9674 134.0063 0.0000 0.0000 0.0000
# 4 0.0000 0.0000 0.0000 24.6174 0.0000 0.0000
# 5 0.0000 0.0000 0.0000 0.0000 60.3566 0.0000
# 6 0.0000 0.0000 0.0000 0.0000 0.0000 -1.4019
#
#
#
# Elastic Compliance Matrix: (Units=1/GPa)
#
#
# Indices 1 2 3 4 5 6 
#
# 1 0.008857 0.001661 -0.003678 0.000000 0.000000 0.000000
# 2 0.001661 0.038037 -0.010815 0.000000 0.000000 0.000000
# 3 -0.003678 -0.010815 0.011707 0.000000 0.000000 0.000000
# 4 0.000000 0.000000 0.000000 0.040622 0.000000 0.000000
# 5 0.000000 0.000000 0.000000 0.000000 0.016568 0.000000
# 6 0.000000 0.000000 0.000000 0.000000 0.000000 -0.713315
#
#
# Mechanical properties :
#
#
# Convention : Reuss Voigt Hill
#
# Bulk Modulus (GPa) = 30.36108 54.20983 42.28546
# Shear Modulus (GPa) = -8.91454 30.63641 10.86093
#
# Velocity S-wave (km/s) = -2.14303 3.97281 2.36544
# Velocity P-wave (km/s) = 3.08512 6.99800 5.40787
#
# Compressibility (1/GPa) = 0.03293691
#
# Stress axis : x y z
#
# Youngs Moduli (GPa) = 112.90677 26.29039 85.41834
#
# Poissons Ratio (x) = -0.04367 0.31414
# Poissons Ratio (y) = -0.18753 0.92381
# Poissons Ratio (z) = 0.41523 0.28433
#
# Static dielectric constant tensor:
#      x y z
#    x 1.715810 0.000000 0.000000 
#    y 0.000000 1.687530 0.000000 
#    z 0.000000 0.000000 1.672280 
# 
# From -- ./inp_files/4429.got.cif
#   From: 2010.05.17/outbox.cif.g08.bks.cpg/sg58_3_cif.got.tgz:4429.got - 2010.06.03 14:20:14.
