data_PCOD9443565
_publ_section_title
;
Structure prediction by ZEFSAII (Michael W. Deem and Ramdas Pophale) SiO2 
 PCOD9443565
Probable space group: P N N M
;
_chemical_formula_sum "Si O2"
_cell_formula_units_Z 56
_cell_length_a 8.379144
_cell_length_b 21.389453
_cell_length_c 14.991930
_cell_angle_alpha 90.000000
_cell_angle_beta 90.000000
_cell_angle_gamma 90.000000
_cell_volume 2686.933253
_symmetry_space_group_name_H-M "P N N M"
_symmetry_group_IT_number 58
_symmetry_cell_setting 'orthorhombic'
loop_
_space_group_symop_operation_xyz
x,y,z
-x,-y,z
1/2+x,1/2-y,1/2-z
1/2-x,1/2+y,1/2-z
-x,-y,-z
x,y,-z
1/2-x,1/2+y,1/2+z
1/2+x,1/2-y,1/2+z
loop_
_atom_site_type_symbol
_atom_site_label
_atom_site_fract_x
_atom_site_fract_y
_atom_site_fract_z
Si Si1 0.986870 0.340492 0.204006
Si Si2 0.856929 0.143308 0.096697
Si Si3 0.510693 0.634447 0.796511
Si Si4 0.310686 0.987468 0.903589
Si Si5 0.218118 0.547834 0.773032
Si Si6 0.807762 0.571863 0.896127
Si Si7 0.813862 0.750053 0.322915
O O1 0.920442 0.402574 0.253223
O O2 0.837238 0.293970 0.199215
O O3 0.052672 0.376134 0.116594
O O4 0.126707 0.299981 0.248818
O O5 0.957350 0.141819 0.189364
O O6 0.736956 0.084857 0.099841
O O7 0.750869 0.205759 0.100088
O O8 0.942718 0.140569 0.000000
O O9 0.362658 0.587947 0.811356
O O10 0.658177 0.604476 0.847673
O O11 0.458868 0.701812 0.834964
O O12 0.500000 0.000000 0.896945
O O13 0.227116 0.017637 0.819196
O O14 0.257042 0.012237 0.000000
O O15 0.170234 0.492745 0.840911
O O16 0.783879 0.558656 0.000000
#
# Coordination Sequence:
#
# PCOD9443565 Si02
#       7
#     8   8   8   8   8   8   8
#     4  11  22  40  68  93 126 173 216 267 329 382
#     4  11  22  38  64  93 129 168 210 268 322 382
#     4  11  24  42  65  94 132 178 217 270 332 387
#     4  10  20  36  62  95 128 165 208 258 324 395
#     4  11  23  39  67  94 130 175 213 269 333 386
#     4  12  25  43  65  95 134 174 226 279 328 391
#     4  11  21  42  67  92 129 173 219 266 322 394
#
# _framework density 20.841605000000001
#
# number of rings (size 3 to 8) (size 9 to 14) (size 15 to 20)
#    0.000    1.000    4.286    2.571    0.000    4.000 
#    0.000    4.286    0.000    0.857    0.000    0.000 
#    0.000    0.000    0.000    0.000    0.000    0.000 
#
# Total GULP energy -312137.265524 kJ/mol
# GULP energy per Si atom -5573.879741 kJ/mol
# Density = 2.079417 g / cm^3
# Si number density = 20.841605 Si / 1000 Ang^3
#
#
#
# Elastic Constant Matrix: (Units=GPa)
#
#
# Indices 1 2 3 4 5 6 
#
# 1 58.5390 34.5664 12.9624 0.0000 0.0000 0.0000
# 2 34.5664 148.0019 49.4845 0.0000 0.0000 0.0000
# 3 12.9624 49.4845 100.4145 0.0000 0.0000 0.0000
# 4 0.0000 0.0000 0.0000 -4.3804 0.0000 0.0000
# 5 0.0000 0.0000 0.0000 0.0000 9.4504 0.0000
# 6 0.0000 0.0000 0.0000 0.0000 0.0000 36.2025
#
#
#
# Elastic Compliance Matrix: (Units=1/GPa)
#
#
# Indices 1 2 3 4 5 6 
#
# 1 0.019825 -0.004519 -0.000332 0.000000 0.000000 0.000000
# 2 -0.004519 0.009120 -0.003911 0.000000 0.000000 0.000000
# 3 -0.000332 -0.003911 0.011929 0.000000 0.000000 0.000000
# 4 0.000000 0.000000 0.000000 -0.228290 0.000000 0.000000
# 5 0.000000 0.000000 0.000000 0.000000 0.105816 0.000000
# 6 0.000000 0.000000 0.000000 0.000000 0.000000 0.027622
#
#
# Mechanical properties :
#
#
# Convention : Reuss Voigt Hill
#
# Bulk Modulus (GPa) = 42.82823 55.66468 49.24646
# Shear Modulus (GPa) = -174.39257 22.25063 -76.07097
#
# Velocity S-wave (km/s) = -9.15734 3.27097 -6.04804
# Velocity P-wave (km/s) = 9.55066 6.40563 5.00914
#
# Compressibility (1/GPa) = 0.02334908
#
# Stress axis : x y z
#
# Youngs Moduli (GPa) = 50.44235 109.65265 83.83021
#
# Poissons Ratio (x) = 0.49553 0.02784
# Poissons Ratio (y) = 0.22795 0.32785
# Poissons Ratio (z) = 0.01675 0.42883
#
# Static dielectric constant tensor:
#      x y z
#    x 1.791720 0.000000 0.000000 
#    y 0.000000 1.760080 0.000000 
#    z 0.000000 0.000000 1.752380 
# 
# From -- ./inp_files/20151.got.cif
#   From: 2010.05.17/outbox.cif.g08.bks.cpg/sg58_11_cif.got.tgz:20151.got - 2010.06.03 14:20:14.
