data_PCOD9443247
_publ_section_title
;
Structure prediction by ZEFSAII (Michael W. Deem and Ramdas Pophale) SiO2 
 PCOD9443247
Probable space group: P N N M
;
_chemical_formula_sum "Si O2"
_cell_formula_units_Z 56
_cell_length_a 11.203196
_cell_length_b 21.623624
_cell_length_c 11.503078
_cell_angle_alpha 90.000000
_cell_angle_beta 90.000000
_cell_angle_gamma 90.000000
_cell_volume 2786.663183
_symmetry_space_group_name_H-M "P N N M"
_symmetry_group_IT_number 58
_symmetry_cell_setting 'orthorhombic'
loop_
_space_group_symop_operation_xyz
x,y,z
-x,-y,z
1/2+x,1/2-y,1/2-z
1/2-x,1/2+y,1/2-z
-x,-y,-z
x,y,-z
1/2-x,1/2+y,1/2+z
1/2+x,1/2-y,1/2+z
loop_
_atom_site_type_symbol
_atom_site_label
_atom_site_fract_x
_atom_site_fract_y
_atom_site_fract_z
Si Si1 0.696808 0.958979 0.867805
Si Si2 0.390910 0.456919 0.724666
Si Si3 0.266286 0.341353 0.367608
Si Si4 0.499318 0.359943 0.126969
Si Si5 0.634082 0.338427 0.627317
Si Si6 0.502121 0.131028 0.141438
Si Si7 0.341236 0.247827 0.814082
O O1 0.780296 0.898321 0.877293
O O2 0.569664 0.931577 0.829233
O O3 0.770217 0.003469 0.782994
O O4 0.687492 0.986179 0.000000
O O5 0.500000 0.500000 0.681347
O O6 0.360511 0.396641 0.648243
O O7 0.435408 0.425322 0.843807
O O8 0.245375 0.328204 0.500000
O O9 0.308892 0.279033 0.307617
O O10 0.138785 0.365108 0.319694
O O11 0.572579 0.344149 0.245444
O O12 0.402775 0.305117 0.121831
O O13 0.560410 0.362421 0.000000
O O14 0.570120 0.336340 0.500000
O O15 0.720542 0.279238 0.632751
O O16 0.432688 0.190787 0.189365
O O17 0.494749 0.134554 0.000000
#
# Coordination Sequence:
#
# PCOD9443247 Si02
#       7
#     8   8   8   8   8   8   8
#     4   9  18  33  56  83 114 153 193 245 307 354
#     4  11  22  38  55  84 117 157 203 251 302 362
#     4  10  22  36  56  88 123 159 203 257 304 356
#     4  11  23  38  58  86 120 160 198 245 305 361
#     4  10  20  36  58  84 112 150 196 242 297 357
#     4   9  18  36  58  83 116 152 198 250 304 361
#     4  10  20  35  57  83 116 157 193 239 305 369
#
# _framework density 20.095718999999999
#
# number of rings (size 3 to 8) (size 9 to 14) (size 15 to 20)
#    0.000    2.000    1.429    3.429    0.000    6.571 
#    0.000    2.143    0.000    0.857    0.000    4.000 
#    0.000    0.000    0.000    0.000    0.000    0.000 
#
# Total GULP energy -311926.076179 kJ/mol
# GULP energy per Si atom -5570.108503 kJ/mol
# Density = 2.004998 g / cm^3
# Si number density = 20.095719 Si / 1000 Ang^3
#
#
#
# Elastic Constant Matrix: (Units=GPa)
#
#
# Indices 1 2 3 4 5 6 
#
# 1 84.1818 35.8252 39.6113 0.0000 0.0000 0.0000
# 2 35.8252 98.8458 26.7626 0.0000 0.0000 0.0000
# 3 39.6113 26.7626 107.1950 0.0000 0.0000 0.0000
# 4 0.0000 0.0000 0.0000 -6.4954 0.0000 0.0000
# 5 0.0000 0.0000 0.0000 0.0000 13.8131 0.0000
# 6 0.0000 0.0000 0.0000 0.0000 0.0000 31.0524
#
#
#
# Elastic Compliance Matrix: (Units=1/GPa)
#
#
# Indices 1 2 3 4 5 6 
#
# 1 0.016065 -0.004521 -0.004808 0.000000 0.000000 0.000000
# 2 -0.004521 0.012122 -0.001356 0.000000 0.000000 0.000000
# 3 -0.004808 -0.001356 0.011444 0.000000 0.000000 0.000000
# 4 0.000000 0.000000 0.000000 -0.153955 0.000000 0.000000
# 5 0.000000 0.000000 0.000000 0.000000 0.072395 0.000000
# 6 0.000000 0.000000 0.000000 0.000000 0.000000 0.032204
#
#
# Mechanical properties :
#
#
# Convention : Reuss Voigt Hill
#
# Bulk Modulus (GPa) = 54.75754 54.95785 54.85770
# Shear Modulus (GPa) = 281.97443 20.20893 151.09168
#
# Velocity S-wave (km/s) = 11.85834 3.17461 8.68039
# Velocity P-wave (km/s) = 14.65610 6.39101 11.30589
#
# Compressibility (1/GPa) = 0.01826233
#
# Stress axis : x y z
#
# Youngs Moduli (GPa) = 62.24590 82.49175 87.38251
#
# Poissons Ratio (x) = 0.37294 0.42012
# Poissons Ratio (y) = 0.28141 0.11848
# Poissons Ratio (z) = 0.29927 0.11185
#
# Static dielectric constant tensor:
#      x y z
#    x 1.784300 0.000000 0.000000 
#    y 0.000000 1.729610 0.000000 
#    z 0.000000 0.000000 1.756000 
# 
# From -- ./inp_files/14586.got.cif
#   From: 2010.05.17/outbox.cif.g08.bks.cpg/sg58_8_cif.got.tgz:14586.got - 2010.06.03 14:20:14.
