data_PCOD9443137
_publ_section_title
;
Structure prediction by ZEFSAII (Michael W. Deem and Ramdas Pophale) SiO2 
 PCOD9443137
Probable space group: P N N M
;
_chemical_formula_sum "Si O2"
_cell_formula_units_Z 52
_cell_length_a 7.745980
_cell_length_b 14.896773
_cell_length_c 20.526434
_cell_angle_alpha 90.000000
_cell_angle_beta 90.000000
_cell_angle_gamma 90.000000
_cell_volume 2368.547389
_symmetry_space_group_name_H-M "P N N M"
_symmetry_group_IT_number 58
_symmetry_cell_setting 'orthorhombic'
loop_
_space_group_symop_operation_xyz
x,y,z
-x,-y,z
1/2+x,1/2-y,1/2-z
1/2-x,1/2+y,1/2-z
-x,-y,-z
x,y,-z
1/2-x,1/2+y,1/2+z
1/2+x,1/2-y,1/2+z
loop_
_atom_site_type_symbol
_atom_site_label
_atom_site_fract_x
_atom_site_fract_y
_atom_site_fract_z
Si Si1 0.254758 0.970297 0.500000
Si Si2 0.000000 0.500000 0.246981
Si Si3 0.735953 0.392276 0.664422
Si Si4 0.235827 0.448299 0.148190
Si Si5 0.084701 0.155393 0.500000
Si Si6 0.916646 0.872828 0.703441
Si Si7 0.699632 0.035583 0.072910
Si Si8 0.433848 0.784929 0.125094
O O1 0.320806 0.946153 0.427139
O O2 0.079126 0.911437 0.500000
O O3 0.233087 0.078835 0.500000
O O4 0.861649 0.455413 0.292903
O O5 0.916464 0.571761 0.198179
O O6 0.588533 0.376027 0.718113
O O7 0.690066 0.455561 0.604115
O O8 0.866925 0.314841 0.639602
O O9 0.398300 0.388710 0.169469
O O10 0.302354 0.548884 0.168917
O O11 0.079130 0.220557 0.437939
O O12 0.859853 0.774082 0.683481
O O13 0.679401 0.126626 0.113276
O O14 0.500000 0.000000 0.069584
O O15 0.755787 0.056490 0.000000
#
# Coordination Sequence:
#
# PCOD9443137 Si02
#       8
#     4   4   8   8   4   8   8   8
#     4  11  18  35  54  78 120 156 192 236 299 341
#     4  10  20  37  55  80 114 152 188 232 290 364
#     4  10  21  36  53  82 122 148 189 244 304 352
#     4  10  20  35  58  80 115 150 191 235 288 345
#     4  11  18  30  53  86 112 147 198 241 281 352
#     4  10  20  35  53  84 116 150 188 239 292 347
#     4   9  17  31  53  83 115 149 191 243 295 347
#     4  11  18  31  53  86 114 146 200 246 282 346
#
# _framework density 21.954381999999999
#
# number of rings (size 3 to 8) (size 9 to 14) (size 15 to 20)
#    0.000    1.846    6.154    0.923    1.077    1.538 
#    2.769    0.000    0.000    0.000    0.000    9.692 
#    4.615    0.000    0.000    0.000    0.000    0.000 
#
# Total GULP energy -289700.029306 kJ/mol
# GULP energy per Si atom -5571.154410 kJ/mol
# Density = 2.190441 g / cm^3
# Si number density = 21.954382 Si / 1000 Ang^3
#
#
#
# Elastic Constant Matrix: (Units=GPa)
#
#
# Indices 1 2 3 4 5 6 
#
# 1 14.9567 -16.2387 8.1820 0.0000 0.0000 0.0000
# 2 -16.2387 105.5844 23.1387 0.0000 0.0000 0.0000
# 3 8.1820 23.1387 110.2761 0.0000 0.0000 0.0000
# 4 0.0000 0.0000 0.0000 2998.3755 0.0000 0.0000
# 5 0.0000 0.0000 0.0000 0.0000 -8.7264 0.0000
# 6 0.0000 0.0000 0.0000 0.0000 0.0000 8.6675
#
#
#
# Elastic Compliance Matrix: (Units=1/GPa)
#
#
# Indices 1 2 3 4 5 6 
#
# 1 0.089695 0.015988 -0.010010 0.000000 0.000000 0.000000
# 2 0.015988 0.012778 -0.003867 0.000000 0.000000 0.000000
# 3 -0.010010 -0.003867 0.010622 0.000000 0.000000 0.000000
# 4 0.000000 0.000000 0.000000 0.000334 0.000000 0.000000
# 5 0.000000 0.000000 0.000000 0.000000 -0.114595 0.000000
# 6 0.000000 0.000000 0.000000 0.000000 0.000000 0.115373
#
#
# Mechanical properties :
#
#
# Convention : Reuss Voigt Hill
#
# Bulk Modulus (GPa) = 8.52390 28.99793 18.76091
# Shear Modulus (GPa) = 33.53691 614.04567 323.79129
#
# Velocity S-wave (km/s) = 3.91266 16.74213 12.15746
# Velocity P-wave (km/s) = 4.92979 19.67152 14.34001
#
# Compressibility (1/GPa) = 0.11731723
#
# Stress axis : x y z
#
# Youngs Moduli (GPa) = 11.14894 78.26190 94.14152
#
# Poissons Ratio (x) = -1.25129 0.94234
# Poissons Ratio (y) = -0.17825 0.36408
# Poissons Ratio (z) = 0.11160 0.30267
#
# Static dielectric constant tensor:
#      x y z
#    x 1.899810 0.000000 0.000000 
#    y 0.000000 1.862270 0.000000 
#    z 0.000000 0.000000 1.853860 
# 
# From -- ./inp_files/28929.got.cif
#   From: 2010.05.17/outbox.cif.g08.bks.cpg/sg58_15_cif.got.tgz:28929.got - 2010.06.03 14:20:14.
