data_PCOD9443159
_publ_section_title
;
Structure prediction by ZEFSAII (Michael W. Deem and Ramdas Pophale) SiO2 
 PCOD9443159
Probable space group: P N N M
;
_chemical_formula_sum "Si O2"
_cell_formula_units_Z 64
_cell_length_a 25.086288
_cell_length_b 8.634686
_cell_length_c 14.094361
_cell_angle_alpha 90.000000
_cell_angle_beta 90.000000
_cell_angle_gamma 90.000000
_cell_volume 3053.010823
_symmetry_space_group_name_H-M "P N N M"
_symmetry_group_IT_number 58
_symmetry_cell_setting 'orthorhombic'
loop_
_space_group_symop_operation_xyz
x,y,z
-x,-y,z
1/2+x,1/2-y,1/2-z
1/2-x,1/2+y,1/2-z
-x,-y,-z
x,y,-z
1/2-x,1/2+y,1/2+z
1/2+x,1/2-y,1/2+z
loop_
_atom_site_type_symbol
_atom_site_label
_atom_site_fract_x
_atom_site_fract_y
_atom_site_fract_z
Si Si1 0.803564 0.183644 0.610399
Si Si2 0.810164 0.279826 0.890430
Si Si3 0.216206 0.272859 0.751303
Si Si4 0.419352 0.458415 0.894825
Si Si5 0.150455 0.067372 0.110337
Si Si6 0.471672 0.146463 0.824633
Si Si7 0.541352 0.368285 0.709798
Si Si8 0.644313 0.959253 0.226799
O O1 0.789254 0.197930 0.500000
O O2 0.754933 0.131873 0.676531
O O3 0.856658 0.079620 0.616851
O O4 0.822380 0.346984 0.656263
O O5 0.753885 0.264415 0.836843
O O6 0.842324 0.407688 0.833253
O O7 0.842970 0.118305 0.880243
O O8 0.802798 0.313803 0.000000
O O9 0.193670 0.138093 0.817877
O O10 0.165975 0.369502 0.715072
O O11 0.452290 0.297366 0.883152
O O12 0.437055 0.568416 0.810724
O O13 0.428579 0.521251 0.000000
O O14 0.092510 0.131359 0.141500
O O15 0.161145 0.105720 0.000000
O O16 0.508320 0.215229 0.739169
O O17 0.416796 0.073091 0.789017
O O18 0.500000 0.000000 0.873712
O O19 0.500000 0.500000 0.674680
#
# Coordination Sequence:
#
# PCOD9443159 Si02
#       8
#     8   8   8   8   8   8   8   8
#     4   9  18  34  56  81 109 145 182 218 269 327
#     4  10  21  37  58  83 113 146 181 223 272 329
#     4  11  21  35  57  82 114 146 177 220 273 332
#     4   9  19  35  57  84 112 144 186 230 272 325
#     4  11  23  39  59  85 112 143 187 233 275 323
#     4  10  20  35  55  78 111 151 185 226 278 327
#     4  10  20  37  60  80 106 145 191 238 279 319
#     4  10  21  37  56  81 113 146 183 227 275 327
#
# _framework density 20.962914999999999
#
# number of rings (size 3 to 8) (size 9 to 14) (size 15 to 20)
#    0.000    2.000    0.000    5.625    0.000    5.250 
#    0.000    2.500    0.000    6.000    0.000    0.000 
#    0.000    0.000    0.000    0.000    0.000    0.000 
#
# Total GULP energy -357410.627986 kJ/mol
# GULP energy per Si atom -5584.541062 kJ/mol
# Density = 2.091520 g / cm^3
# Si number density = 20.962915 Si / 1000 Ang^3
#
#
#
# Elastic Constant Matrix: (Units=GPa)
#
#
# Indices 1 2 3 4 5 6 
#
# 1 76.9702 5.0125 24.6308 0.0000 0.0000 0.0000
# 2 5.0125 20.6550 -13.9978 0.0000 0.0000 0.0000
# 3 24.6308 -13.9978 87.2029 0.0000 0.0000 0.0000
# 4 0.0000 0.0000 0.0000 8.0534 0.0000 0.0000
# 5 0.0000 0.0000 0.0000 0.0000 17.9361 0.0000
# 6 0.0000 0.0000 0.0000 0.0000 0.0000 29.8351
#
#
#
# Elastic Compliance Matrix: (Units=1/GPa)
#
#
# Indices 1 2 3 4 5 6 
#
# 1 0.015233 -0.007420 -0.005494 0.000000 0.000000 0.000000
# 2 -0.007420 0.057938 0.011396 0.000000 0.000000 0.000000
# 3 -0.005494 0.011396 0.014849 0.000000 0.000000 0.000000
# 4 0.000000 0.000000 0.000000 0.124172 0.000000 0.000000
# 5 0.000000 0.000000 0.000000 0.000000 0.055754 0.000000
# 6 0.000000 0.000000 0.000000 0.000000 0.000000 0.033518
#
#
# Mechanical properties :
#
#
# Convention : Reuss Voigt Hill
#
# Bulk Modulus (GPa) = 11.76685 24.01323 17.89004
# Shear Modulus (GPa) = 15.02288 22.44376 18.73332
#
# Velocity S-wave (km/s) = 2.67992 3.27561 2.99263
# Velocity P-wave (km/s) = 3.89889 5.07801 4.52700
#
# Compressibility (1/GPa) = 0.08498452
#
# Stress axis : x y z
#
# Youngs Moduli (GPa) = 65.64585 17.25985 67.34682
#
# Poissons Ratio (x) = 0.12807 0.36998
# Poissons Ratio (y) = 0.48708 -0.76748
# Poissons Ratio (z) = 0.36064 -0.19669
#
# Static dielectric constant tensor:
#      x y z
#    x 1.782510 0.000000 0.000000 
#    y 0.000000 1.803070 0.000000 
#    z 0.000000 0.000000 1.710710 
# 
# From -- ./inp_files/23519.got.cif
#   From: 2010.05.17/outbox.cif.g08.bks.cpg/sg58_12_cif.got.tgz:23519.got - 2010.06.03 14:20:14.
