data_PCOD9443240
_publ_section_title
;
Structure prediction by ZEFSAII (Michael W. Deem and Ramdas Pophale) SiO2 
 PCOD9443240
Probable space group: P N N M
;
_chemical_formula_sum "Si O2"
_cell_formula_units_Z 64
_cell_length_a 20.858893
_cell_length_b 17.392963
_cell_length_c 8.916096
_cell_angle_alpha 90.000000
_cell_angle_beta 90.000000
_cell_angle_gamma 90.000000
_cell_volume 3234.741388
_symmetry_space_group_name_H-M "P N N M"
_symmetry_group_IT_number 58
_symmetry_cell_setting 'orthorhombic'
loop_
_space_group_symop_operation_xyz
x,y,z
-x,-y,z
1/2+x,1/2-y,1/2-z
1/2-x,1/2+y,1/2-z
-x,-y,-z
x,y,-z
1/2-x,1/2+y,1/2+z
1/2+x,1/2-y,1/2+z
loop_
_atom_site_type_symbol
_atom_site_label
_atom_site_fract_x
_atom_site_fract_y
_atom_site_fract_z
Si Si1 0.220449 0.069796 0.321623
Si Si2 0.874835 0.626347 0.820348
Si Si3 0.482432 0.119394 0.677019
Si Si4 0.656005 0.697504 0.828666
Si Si5 0.017019 0.783968 0.323765
Si Si6 0.744417 0.582200 0.676171
Si Si7 0.351226 0.116793 0.173491
Si Si8 0.625404 0.295346 0.822307
O O1 0.214895 0.062766 0.500000
O O2 0.292923 0.088276 0.273708
O O3 0.175189 0.140103 0.271703
O O4 0.205222 0.988911 0.244756
O O5 0.945593 0.594609 0.778364
O O6 0.814965 0.583537 0.748312
O O7 0.869513 0.714657 0.763704
O O8 0.870579 0.624288 0.000000
O O9 0.474058 0.105759 0.500000
O O10 0.483415 0.210638 0.714688
O O11 0.420472 0.090707 0.766126
O O12 0.582866 0.670832 0.797947
O O13 0.707401 0.659872 0.720707
O O14 0.652329 0.789896 0.818940
O O15 0.673457 0.677173 0.000000
O O16 0.020439 0.757174 0.500000
O O17 0.948271 0.823503 0.306585
O O18 0.749959 0.574945 0.500000
O O19 0.342657 0.094416 0.000000
O O20 0.636388 0.280153 0.000000
#
# Coordination Sequence:
#
# PCOD9443240 Si02
#       8
#     8   8   8   8   8   8   8   8
#     4  11  23  38  55  76 107 143 179 222 268 316
#     4  10  20  35  57  83 110 139 173 217 266 315
#     4   9  17  30  52  82 110 136 169 212 262 312
#     4   9  18  34  57  82 109 140 173 214 262 311
#     4   8  15  30  53  81 109 135 169 215 263 311
#     4  12  25  38  53  74 105 144 184 224 263 311
#     4  10  20  35  57  83 110 140 175 216 261 313
#     4   9  18  34  58  85 108 136 176 218 263 316
#
# _framework density 19.785197
#
# number of rings (size 3 to 8) (size 9 to 14) (size 15 to 20)
#    0.000    2.250    0.000    4.125    0.000    7.000 
#    0.000    1.250    0.000    7.500    0.000    0.000 
#    0.000    0.000    0.000    0.000    0.000    0.000 
#
# Total GULP energy -357209.249284 kJ/mol
# GULP energy per Si atom -5581.394520 kJ/mol
# Density = 1.974017 g / cm^3
# Si number density = 19.785197 Si / 1000 Ang^3
#
#
#
# Elastic Constant Matrix: (Units=GPa)
#
#
# Indices 1 2 3 4 5 6 
#
# 1 83.7690 14.6616 19.4930 0.0000 0.0000 0.0000
# 2 14.6616 32.4990 10.0724 0.0000 0.0000 0.0000
# 3 19.4930 10.0724 49.3531 0.0000 0.0000 0.0000
# 4 0.0000 0.0000 0.0000 18.2844 0.0000 0.0000
# 5 0.0000 0.0000 0.0000 0.0000 27.0812 0.0000
# 6 0.0000 0.0000 0.0000 0.0000 0.0000 -16.2517
#
#
#
# Elastic Compliance Matrix: (Units=1/GPa)
#
#
# Indices 1 2 3 4 5 6 
#
# 1 0.013827 -0.004852 -0.004471 0.000000 0.000000 0.000000
# 2 -0.004852 0.034551 -0.005135 0.000000 0.000000 0.000000
# 3 -0.004471 -0.005135 0.023076 0.000000 0.000000 0.000000
# 4 0.000000 0.000000 0.000000 0.054691 0.000000 0.000000
# 5 0.000000 0.000000 0.000000 0.000000 0.036926 0.000000
# 6 0.000000 0.000000 0.000000 0.000000 0.000000 -0.061532
#
#
# Mechanical properties :
#
#
# Convention : Reuss Voigt Hill
#
# Bulk Modulus (GPa) = 23.50869 28.23059 25.86964
# Shear Modulus (GPa) = 34.56974 13.91571 24.24273
#
# Velocity S-wave (km/s) = 4.18455 2.65493 3.50422
# Velocity P-wave (km/s) = 5.93759 4.86803 5.42922
#
# Compressibility (1/GPa) = 0.04253747
#
# Stress axis : x y z
#
# Youngs Moduli (GPa) = 72.32082 28.94298 43.33492
#
# Poissons Ratio (x) = 0.14044 0.19375
# Poissons Ratio (y) = 0.35092 0.22252
# Poissons Ratio (z) = 0.32335 0.14862
#
# Static dielectric constant tensor:
#      x y z
#    x 1.724960 0.000000 0.000000 
#    y 0.000000 1.714170 0.000000 
#    z 0.000000 0.000000 1.661180 
# 
# From -- ./inp_files/9284.got.cif
#   From: 2010.05.17/outbox.cif.g08.bks.cpg/sg58_5_cif.got.tgz:9284.got - 2010.06.03 14:20:14.
