data_PCOD9443389
_publ_section_title
;
Structure prediction by ZEFSAII (Michael W. Deem and Ramdas Pophale) SiO2 
 PCOD9443389
Probable space group: P N N M
;
_chemical_formula_sum "Si O2"
_cell_formula_units_Z 48
_cell_length_a 9.855567
_cell_length_b 24.465372
_cell_length_c 8.810452
_cell_angle_alpha 90.000000
_cell_angle_beta 90.000000
_cell_angle_gamma 90.000000
_cell_volume 2124.377181
_symmetry_space_group_name_H-M "P N N M"
_symmetry_group_IT_number 58
_symmetry_cell_setting 'orthorhombic'
loop_
_space_group_symop_operation_xyz
x,y,z
-x,-y,z
1/2+x,1/2-y,1/2-z
1/2-x,1/2+y,1/2-z
-x,-y,-z
x,y,-z
1/2-x,1/2+y,1/2+z
1/2+x,1/2-y,1/2+z
loop_
_atom_site_type_symbol
_atom_site_label
_atom_site_fract_x
_atom_site_fract_y
_atom_site_fract_z
Si Si1 0.154889 0.128957 0.677616
Si Si2 0.140329 0.840173 0.681065
Si Si3 0.835367 0.001218 0.000000
Si Si4 0.164021 0.001197 0.667831
Si Si5 0.406355 0.859339 0.827905
Si Si6 0.360232 0.215177 0.816526
Si Si7 0.426519 0.058336 0.000000
O O1 0.155204 0.144598 0.500000
O O2 0.246592 0.173356 0.760585
O O3 0.999806 0.133294 0.736603
O O4 0.198997 0.065698 0.680774
O O5 0.132295 0.839649 0.500000
O O6 0.277498 0.869691 0.727133
O O7 0.153849 0.777428 0.734863
O O8 0.798076 0.024217 0.167501
O O9 0.735602 0.947969 0.000000
O O10 0.000000 0.000000 0.000000
O O11 0.210974 0.981130 0.500000
O O12 0.000000 0.000000 0.661241
O O13 0.494440 0.808929 0.767182
O O14 0.513597 0.908005 0.857388
O O15 0.357031 0.847020 0.000000
O O16 0.360614 0.213945 0.000000
O O17 0.500000 0.000000 0.000000
#
# Coordination Sequence:
#
# PCOD9443389 Si02
#       7
#     8   8   4   8   8   8   4
#     4  10  21  35  56  83 113 149 192 250 301 364
#     4  10  21  37  56  82 116 154 197 248 313 374
#     4  10  20  36  64  90 114 162 210 256 306 371
#     4   9  19  35  56  88 122 149 192 256 312 360
#     4   9  21  38  57  82 119 162 197 251 310 371
#     4  10  20  36  57  81 113 153 198 254 304 372
#     4  10  22  40  60  88 130 164 208 264 315 383
#
# _framework density 22.594857000000001
#
# number of rings (size 3 to 8) (size 9 to 14) (size 15 to 20)
#    0.500    1.833    0.000    2.000    1.167    6.000 
#    0.000    0.833    0.000    1.000    0.000    0.000 
#    0.000    0.000    0.000    0.000    0.000    0.000 
#
# Total GULP energy -267600.063813 kJ/mol
# GULP energy per Si atom -5575.001329 kJ/mol
# Density = 2.254343 g / cm^3
# Si number density = 22.594857 Si / 1000 Ang^3
#
#
#
# Elastic Constant Matrix: (Units=GPa)
#
#
# Indices 1 2 3 4 5 6 
#
# 1 80.1669 16.6338 26.2682 0.0000 0.0000 0.0000
# 2 16.6338 101.7886 19.7395 0.0000 0.0000 0.0000
# 3 26.2682 19.7395 104.9954 0.0000 0.0000 0.0000
# 4 0.0000 0.0000 0.0000 28.5424 0.0000 0.0000
# 5 0.0000 0.0000 0.0000 0.0000 1.6329 0.0000
# 6 0.0000 0.0000 0.0000 0.0000 0.0000 34.3899
#
#
#
# Elastic Compliance Matrix: (Units=1/GPa)
#
#
# Indices 1 2 3 4 5 6 
#
# 1 0.013850 -0.001652 -0.003155 0.000000 0.000000 0.000000
# 2 -0.001652 0.010393 -0.001541 0.000000 0.000000 0.000000
# 3 -0.003155 -0.001541 0.010603 0.000000 0.000000 0.000000
# 4 0.000000 0.000000 0.000000 0.035036 0.000000 0.000000
# 5 0.000000 0.000000 0.000000 0.000000 0.612390 0.000000
# 6 0.000000 0.000000 0.000000 0.000000 0.000000 0.029078
#
#
# Mechanical properties :
#
#
# Convention : Reuss Voigt Hill
#
# Bulk Modulus (GPa) = 45.14150 45.80376 45.47263
# Shear Modulus (GPa) = 6.83594 27.86700 17.35147
#
# Velocity S-wave (km/s) = 1.74127 3.51570 2.77418
# Velocity P-wave (km/s) = 4.90558 6.06596 5.51637
#
# Compressibility (1/GPa) = 0.02215256
#
# Stress axis : x y z
#
# Youngs Moduli (GPa) = 72.20037 96.21895 94.31184
#
# Poissons Ratio (x) = 0.15891 0.29752
# Poissons Ratio (y) = 0.11925 0.14531
# Poissons Ratio (z) = 0.22777 0.14825
#
# Static dielectric constant tensor:
#      x y z
#    x 1.822880 0.000000 0.000000 
#    y 0.000000 1.895620 0.000000 
#    z 0.000000 0.000000 1.862930 
# 
# From -- ./inp_files/3061.got.cif
#   From: 2010.05.17/outbox.cif.g08.bks.cpg/sg58_2_cif.got.tgz:3061.got - 2010.06.03 14:20:14.
