data_PCOD9443225
_publ_section_title
;
Structure prediction by ZEFSAII (Michael W. Deem and Ramdas Pophale) SiO2 
 PCOD9443225
Probable space group: P N N M
;
_chemical_formula_sum "Si O2"
_cell_formula_units_Z 64
_cell_length_a 12.543474
_cell_length_b 8.193764
_cell_length_c 27.749660
_cell_angle_alpha 90.000000
_cell_angle_beta 90.000000
_cell_angle_gamma 90.000000
_cell_volume 2852.061928
_symmetry_space_group_name_H-M "P N N M"
_symmetry_group_IT_number 58
_symmetry_cell_setting 'orthorhombic'
loop_
_space_group_symop_operation_xyz
x,y,z
-x,-y,z
1/2+x,1/2-y,1/2-z
1/2-x,1/2+y,1/2-z
-x,-y,-z
x,y,-z
1/2-x,1/2+y,1/2+z
1/2+x,1/2-y,1/2+z
loop_
_atom_site_type_symbol
_atom_site_label
_atom_site_fract_x
_atom_site_fract_y
_atom_site_fract_z
Si Si1 0.050974 0.821372 0.596764
Si Si2 0.666169 0.218190 0.943388
Si Si3 0.097017 0.196907 0.228347
Si Si4 0.438179 0.749820 0.379000
Si Si5 0.244983 0.146997 0.944401
Si Si6 0.334092 0.112850 0.373941
Si Si7 0.564159 0.839698 0.197008
Si Si8 0.728232 0.972916 0.267771
O O1 0.164124 0.773396 0.573651
O O2 0.068095 0.783351 0.653042
O O3 0.956317 0.714757 0.573615
O O4 0.000000 0.000000 0.590025
O O5 0.736781 0.335446 0.908561
O O6 0.709765 0.035011 0.938404
O O7 0.672967 0.266824 0.000000
O O8 0.072427 0.167648 0.173147
O O9 0.147684 0.047232 0.257103
O O10 0.181400 0.347072 0.228570
O O11 0.998873 0.268705 0.257570
O O12 0.366710 0.655872 0.416877
O O13 0.563440 0.776846 0.386953
O O14 0.380625 0.928839 0.378296
O O15 0.226247 0.181449 0.000000
O O16 0.300052 0.121070 0.317450
O O17 0.673411 0.902864 0.219466
O O18 0.500000 0.000000 0.179719
#
# Coordination Sequence:
#
# PCOD9443225 Si02
#       8
#     8   8   8   8   8   8   8   8
#     4  12  25  41  64  95 126 157 205 262 315 377
#     4  11  25  44  65  90 122 162 208 260 319 378
#     4  10  20  35  56  84 119 159 199 242 291 350
#     4  10  21  40  64  91 127 166 208 258 308 363
#     4  11  25  44  65  90 122 162 208 260 319 378
#     4  10  21  40  64  91 127 166 208 258 308 363
#     4  10  20  37  59  84 121 162 196 233 293 358
#     4  10  20  35  56  84 119 159 199 242 291 350
#
# _framework density 22.439905
#
# number of rings (size 3 to 8) (size 9 to 14) (size 15 to 20)
#    0.000    1.500    1.250    3.750    0.000   10.500 
#    0.000    2.500    0.000    0.000    0.000    0.000 
#    0.000    0.000    0.000    0.000    0.000    0.000 
#
# Total GULP energy -357891.974556 kJ/mol
# GULP energy per Si atom -5592.062102 kJ/mol
# Density = 2.238883 g / cm^3
# Si number density = 22.439905 Si / 1000 Ang^3
#
#
#
# Elastic Constant Matrix: (Units=GPa)
#
#
# Indices 1 2 3 4 5 6 
#
# 1 47.0157 10.1315 -4.1008 0.0000 0.0000 0.0000
# 2 10.1315 40.4480 25.9201 0.0000 0.0000 0.0000
# 3 -4.1008 25.9201 94.7511 0.0000 0.0000 0.0000
# 4 0.0000 0.0000 0.0000 -67.6019 0.0000 0.0000
# 5 0.0000 0.0000 0.0000 0.0000 -1.4523 0.0000
# 6 0.0000 0.0000 0.0000 0.0000 0.0000 38.4334
#
#
#
# Elastic Compliance Matrix: (Units=1/GPa)
#
#
# Indices 1 2 3 4 5 6 
#
# 1 0.023233 -0.007838 0.003150 0.000000 0.000000 0.000000
# 2 -0.007838 0.032623 -0.009263 0.000000 0.000000 0.000000
# 3 0.003150 -0.009263 0.013224 0.000000 0.000000 0.000000
# 4 0.000000 0.000000 0.000000 -0.014792 0.000000 0.000000
# 5 0.000000 0.000000 0.000000 0.000000 -0.688544 0.000000
# 6 0.000000 0.000000 0.000000 0.000000 0.000000 0.026019
#
#
# Mechanical properties :
#
#
# Convention : Reuss Voigt Hill
#
# Bulk Modulus (GPa) = 24.28550 27.34627 25.81589
# Shear Modulus (GPa) = -8.82444 3.89343 -2.46551
#
# Velocity S-wave (km/s) = -1.98520 1.31864 -1.04933
# Velocity P-wave (km/s) = 2.36459 3.81200 3.17195
#
# Compressibility (1/GPa) = 0.04117684
#
# Stress axis : x y z
#
# Youngs Moduli (GPa) = 43.04179 30.65354 75.61782
#
# Poissons Ratio (x) = 0.24026 -0.23817
# Poissons Ratio (y) = 0.33736 0.70048
# Poissons Ratio (z) = -0.13557 0.28396
#
# Static dielectric constant tensor:
#      x y z
#    x 1.802590 0.000000 0.000000 
#    y 0.000000 1.886440 0.000000 
#    z 0.000000 0.000000 1.780960 
# 
# From -- ./inp_files/34953.got.cif
#   From: 2010.05.17/outbox.cif.g08.bks.cpg/sg58_18_cif.got.tgz:34953.got - 2010.06.03 14:20:14.
