data_PCOD9443241
_publ_section_title
;
Structure prediction by ZEFSAII (Michael W. Deem and Ramdas Pophale) SiO2 
 PCOD9443241
Probable space group: P N N M
;
_chemical_formula_sum "Si O2"
_cell_formula_units_Z 64
_cell_length_a 9.529417
_cell_length_b 24.484055
_cell_length_c 14.640987
_cell_angle_alpha 90.000000
_cell_angle_beta 90.000000
_cell_angle_gamma 90.000000
_cell_volume 3416.017078
_symmetry_space_group_name_H-M "P N N M"
_symmetry_group_IT_number 58
_symmetry_cell_setting 'orthorhombic'
loop_
_space_group_symop_operation_xyz
x,y,z
-x,-y,z
1/2+x,1/2-y,1/2-z
1/2-x,1/2+y,1/2-z
-x,-y,-z
x,y,-z
1/2-x,1/2+y,1/2+z
1/2+x,1/2-y,1/2+z
loop_
_atom_site_type_symbol
_atom_site_label
_atom_site_fract_x
_atom_site_fract_y
_atom_site_fract_z
Si Si1 0.897521 0.044228 0.330430
Si Si2 0.158018 0.172009 0.894715
Si Si3 0.151787 0.836373 0.400598
Si Si4 0.653586 0.977357 0.762392
Si Si5 0.854475 0.354272 0.775209
Si Si6 0.378583 0.777883 0.282318
Si Si7 0.843114 0.785873 0.602633
Si Si8 0.428162 0.553622 0.358155
O O1 0.869294 0.099759 0.382474
O O2 0.989739 0.058386 0.239234
O O3 0.749589 0.017088 0.300308
O O4 0.000000 0.000000 0.378112
O O5 0.285157 0.159345 0.823885
O O6 0.087784 0.223909 0.843717
O O7 0.071582 0.114910 0.896539
O O8 0.196363 0.184987 0.000000
O O9 0.218523 0.828219 0.500000
O O10 0.245462 0.807222 0.325892
O O11 0.000775 0.808244 0.400273
O O12 0.627099 0.918759 0.716489
O O13 0.765462 0.963489 0.842736
O O14 0.500000 0.000000 0.787531
O O15 0.751517 0.333347 0.854177
O O16 0.994597 0.319786 0.783116
O O17 0.342350 0.760649 0.179274
O O18 0.800081 0.770402 0.500000
O O19 0.500000 0.500000 0.401525
#
# Coordination Sequence:
#
# PCOD9443241 Si02
#       8
#     8   8   8   8   8   8   8   8
#     4   9  17  33  55  77 105 142 187 229 269 318
#     4  10  20  35  57  83 110 145 187 224 268 328
#     4  11  22  36  56  83 112 144 184 228 272 321
#     4   9  16  30  53  77 104 143 180 216 269 328
#     4  10  21  37  56  80 111 145 177 221 276 322
#     4  11  22  36  55  80 112 144 179 223 274 327
#     4  10  21  37  57  79 106 141 181 224 271 324
#     4   8  17  32  53  80 108 141 184 229 270 311
#
# _framework density 18.73527
#
# number of rings (size 3 to 8) (size 9 to 14) (size 15 to 20)
#    0.000    2.500    0.000    5.625    0.000    3.000 
#    0.000    0.625    0.000    7.500    0.000   15.750 
#    0.000    0.000    0.000    0.000    0.000    0.000 
#
# Total GULP energy -356522.148225 kJ/mol
# GULP energy per Si atom -5570.658566 kJ/mol
# Density = 1.869263 g / cm^3
# Si number density = 18.735270 Si / 1000 Ang^3
#
#
#
# Elastic Constant Matrix: (Units=GPa)
#
#
# Indices 1 2 3 4 5 6 
#
# 1 92.0260 44.0929 37.1384 0.0000 0.0000 0.0000
# 2 44.0929 99.1554 42.8712 0.0000 0.0000 0.0000
# 3 37.1384 42.8712 126.6010 0.0000 0.0000 0.0000
# 4 0.0000 0.0000 0.0000 10.7435 0.0000 0.0000
# 5 0.0000 0.0000 0.0000 0.0000 11.1944 0.0000
# 6 0.0000 0.0000 0.0000 0.0000 0.0000 37.3104
#
#
#
# Elastic Compliance Matrix: (Units=1/GPa)
#
#
# Indices 1 2 3 4 5 6 
#
# 1 0.014410 -0.005366 -0.002410 0.000000 0.000000 0.000000
# 2 -0.005366 0.013813 -0.003103 0.000000 0.000000 0.000000
# 3 -0.002410 -0.003103 0.009657 0.000000 0.000000 0.000000
# 4 0.000000 0.000000 0.000000 0.093080 0.000000 0.000000
# 5 0.000000 0.000000 0.000000 0.000000 0.089330 0.000000
# 6 0.000000 0.000000 0.000000 0.000000 0.000000 0.026802
#
#
# Mechanical properties :
#
#
# Convention : Reuss Voigt Hill
#
# Bulk Modulus (GPa) = 62.03092 62.88749 62.45921
# Shear Modulus (GPa) = 18.23319 24.76164 21.49742
#
# Velocity S-wave (km/s) = 3.12300 3.63941 3.39105
# Velocity P-wave (km/s) = 6.79597 7.16237 6.98158
#
# Compressibility (1/GPa) = 0.01612099
#
# Stress axis : x y z
#
# Youngs Moduli (GPa) = 69.39556 72.39471 103.55402
#
# Poissons Ratio (x) = 0.38846 0.24958
# Poissons Ratio (y) = 0.37237 0.32138
# Poissons Ratio (z) = 0.16725 0.22468
#
# Static dielectric constant tensor:
#      x y z
#    x 1.643790 0.000000 0.000000 
#    y 0.000000 1.669440 0.000000 
#    z 0.000000 0.000000 1.651350 
# 
# From -- ./inp_files/20287.got.cif
#   From: 2010.05.17/outbox.cif.g08.bks.cpg/sg58_11_cif.got.tgz:20287.got - 2010.06.03 14:20:14.
