data_PCOD9443951
_publ_section_title
;
Structure prediction by ZEFSAII (Michael W. Deem and Ramdas Pophale) SiO2 
 PCOD9443951
Probable space group: P N N M
;
_chemical_formula_sum "Si O2"
_cell_formula_units_Z 64
_cell_length_a 12.917923
_cell_length_b 28.073267
_cell_length_c 8.849777
_cell_angle_alpha 90.000000
_cell_angle_beta 90.000000
_cell_angle_gamma 90.000000
_cell_volume 3209.356597
_symmetry_space_group_name_H-M "P N N M"
_symmetry_group_IT_number 58
_symmetry_cell_setting 'orthorhombic'
loop_
_space_group_symop_operation_xyz
x,y,z
-x,-y,z
1/2+x,1/2-y,1/2-z
1/2-x,1/2+y,1/2-z
-x,-y,-z
x,y,-z
1/2-x,1/2+y,1/2+z
1/2+x,1/2-y,1/2+z
loop_
_atom_site_type_symbol
_atom_site_label
_atom_site_fract_x
_atom_site_fract_y
_atom_site_fract_z
Si Si1 0.900196 0.930040 0.318099
Si Si2 0.846554 0.565161 0.321851
Si Si3 0.819504 0.467086 0.180464
Si Si4 0.649808 0.785243 0.679797
Si Si5 0.351551 0.671947 0.322824
Si Si6 0.627844 0.585759 0.176261
Si Si7 0.533925 0.879573 0.681716
Si Si8 0.942619 0.195584 0.324435
O O1 0.898740 0.920729 0.500000
O O2 0.803962 0.964751 0.287094
O O3 0.871914 0.882029 0.229848
O O4 0.020186 0.940943 0.282042
O O5 0.856932 0.566802 0.500000
O O6 0.869181 0.512203 0.260779
O O7 0.728842 0.575445 0.272405
O O8 0.926567 0.602108 0.248601
O O9 0.876674 0.417975 0.224590
O O10 0.831109 0.472388 0.000000
O O11 0.642236 0.777585 0.500000
O O12 0.759947 0.807054 0.723232
O O13 0.567680 0.826383 0.725786
O O14 0.633456 0.736645 0.769886
O O15 0.328099 0.674544 0.500000
O O16 0.457184 0.698857 0.281516
O O17 0.602441 0.642160 0.188314
O O18 0.650087 0.574550 0.000000
O O19 0.527709 0.880414 0.500000
O O20 0.971368 0.201989 0.500000
#
# Coordination Sequence:
#
# PCOD9443951 Si02
#       8
#     8   8   8   8   8   8   8   8
#     4   9  18  37  64  90 114 149 200 252 295 348
#     4  12  26  39  56  86 126 162 199 249 304 357
#     4  10  20  39  65  89 116 155 202 247 303 365
#     4  11  22  39  63  91 119 152 200 252 302 361
#     4  11  21  35  58  87 120 157 192 238 299 359
#     4   9  20  40  63  84 116 159 201 244 296 362
#     4  10  22  41  64  86 115 157 203 247 296 362
#     4  10  22  40  62  89 119 155 201 250 303 361
#
# _framework density 19.941692
#
# number of rings (size 3 to 8) (size 9 to 14) (size 15 to 20)
#    0.000    1.750    1.250    4.125    0.000    7.500 
#    0.000    3.750    0.000    0.000    0.000    0.000 
#    0.000    0.000    0.000    0.000    0.000    0.000 
#
# Total GULP energy -357545.968685 kJ/mol
# GULP energy per Si atom -5586.655761 kJ/mol
# Density = 1.989630 g / cm^3
# Si number density = 19.941692 Si / 1000 Ang^3
#
#
#
# Elastic Constant Matrix: (Units=GPa)
#
#
# Indices 1 2 3 4 5 6 
#
# 1 69.8032 4.0451 11.2272 0.0000 0.0000 0.0000
# 2 4.0451 43.9387 13.3523 0.0000 0.0000 0.0000
# 3 11.2272 13.3523 19.6676 0.0000 0.0000 0.0000
# 4 0.0000 0.0000 0.0000 17.5329 0.0000 0.0000
# 5 0.0000 0.0000 0.0000 0.0000 17.8004 0.0000
# 6 0.0000 0.0000 0.0000 0.0000 0.0000 17.9677
#
#
#
# Elastic Compliance Matrix: (Units=1/GPa)
#
#
# Indices 1 2 3 4 5 6 
#
# 1 0.015866 0.001627 -0.010162 0.000000 0.000000 0.000000
# 2 0.001627 0.028842 -0.020510 0.000000 0.000000 0.000000
# 3 -0.010162 -0.020510 0.070570 0.000000 0.000000 0.000000
# 4 0.000000 0.000000 0.000000 0.057036 0.000000 0.000000
# 5 0.000000 0.000000 0.000000 0.000000 0.056179 0.000000
# 6 0.000000 0.000000 0.000000 0.000000 0.000000 0.055655
#
#
# Mechanical properties :
#
#
# Convention : Reuss Voigt Hill
#
# Bulk Modulus (GPa) = 17.48578 21.18431 19.33504
# Shear Modulus (GPa) = 13.83897 17.64587 15.74242
#
# Velocity S-wave (km/s) = 2.63719 2.97791 2.81271
# Velocity P-wave (km/s) = 4.24977 4.74026 4.50170
#
# Compressibility (1/GPa) = 0.05718934
#
# Stress axis : x y z
#
# Youngs Moduli (GPa) = 63.02728 34.67199 14.17037
#
# Poissons Ratio (x) = -0.05643 0.14400
# Poissons Ratio (y) = -0.10257 0.29063
# Poissons Ratio (z) = 0.64048 0.71111
#
# Static dielectric constant tensor:
#      x y z
#    x 1.711920 0.000000 0.000000 
#    y 0.000000 1.719170 0.000000 
#    z 0.000000 0.000000 1.651250 
# 
# From -- ./inp_files/4786.got.cif
#   From: 2010.05.17/outbox.cif.g08.bks.cpg/sg58_3_cif.got.tgz:4786.got - 2010.06.03 14:20:14.
