data_PCOD9443615
_publ_section_title
;
Structure prediction by ZEFSAII (Michael W. Deem and Ramdas Pophale) SiO2 
 PCOD9443615
Probable space group: P N N M
;
_chemical_formula_sum "Si O2"
_cell_formula_units_Z 64
_cell_length_a 5.246819
_cell_length_b 20.349259
_cell_length_c 31.607029
_cell_angle_alpha 90.000000
_cell_angle_beta 90.000000
_cell_angle_gamma 90.000000
_cell_volume 3374.647047
_symmetry_space_group_name_H-M "P N N M"
_symmetry_group_IT_number 58
_symmetry_cell_setting 'orthorhombic'
loop_
_space_group_symop_operation_xyz
x,y,z
-x,-y,z
1/2+x,1/2-y,1/2-z
1/2-x,1/2+y,1/2-z
-x,-y,-z
x,y,-z
1/2-x,1/2+y,1/2+z
1/2+x,1/2-y,1/2+z
loop_
_atom_site_type_symbol
_atom_site_label
_atom_site_fract_x
_atom_site_fract_y
_atom_site_fract_z
Si Si1 0.136033 0.763132 0.877094
Si Si2 0.046887 0.152327 0.050175
Si Si3 0.037901 0.426615 0.449089
Si Si4 0.370151 0.328887 0.295834
Si Si5 0.863096 0.184885 0.352931
Si Si6 0.901651 0.569222 0.764381
Si Si7 0.244123 0.960463 0.356474
Si Si8 0.706570 0.319578 0.226591
O O1 0.047708 0.785879 0.922924
O O2 0.894330 0.726356 0.856243
O O3 0.170133 0.825548 0.845692
O O4 0.394014 0.720422 0.874860
O O5 0.318506 0.123902 0.065633
O O6 0.823733 0.098763 0.056959
O O7 0.061053 0.166217 0.000000
O O8 0.997877 0.429660 0.500000
O O9 0.000000 0.500000 0.432154
O O10 0.231558 0.387808 0.271747
O O11 0.652087 0.331933 0.276101
O O12 0.288099 0.255832 0.279686
O O13 0.963285 0.175892 0.304655
O O14 0.789196 0.114173 0.371468
O O15 0.743805 0.544955 0.805167
O O16 0.000000 0.500000 0.746101
O O17 0.105940 0.620680 0.784802
O O18 0.500000 0.000000 0.367769
O O19 0.000000 0.000000 0.370949
#
# Coordination Sequence:
#
# PCOD9443615 Si02
#       8
#     8   8   8   8   8   8   8   8
#     4  11  24  36  57  83 112 146 188 239 276 329
#     4  10  20  37  58  84 115 146 180 232 295 344
#     4   9  17  32  59  85 107 138 184 230 276 340
#     4  11  21  33  56  73 104 145 197 231 268 332
#     4  11  21  37  56  83 112 142 188 233 278 328
#     4  11  23  34  52  79 108 147 192 240 284 326
#     4  11  21  35  53  79 110 146 184 227 278 331
#     4  11  20  36  56  76 103 149 194 233 270 335
#
# _framework density 18.964945
#
# number of rings (size 3 to 8) (size 9 to 14) (size 15 to 20)
#    0.000    1.375    2.500    5.625    1.750    1.500 
#    0.000    0.625    2.750    0.000    0.000    0.000 
#    0.000   10.000    0.000    0.000    0.000    0.000 
#
# Total GULP energy -356745.627824 kJ/mol
# GULP energy per Si atom -5574.150435 kJ/mol
# Density = 1.892178 g / cm^3
# Si number density = 18.964945 Si / 1000 Ang^3
#
#
#
# Elastic Constant Matrix: (Units=GPa)
#
#
# Indices 1 2 3 4 5 6 
#
# 1 69.5672 10.8444 -4.6284 0.0000 0.0000 0.0000
# 2 10.8444 71.1941 5.7554 0.0000 0.0000 0.0000
# 3 -4.6284 5.7554 30.9863 0.0000 0.0000 0.0000
# 4 0.0000 0.0000 0.0000 8.8064 0.0000 0.0000
# 5 0.0000 0.0000 0.0000 0.0000 12.6187 0.0000
# 6 0.0000 0.0000 0.0000 0.0000 0.0000 34.5519
#
#
#
# Elastic Compliance Matrix: (Units=1/GPa)
#
#
# Indices 1 2 3 4 5 6 
#
# 1 0.014943 -0.002494 0.002695 0.000000 0.000000 0.000000
# 2 -0.002494 0.014676 -0.003099 0.000000 0.000000 0.000000
# 3 0.002695 -0.003099 0.033250 0.000000 0.000000 0.000000
# 4 0.000000 0.000000 0.000000 0.113554 0.000000 0.000000
# 5 0.000000 0.000000 0.000000 0.000000 0.079248 0.000000
# 6 0.000000 0.000000 0.000000 0.000000 0.000000 0.028942
#
#
# Mechanical properties :
#
#
# Convention : Reuss Voigt Hill
#
# Bulk Modulus (GPa) = 17.52081 21.74337 19.63209
# Shear Modulus (GPa) = 16.15859 21.84714 19.00286
#
# Velocity S-wave (km/s) = 2.92211 3.39776 3.16887
# Velocity P-wave (km/s) = 4.54352 5.18488 4.87476
#
# Compressibility (1/GPa) = 0.05707499
#
# Stress axis : x y z
#
# Youngs Moduli (GPa) = 66.92243 68.13617 30.07475
#
# Poissons Ratio (x) = 0.16993 -0.08106
# Poissons Ratio (y) = 0.16690 0.09319
# Poissons Ratio (z) = -0.18037 0.21112
#
# Static dielectric constant tensor:
#      x y z
#    x 1.767760 0.000000 0.000000 
#    y 0.000000 1.711210 0.000000 
#    z 0.000000 0.000000 1.670840 
# 
# From -- ./inp_files/34279.got.cif
#   From: 2010.05.17/outbox.cif.g08.bks.cpg/sg58_18_cif.got.tgz:34279.got - 2010.06.03 14:20:14.
