data_PCOD9443952
_publ_section_title
;
Structure prediction by ZEFSAII (Michael W. Deem and Ramdas Pophale) SiO2 
 PCOD9443952
Probable space group: P N N M
;
_chemical_formula_sum "Si O2"
_cell_formula_units_Z 56
_cell_length_a 21.994482
_cell_length_b 15.721094
_cell_length_c 8.164043
_cell_angle_alpha 90.000000
_cell_angle_beta 90.000000
_cell_angle_gamma 90.000000
_cell_volume 2822.940901
_symmetry_space_group_name_H-M "P N N M"
_symmetry_group_IT_number 58
_symmetry_cell_setting 'orthorhombic'
loop_
_space_group_symop_operation_xyz
x,y,z
-x,-y,z
1/2+x,1/2-y,1/2-z
1/2-x,1/2+y,1/2-z
-x,-y,-z
x,y,-z
1/2-x,1/2+y,1/2+z
1/2+x,1/2-y,1/2+z
loop_
_atom_site_type_symbol
_atom_site_label
_atom_site_fract_x
_atom_site_fract_y
_atom_site_fract_z
Si Si1 0.662121 0.188611 0.802477
Si Si2 0.312440 0.002746 0.800734
Si Si3 0.521419 0.197515 0.313365
Si Si4 0.586501 0.478001 0.308752
Si Si5 0.477352 0.369991 0.187639
Si Si6 0.554661 0.946858 0.809005
Si Si7 0.297131 0.623171 0.804099
O O1 0.590981 0.190809 0.749203
O O2 0.694733 0.277408 0.749966
O O3 0.691517 0.097599 0.750733
O O4 0.662372 0.187973 0.000000
O O5 0.379008 0.034143 0.742873
O O6 0.263862 0.071068 0.736820
O O7 0.308863 0.004722 0.000000
O O8 0.519927 0.168004 0.500000
O O9 0.497318 0.292731 0.300094
O O10 0.472376 0.146265 0.207267
O O11 0.570538 0.471151 0.500000
O O12 0.536917 0.429319 0.200169
O O13 0.579291 0.575776 0.254635
O O14 0.649850 0.432707 0.277254
O O15 0.467839 0.344329 0.000000
O O16 0.500000 0.000000 0.730377
O O17 0.559121 0.971885 0.000000
O O18 0.305586 0.623051 0.000000
#
# Coordination Sequence:
#
# PCOD9443952 Si02
#       7
#     8   8   8   8   8   8   8
#     4  10  21  41  66  88 116 163 210 250 306 373
#     4  10  22  42  66  89 119 163 210 259 312 369
#     4  12  23  35  59  93 125 157 197 253 309 365
#     4  11  21  36  59  89 122 157 202 254 306 359
#     4  11  21  36  58  86 122 162 204 249 303 364
#     4  10  20  39  65  89 118 159 202 252 313 373
#     4  11  23  40  64  91 124 167 210 256 311 375
#
# _framework density 19.837468999999999
#
# number of rings (size 3 to 8) (size 9 to 14) (size 15 to 20)
#    0.000    1.286    2.857    5.143    0.000    2.000 
#    2.571    0.000    0.000    0.000    0.000    0.000 
#    0.000    0.000    0.000    0.000    0.000    0.000 
#
# Total GULP energy -312234.402042 kJ/mol
# GULP energy per Si atom -5575.614322 kJ/mol
# Density = 1.979232 g / cm^3
# Si number density = 19.837469 Si / 1000 Ang^3
#
#
#
# Elastic Constant Matrix: (Units=GPa)
#
#
# Indices 1 2 3 4 5 6 
#
# 1 114.6989 64.2803 10.2163 0.0000 0.0000 0.0000
# 2 64.2803 112.5397 7.4090 0.0000 0.0000 0.0000
# 3 10.2163 7.4090 57.0126 0.0000 0.0000 0.0000
# 4 0.0000 0.0000 0.0000 24.6407 0.0000 0.0000
# 5 0.0000 0.0000 0.0000 0.0000 -62.1459 0.0000
# 6 0.0000 0.0000 0.0000 0.0000 0.0000 30.5781
#
#
#
# Elastic Compliance Matrix: (Units=1/GPa)
#
#
# Indices 1 2 3 4 5 6 
#
# 1 0.012928 -0.007294 -0.001369 0.000000 0.000000 0.000000
# 2 -0.007294 0.013078 -0.000392 0.000000 0.000000 0.000000
# 3 -0.001369 -0.000392 0.017836 0.000000 0.000000 0.000000
# 4 0.000000 0.000000 0.000000 0.040583 0.000000 0.000000
# 5 0.000000 0.000000 0.000000 0.000000 -0.016091 0.000000
# 6 0.000000 0.000000 0.000000 0.000000 0.000000 0.032703
#
#
# Mechanical properties :
#
#
# Convention : Reuss Voigt Hill
#
# Bulk Modulus (GPa) = 38.86276 49.78470 44.32373
# Shear Modulus (GPa) = 39.14636 12.10429 25.62533
#
# Velocity S-wave (km/s) = 4.44707 2.47285 3.59801
# Velocity P-wave (km/s) = 6.78245 5.77097 6.29705
#
# Compressibility (1/GPa) = 0.02573157
#
# Stress axis : x y z
#
# Youngs Moduli (GPa) = 77.34976 76.46475 56.06559
#
# Poissons Ratio (x) = 0.55775 0.07674
# Poissons Ratio (y) = 0.56421 0.02200
# Poissons Ratio (z) = 0.10587 0.03001
#
# Static dielectric constant tensor:
#      x y z
#    x 1.622490 0.000000 0.000000 
#    y 0.000000 3.855500 0.000000 
#    z 0.000000 0.000000 1.696450 
# 
# From -- ./inp_files/9044.got.cif
#   From: 2010.05.17/outbox.cif.g08.bks.cpg/sg58_5_cif.got.tgz:9044.got - 2010.06.03 14:20:14.
