data_PCOD9443469
_publ_section_title
;
Structure prediction by ZEFSAII (Michael W. Deem and Ramdas Pophale) SiO2 
 PCOD9443469
Probable space group: P N N M
;
_chemical_formula_sum "Si O2"
_cell_formula_units_Z 56
_cell_length_a 12.692734
_cell_length_b 12.295607
_cell_length_c 18.774859
_cell_angle_alpha 90.000000
_cell_angle_beta 90.000000
_cell_angle_gamma 90.000000
_cell_volume 2930.095911
_symmetry_space_group_name_H-M "P N N M"
_symmetry_group_IT_number 58
_symmetry_cell_setting 'orthorhombic'
loop_
_space_group_symop_operation_xyz
x,y,z
-x,-y,z
1/2+x,1/2-y,1/2-z
1/2-x,1/2+y,1/2-z
-x,-y,-z
x,y,-z
1/2-x,1/2+y,1/2+z
1/2+x,1/2-y,1/2+z
loop_
_atom_site_type_symbol
_atom_site_label
_atom_site_fract_x
_atom_site_fract_y
_atom_site_fract_z
Si Si1 0.649316 0.616428 0.082272
Si Si2 0.256664 0.067709 0.915400
Si Si3 0.944600 0.308387 0.662753
Si Si4 0.623250 0.236559 0.582578
Si Si5 0.953651 0.382256 0.819526
Si Si6 0.749757 0.896097 0.582665
Si Si7 0.845345 0.656553 0.417859
O O1 0.575418 0.687342 0.132626
O O2 0.766728 0.669480 0.086956
O O3 0.665431 0.489988 0.099529
O O4 0.613665 0.627587 0.000000
O O5 0.354986 0.117979 0.873739
O O6 0.154865 0.139866 0.896672
O O7 0.260624 0.938737 0.903801
O O8 0.272394 0.087456 0.000000
O O9 0.933722 0.317613 0.746975
O O10 0.057136 0.350175 0.635437
O O11 0.588757 0.234123 0.500000
O O12 0.537171 0.182329 0.632233
O O13 0.848988 0.402306 0.865314
O O14 0.000000 0.500000 0.800054
O O15 0.717612 0.916106 0.500000
O O16 0.796562 0.775804 0.587420
O O17 0.882690 0.641431 0.500000
#
# Coordination Sequence:
#
# PCOD9443469 Si02
#       7
#     8   8   8   8   8   8   8
#     4   9  18  37  63  86 111 147 196 246 288 336
#     4   9  18  36  60  85 111 150 198 239 282 339
#     4  11  22  35  55  87 117 153 190 232 290 358
#     4   9  18  34  60  85 108 146 198 247 284 333
#     4  12  23  36  57  86 119 154 193 241 299 358
#     4  10  22  39  61  89 115 150 200 248 293 339
#     4  10  20  36  59  85 117 151 191 243 289 340
#
# _framework density 19.112002
#
# number of rings (size 3 to 8) (size 9 to 14) (size 15 to 20)
#    0.000    2.000    1.429    3.857    0.000    4.571 
#    2.571    2.857    3.143    3.429    0.000    0.000 
#    0.000    0.000    0.000    0.000    0.000    0.000 
#
# Total GULP energy -312664.763220 kJ/mol
# GULP energy per Si atom -5583.299343 kJ/mol
# Density = 1.906850 g / cm^3
# Si number density = 19.112002 Si / 1000 Ang^3
#
#
#
# Elastic Constant Matrix: (Units=GPa)
#
#
# Indices 1 2 3 4 5 6 
#
# 1 25.7406 18.6850 28.0172 0.0000 0.0000 0.0000
# 2 18.6850 141.9910 39.0565 0.0000 0.0000 0.0000
# 3 28.0172 39.0565 64.8879 0.0000 0.0000 0.0000
# 4 0.0000 0.0000 0.0000 -28.8176 0.0000 0.0000
# 5 0.0000 0.0000 0.0000 0.0000 -26.1795 0.0000
# 6 0.0000 0.0000 0.0000 0.0000 0.0000 24.1570
#
#
#
# Elastic Compliance Matrix: (Units=1/GPa)
#
#
# Indices 1 2 3 4 5 6 
#
# 1 0.073447 -0.001129 -0.031033 0.000000 0.000000 0.000000
# 2 -0.001129 0.008457 -0.004603 0.000000 0.000000 0.000000
# 3 -0.031033 -0.004603 0.031581 0.000000 0.000000 0.000000
# 4 0.000000 0.000000 0.000000 -0.034701 0.000000 0.000000
# 5 0.000000 0.000000 0.000000 0.000000 -0.038198 0.000000
# 6 0.000000 0.000000 0.000000 0.000000 0.000000 0.041396
#
#
# Mechanical properties :
#
#
# Convention : Reuss Voigt Hill
#
# Bulk Modulus (GPa) = 25.02825 44.90410 34.96618
# Shear Modulus (GPa) = 29.61543 3.62269 16.61906
#
# Velocity S-wave (km/s) = 3.94073 1.37827 2.95203
# Velocity P-wave (km/s) = 5.81634 5.10677 5.47307
#
# Compressibility (1/GPa) = 0.03995485
#
# Stress axis : x y z
#
# Youngs Moduli (GPa) = 13.61535 118.23945 31.66434
#
# Poissons Ratio (x) = 0.13349 0.98264
# Poissons Ratio (y) = 0.01537 0.14575
# Poissons Ratio (z) = 0.42253 0.54427
#
# Static dielectric constant tensor:
#      x y z
#    x 1.639240 0.000000 0.000000 
#    y 0.000000 1.710400 0.000000 
#    z 0.000000 0.000000 1.642120 
# 
# From -- ./inp_files/22197.got.cif
#   From: 2010.05.17/outbox.cif.g08.bks.cpg/sg58_12_cif.got.tgz:22197.got - 2010.06.03 14:20:14.
