data_PCOD9443187
_publ_section_title
;
Structure prediction by ZEFSAII (Michael W. Deem and Ramdas Pophale) SiO2 
 PCOD9443187
Probable space group: P N N M
;
_chemical_formula_sum "Si O2"
_cell_formula_units_Z 48
_cell_length_a 30.132461
_cell_length_b 8.600417
_cell_length_c 10.103202
_cell_angle_alpha 90.000000
_cell_angle_beta 90.000000
_cell_angle_gamma 90.000000
_cell_volume 2618.262275
_symmetry_space_group_name_H-M "P N N M"
_symmetry_group_IT_number 58
_symmetry_cell_setting 'orthorhombic'
loop_
_space_group_symop_operation_xyz
x,y,z
-x,-y,z
1/2+x,1/2-y,1/2-z
1/2-x,1/2+y,1/2-z
-x,-y,-z
x,y,-z
1/2-x,1/2+y,1/2+z
1/2+x,1/2-y,1/2+z
loop_
_atom_site_type_symbol
_atom_site_label
_atom_site_fract_x
_atom_site_fract_y
_atom_site_fract_z
Si Si1 0.775286 0.102769 0.849447
Si Si2 0.655300 0.441899 0.154887
Si Si3 0.192436 0.572401 0.252162
Si Si4 0.951007 0.447999 0.153505
Si Si5 0.105266 0.742961 0.647441
Si Si6 0.369661 0.822476 0.354811
O O1 0.781014 0.284735 0.814371
O O2 0.804222 0.011272 0.740608
O O3 0.726058 0.033730 0.835098
O O4 0.791020 0.078127 0.000000
O O5 0.617993 0.576579 0.159882
O O6 0.639066 0.291346 0.233272
O O7 0.666376 0.415171 0.000000
O O8 0.151975 0.651284 0.332538
O O9 0.167537 0.457374 0.151778
O O10 0.929081 0.316979 0.244405
O O11 0.916855 0.592395 0.159200
O O12 0.000000 0.500000 0.194899
O O13 0.953037 0.397271 0.000000
O O14 0.088631 0.711147 0.500000
O O15 0.367368 0.745719 0.500000
#
# Coordination Sequence:
#
# PCOD9443187 Si02
#       6
#     8   8   8   8   8   8
#     4  11  22  36  55  77 105 143 184 222 264 313
#     4  10  22  37  54  78 109 142 178 224 267 309
#     4  10  21  34  53  80 109 139 180 227 268 308
#     4   9  19  36  58  84 110 136 171 216 263 315
#     4   9  19  36  55  77 106 140 178 218 265 317
#     4  10  20  35  56  79 106 141 179 217 264 321
#
# _framework density 18.332771000000001
#
# number of rings (size 3 to 8) (size 9 to 14) (size 15 to 20)
#    0.000    2.167    0.000    2.500    0.000   11.667 
#    0.000    0.833    0.000    5.000    0.000    0.000 
#    0.000    0.000    0.000    0.000    0.000    0.000 
#
# Total GULP energy -267727.198585 kJ/mol
# GULP energy per Si atom -5577.649971 kJ/mol
# Density = 1.829104 g / cm^3
# Si number density = 18.332771 Si / 1000 Ang^3
#
#
#
# Elastic Constant Matrix: (Units=GPa)
#
#
# Indices 1 2 3 4 5 6 
#
# 1 66.7145 36.8065 32.2814 0.0000 0.0000 0.0000
# 2 36.8065 77.2354 50.7092 0.0000 0.0000 0.0000
# 3 32.2814 50.7092 129.6816 0.0000 0.0000 0.0000
# 4 0.0000 0.0000 0.0000 20.6615 0.0000 0.0000
# 5 0.0000 0.0000 0.0000 0.0000 -60.6340 0.0000
# 6 0.0000 0.0000 0.0000 0.0000 0.0000 12.4243
#
#
#
# Elastic Compliance Matrix: (Units=1/GPa)
#
#
# Indices 1 2 3 4 5 6 
#
# 1 0.020622 -0.008688 -0.001736 0.000000 0.000000 0.000000
# 2 -0.008688 0.021079 -0.006080 0.000000 0.000000 0.000000
# 3 -0.001736 -0.006080 0.010521 0.000000 0.000000 0.000000
# 4 0.000000 0.000000 0.000000 0.048399 0.000000 0.000000
# 5 0.000000 0.000000 0.000000 0.000000 -0.016492 0.000000
# 6 0.000000 0.000000 0.000000 0.000000 0.000000 0.080487
#
#
# Mechanical properties :
#
#
# Convention : Reuss Voigt Hill
#
# Bulk Modulus (GPa) = 52.04369 57.02509 54.53439
# Shear Modulus (GPa) = 24.50625 4.74599 14.62612
#
# Velocity S-wave (km/s) = 3.66012 1.61072 2.82762
# Velocity P-wave (km/s) = 6.80529 5.88492 6.36177
#
# Compressibility (1/GPa) = 0.01921462
#
# Stress axis : x y z
#
# Youngs Moduli (GPa) = 48.49103 47.43974 95.04875
#
# Poissons Ratio (x) = 0.41213 0.16504
# Poissons Ratio (y) = 0.42127 0.57790
# Poissons Ratio (z) = 0.08420 0.28844
#
# Static dielectric constant tensor:
#      x y z
#    x 1.614010 0.000000 0.000000 
#    y 0.000000 1.634980 0.000000 
#    z 0.000000 0.000000 1.633060 
# 
# From -- ./inp_files/2970.got.cif
#   From: 2010.05.17/outbox.cif.g08.bks.cpg/sg58_2_cif.got.tgz:2970.got - 2010.06.03 14:20:14.
