data_PCOD9443668
_publ_section_title
;
Structure prediction by ZEFSAII (Michael W. Deem and Ramdas Pophale) SiO2 
 PCOD9443668
Probable space group: P N N M
;
_chemical_formula_sum "Si O2"
_cell_formula_units_Z 64
_cell_length_a 21.864970
_cell_length_b 17.340611
_cell_length_c 8.652665
_cell_angle_alpha 90.000000
_cell_angle_beta 90.000000
_cell_angle_gamma 90.000000
_cell_volume 3280.674715
_symmetry_space_group_name_H-M "P N N M"
_symmetry_group_IT_number 58
_symmetry_cell_setting 'orthorhombic'
loop_
_space_group_symop_operation_xyz
x,y,z
-x,-y,z
1/2+x,1/2-y,1/2-z
1/2-x,1/2+y,1/2-z
-x,-y,-z
x,y,-z
1/2-x,1/2+y,1/2+z
1/2+x,1/2-y,1/2+z
loop_
_atom_site_type_symbol
_atom_site_label
_atom_site_fract_x
_atom_site_fract_y
_atom_site_fract_z
Si Si1 0.223957 0.161759 0.816779
Si Si2 0.419869 0.934992 0.317284
Si Si3 0.364649 0.539252 0.817229
Si Si4 0.107554 0.875133 0.182391
Si Si5 0.447186 0.093076 0.818136
Si Si6 0.025126 0.154320 0.315820
Si Si7 0.125454 0.280423 0.314758
Si Si8 0.352336 0.207821 0.683628
O O1 0.180042 0.229961 0.755050
O O2 0.289058 0.170257 0.735544
O O3 0.189210 0.083154 0.771545
O O4 0.231017 0.167150 0.000000
O O5 0.413369 0.945897 0.500000
O O6 0.489607 0.911260 0.275586
O O7 0.378895 0.865064 0.256271
O O8 0.410483 0.015720 0.229304
O O9 0.371563 0.450644 0.773109
O O10 0.427919 0.584512 0.780833
O O11 0.354510 0.549156 0.000000
O O12 0.146465 0.798806 0.219178
O O13 0.037543 0.855333 0.225509
O O14 0.111976 0.890578 0.000000
O O15 0.407517 0.166296 0.771915
O O16 0.461189 0.092446 0.000000
O O17 0.012416 0.153066 0.500000
O O18 0.063115 0.232163 0.281007
O O19 0.131441 0.283808 0.500000
O O20 0.361478 0.198678 0.500000
#
# Coordination Sequence:
#
# PCOD9443668 Si02
#       8
#     8   8   8   8   8   8   8   8
#     4  11  23  41  63  86 114 151 199 245 294 352
#     4  11  21  36  59  90 123 155 196 244 296 355
#     4  10  21  39  61  85 118 158 195 237 290 348
#     4  11  23  36  57  89 120 151 192 242 290 344
#     4  11  22  38  60  87 119 156 196 244 301 357
#     4   9  19  34  56  86 121 158 191 230 290 351
#     4  10  20  37  60  87 119 157 198 243 293 347
#     4  11  24  43  61  83 118 157 198 246 300 352
#
# _framework density 19.508182000000001
#
# number of rings (size 3 to 8) (size 9 to 14) (size 15 to 20)
#    0.000    1.500    0.000    7.500    0.000    8.500 
#    2.250    0.000    0.000    0.000    0.000    0.000 
#    0.000    0.000    0.000    0.000    0.000    0.000 
#
# Total GULP energy -357889.041186 kJ/mol
# GULP energy per Si atom -5592.016269 kJ/mol
# Density = 1.946378 g / cm^3
# Si number density = 19.508182 Si / 1000 Ang^3
#
#
#
# Elastic Constant Matrix: (Units=GPa)
#
#
# Indices 1 2 3 4 5 6 
#
# 1 27.2920 -10.1805 -3.3353 0.0000 0.0000 0.0000
# 2 -10.1805 59.8659 8.4373 0.0000 0.0000 0.0000
# 3 -3.3353 8.4373 49.0173 0.0000 0.0000 0.0000
# 4 0.0000 0.0000 0.0000 38.4067 0.0000 0.0000
# 5 0.0000 0.0000 0.0000 0.0000 21.1543 0.0000
# 6 0.0000 0.0000 0.0000 0.0000 0.0000 8.6852
#
#
#
# Elastic Compliance Matrix: (Units=1/GPa)
#
#
# Indices 1 2 3 4 5 6 
#
# 1 0.039238 0.006453 0.001559 0.000000 0.000000 0.000000
# 2 0.006453 0.018181 -0.002690 0.000000 0.000000 0.000000
# 3 0.001559 -0.002690 0.020970 0.000000 0.000000 0.000000
# 4 0.000000 0.000000 0.000000 0.026037 0.000000 0.000000
# 5 0.000000 0.000000 0.000000 0.000000 0.047272 0.000000
# 6 0.000000 0.000000 0.000000 0.000000 0.000000 0.115139
#
#
# Mechanical properties :
#
#
# Convention : Reuss Voigt Hill
#
# Bulk Modulus (GPa) = 11.23182 14.00201 12.61692
# Shear Modulus (GPa) = 17.49040 23.06614 20.27827
#
# Velocity S-wave (km/s) = 2.99752 3.44231 3.22759
# Velocity P-wave (km/s) = 4.21310 4.79504 4.51346
#
# Compressibility (1/GPa) = 0.08903278
#
# Stress axis : x y z
#
# Youngs Moduli (GPa) = 25.48519 55.00389 47.68687
#
# Poissons Ratio (x) = -0.35494 -0.07435
# Poissons Ratio (y) = -0.16446 0.12829
# Poissons Ratio (z) = -0.03973 0.14798
#
# Static dielectric constant tensor:
#      x y z
#    x 1.661920 0.000000 0.000000 
#    y 0.000000 1.688500 0.000000 
#    z 0.000000 0.000000 1.646120 
# 
# From -- ./inp_files/9963.got.cif
#   From: 2010.05.17/outbox.cif.g08.bks.cpg/sg58_5_cif.got.tgz:9963.got - 2010.06.03 14:20:14.
