data_PCOD9443708
_publ_section_title
;
Structure prediction by ZEFSAII (Michael W. Deem and Ramdas Pophale) SiO2 
 PCOD9443708
Probable space group: P N N M
;
_chemical_formula_sum "Si O2"
_cell_formula_units_Z 40
_cell_length_a 9.457510
_cell_length_b 8.009585
_cell_length_c 23.168828
_cell_angle_alpha 90.000000
_cell_angle_beta 90.000000
_cell_angle_gamma 90.000000
_cell_volume 1755.055640
_symmetry_space_group_name_H-M "P N N M"
_symmetry_group_IT_number 58
_symmetry_cell_setting 'orthorhombic'
loop_
_space_group_symop_operation_xyz
x,y,z
-x,-y,z
1/2+x,1/2-y,1/2-z
1/2-x,1/2+y,1/2-z
-x,-y,-z
x,y,-z
1/2-x,1/2+y,1/2+z
1/2+x,1/2-y,1/2+z
loop_
_atom_site_type_symbol
_atom_site_label
_atom_site_fract_x
_atom_site_fract_y
_atom_site_fract_z
Si Si1 0.000000 0.500000 0.837403
Si Si2 0.561493 0.226283 0.562787
Si Si3 0.023360 0.819300 0.318445
Si Si4 0.298192 0.421695 0.410562
Si Si5 0.290083 0.268800 0.286773
Si Si6 0.000000 0.500000 0.396431
O O1 0.910148 0.612945 0.882109
O O2 0.893481 0.386527 0.801301
O O3 0.598330 0.156377 0.500000
O O4 0.636137 0.403354 0.571199
O O5 0.394866 0.273701 0.565196
O O6 0.148198 0.838100 0.272310
O O7 0.050978 0.658493 0.358198
O O8 0.874618 0.778320 0.286167
O O9 0.000000 0.000000 0.348040
O O10 0.304802 0.394536 0.341169
O O11 0.135691 0.427573 0.428513
#
# Coordination Sequence:
#
# PCOD9443708 Si02
#       6
#     4   8   8   8   8   4
#     4  10  22  36  62  83 122 149 200 244 304 354
#     4  10  20  37  62  89 111 146 193 250 305 363
#     4  11  26  38  61  84 127 160 210 242 286 346
#     4   9  20  37  59  81 117 148 196 240 293 358
#     4  10  24  38  55  89 113 166 195 247 287 346
#     4  10  23  42  55  89 120 163 199 240 293 352
#
# _framework density 22.791301000000001
#
# number of rings (size 3 to 8) (size 9 to 14) (size 15 to 20)
#    0.000    2.000    0.000    2.100   16.800    0.000 
#    0.000    2.000    0.000    0.000    0.000    5.600 
#    0.000    0.000    0.000    0.000    0.000    0.000 
#
# Total GULP energy -223542.286499 kJ/mol
# GULP energy per Si atom -5588.557162 kJ/mol
# Density = 2.273943 g / cm^3
# Si number density = 22.791301 Si / 1000 Ang^3
#
#
#
# Elastic Constant Matrix: (Units=GPa)
#
#
# Indices 1 2 3 4 5 6 
#
# 1 95.6007 -7.3914 9.8365 0.0000 0.0000 0.0000
# 2 -7.3914 94.8819 17.3794 0.0000 0.0000 0.0000
# 3 9.8365 17.3794 48.3292 0.0000 0.0000 0.0000
# 4 0.0000 0.0000 0.0000 19.3731 0.0000 0.0000
# 5 0.0000 0.0000 0.0000 0.0000 4.4056 0.0000
# 6 0.0000 0.0000 0.0000 0.0000 0.0000 28.2756
#
#
#
# Elastic Compliance Matrix: (Units=1/GPa)
#
#
# Indices 1 2 3 4 5 6 
#
# 1 0.010840 0.001337 -0.002687 0.000000 0.000000 0.000000
# 2 0.001337 0.011447 -0.004389 0.000000 0.000000 0.000000
# 3 -0.002687 -0.004389 0.022816 0.000000 0.000000 0.000000
# 4 0.000000 0.000000 0.000000 0.051618 0.000000 0.000000
# 5 0.000000 0.000000 0.000000 0.000000 0.226984 0.000000
# 6 0.000000 0.000000 0.000000 0.000000 0.000000 0.035366
#
#
# Mechanical properties :
#
#
# Convention : Reuss Voigt Hill
#
# Bulk Modulus (GPa) = 29.73887 30.94009 30.33948
# Shear Modulus (GPa) = 13.09728 25.01002 19.05365
#
# Velocity S-wave (km/s) = 2.39981 3.31622 2.89451
# Velocity P-wave (km/s) = 4.55582 5.31676 4.95093
#
# Compressibility (1/GPa) = 0.03362602
#
# Stress axis : x y z
#
# Youngs Moduli (GPa) = 92.25109 87.35611 43.82807
#
# Poissons Ratio (x) = -0.11676 0.11776
# Poissons Ratio (y) = -0.12330 0.19234
# Poissons Ratio (z) = 0.24787 0.38337
#
# Static dielectric constant tensor:
#      x y z
#    x 1.857320 0.000000 0.000000 
#    y 0.000000 1.860980 0.000000 
#    z 0.000000 0.000000 1.849960 
# 
# From -- ./inp_files/31307.got.cif
#   From: 2010.05.17/outbox.cif.g08.bks.cpg/sg58_16_cif.got.tgz:31307.got - 2010.06.03 14:20:14.
