data_PCOD9443797
_publ_section_title
;
Structure prediction by ZEFSAII (Michael W. Deem and Ramdas Pophale) SiO2 
 PCOD9443797
Probable space group: P N N M
;
_chemical_formula_sum "Si O2"
_cell_formula_units_Z 58
_cell_length_a 9.931043
_cell_length_b 30.642349
_cell_length_c 10.394522
_cell_angle_alpha 90.000000
_cell_angle_beta 90.000000
_cell_angle_gamma 90.000000
_cell_volume 3163.162037
_symmetry_space_group_name_H-M "P N N M"
_symmetry_group_IT_number 58
_symmetry_cell_setting 'orthorhombic'
loop_
_space_group_symop_operation_xyz
x,y,z
-x,-y,z
1/2+x,1/2-y,1/2-z
1/2-x,1/2+y,1/2-z
-x,-y,-z
x,y,-z
1/2-x,1/2+y,1/2+z
1/2+x,1/2-y,1/2+z
loop_
_atom_site_type_symbol
_atom_site_label
_atom_site_fract_x
_atom_site_fract_y
_atom_site_fract_z
Si Si1 0.009750 0.691452 0.650298
Si Si2 0.499730 0.270797 0.650771
Si Si3 0.153999 0.498431 0.153161
Si Si4 0.214796 0.844981 0.854373
Si Si5 0.795444 0.847974 0.153096
Si Si6 0.843231 0.082594 0.646024
Si Si7 0.500000 0.500000 0.500000
Si Si8 0.388648 0.557841 0.261401
O O1 0.022479 0.706178 0.500000
O O2 0.002712 0.731127 0.750385
O O3 0.872746 0.664019 0.659106
O O4 0.140172 0.662418 0.680824
O O5 0.516969 0.257618 0.500000
O O6 0.363450 0.299268 0.659472
O O7 0.617184 0.305180 0.685812
O O8 0.223272 0.451435 0.173383
O O9 0.255364 0.532890 0.215499
O O10 0.000000 0.500000 0.200993
O O11 0.151310 0.506441 0.000000
O O12 0.164920 0.879071 0.749639
O O13 0.185922 0.861087 0.000000
O O14 0.849139 0.891796 0.216672
O O15 0.810381 0.853867 0.000000
O O16 0.830434 0.098636 0.500000
O O17 0.985631 0.058087 0.663307
O O18 0.443619 0.533629 0.387614
#
# Coordination Sequence:
#
# PCOD9443797 Si02
#       8
#     8   8   8   8   8   8   2   8
#     4  10  22  39  58  87 122 158 196 252 310 363
#     4  10  20  38  61  85 114 162 203 246 301 365
#     4  10  23  42  62  87 123 160 195 251 312 371
#     4  10  22  38  60  87 120 158 198 249 306 363
#     4  10  21  37  60  87 122 158 197 249 306 366
#     4  11  23  39  62  89 119 158 206 249 301 363
#     4  12  24  36  68  96 120 172 212 272 296 396
#     4  12  22  40  64  92 123 161 215 251 316 365
#
# _framework density 18.336082000000001
#
# number of rings (size 3 to 8) (size 9 to 14) (size 15 to 20)
#    0.000    1.517    3.448    1.241    2.897    2.207 
#    0.000    1.724    0.000    0.000    0.000    0.000 
#    0.000    0.000    0.000    0.000    0.000    0.000 
#
# Total GULP energy -323261.913665 kJ/mol
# GULP energy per Si atom -5573.481270 kJ/mol
# Density = 1.829435 g / cm^3
# Si number density = 18.336082 Si / 1000 Ang^3
#
#
#
# Elastic Constant Matrix: (Units=GPa)
#
#
# Indices 1 2 3 4 5 6 
#
# 1 117.5011 30.4326 27.7135 0.0000 0.0000 0.0000
# 2 30.4326 78.0548 63.7718 0.0000 0.0000 0.0000
# 3 27.7135 63.7718 85.8465 0.0000 0.0000 0.0000
# 4 0.0000 0.0000 0.0000 29.0865 0.0000 0.0000
# 5 0.0000 0.0000 0.0000 0.0000 12.3278 0.0000
# 6 0.0000 0.0000 0.0000 0.0000 0.0000 -0.7367
#
#
#
# Elastic Compliance Matrix: (Units=1/GPa)
#
#
# Indices 1 2 3 4 5 6 
#
# 1 0.009488 -0.003045 -0.000801 0.000000 0.000000 0.000000
# 2 -0.003045 0.033570 -0.023955 0.000000 0.000000 0.000000
# 3 -0.000801 -0.023955 0.029702 0.000000 0.000000 0.000000
# 4 0.000000 0.000000 0.000000 0.034380 0.000000 0.000000
# 5 0.000000 0.000000 0.000000 0.000000 0.081118 0.000000
# 6 0.000000 0.000000 0.000000 0.000000 0.000000 -1.357419
#
#
# Mechanical properties :
#
#
# Convention : Reuss Voigt Hill
#
# Bulk Modulus (GPa) = 58.27850 58.35981 58.31915
# Shear Modulus (GPa) = -4.51329 18.76782 7.12727
#
# Velocity S-wave (km/s) = -1.57059 3.20276 1.97369
# Velocity P-wave (km/s) = 5.34448 6.75084 6.08840
#
# Compressibility (1/GPa) = 0.01715899
#
# Stress axis : x y z
#
# Youngs Moduli (GPa) = 105.39516 29.78844 33.66723
#
# Poissons Ratio (x) = 0.09070 0.02698
# Poissons Ratio (y) = 0.32089 0.80650
# Poissons Ratio (z) = 0.08445 0.71358
#
# Static dielectric constant tensor:
#      x y z
#    x 1.654530 0.000000 0.000000 
#    y 0.000000 1.605550 0.000000 
#    z 0.000000 0.000000 1.621160 
# 
# From -- ./inp_files/13393.got.cif
#   From: 2010.05.17/outbox.cif.g08.bks.cpg/sg58_7_cif.got.tgz:13393.got - 2010.06.03 14:20:14.
