data_PCOD9443552
_publ_section_title
;
Structure prediction by ZEFSAII (Michael W. Deem and Ramdas Pophale) SiO2 
 PCOD9443552
Probable space group: P N N M
;
_chemical_formula_sum "Si O2"
_cell_formula_units_Z 64
_cell_length_a 8.993814
_cell_length_b 12.396265
_cell_length_c 30.131467
_cell_angle_alpha 90.000000
_cell_angle_beta 90.000000
_cell_angle_gamma 90.000000
_cell_volume 3359.348268
_symmetry_space_group_name_H-M "P N N M"
_symmetry_group_IT_number 58
_symmetry_cell_setting 'orthorhombic'
loop_
_space_group_symop_operation_xyz
x,y,z
-x,-y,z
1/2+x,1/2-y,1/2-z
1/2-x,1/2+y,1/2-z
-x,-y,-z
x,y,-z
1/2-x,1/2+y,1/2+z
1/2+x,1/2-y,1/2+z
loop_
_atom_site_type_symbol
_atom_site_label
_atom_site_fract_x
_atom_site_fract_y
_atom_site_fract_z
Si Si1 0.660626 0.039212 0.619510
Si Si2 0.878541 0.219872 0.405204
Si Si3 0.597400 0.395941 0.837358
Si Si4 0.850026 0.872947 0.140760
Si Si5 0.892063 0.687581 0.206347
Si Si6 0.282456 0.244785 0.283331
Si Si7 0.919516 0.616663 0.449562
Si Si8 0.321674 0.380087 0.372390
O O1 0.763537 0.118848 0.589382
O O2 0.628287 0.106814 0.664994
O O3 0.500000 0.000000 0.602058
O O4 0.761133 0.937876 0.634167
O O5 0.780227 0.315248 0.385184
O O6 0.995212 0.179265 0.368115
O O7 0.970470 0.280412 0.443448
O O8 0.500000 0.500000 0.827196
O O9 0.653623 0.341587 0.792572
O O10 0.868396 0.807134 0.186080
O O11 0.006513 0.859375 0.115027
O O12 0.817640 0.997949 0.145591
O O13 0.769829 0.676241 0.244470
O O14 0.060083 0.686843 0.224383
O O15 0.288942 0.303571 0.330926
O O16 0.862734 0.614812 0.500000
O O17 0.791050 0.629751 0.412927
O O18 0.000000 0.500000 0.442118
#
# Coordination Sequence:
#
# PCOD9443552 Si02
#       8
#     8   8   8   8   8   8   8   8
#     4  10  20  39  58  83 113 157 211 253 295 354
#     4  10  20  36  62  86 115 155 192 243 304 361
#     4  10  21  35  57  79 109 152 200 243 295 355
#     4   9  20  38  57  81 118 157 205 244 295 358
#     4  10  23  35  52  83 121 155 204 261 294 348
#     4  11  22  36  54  81 118 158 204 248 300 359
#     4  11  22  38  63  98 127 150 194 249 309 385
#     4  10  20  39  60  83 115 166 198 244 304 369
#
# _framework density 19.051314999999999
#
# number of rings (size 3 to 8) (size 9 to 14) (size 15 to 20)
#    0.000    1.875    3.750    0.000    5.250    1.000 
#    2.250    1.875    0.000    3.750    0.000    0.000 
#    0.000    0.000    0.000    0.000    0.000    0.000 
#
# Total GULP energy -356831.451608 kJ/mol
# GULP energy per Si atom -5575.491431 kJ/mol
# Density = 1.900795 g / cm^3
# Si number density = 19.051315 Si / 1000 Ang^3
#
#
#
# Elastic Constant Matrix: (Units=GPa)
#
#
# Indices 1 2 3 4 5 6 
#
# 1 89.4627 24.2459 20.1319 0.0000 0.0000 0.0000
# 2 24.2459 61.2697 12.1033 0.0000 0.0000 0.0000
# 3 20.1319 12.1033 50.0242 0.0000 0.0000 0.0000
# 4 0.0000 0.0000 0.0000 15.3565 0.0000 0.0000
# 5 0.0000 0.0000 0.0000 0.0000 15.2026 0.0000
# 6 0.0000 0.0000 0.0000 0.0000 0.0000 34.6054
#
#
#
# Elastic Compliance Matrix: (Units=1/GPa)
#
#
# Indices 1 2 3 4 5 6 
#
# 1 0.013346 -0.004432 -0.004299 0.000000 0.000000 0.000000
# 2 -0.004432 0.018612 -0.002719 0.000000 0.000000 0.000000
# 3 -0.004299 -0.002719 0.022378 0.000000 0.000000 0.000000
# 4 0.000000 0.000000 0.000000 0.065119 0.000000 0.000000
# 5 0.000000 0.000000 0.000000 0.000000 0.065778 0.000000
# 6 0.000000 0.000000 0.000000 0.000000 0.000000 0.028897
#
#
# Mechanical properties :
#
#
# Convention : Reuss Voigt Hill
#
# Bulk Modulus (GPa) = 31.81065 34.85763 33.33414
# Shear Modulus (GPa) = 20.20108 22.65128 21.42618
#
# Velocity S-wave (km/s) = 3.25984 3.45187 3.35723
# Velocity P-wave (km/s) = 5.55898 5.85010 5.70640
#
# Compressibility (1/GPa) = 0.03143602
#
# Stress axis : x y z
#
# Youngs Moduli (GPa) = 74.92639 53.72747 44.68611
#
# Poissons Ratio (x) = 0.23814 0.19210
# Poissons Ratio (y) = 0.33210 0.12152
# Poissons Ratio (z) = 0.32209 0.14611
#
# Static dielectric constant tensor:
#      x y z
#    x 1.720740 0.000000 0.000000 
#    y 0.000000 1.696390 0.000000 
#    z 0.000000 0.000000 1.635750 
# 
# From -- ./inp_files/34822.got.cif
#   From: 2010.05.17/outbox.cif.g08.bks.cpg/sg58_18_cif.got.tgz:34822.got - 2010.06.03 14:20:14.
