data_PCOD9443258
_publ_section_title
;
Structure prediction by ZEFSAII (Michael W. Deem and Ramdas Pophale) SiO2 
 PCOD9443258
Probable space group: P N N M
;
_chemical_formula_sum "Si O2"
_cell_formula_units_Z 40
_cell_length_a 12.727684
_cell_length_b 15.656867
_cell_length_c 9.629905
_cell_angle_alpha 90.000000
_cell_angle_beta 90.000000
_cell_angle_gamma 90.000000
_cell_volume 1919.005632
_symmetry_space_group_name_H-M "P N N M"
_symmetry_group_IT_number 58
_symmetry_cell_setting 'orthorhombic'
loop_
_space_group_symop_operation_xyz
x,y,z
-x,-y,z
1/2+x,1/2-y,1/2-z
1/2-x,1/2+y,1/2-z
-x,-y,-z
x,y,-z
1/2-x,1/2+y,1/2+z
1/2+x,1/2-y,1/2+z
loop_
_atom_site_type_symbol
_atom_site_label
_atom_site_fract_x
_atom_site_fract_y
_atom_site_fract_z
Si Si1 0.325010 0.000760 0.657661
Si Si2 0.123461 0.234796 0.665508
Si Si3 0.986747 0.360447 0.839989
Si Si4 0.795469 0.128651 0.161041
Si Si5 0.531541 0.403796 0.338686
O O1 0.477080 0.172256 0.500000
O O2 0.421730 0.932713 0.655137
O O3 0.241034 0.954294 0.753842
O O4 0.379589 0.090096 0.698530
O O5 0.115643 0.226663 0.500000
O O6 0.228594 0.288013 0.701362
O O7 0.030348 0.293127 0.730110
O O8 0.112937 0.144115 0.740732
O O9 0.214155 0.509876 0.000000
O O10 0.918828 0.142917 0.172286
O O11 0.770666 0.111436 0.000000
O O12 0.500000 0.500000 0.301445
O O13 0.565763 0.402916 0.500000
#
# Coordination Sequence:
#
# PCOD9443258 Si02
#       5
#     8   8   8   8   8
#     4   8  14  26  48  78 110 146 185 225 272 330
#     4  10  20  35  57  85 114 145 185 241 293 334
#     4   8  14  27  48  76 111 147 183 223 273 335
#     4   9  19  36  57  82 114 148 187 236 289 338
#     4  10  22  42  63  81 111 157 197 233 283 348
#
# _framework density 20.844128999999999
#
# number of rings (size 3 to 8) (size 9 to 14) (size 15 to 20)
#    0.000    3.000    0.000    1.800    0.000    2.800 
#    3.600    4.000    0.000    0.000    0.000    0.000 
#    0.000    0.000    0.000    0.000    0.000    0.000 
#
# Total GULP energy -223176.901443 kJ/mol
# GULP energy per Si atom -5579.422536 kJ/mol
# Density = 2.079669 g / cm^3
# Si number density = 20.844129 Si / 1000 Ang^3
#
#
#
# Elastic Constant Matrix: (Units=GPa)
#
#
# Indices 1 2 3 4 5 6 
#
# 1 37.3597 22.1907 15.2907 0.0000 0.0000 0.0000
# 2 22.1907 99.2281 39.5211 0.0000 0.0000 0.0000
# 3 15.2907 39.5211 39.3729 0.0000 0.0000 0.0000
# 4 0.0000 0.0000 0.0000 29.9076 0.0000 0.0000
# 5 0.0000 0.0000 0.0000 0.0000 9.8790 0.0000
# 6 0.0000 0.0000 0.0000 0.0000 0.0000 20.6300
#
#
#
# Elastic Compliance Matrix: (Units=1/GPa)
#
#
# Indices 1 2 3 4 5 6 
#
# 1 0.032642 -0.003750 -0.008912 0.000000 0.000000 0.000000
# 2 -0.003750 0.017221 -0.015830 0.000000 0.000000 0.000000
# 3 -0.008912 -0.015830 0.044749 0.000000 0.000000 0.000000
# 4 0.000000 0.000000 0.000000 0.033436 0.000000 0.000000
# 5 0.000000 0.000000 0.000000 0.000000 0.101225 0.000000
# 6 0.000000 0.000000 0.000000 0.000000 0.000000 0.048473
#
#
# Mechanical properties :
#
#
# Convention : Reuss Voigt Hill
#
# Bulk Modulus (GPa) = 26.57640 36.66285 31.61963
# Shear Modulus (GPa) = 14.39789 18.68052 16.53921
#
# Velocity S-wave (km/s) = 2.63105 2.99691 2.81992
# Velocity P-wave (km/s) = 4.69123 5.44082 5.07987
#
# Compressibility (1/GPa) = 0.03762737
#
# Stress axis : x y z
#
# Youngs Moduli (GPa) = 30.63536 58.06822 22.34709
#
# Poissons Ratio (x) = 0.21776 0.19917
# Poissons Ratio (y) = 0.11489 0.35374
# Poissons Ratio (z) = 0.27304 0.91919
#
# Static dielectric constant tensor:
#      x y z
#    x 1.772430 0.000000 0.000000 
#    y 0.000000 1.813680 0.000000 
#    z 0.000000 0.000000 1.703760 
# 
# From -- ./inp_files/3780.got.cif
#   From: 2010.05.17/outbox.cif.g08.bks.cpg/sg58_2_cif.got.tgz:3780.got - 2010.06.03 14:20:14.
