data_PCOD9443378
_publ_section_title
;
Structure prediction by ZEFSAII (Michael W. Deem and Ramdas Pophale) SiO2 
 PCOD9443378
Probable space group: P N N M
;
_chemical_formula_sum "Si O2"
_cell_formula_units_Z 32
_cell_length_a 17.368033
_cell_length_b 10.725424
_cell_length_c 7.854276
_cell_angle_alpha 90.000000
_cell_angle_beta 90.000000
_cell_angle_gamma 90.000000
_cell_volume 1463.090747
_symmetry_space_group_name_H-M "P N N M"
_symmetry_group_IT_number 58
_symmetry_cell_setting 'orthorhombic'
loop_
_space_group_symop_operation_xyz
x,y,z
-x,-y,z
1/2+x,1/2-y,1/2-z
1/2-x,1/2+y,1/2-z
-x,-y,-z
x,y,-z
1/2-x,1/2+y,1/2+z
1/2+x,1/2-y,1/2+z
loop_
_atom_site_type_symbol
_atom_site_label
_atom_site_fract_x
_atom_site_fract_y
_atom_site_fract_z
Si Si1 0.459017 0.300828 0.500000
Si Si2 0.684363 0.109054 0.203282
Si Si3 0.012466 0.351991 0.304222
Si Si4 0.761803 0.351720 0.690487
Si Si5 0.378824 0.553932 0.500000
O O1 0.458791 0.217685 0.330091
O O2 0.395547 0.407749 0.500000
O O3 0.540809 0.374259 0.500000
O O4 0.601130 0.160909 0.255015
O O5 0.747981 0.214736 0.237011
O O6 0.697141 0.969924 0.277056
O O7 0.681297 0.091745 0.000000
O O8 0.003995 0.307874 0.500000
O O9 0.000000 0.500000 0.304025
O O10 0.795852 0.333545 0.500000
O O11 0.675901 0.407598 0.656483
#
# Coordination Sequence:
#
# PCOD9443378 Si02
#       5
#     4   8   8   8   4
#     4  11  19  38  62  82 117 153 189 236 293 346
#     4  10  20  36  56  81 113 149 187 237 289 338
#     4  10  21  37  57  85 118 152 192 239 288 347
#     4   9  19  37  55  78 112 146 186 236 281 339
#     4   9  20  36  58  82 109 152 187 243 287 340
#
# _framework density 21.871506
#
# number of rings (size 3 to 8) (size 9 to 14) (size 15 to 20)
#    0.750    1.500    2.500    0.375    0.000    3.000 
#    0.000    3.750    0.000    0.000    0.000    0.000 
#    0.000    0.000    0.000    0.000    0.000    0.000 
#
# Total GULP energy -178349.748330 kJ/mol
# GULP energy per Si atom -5573.429635 kJ/mol
# Density = 2.182173 g / cm^3
# Si number density = 21.871506 Si / 1000 Ang^3
#
#
#
# Elastic Constant Matrix: (Units=GPa)
#
#
# Indices 1 2 3 4 5 6 
#
# 1 33.7216 16.8498 6.1011 0.0000 0.0000 0.0000
# 2 16.8498 114.0453 27.6492 0.0000 0.0000 0.0000
# 3 6.1011 27.6492 46.9216 0.0000 0.0000 0.0000
# 4 0.0000 0.0000 0.0000 29.5708 0.0000 0.0000
# 5 0.0000 0.0000 0.0000 0.0000 13.5306 0.0000
# 6 0.0000 0.0000 0.0000 0.0000 0.0000 45.4589
#
#
#
# Elastic Compliance Matrix: (Units=1/GPa)
#
#
# Indices 1 2 3 4 5 6 
#
# 1 0.032122 -0.004356 -0.001610 0.000000 0.000000 0.000000
# 2 -0.004356 0.010820 -0.005810 0.000000 0.000000 0.000000
# 3 -0.001610 -0.005810 0.024945 0.000000 0.000000 0.000000
# 4 0.000000 0.000000 0.000000 0.033817 0.000000 0.000000
# 5 0.000000 0.000000 0.000000 0.000000 0.073907 0.000000
# 6 0.000000 0.000000 0.000000 0.000000 0.000000 0.021998
#
#
# Mechanical properties :
#
#
# Convention : Reuss Voigt Hill
#
# Bulk Modulus (GPa) = 22.55468 32.87653 27.71560
# Shear Modulus (GPa) = 21.19187 27.31795 24.25491
#
# Velocity S-wave (km/s) = 3.11613 3.53798 3.33374
# Velocity P-wave (km/s) = 4.82512 5.63507 5.24575
#
# Compressibility (1/GPa) = 0.04433669
#
# Stress axis : x y z
#
# Youngs Moduli (GPa) = 31.13102 92.41726 40.08823
#
# Poissons Ratio (x) = 0.40253 0.06455
# Poissons Ratio (y) = 0.13559 0.23290
# Poissons Ratio (z) = 0.05013 0.53692
#
# Static dielectric constant tensor:
#      x y z
#    x 1.885760 0.000000 0.000000 
#    y 0.000000 1.815190 0.000000 
#    z 0.000000 0.000000 1.793980 
# 
# From -- ./inp_files/2203.got.cif
#   From: 2010.05.17/outbox.cif.g08.bks.cpg/sg58_2_cif.got.tgz:2203.got - 2010.06.03 14:20:14.
