data_PCOD9443175
_publ_section_title
;
Structure prediction by ZEFSAII (Michael W. Deem and Ramdas Pophale) SiO2 
 PCOD9443175
Probable space group: P N N M
;
_chemical_formula_sum "Si O2"
_cell_formula_units_Z 64
_cell_length_a 26.512885
_cell_length_b 7.866091
_cell_length_c 14.040944
_cell_angle_alpha 90.000000
_cell_angle_beta 90.000000
_cell_angle_gamma 90.000000
_cell_volume 2928.277710
_symmetry_space_group_name_H-M "P N N M"
_symmetry_group_IT_number 58
_symmetry_cell_setting 'orthorhombic'
loop_
_space_group_symop_operation_xyz
x,y,z
-x,-y,z
1/2+x,1/2-y,1/2-z
1/2-x,1/2+y,1/2-z
-x,-y,-z
x,y,-z
1/2-x,1/2+y,1/2+z
1/2+x,1/2-y,1/2+z
loop_
_atom_site_type_symbol
_atom_site_label
_atom_site_fract_x
_atom_site_fract_y
_atom_site_fract_z
Si Si1 0.644406 0.347160 0.209727
Si Si2 0.606486 0.555923 0.607509
Si Si3 0.658654 0.924275 0.603222
Si Si4 0.077606 0.400593 0.210641
Si Si5 0.797279 0.303350 0.385618
Si Si6 0.973891 0.233012 0.223544
Si Si7 0.247832 0.012776 0.734364
Si Si8 0.904079 0.151886 0.608737
O O1 0.629102 0.434163 0.311607
O O2 0.615987 0.168829 0.210045
O O3 0.704311 0.348478 0.211214
O O4 0.622673 0.471412 0.129587
O O5 0.606801 0.488671 0.500000
O O6 0.638185 0.732139 0.609391
O O7 0.551711 0.621294 0.641408
O O8 0.681076 0.953739 0.500000
O O9 0.700666 0.950877 0.680561
O O10 0.612892 0.055491 0.620949
O O11 0.050905 0.579797 0.227090
O O12 0.032708 0.263454 0.206578
O O13 0.789358 0.281011 0.500000
O O14 0.765421 0.463862 0.344448
O O15 0.858283 0.286534 0.370752
O O16 0.776008 0.152413 0.317188
O O17 0.952277 0.158734 0.322095
O O18 0.919000 0.171149 0.500000
#
# Coordination Sequence:
#
# PCOD9443175 Si02
#       8
#     8   8   8   8   8   8   8   8
#     4  10  21  34  53  81 111 141 181 235 283 329
#     4   9  19  35  53  76 108 145 185 224 275 344
#     4  10  20  35  56  81 112 152 191 230 287 355
#     4  10  20  35  55  82 114 140 180 235 284 335
#     4  10  21  36  56  83 114 152 197 243 299 360
#     4   9  19  37  58  78 107 149 186 227 284 342
#     4  11  20  35  57  81 114 152 192 242 292 348
#     4   9  19  38  58  76 105 148 191 231 282 346
#
# _framework density 21.855851999999999
#
# number of rings (size 3 to 8) (size 9 to 14) (size 15 to 20)
#    0.000    2.250    0.000    4.125    0.000    4.000 
#    0.000    7.500    0.000    6.000    0.000    0.000 
#    0.000    0.000    0.000    0.000    0.000    0.000 
#
# Total GULP energy -356822.617996 kJ/mol
# GULP energy per Si atom -5575.353406 kJ/mol
# Density = 2.180611 g / cm^3
# Si number density = 21.855852 Si / 1000 Ang^3
#
#
#
# Elastic Constant Matrix: (Units=GPa)
#
#
# Indices 1 2 3 4 5 6 
#
# 1 93.2789 17.6134 22.7862 0.0000 0.0000 0.0000
# 2 17.6134 60.4458 9.0111 0.0000 0.0000 0.0000
# 3 22.7862 9.0111 81.9997 0.0000 0.0000 0.0000
# 4 0.0000 0.0000 0.0000 20.2096 0.0000 0.0000
# 5 0.0000 0.0000 0.0000 0.0000 9.3437 0.0000
# 6 0.0000 0.0000 0.0000 0.0000 0.0000 32.8027
#
#
#
# Elastic Compliance Matrix: (Units=1/GPa)
#
#
# Indices 1 2 3 4 5 6 
#
# 1 0.012033 -0.003058 -0.003008 0.000000 0.000000 0.000000
# 2 -0.003058 0.017596 -0.001084 0.000000 0.000000 0.000000
# 3 -0.003008 -0.001084 0.013150 0.000000 0.000000 0.000000
# 4 0.000000 0.000000 0.000000 0.049481 0.000000 0.000000
# 5 0.000000 0.000000 0.000000 0.000000 0.107024 0.000000
# 6 0.000000 0.000000 0.000000 0.000000 0.000000 0.030485
#
#
# Mechanical properties :
#
#
# Convention : Reuss Voigt Hill
#
# Bulk Modulus (GPa) = 35.11213 37.17177 36.14195
# Shear Modulus (GPa) = 19.71904 24.89212 22.30558
#
# Velocity S-wave (km/s) = 3.00698 3.37845 3.19811
# Velocity P-wave (km/s) = 5.30623 5.68007 5.49633
#
# Compressibility (1/GPa) = 0.02848018
#
# Stress axis : x y z
#
# Youngs Moduli (GPa) = 83.10730 56.82987 76.04536
#
# Poissons Ratio (x) = 0.17378 0.22872
# Poissons Ratio (y) = 0.25413 0.08243
# Poissons Ratio (z) = 0.24996 0.06160
#
# Static dielectric constant tensor:
#      x y z
#    x 1.808180 0.000000 0.000000 
#    y 0.000000 1.918030 0.000000 
#    z 0.000000 0.000000 1.758180 
# 
# From -- ./inp_files/23553.got.cif
#   From: 2010.05.17/outbox.cif.g08.bks.cpg/sg58_12_cif.got.tgz:23553.got - 2010.06.03 14:20:14.
