data_PCOD9443452
_publ_section_title
;
Structure prediction by ZEFSAII (Michael W. Deem and Ramdas Pophale) SiO2 
 PCOD9443452
Probable space group: P N N M
;
_chemical_formula_sum "Si O2"
_cell_formula_units_Z 64
_cell_length_a 11.745771
_cell_length_b 14.162428
_cell_length_c 22.515883
_cell_angle_alpha 90.000000
_cell_angle_beta 90.000000
_cell_angle_gamma 90.000000
_cell_volume 3745.486427
_symmetry_space_group_name_H-M "P N N M"
_symmetry_group_IT_number 58
_symmetry_cell_setting 'orthorhombic'
loop_
_space_group_symop_operation_xyz
x,y,z
-x,-y,z
1/2+x,1/2-y,1/2-z
1/2-x,1/2+y,1/2-z
-x,-y,-z
x,y,-z
1/2-x,1/2+y,1/2+z
1/2+x,1/2-y,1/2+z
loop_
_atom_site_type_symbol
_atom_site_label
_atom_site_fract_x
_atom_site_fract_y
_atom_site_fract_z
Si Si1 0.004958 0.393246 0.931298
Si Si2 0.783649 0.316367 0.724327
Si Si3 0.131726 0.011131 0.635188
Si Si4 0.196846 0.347018 0.851631
Si Si5 0.366877 0.499856 0.279036
Si Si6 0.532406 0.107914 0.760233
Si Si7 0.725629 0.177457 0.171349
Si Si8 0.749626 0.814933 0.569660
O O1 0.880519 0.349957 0.926691
O O2 0.000000 0.500000 0.905129
O O3 0.098304 0.329970 0.899127
O O4 0.037032 0.402863 0.000000
O O5 0.769908 0.240557 0.671710
O O6 0.711678 0.409174 0.706087
O O7 0.734102 0.266120 0.783241
O O8 0.914005 0.336705 0.741469
O O9 0.220175 0.926615 0.621460
O O10 0.134176 0.005699 0.707145
O O11 0.177548 0.106122 0.604724
O O12 0.000000 0.000000 0.617273
O O13 0.121248 0.377669 0.793943
O O14 0.500000 0.500000 0.297148
O O15 0.310629 0.404482 0.305229
O O16 0.600247 0.136571 0.818951
O O17 0.500000 0.000000 0.760651
O O18 0.743752 0.217525 0.105976
O O19 0.780810 0.808830 0.500000
#
# Coordination Sequence:
#
# PCOD9443452 Si02
#       8
#     8   8   8   8   8   8   8   8
#     4  10  20  36  59  83 114 152 201 249 285 340
#     4  11  22  35  56  89 117 153 188 237 300 352
#     4  11  22  36  56  86 126 153 189 237 295 359
#     4  11  22  33  59  88 117 157 187 237 299 355
#     4  11  23  38  54  88 125 152 184 239 301 350
#     4  11  21  36  56  85 116 148 195 240 293 344
#     4  11  23  36  59  84 116 157 191 239 284 357
#     4  11  24  40  60  85 117 162 202 240 286 347
#
# _framework density 17.087233000000001
#
# number of rings (size 3 to 8) (size 9 to 14) (size 15 to 20)
#    0.000    1.125    6.250    1.125    7.000    0.250 
#    0.000    0.000    0.000    1.500    0.000    0.000 
#    0.000    0.000    0.000    0.000    0.000    0.000 
#
# Total GULP energy -356742.982073 kJ/mol
# GULP energy per Si atom -5574.109095 kJ/mol
# Density = 1.704834 g / cm^3
# Si number density = 17.087233 Si / 1000 Ang^3
#
#
#
# Elastic Constant Matrix: (Units=GPa)
#
#
# Indices 1 2 3 4 5 6 
#
# 1 98.7247 36.9793 26.3349 0.0000 0.0000 0.0000
# 2 36.9793 89.6835 38.2008 0.0000 0.0000 0.0000
# 3 26.3349 38.2008 73.4069 0.0000 0.0000 0.0000
# 4 0.0000 0.0000 0.0000 21.4885 0.0000 0.0000
# 5 0.0000 0.0000 0.0000 0.0000 23.0663 0.0000
# 6 0.0000 0.0000 0.0000 0.0000 0.0000 20.2685
#
#
#
# Elastic Compliance Matrix: (Units=1/GPa)
#
#
# Indices 1 2 3 4 5 6 
#
# 1 0.012267 -0.004090 -0.002272 0.000000 0.000000 0.000000
# 2 -0.004090 0.015690 -0.006697 0.000000 0.000000 0.000000
# 3 -0.002272 -0.006697 0.017923 0.000000 0.000000 0.000000
# 4 0.000000 0.000000 0.000000 0.046537 0.000000 0.000000
# 5 0.000000 0.000000 0.000000 0.000000 0.043353 0.000000
# 6 0.000000 0.000000 0.000000 0.000000 0.000000 0.049338
#
#
# Mechanical properties :
#
#
# Convention : Reuss Voigt Hill
#
# Bulk Modulus (GPa) = 50.60717 51.64948 51.12832
# Shear Modulus (GPa) = 22.95527 23.65133 23.30330
#
# Velocity S-wave (km/s) = 3.66924 3.72446 3.69695
# Velocity P-wave (km/s) = 6.90162 6.98484 6.94335
#
# Compressibility (1/GPa) = 0.01976005
#
# Stress axis : x y z
#
# Youngs Moduli (GPa) = 81.51650 63.73607 55.79338
#
# Poissons Ratio (x) = 0.26070 0.12678
# Poissons Ratio (y) = 0.33343 0.37367
# Poissons Ratio (z) = 0.18524 0.42687
#
# Static dielectric constant tensor:
#      x y z
#    x 0.642940 0.000000 0.000000 
#    y 0.000000 1.587360 0.000000 
#    z 0.000000 0.000000 1.592570 
# 
# From -- ./inp_files/32059.got.cif
#   From: 2010.05.17/outbox.cif.g08.bks.cpg/sg58_17_cif.got.tgz:32059.got - 2010.06.03 14:20:14.
