data_PCOD9443440
_publ_section_title
;
Structure prediction by ZEFSAII (Michael W. Deem and Ramdas Pophale) SiO2 
 PCOD9443440
Probable space group: P N N M
;
_chemical_formula_sum "Si O2"
_cell_formula_units_Z 48
_cell_length_a 12.567685
_cell_length_b 22.138806
_cell_length_c 7.869570
_cell_angle_alpha 90.000000
_cell_angle_beta 90.000000
_cell_angle_gamma 90.000000
_cell_volume 2189.578320
_symmetry_space_group_name_H-M "P N N M"
_symmetry_group_IT_number 58
_symmetry_cell_setting 'orthorhombic'
loop_
_space_group_symop_operation_xyz
x,y,z
-x,-y,z
1/2+x,1/2-y,1/2-z
1/2-x,1/2+y,1/2-z
-x,-y,-z
x,y,-z
1/2-x,1/2+y,1/2+z
1/2+x,1/2-y,1/2+z
loop_
_atom_site_type_symbol
_atom_site_label
_atom_site_fract_x
_atom_site_fract_y
_atom_site_fract_z
Si Si1 0.378045 0.180662 0.304601
Si Si2 0.375678 0.506581 0.294307
Si Si3 0.839763 0.857723 0.198029
Si Si4 0.245444 0.390709 0.197324
Si Si5 0.016192 0.430921 0.208023
Si Si6 0.434129 0.309938 0.803491
O O1 0.411455 0.187834 0.500000
O O2 0.250864 0.179245 0.292318
O O3 0.424076 0.116274 0.243786
O O4 0.422518 0.238321 0.207787
O O5 0.500000 0.500000 0.251608
O O6 0.366700 0.501532 0.500000
O O7 0.339226 0.573043 0.241597
O O8 0.307097 0.454116 0.211504
O O9 0.958389 0.832456 0.216822
O O10 0.811176 0.856841 0.000000
O O11 0.327743 0.341570 0.270923
O O12 0.128123 0.402561 0.268963
O O13 0.229051 0.373678 0.000000
O O14 0.000000 0.500000 0.266580
O O15 0.019082 0.433760 0.000000
O O16 0.442192 0.329049 0.000000
#
# Coordination Sequence:
#
# PCOD9443440 Si02
#       6
#     8   8   8   8   8   8
#     4  11  24  41  65  92 123 163 208 256 314 376
#     4  10  20  36  58  88 123 160 200 251 312 364
#     4  11  23  41  64  88 124 163 205 258 311 369
#     4  10  21  37  61  90 122 161 204 255 309 372
#     4   9  19  38  63  91 122 157 200 252 310 372
#     4  11  24  40  60  91 126 163 211 256 310 376
#
# _framework density 21.922029999999999
#
# number of rings (size 3 to 8) (size 9 to 14) (size 15 to 20)
#    0.000    1.667    1.667    2.500    2.333    3.667 
#    0.000    1.667    0.000    4.500    0.000    0.000 
#    0.000    0.000    0.000    0.000    0.000    0.000 
#
# Total GULP energy -268259.834512 kJ/mol
# GULP energy per Si atom -5588.746552 kJ/mol
# Density = 2.187213 g / cm^3
# Si number density = 21.922030 Si / 1000 Ang^3
#
#
#
# Elastic Constant Matrix: (Units=GPa)
#
#
# Indices 1 2 3 4 5 6 
#
# 1 111.6198 29.0352 -1.4129 0.0000 0.0000 0.0000
# 2 29.0352 111.5162 -2.6691 0.0000 0.0000 0.0000
# 3 -1.4129 -2.6691 26.7430 0.0000 0.0000 0.0000
# 4 0.0000 0.0000 0.0000 22.9330 0.0000 0.0000
# 5 0.0000 0.0000 0.0000 0.0000 -4.4830 0.0000
# 6 0.0000 0.0000 0.0000 0.0000 0.0000 16.7627
#
#
#
# Elastic Compliance Matrix: (Units=1/GPa)
#
#
# Indices 1 2 3 4 5 6 
#
# 1 0.009612 -0.002496 0.000259 0.000000 0.000000 0.000000
# 2 -0.002496 0.009637 0.000830 0.000000 0.000000 0.000000
# 3 0.000259 0.000830 0.037489 0.000000 0.000000 0.000000
# 4 0.000000 0.000000 0.000000 0.043605 0.000000 0.000000
# 5 0.000000 0.000000 0.000000 0.000000 -0.223066 0.000000
# 6 0.000000 0.000000 0.000000 0.000000 0.000000 0.059656
#
#
# Mechanical properties :
#
#
# Convention : Reuss Voigt Hill
#
# Bulk Modulus (GPa) = 18.54509 33.30950 25.92729
# Shear Modulus (GPa) = -118.26995 22.03761 -48.11617
#
# Velocity S-wave (km/s) = -7.35305 3.17404 -4.69003
# Velocity P-wave (km/s) = 7.97571 5.35353 4.18041
#
# Compressibility (1/GPa) = 0.05392264
#
# Stress axis : x y z
#
# Youngs Moduli (GPa) = 104.04069 103.76519 26.67421
#
# Poissons Ratio (x) = 0.25904 -0.00690
# Poissons Ratio (y) = 0.25972 -0.02214
# Poissons Ratio (z) = -0.02691 -0.08612
#
# Static dielectric constant tensor:
#      x y z
#    x 1.798710 0.000000 0.000000 
#    y 0.000000 1.768380 0.000000 
#    z 0.000000 0.000000 1.799790 
# 
# From -- ./inp_files/4197.got.cif
#   From: 2010.05.17/outbox.cif.g08.bks.cpg/sg58_3_cif.got.tgz:4197.got - 2010.06.03 14:20:14.
