data_PCOD9443009
_publ_section_title
;
Structure prediction by ZEFSAII (Michael W. Deem and Ramdas Pophale) SiO2 
 PCOD9443009
Probable space group: P N N M
;
_chemical_formula_sum "Si O2"
_cell_formula_units_Z 44
_cell_length_a 7.299645
_cell_length_b 27.116910
_cell_length_c 10.129979
_cell_angle_alpha 90.000000
_cell_angle_beta 90.000000
_cell_angle_gamma 90.000000
_cell_volume 2005.166704
_symmetry_space_group_name_H-M "P N N M"
_symmetry_group_IT_number 58
_symmetry_cell_setting 'orthorhombic'
loop_
_space_group_symop_operation_xyz
x,y,z
-x,-y,z
1/2+x,1/2-y,1/2-z
1/2-x,1/2+y,1/2-z
-x,-y,-z
x,y,-z
1/2-x,1/2+y,1/2+z
1/2+x,1/2-y,1/2+z
loop_
_atom_site_type_symbol
_atom_site_label
_atom_site_fract_x
_atom_site_fract_y
_atom_site_fract_z
Si Si1 0.879476 0.902676 0.853616
Si Si2 0.000000 0.000000 0.266628
Si Si3 0.678412 0.321304 0.846287
Si Si4 0.809861 0.628249 0.354056
Si Si5 0.118325 0.777268 0.151117
Si Si6 0.872318 0.546262 0.850305
O O1 0.788203 0.870347 0.738867
O O2 0.093596 0.886462 0.854593
O O3 0.805848 0.893640 0.000000
O O4 0.890318 0.960129 0.819827
O O5 0.159527 0.971460 0.344787
O O6 0.835249 0.280122 0.842160
O O7 0.514561 0.294399 0.766962
O O8 0.635750 0.331956 0.000000
O O9 0.882754 0.617774 0.500000
O O10 0.796953 0.687138 0.334807
O O11 0.893798 0.592722 0.245407
O O12 0.048410 0.786641 0.000000
O O13 0.000000 0.500000 0.812367
O O14 0.919604 0.559979 0.000000
#
# Coordination Sequence:
#
# PCOD9443009 Si02
#       6
#     8   4   8   8   8   8
#     4   9  18  34  56  80 107 140 183 227 271 327
#     4  10  20  36  60  80 108 150 188 224 280 336
#     4  10  20  34  55  82 111 143 184 227 276 333
#     4   8  16  33  55  74 101 141 180 218 265 322
#     4   9  19  36  54  76 109 143 179 225 273 327
#     4  10  21  36  54  81 113 142 181 230 277 329
#
# _framework density 21.943313
#
# number of rings (size 3 to 8) (size 9 to 14) (size 15 to 20)
#    0.000    2.727    0.000    2.182    0.000    9.818 
#    3.273    0.000    0.000    0.000    0.000    0.000 
#    0.000    0.000    0.000    0.000    0.000    0.000 
#
# Total GULP energy -245435.294460 kJ/mol
# GULP energy per Si atom -5578.074874 kJ/mol
# Density = 2.189337 g / cm^3
# Si number density = 21.943313 Si / 1000 Ang^3
#
#
#
# Elastic Constant Matrix: (Units=GPa)
#
#
# Indices 1 2 3 4 5 6 
#
# 1 65.0735 8.1889 34.7303 0.0000 0.0000 0.0000
# 2 8.1889 94.1896 55.8868 0.0000 0.0000 0.0000
# 3 34.7303 55.8868 154.4603 0.0000 0.0000 0.0000
# 4 0.0000 0.0000 0.0000 43.8194 0.0000 0.0000
# 5 0.0000 0.0000 0.0000 0.0000 -56.4122 0.0000
# 6 0.0000 0.0000 0.0000 0.0000 0.0000 26.9767
#
#
#
# Elastic Compliance Matrix: (Units=1/GPa)
#
#
# Indices 1 2 3 4 5 6 
#
# 1 0.017542 0.001038 -0.004320 0.000000 0.000000 0.000000
# 2 0.001038 0.013581 -0.005147 0.000000 0.000000 0.000000
# 3 -0.004320 -0.005147 0.009308 0.000000 0.000000 0.000000
# 4 0.000000 0.000000 0.000000 0.022821 0.000000 0.000000
# 5 0.000000 0.000000 0.000000 0.000000 -0.017727 0.000000
# 6 0.000000 0.000000 0.000000 0.000000 0.000000 0.037069
#
#
# Mechanical properties :
#
#
# Convention : Reuss Voigt Hill
#
# Bulk Modulus (GPa) = 42.42203 56.81502 49.61852
# Shear Modulus (GPa) = 46.59415 17.20463 31.89939
#
# Velocity S-wave (km/s) = 4.61302 2.80312 3.81690
# Velocity P-wave (km/s) = 6.90998 6.03528 6.48739
#
# Compressibility (1/GPa) = 0.02357266
#
# Stress axis : x y z
#
# Youngs Moduli (GPa) = 57.00540 73.63408 107.43634
#
# Poissons Ratio (x) = -0.07644 0.46412
# Poissons Ratio (y) = -0.05918 0.55299
# Poissons Ratio (z) = 0.24626 0.37901
#
# Static dielectric constant tensor:
#      x y z
#    x 1.828870 0.000000 0.000000 
#    y 0.000000 1.865220 0.000000 
#    z 0.000000 0.000000 1.785060 
# 
# From -- ./inp_files/2829.got.cif
#   From: 2010.05.17/outbox.cif.g08.bks.cpg/sg58_2_cif.got.tgz:2829.got - 2010.06.03 14:20:14.
