data_PCOD9443083
_publ_section_title
;
Structure prediction by ZEFSAII (Michael W. Deem and Ramdas Pophale) SiO2 
 PCOD9443083
Probable space group: P N N M
;
_chemical_formula_sum "Si O2"
_cell_formula_units_Z 40
_cell_length_a 9.117504
_cell_length_b 7.654992
_cell_length_c 21.880680
_cell_angle_alpha 90.000000
_cell_angle_beta 90.000000
_cell_angle_gamma 90.000000
_cell_volume 1527.149374
_symmetry_space_group_name_H-M "P N N M"
_symmetry_group_IT_number 58
_symmetry_cell_setting 'orthorhombic'
loop_
_space_group_symop_operation_xyz
x,y,z
-x,-y,z
1/2+x,1/2-y,1/2-z
1/2-x,1/2+y,1/2-z
-x,-y,-z
x,y,-z
1/2-x,1/2+y,1/2+z
1/2+x,1/2-y,1/2+z
loop_
_atom_site_type_symbol
_atom_site_label
_atom_site_fract_x
_atom_site_fract_y
_atom_site_fract_z
Si Si1 0.023099 0.238564 0.797009
Si Si2 0.112664 0.254524 0.931936
Si Si3 0.836535 0.953941 0.398998
Si Si4 0.156663 0.441186 0.427814
Si Si5 0.259348 0.039631 0.263959
O O1 0.017891 0.267265 0.870330
O O2 0.132758 0.074410 0.785572
O O3 0.122273 0.385847 0.762845
O O4 0.864389 0.288471 0.770800
O O5 0.216910 0.424420 0.931066
O O6 0.219794 0.088399 0.921887
O O7 0.043450 0.238790 0.000000
O O8 0.806969 0.749958 0.404978
O O9 0.825433 0.992943 0.327309
O O10 0.000000 0.000000 0.421376
O O11 0.134327 0.419118 0.500000
O O12 0.000000 0.500000 0.400102
#
# Coordination Sequence:
#
# PCOD9443083 Si02
#       5
#     8   8   8   8   8
#     4  10  24  46  67  99 133 176 225 281 341 411
#     4  10  22  41  66  95 135 179 219 276 342 403
#     4  11  22  38  63  95 134 175 224 275 338 399
#     4  10  20  34  57  94 132 173 223 270 323 395
#     4  10  25  43  67  98 131 172 228 281 343 403
#
# _framework density 26.192592999999999
#
# number of rings (size 3 to 8) (size 9 to 14) (size 15 to 20)
#    0.000    1.800    2.000    0.600    8.400    0.800 
#    0.000    9.000    0.000    2.400    0.000    0.000 
#    0.000    0.000    0.000    0.000    0.000    0.000 
#
# Total GULP energy -223825.040171 kJ/mol
# GULP energy per Si atom -5595.626004 kJ/mol
# Density = 2.613298 g / cm^3
# Si number density = 26.192593 Si / 1000 Ang^3
#
#
#
# Elastic Constant Matrix: (Units=GPa)
#
#
# Indices 1 2 3 4 5 6 
#
# 1 146.2921 -0.2398 41.4841 0.0000 0.0000 0.0000
# 2 -0.2398 77.9200 -25.8500 0.0000 0.0000 0.0000
# 3 41.4841 -25.8500 130.8192 0.0000 0.0000 0.0000
# 4 0.0000 0.0000 0.0000 33.8928 0.0000 0.0000
# 5 0.0000 0.0000 0.0000 0.0000 -10.2595 0.0000
# 6 0.0000 0.0000 0.0000 0.0000 0.0000 22.1634
#
#
#
# Elastic Compliance Matrix: (Units=1/GPa)
#
#
# Indices 1 2 3 4 5 6 
#
# 1 0.007560 -0.000826 -0.002561 0.000000 0.000000 0.000000
# 2 -0.000826 0.013824 0.002994 0.000000 0.000000 0.000000
# 3 -0.002561 0.002994 0.009048 0.000000 0.000000 0.000000
# 4 0.000000 0.000000 0.000000 0.029505 0.000000 0.000000
# 5 0.000000 0.000000 0.000000 0.000000 -0.097471 0.000000
# 6 0.000000 0.000000 0.000000 0.000000 0.000000 0.045120
#
#
# Mechanical properties :
#
#
# Convention : Reuss Voigt Hill
#
# Bulk Modulus (GPa) = 33.73153 42.86886 38.30020
# Shear Modulus (GPa) = 273.90736 31.80180 152.85458
#
# Velocity S-wave (km/s) = 10.23725 3.48825 7.64752
# Velocity P-wave (km/s) = 12.35481 5.71193 9.62464
#
# Compressibility (1/GPa) = 0.02964586
#
# Stress axis : x y z
#
# Youngs Moduli (GPa) = 132.26746 72.33639 110.52479
#
# Poissons Ratio (x) = 0.05977 0.28303
# Poissons Ratio (y) = 0.10929 -0.33088
# Poissons Ratio (z) = 0.33871 -0.21655
#
# Static dielectric constant tensor:
#      x y z
#    x 2.036130 0.000000 0.000000 
#    y 0.000000 2.229730 0.000000 
#    z 0.000000 0.000000 1.984940 
# 
# From -- ./inp_files/31264.got.cif
#   From: 2010.05.17/outbox.cif.g08.bks.cpg/sg58_16_cif.got.tgz:31264.got - 2010.06.03 14:20:14.
