data_PCOD9443192
_publ_section_title
;
Structure prediction by ZEFSAII (Michael W. Deem and Ramdas Pophale) SiO2 
 PCOD9443192
Probable space group: P N N M
;
_chemical_formula_sum "Si O2"
_cell_formula_units_Z 48
_cell_length_a 15.959799
_cell_length_b 17.929920
_cell_length_c 7.567407
_cell_angle_alpha 90.000000
_cell_angle_beta 90.000000
_cell_angle_gamma 90.000000
_cell_volume 2165.473442
_symmetry_space_group_name_H-M "P N N M"
_symmetry_group_IT_number 58
_symmetry_cell_setting 'orthorhombic'
loop_
_space_group_symop_operation_xyz
x,y,z
-x,-y,z
1/2+x,1/2-y,1/2-z
1/2-x,1/2+y,1/2-z
-x,-y,-z
x,y,-z
1/2-x,1/2+y,1/2+z
1/2+x,1/2-y,1/2+z
loop_
_atom_site_type_symbol
_atom_site_label
_atom_site_fract_x
_atom_site_fract_y
_atom_site_fract_z
Si Si1 0.761453 0.456588 0.713745
Si Si2 0.587797 0.222093 0.783746
Si Si3 0.231436 0.717071 0.791484
Si Si4 0.426792 0.313929 0.796375
Si Si5 0.078535 0.449706 0.284085
Si Si6 0.910986 0.020412 0.202650
O O1 0.760896 0.462044 0.500000
O O2 0.775536 0.370973 0.761331
O O3 0.836268 0.510075 0.774408
O O4 0.671625 0.483963 0.782783
O O5 0.678228 0.253263 0.726557
O O6 0.510212 0.273517 0.725461
O O7 0.575033 0.136380 0.727983
O O8 0.586698 0.222817 0.000000
O O9 0.151970 0.758714 0.710719
O O10 0.228497 0.732607 0.000000
O O11 0.403882 0.390658 0.702379
O O12 0.443394 0.333613 0.000000
O O13 0.077885 0.449004 0.500000
O O14 0.000000 0.500000 0.227761
O O15 0.914134 0.992415 0.000000
O O16 0.000000 0.000000 0.286047
#
# Coordination Sequence:
#
# PCOD9443192 Si02
#       6
#     8   8   8   8   8   8
#     4  10  20  35  56  80 107 142 184 228 276 332
#     4   9  19  35  55  80 109 145 186 225 273 335
#     4  11  22  37  57  81 113 149 186 232 283 334
#     4  11  22  37  59  85 113 147 190 235 280 338
#     4   9  16  29  52  77 100 130 173 222 265 313
#     4  10  21  37  57  82 114 150 187 231 283 334
#
# _framework density 22.166056000000001
#
# number of rings (size 3 to 8) (size 9 to 14) (size 15 to 20)
#    0.000    2.000    0.000    4.000    0.000    6.333 
#    0.000    2.500    0.000    5.500    0.000    0.000 
#    0.000    0.000    0.000    0.000    0.000    0.000 
#
# Total GULP energy -268385.165718 kJ/mol
# GULP energy per Si atom -5591.357619 kJ/mol
# Density = 2.211560 g / cm^3
# Si number density = 22.166056 Si / 1000 Ang^3
#
#
#
# Elastic Constant Matrix: (Units=GPa)
#
#
# Indices 1 2 3 4 5 6 
#
# 1 113.5699 5.4189 -0.6389 0.0000 0.0000 0.0000
# 2 5.4189 79.1761 -16.4046 0.0000 0.0000 0.0000
# 3 -0.6389 -16.4046 55.1599 0.0000 0.0000 0.0000
# 4 0.0000 0.0000 0.0000 23.6139 0.0000 0.0000
# 5 0.0000 0.0000 0.0000 0.0000 0.0379 0.0000
# 6 0.0000 0.0000 0.0000 0.0000 0.0000 49.8124
#
#
#
# Elastic Compliance Matrix: (Units=1/GPa)
#
#
# Indices 1 2 3 4 5 6 
#
# 1 0.008834 -0.000622 -0.000083 0.000000 0.000000 0.000000
# 2 -0.000622 0.013503 0.004009 0.000000 0.000000 0.000000
# 3 -0.000083 0.004009 0.019320 0.000000 0.000000 0.000000
# 4 0.000000 0.000000 0.000000 0.042348 0.000000 0.000000
# 5 0.000000 0.000000 0.000000 0.000000 26.363653 0.000000
# 6 0.000000 0.000000 0.000000 0.000000 0.000000 0.020075
#
#
# Mechanical properties :
#
#
# Convention : Reuss Voigt Hill
#
# Bulk Modulus (GPa) = 20.71833 24.96188 22.84010
# Shear Modulus (GPa) = 0.18884 31.99487 16.09186
#
# Velocity S-wave (km/s) = 0.29220 3.80336 2.69730
# Velocity P-wave (km/s) = 3.07912 5.52930 4.47516
#
# Compressibility (1/GPa) = 0.04826645
#
# Stress axis : x y z
#
# Youngs Moduli (GPa) = 113.19447 74.05665 51.75901
#
# Poissons Ratio (x) = 0.04604 0.00427
# Poissons Ratio (y) = 0.07038 -0.20748
# Poissons Ratio (z) = 0.00935 -0.29687
#
# Static dielectric constant tensor:
#      x y z
#    x 1.554920 0.000000 0.000000 
#    y 0.000000 1.745000 0.000000 
#    z 0.000000 0.000000 1.832820 
# 
# From -- ./inp_files/5813.got.cif
#   From: 2010.05.17/outbox.cif.g08.bks.cpg/sg58_3_cif.got.tgz:5813.got - 2010.06.03 14:20:14.
