data_PCOD9443127
_publ_section_title
;
Structure prediction by ZEFSAII (Michael W. Deem and Ramdas Pophale) SiO2 
 PCOD9443127
Probable space group: P N N M
;
_chemical_formula_sum "Si O2"
_cell_formula_units_Z 64
_cell_length_a 21.214792
_cell_length_b 20.032740
_cell_length_c 8.579707
_cell_angle_alpha 90.000000
_cell_angle_beta 90.000000
_cell_angle_gamma 90.000000
_cell_volume 3646.293215
_symmetry_space_group_name_H-M "P N N M"
_symmetry_group_IT_number 58
_symmetry_cell_setting 'orthorhombic'
loop_
_space_group_symop_operation_xyz
x,y,z
-x,-y,z
1/2+x,1/2-y,1/2-z
1/2-x,1/2+y,1/2-z
-x,-y,-z
x,y,-z
1/2-x,1/2+y,1/2+z
1/2+x,1/2-y,1/2+z
loop_
_atom_site_type_symbol
_atom_site_label
_atom_site_fract_x
_atom_site_fract_y
_atom_site_fract_z
Si Si1 0.689105 0.202634 0.685838
Si Si2 0.764006 0.566274 0.685837
Si Si3 0.571632 0.283781 0.185667
Si Si4 0.810518 0.291968 0.688626
Si Si5 0.432016 0.291922 0.812443
Si Si6 0.117286 0.078465 0.813867
Si Si7 0.116435 0.928866 0.812778
Si Si8 0.241604 0.574899 0.184239
O O1 0.691534 0.194811 0.500000
O O2 0.696976 0.130706 0.764275
O O3 0.625686 0.240284 0.734253
O O4 0.749134 0.248222 0.732528
O O5 0.765957 0.556957 0.500000
O O6 0.690445 0.578381 0.730489
O O7 0.783907 0.497752 0.768235
O O8 0.500686 0.266705 0.237587
O O9 0.583468 0.361081 0.228442
O O10 0.576805 0.275314 0.000000
O O11 0.811076 0.297703 0.500000
O O12 0.873394 0.253329 0.740295
O O13 0.802360 0.364593 0.762238
O O14 0.421171 0.367601 0.757723
O O15 0.431110 0.291832 0.000000
O O16 0.191618 0.082837 0.773564
O O17 0.096303 0.003793 0.766582
O O18 0.109365 0.085380 0.000000
O O19 0.112323 0.925534 0.000000
O O20 0.253130 0.577983 0.000000
#
# Coordination Sequence:
#
# PCOD9443127 Si02
#       8
#     8   8   8   8   8   8   8   8
#     4  11  21  35  59  84 110 144 184 230 277 323
#     4  10  20  35  56  83 115 145 180 226 276 328
#     4  11  23  37  54  79 110 147 187 226 274 328
#     4  10  20  36  57  81 110 144 184 227 276 326
#     4  10  22  38  55  77 109 147 185 226 272 328
#     4  10  20  35  52  76 110 149 187 225 272 323
#     4   9  19  33  52  77 107 144 184 223 266 318
#     4  11  21  33  55  85 113 142 182 228 276 327
#
# _framework density 17.552071999999999
#
# number of rings (size 3 to 8) (size 9 to 14) (size 15 to 20)
#    0.000    1.750    2.500    3.375    0.000    5.000 
#    0.000    2.500    0.000    0.750    0.000    5.250 
#    0.000    0.000    0.000    0.000    0.000    0.000 
#
# Total GULP energy -357422.371922 kJ/mol
# GULP energy per Si atom -5584.724561 kJ/mol
# Density = 1.751212 g / cm^3
# Si number density = 17.552072 Si / 1000 Ang^3
#
#
#
# Elastic Constant Matrix: (Units=GPa)
#
#
# Indices 1 2 3 4 5 6 
#
# 1 86.0567 39.3813 5.4768 0.0000 0.0000 0.0000
# 2 39.3813 94.3565 7.6716 0.0000 0.0000 0.0000
# 3 5.4768 7.6716 16.7917 0.0000 0.0000 0.0000
# 4 0.0000 0.0000 0.0000 31.9314 0.0000 0.0000
# 5 0.0000 0.0000 0.0000 0.0000 -6.3201 0.0000
# 6 0.0000 0.0000 0.0000 0.0000 0.0000 20.2733
#
#
#
# Elastic Compliance Matrix: (Units=1/GPa)
#
#
# Indices 1 2 3 4 5 6 
#
# 1 0.014430 -0.005858 -0.002030 0.000000 0.000000 0.000000
# 2 -0.005858 0.013385 -0.004205 0.000000 0.000000 0.000000
# 3 -0.002030 -0.004205 0.062136 0.000000 0.000000 0.000000
# 4 0.000000 0.000000 0.000000 0.031317 0.000000 0.000000
# 5 0.000000 0.000000 0.000000 0.000000 -0.158225 0.000000
# 6 0.000000 0.000000 0.000000 0.000000 0.000000 0.049326
#
#
# Mechanical properties :
#
#
# Convention : Reuss Voigt Hill
#
# Bulk Modulus (GPa) = 15.20543 33.58493 24.39518
# Shear Modulus (GPa) = 85.50471 18.82192 52.16331
#
# Velocity S-wave (km/s) = 6.98718 3.27822 5.45744
# Velocity P-wave (km/s) = 8.58930 5.78835 7.32397
#
# Compressibility (1/GPa) = 0.06576598
#
# Stress axis : x y z
#
# Youngs Moduli (GPa) = 69.30016 74.71221 16.09367
#
# Poissons Ratio (x) = 0.43763 0.03268
# Poissons Ratio (y) = 0.40593 0.06767
# Poissons Ratio (z) = 0.14071 0.31413
#
# Static dielectric constant tensor:
#      x y z
#    x 1.599040 0.000000 0.000000 
#    y 0.000000 1.589730 0.000000 
#    z 0.000000 0.000000 1.589450 
# 
# From -- ./inp_files/9321.got.cif
#   From: 2010.05.17/outbox.cif.g08.bks.cpg/sg58_5_cif.got.tgz:9321.got - 2010.06.03 14:20:14.
