data_PCOD9443571
_publ_section_title
;
Structure prediction by ZEFSAII (Michael W. Deem and Ramdas Pophale) SiO2 
 PCOD9443571
Probable space group: P N N M
;
_chemical_formula_sum "Si O2"
_cell_formula_units_Z 44
_cell_length_a 29.621255
_cell_length_b 7.299744
_cell_length_c 11.116158
_cell_angle_alpha 90.000000
_cell_angle_beta 90.000000
_cell_angle_gamma 90.000000
_cell_volume 2403.619926
_symmetry_space_group_name_H-M "P N N M"
_symmetry_group_IT_number 58
_symmetry_cell_setting 'orthorhombic'
loop_
_space_group_symop_operation_xyz
x,y,z
-x,-y,z
1/2+x,1/2-y,1/2-z
1/2-x,1/2+y,1/2-z
-x,-y,-z
x,y,-z
1/2-x,1/2+y,1/2+z
1/2+x,1/2-y,1/2+z
loop_
_atom_site_type_symbol
_atom_site_label
_atom_site_fract_x
_atom_site_fract_y
_atom_site_fract_z
Si Si1 0.136757 0.092675 0.857021
Si Si2 0.925676 0.232168 0.500000
Si Si3 0.556830 0.146012 0.000000
Si Si4 0.048281 0.059443 0.702384
Si Si5 0.700099 0.094900 0.752701
Si Si6 0.207487 0.783524 0.138617
Si Si7 0.152960 0.505334 0.500000
O O1 0.087636 0.092649 0.797482
O O2 0.168414 0.243764 0.794726
O O3 0.162830 0.901155 0.836102
O O4 0.134274 0.123995 0.000000
O O5 0.873990 0.302194 0.500000
O O6 0.952622 0.427093 0.500000
O O7 0.936578 0.105936 0.613857
O O8 0.542494 0.261800 0.883228
O O9 0.611972 0.142678 0.000000
O O10 0.000000 0.000000 0.754474
O O11 0.751151 0.159796 0.775927
O O12 0.698901 0.929171 0.659536
O O13 0.681295 0.021635 0.879881
O O14 0.220355 0.819796 0.000000
#
# Coordination Sequence:
#
# PCOD9443571 Si02
#       7
#     8   4   4   8   8   8   4
#     4  11  24  42  59  83 122 160 199 244 296 348
#     4   9  19  37  59  92 121 157 184 248 313 343
#     4   9  19  37  59  90 123 145 192 248 298 359
#     4  11  22  37  61  89 117 156 202 247 296 355
#     4  12  21  40  61  89 120 155 196 242 292 352
#     4  11  24  39  60  87 117 156 197 238 289 354
#     4  10  20  36  63  88 124 152 189 239 301 351
#
# _framework density 18.305724000000001
#
# number of rings (size 3 to 8) (size 9 to 14) (size 15 to 20)
#    0.545    0.727    4.545    2.727    0.000    1.818 
#    1.636    0.000    0.000    0.000    0.000    7.636 
#    0.000    0.000    0.000    0.000    0.000    0.000 
#
# Total GULP energy -245602.334112 kJ/mol
# GULP energy per Si atom -5581.871230 kJ/mol
# Density = 1.826406 g / cm^3
# Si number density = 18.305724 Si / 1000 Ang^3
#
#
#
# Elastic Constant Matrix: (Units=GPa)
#
#
# Indices 1 2 3 4 5 6 
#
# 1 75.6706 0.2322 31.3723 0.0000 0.0000 0.0000
# 2 0.2322 84.4158 12.9141 0.0000 0.0000 0.0000
# 3 31.3723 12.9141 71.5032 0.0000 0.0000 0.0000
# 4 0.0000 0.0000 0.0000 19.2187 0.0000 0.0000
# 5 0.0000 0.0000 0.0000 0.0000 12.5126 0.0000
# 6 0.0000 0.0000 0.0000 0.0000 0.0000 23.9214
#
#
#
# Elastic Compliance Matrix: (Units=1/GPa)
#
#
# Indices 1 2 3 4 5 6 
#
# 1 0.016248 0.001076 -0.007323 0.000000 0.000000 0.000000
# 2 0.001076 0.012254 -0.002685 0.000000 0.000000 0.000000
# 3 -0.007323 -0.002685 0.017683 0.000000 0.000000 0.000000
# 4 0.000000 0.000000 0.000000 0.052033 0.000000 0.000000
# 5 0.000000 0.000000 0.000000 0.000000 0.079920 0.000000
# 6 0.000000 0.000000 0.000000 0.000000 0.000000 0.041803
#
#
# Mechanical properties :
#
#
# Convention : Reuss Voigt Hill
#
# Bulk Modulus (GPa) = 35.31063 35.62520 35.46792
# Shear Modulus (GPa) = 20.22274 23.60194 21.91234
#
# Velocity S-wave (km/s) = 3.32734 3.59461 3.46355
# Velocity P-wave (km/s) = 5.83891 6.06067 5.95082
#
# Compressibility (1/GPa) = 0.02832008
#
# Stress axis : x y z
#
# Youngs Moduli (GPa) = 61.54614 81.60638 56.55024
#
# Poissons Ratio (x) = -0.08778 0.41412
# Poissons Ratio (y) = -0.06620 0.15184
# Poissons Ratio (z) = 0.45071 0.21912
#
# Static dielectric constant tensor:
#      x y z
#    x 1.641720 0.000000 0.000000 
#    y 0.000000 1.624600 0.000000 
#    z 0.000000 0.000000 1.592520 
# 
# From -- ./inp_files/10718.got.cif
#   From: 2010.05.17/outbox.cif.g08.bks.cpg/sg58_6_cif.got.tgz:10718.got - 2010.06.03 14:20:14.
