data_PCOD9443973
_publ_section_title
;
Structure prediction by ZEFSAII (Michael W. Deem and Ramdas Pophale) SiO2 
 PCOD9443973
Probable space group: P N N M
;
_chemical_formula_sum "Si O2"
_cell_formula_units_Z 58
_cell_length_a 7.977404
_cell_length_b 17.462059
_cell_length_c 17.575977
_cell_angle_alpha 90.000000
_cell_angle_beta 90.000000
_cell_angle_gamma 90.000000
_cell_volume 2448.366978
_symmetry_space_group_name_H-M "P N N M"
_symmetry_group_IT_number 58
_symmetry_cell_setting 'orthorhombic'
loop_
_space_group_symop_operation_xyz
x,y,z
-x,-y,z
1/2+x,1/2-y,1/2-z
1/2-x,1/2+y,1/2-z
-x,-y,-z
x,y,-z
1/2-x,1/2+y,1/2+z
1/2+x,1/2-y,1/2+z
loop_
_atom_site_type_symbol
_atom_site_label
_atom_site_fract_x
_atom_site_fract_y
_atom_site_fract_z
Si Si1 0.060292 0.792708 0.612774
Si Si2 0.912071 0.633197 0.139999
Si Si3 0.230538 0.088213 0.390355
Si Si4 0.824273 0.932158 0.789738
Si Si5 0.000000 0.000000 0.500000
Si Si6 0.437766 0.114239 0.083745
Si Si7 0.706253 0.092061 0.194787
Si Si8 0.448331 0.288270 0.706891
O O1 0.231452 0.844147 0.602413
O O2 0.069946 0.707069 0.580975
O O3 0.050816 0.779500 0.703079
O O4 0.895550 0.840803 0.588353
O O5 0.880417 0.589779 0.221078
O O6 0.069711 0.596119 0.095538
O O7 0.991420 0.714698 0.164076
O O8 0.211255 0.080491 0.299487
O O9 0.142427 0.019061 0.433926
O O10 0.671188 0.914155 0.845676
O O11 0.941639 0.861690 0.812889
O O12 0.840861 0.023841 0.798362
O O13 0.615044 0.083797 0.114319
O O14 0.392405 0.086100 0.000000
O O15 0.765120 0.180248 0.189629
#
# Coordination Sequence:
#
# PCOD9443973 Si02
#       8
#     8   8   8   8   2   8   8   8
#     4  10  22  42  70 103 138 188 246 305 366 431
#     4  11  21  42  75 102 134 194 254 299 355 459
#     4  11  26  48  71 101 152 184 239 300 375 453
#     4  11  23  43  68 102 142 194 241 306 373 452
#     4  12  32  52  70 120 154 186 232 316 378 464
#     4  12  24  41  66 103 147 187 251 314 364 433
#     4  11  23  38  67 105 136 194 250 295 387 443
#     4  10  20  39  71 104 133 177 258 316 351 449
#
# _framework density 23.689257999999999
#
# number of rings (size 3 to 8) (size 9 to 14) (size 15 to 20)
#    0.000    1.103    4.138    1.655   10.621    1.103 
#    1.241    1.379    0.000    1.655    0.000    0.000 
#    0.000    0.000    0.000    0.000    0.000    0.000 
#
# Total GULP energy -322963.844971 kJ/mol
# GULP energy per Si atom -5568.342155 kJ/mol
# Density = 2.363534 g / cm^3
# Si number density = 23.689258 Si / 1000 Ang^3
#
#
#
# Elastic Constant Matrix: (Units=GPa)
#
#
# Indices 1 2 3 4 5 6 
#
# 1 102.1975 29.2742 17.2405 0.0000 0.0000 0.0000
# 2 29.2742 103.6972 10.1847 0.0000 0.0000 0.0000
# 3 17.2405 10.1847 100.8815 0.0000 0.0000 0.0000
# 4 0.0000 0.0000 0.0000 -7.4114 0.0000 0.0000
# 5 0.0000 0.0000 0.0000 0.0000 -8.4215 0.0000
# 6 0.0000 0.0000 0.0000 0.0000 0.0000 44.7214
#
#
#
# Elastic Compliance Matrix: (Units=1/GPa)
#
#
# Indices 1 2 3 4 5 6 
#
# 1 0.010885 -0.002919 -0.001566 0.000000 0.000000 0.000000
# 2 -0.002919 0.010523 -0.000563 0.000000 0.000000 0.000000
# 3 -0.001566 -0.000563 0.010237 0.000000 0.000000 0.000000
# 4 0.000000 0.000000 0.000000 -0.134928 0.000000 0.000000
# 5 0.000000 0.000000 0.000000 0.000000 -0.118744 0.000000
# 6 0.000000 0.000000 0.000000 0.000000 0.000000 0.022361
#
#
# Mechanical properties :
#
#
# Convention : Reuss Voigt Hill
#
# Bulk Modulus (GPa) = 46.40636 46.68610 46.54623
# Shear Modulus (GPa) = -27.41430 22.44949 -2.48240
#
# Velocity S-wave (km/s) = -3.40552 3.08176 -1.02478
# Velocity P-wave (km/s) = 2.04174 5.69328 4.27681
#
# Compressibility (1/GPa) = 0.02154877
#
# Stress axis : x y z
#
# Youngs Moduli (GPa) = 91.86714 95.03074 97.68427
#
# Poissons Ratio (x) = 0.27741 0.15293
# Poissons Ratio (y) = 0.26818 0.05504
# Poissons Ratio (z) = 0.14382 0.05355
#
# Static dielectric constant tensor:
#      x y z
#    x 2.132350 0.000000 0.000000 
#    y 0.000000 1.951470 0.000000 
#    z 0.000000 0.000000 1.818100 
# 
# From -- ./inp_files/25530.got.cif
#   From: 2010.05.17/outbox.cif.g08.bks.cpg/sg58_13_cif.got.tgz:25530.got - 2010.06.03 14:20:14.
