data_PCOD9443407
_publ_section_title
;
Structure prediction by ZEFSAII (Michael W. Deem and Ramdas Pophale) SiO2 
 PCOD9443407
Probable space group: P N N M
;
_chemical_formula_sum "Si O2"
_cell_formula_units_Z 40
_cell_length_a 8.238579
_cell_length_b 23.704580
_cell_length_c 8.936751
_cell_angle_alpha 90.000000
_cell_angle_beta 90.000000
_cell_angle_gamma 90.000000
_cell_volume 1745.276468
_symmetry_space_group_name_H-M "P N N M"
_symmetry_group_IT_number 58
_symmetry_cell_setting 'orthorhombic'
loop_
_space_group_symop_operation_xyz
x,y,z
-x,-y,z
1/2+x,1/2-y,1/2-z
1/2-x,1/2+y,1/2-z
-x,-y,-z
x,y,-z
1/2-x,1/2+y,1/2+z
1/2+x,1/2-y,1/2+z
loop_
_atom_site_type_symbol
_atom_site_label
_atom_site_fract_x
_atom_site_fract_y
_atom_site_fract_z
Si Si1 0.847303 0.372538 0.177340
Si Si2 0.853746 0.165896 0.326494
Si Si3 0.155889 0.425975 0.327159
Si Si4 0.648134 0.463836 0.325291
Si Si5 0.978053 0.737984 0.175454
O O1 0.698646 0.406392 0.247248
O O2 0.891326 0.309325 0.227986
O O3 0.007517 0.408067 0.223215
O O4 0.831253 0.371192 0.000000
O O5 0.873356 0.149866 0.500000
O O6 0.808344 0.112325 0.225189
O O7 0.998098 0.205631 0.269699
O O8 0.693490 0.206047 0.313837
O O9 0.115759 0.412809 0.500000
O O10 0.204463 0.491204 0.318419
O O11 0.500000 0.500000 0.259800
O O12 0.613062 0.452510 0.500000
O O13 0.007147 0.750630 0.000000
#
# Coordination Sequence:
#
# PCOD9443407 Si02
#       5
#     8   8   8   8   8
#     4  10  21  37  57  81 109 142 182 225 267 318
#     4  10  21  36  56  82 109 140 180 223 266 315
#     4  10  20  36  58  80 106 143 182 220 266 322
#     4  10  22  38  55  79 110 143 180 222 272 326
#     4   9  20  37  54  78 110 141 176 217 265 319
#
# _framework density 22.919004999999999
#
# number of rings (size 3 to 8) (size 9 to 14) (size 15 to 20)
#    0.000    2.200    0.000    3.600    0.000   10.800 
#    0.000    6.000    0.000    0.000    0.000    0.000 
#    0.000    0.000    0.000    0.000    0.000    0.000 
#
# Total GULP energy -223717.943702 kJ/mol
# GULP energy per Si atom -5592.948593 kJ/mol
# Density = 2.286684 g / cm^3
# Si number density = 22.919005 Si / 1000 Ang^3
#
#
#
# Elastic Constant Matrix: (Units=GPa)
#
#
# Indices 1 2 3 4 5 6 
#
# 1 51.8488 1.5190 -12.2315 0.0000 0.0000 0.0000
# 2 1.5190 93.5869 31.7730 0.0000 0.0000 0.0000
# 3 -12.2315 31.7730 31.6687 0.0000 0.0000 0.0000
# 4 0.0000 0.0000 0.0000 -260.7733 0.0000 0.0000
# 5 0.0000 0.0000 0.0000 0.0000 -21.4438 0.0000
# 6 0.0000 0.0000 0.0000 0.0000 0.0000 40.8132
#
#
#
# Elastic Compliance Matrix: (Units=1/GPa)
#
#
# Indices 1 2 3 4 5 6 
#
# 1 0.022705 -0.005074 0.013860 0.000000 0.000000 0.000000
# 2 -0.005074 0.017339 -0.019356 0.000000 0.000000 0.000000
# 3 0.013860 -0.019356 0.056350 0.000000 0.000000 0.000000
# 4 0.000000 0.000000 0.000000 -0.003835 0.000000 0.000000
# 5 0.000000 0.000000 0.000000 0.000000 -0.046634 0.000000
# 6 0.000000 0.000000 0.000000 0.000000 0.000000 0.024502
#
#
# Mechanical properties :
#
#
# Convention : Reuss Voigt Hill
#
# Bulk Modulus (GPa) = 13.28821 24.35839 18.82330
# Shear Modulus (GPa) = 42.86257 -37.87786 2.49236
#
# Velocity S-wave (km/s) = 4.32924 -4.06973 1.04395
# Velocity P-wave (km/s) = 5.54980 3.38120 3.11190
#
# Compressibility (1/GPa) = 0.07525467
#
# Stress axis : x y z
#
# Youngs Moduli (GPa) = 44.04265 57.67349 17.74630
#
# Poissons Ratio (x) = 0.29264 -0.24597
# Poissons Ratio (y) = 0.22348 0.34350
# Poissons Ratio (z) = -0.61045 1.11632
#
# Static dielectric constant tensor:
#      x y z
#    x 1.967010 0.000000 0.000000 
#    y 0.000000 1.829300 0.000000 
#    z 0.000000 0.000000 1.765720 
# 
# From -- ./inp_files/2394.got.cif
#   From: 2010.05.17/outbox.cif.g08.bks.cpg/sg58_2_cif.got.tgz:2394.got - 2010.06.03 14:20:14.
