data_PCOD9443814
_publ_section_title
;
Structure prediction by ZEFSAII (Michael W. Deem and Ramdas Pophale) SiO2 
 PCOD9443814
Probable space group: P N N M
;
_chemical_formula_sum "Si O2"
_cell_formula_units_Z 64
_cell_length_a 13.440281
_cell_length_b 8.853204
_cell_length_c 28.046705
_cell_angle_alpha 90.000000
_cell_angle_beta 90.000000
_cell_angle_gamma 90.000000
_cell_volume 3337.264793
_symmetry_space_group_name_H-M "P N N M"
_symmetry_group_IT_number 58
_symmetry_cell_setting 'orthorhombic'
loop_
_space_group_symop_operation_xyz
x,y,z
-x,-y,z
1/2+x,1/2-y,1/2-z
1/2-x,1/2+y,1/2-z
-x,-y,-z
x,y,-z
1/2-x,1/2+y,1/2+z
1/2+x,1/2-y,1/2+z
loop_
_atom_site_type_symbol
_atom_site_label
_atom_site_fract_x
_atom_site_fract_y
_atom_site_fract_z
Si Si1 0.762095 0.993450 0.632371
Si Si2 0.649445 0.655847 0.779827
Si Si3 0.047538 0.349573 0.287580
Si Si4 0.919611 0.631330 0.180305
Si Si5 0.788902 0.663547 0.635084
Si Si6 0.595802 0.606485 0.053591
Si Si7 0.550164 0.159500 0.054315
Si Si8 0.813126 0.917427 0.805027
O O1 0.728315 0.819464 0.633480
O O2 0.836261 0.047138 0.674564
O O3 0.667303 0.093579 0.643715
O O4 0.818319 0.031870 0.583911
O O5 0.540666 0.731395 0.778767
O O6 0.729476 0.795528 0.785845
O O7 0.666397 0.546619 0.734526
O O8 0.095115 0.398895 0.237053
O O9 0.132332 0.300513 0.323043
O O10 0.000000 0.500000 0.309721
O O11 0.910673 0.815693 0.182128
O O12 0.000000 0.500000 0.168821
O O13 0.852941 0.653517 0.586841
O O14 0.731548 0.512540 0.650575
O O15 0.500000 0.500000 0.050458
O O16 0.540883 0.747271 0.077891
O O17 0.629250 0.645591 0.000000
O O18 0.500000 0.000000 0.049264
O O19 0.571692 0.216487 0.000000
#
# Coordination Sequence:
#
# PCOD9443814 Si02
#       8
#     8   8   8   8   8   8   8   8
#     4  11  23  37  59  85 119 158 201 250 297 361
#     4  11  23  38  58  85 118 159 208 245 303 356
#     4  11  22  35  54  80 115 158 191 244 293 351
#     4  10  25  43  57  79 116 157 203 256 300 341
#     4  12  22  35  57  85 118 155 198 240 297 363
#     4  10  20  38  61  90 123 155 194 240 302 373
#     4  10  22  36  56  88 127 158 187 236 296 367
#     4  11  24  38  59  83 116 159 205 258 294 359
#
# _framework density 19.177381
#
# number of rings (size 3 to 8) (size 9 to 14) (size 15 to 20)
#    0.000    1.250    2.500    4.125   10.500    1.500 
#    0.000    0.000    0.000    0.375    0.000    0.000 
#    0.000    2.000    0.000    0.125    0.000    0.000 
#
# Total GULP energy -356421.189683 kJ/mol
# GULP energy per Si atom -5569.081089 kJ/mol
# Density = 1.913373 g / cm^3
# Si number density = 19.177381 Si / 1000 Ang^3
#
#
#
# Elastic Constant Matrix: (Units=GPa)
#
#
# Indices 1 2 3 4 5 6 
#
# 1 42.9521 19.0678 20.5390 0.0000 0.0000 0.0000
# 2 19.0678 123.2531 13.1051 0.0000 0.0000 0.0000
# 3 20.5390 13.1051 67.1433 0.0000 0.0000 0.0000
# 4 0.0000 0.0000 0.0000 16.4550 0.0000 0.0000
# 5 0.0000 0.0000 0.0000 0.0000 7.7158 0.0000
# 6 0.0000 0.0000 0.0000 0.0000 0.0000 42.2228
#
#
#
# Elastic Compliance Matrix: (Units=1/GPa)
#
#
# Indices 1 2 3 4 5 6 
#
# 1 0.028744 -0.003586 -0.008093 0.000000 0.000000 0.000000
# 2 -0.003586 0.008733 -0.000607 0.000000 0.000000 0.000000
# 3 -0.008093 -0.000607 0.017488 0.000000 0.000000 0.000000
# 4 0.000000 0.000000 0.000000 0.060772 0.000000 0.000000
# 5 0.000000 0.000000 0.000000 0.000000 0.129605 0.000000
# 6 0.000000 0.000000 0.000000 0.000000 0.000000 0.023684
#
#
# Mechanical properties :
#
#
# Convention : Reuss Voigt Hill
#
# Bulk Modulus (GPa) = 32.90422 37.64138 35.27280
# Shear Modulus (GPa) = 16.46213 25.32114 20.89164
#
# Velocity S-wave (km/s) = 2.93305 3.63762 3.30417
# Velocity P-wave (km/s) = 5.35401 6.10849 5.74365
#
# Compressibility (1/GPa) = 0.03039124
#
# Stress axis : x y z
#
# Youngs Moduli (GPa) = 34.79033 114.51090 57.18340
#
# Poissons Ratio (x) = 0.41067 0.46276
# Poissons Ratio (y) = 0.12477 0.03473
# Poissons Ratio (z) = 0.28155 0.06956
#
# Static dielectric constant tensor:
#      x y z
#    x 1.736220 0.000000 0.000000 
#    y 0.000000 1.582080 0.000000 
#    z 0.000000 0.000000 1.680820 
# 
# From -- ./inp_files/35094.got.cif
#   From: 2010.05.17/outbox.cif.g08.bks.cpg/sg58_18_cif.got.tgz:35094.got - 2010.06.03 14:20:14.
