data_PCOD9443453
_publ_section_title
;
Structure prediction by ZEFSAII (Michael W. Deem and Ramdas Pophale) SiO2 
 PCOD9443453
Probable space group: P N N M
;
_chemical_formula_sum "Si O2"
_cell_formula_units_Z 48
_cell_length_a 18.190901
_cell_length_b 15.743451
_cell_length_c 7.601736
_cell_angle_alpha 90.000000
_cell_angle_beta 90.000000
_cell_angle_gamma 90.000000
_cell_volume 2177.042614
_symmetry_space_group_name_H-M "P N N M"
_symmetry_group_IT_number 58
_symmetry_cell_setting 'orthorhombic'
loop_
_space_group_symop_operation_xyz
x,y,z
-x,-y,z
1/2+x,1/2-y,1/2-z
1/2-x,1/2+y,1/2-z
-x,-y,-z
x,y,-z
1/2-x,1/2+y,1/2+z
1/2+x,1/2-y,1/2+z
loop_
_atom_site_type_symbol
_atom_site_label
_atom_site_fract_x
_atom_site_fract_y
_atom_site_fract_z
Si Si1 0.788741 0.612228 0.713556
Si Si2 0.711927 0.438101 0.285233
Si Si3 0.547775 0.075733 0.798006
Si Si4 0.696654 0.777078 0.205083
Si Si5 0.956060 0.916500 0.215205
Si Si6 0.468788 0.243691 0.297199
O O1 0.788672 0.616840 0.500000
O O2 0.740326 0.530861 0.766656
O O3 0.871984 0.596608 0.776835
O O4 0.753465 0.699652 0.777466
O O5 0.712089 0.436088 0.500000
O O6 0.766126 0.363189 0.225147
O O7 0.628590 0.420801 0.228868
O O8 0.499682 0.160623 0.796358
O O9 0.500000 0.000000 0.715347
O O10 0.562887 0.048914 0.000000
O O11 0.619174 0.753829 0.290433
O O12 0.680386 0.791038 0.000000
O O13 0.996084 0.830499 0.273228
O O14 0.957183 0.916613 0.000000
O O15 0.000000 0.000000 0.272323
O O16 0.492117 0.235345 0.500000
#
# Coordination Sequence:
#
# PCOD9443453 Si02
#       6
#     8   8   8   8   8   8
#     4  10  20  36  59  84 110 143 186 232 275 328
#     4   9  18  34  56  80 107 143 184 222 269 334
#     4  10  21  38  59  83 114 152 189 228 283 345
#     4  11  22  37  57  81 113 151 188 228 280 339
#     4   9  17  31  54  81 106 135 176 226 276 328
#     4  11  22  36  57  84 112 145 189 238 283 328
#
# _framework density 22.048259000000002
#
# number of rings (size 3 to 8) (size 9 to 14) (size 15 to 20)
#    0.000    2.000    0.000    4.000    0.000    7.667 
#    0.000    3.333    0.000   11.000    0.000    0.000 
#    0.000    0.000    0.000    0.000    0.000    0.000 
#
# Total GULP energy -268374.129662 kJ/mol
# GULP energy per Si atom -5591.127701 kJ/mol
# Density = 2.199808 g / cm^3
# Si number density = 22.048259 Si / 1000 Ang^3
#
#
#
# Elastic Constant Matrix: (Units=GPa)
#
#
# Indices 1 2 3 4 5 6 
#
# 1 92.5757 1.9044 -8.3625 0.0000 0.0000 0.0000
# 2 1.9044 97.9747 -7.3772 0.0000 0.0000 0.0000
# 3 -8.3625 -7.3772 50.1950 0.0000 0.0000 0.0000
# 4 0.0000 0.0000 0.0000 19.4718 0.0000 0.0000
# 5 0.0000 0.0000 0.0000 0.0000 -9.5059 0.0000
# 6 0.0000 0.0000 0.0000 0.0000 0.0000 47.0702
#
#
#
# Elastic Compliance Matrix: (Units=1/GPa)
#
#
# Indices 1 2 3 4 5 6 
#
# 1 0.010968 -0.000076 0.001816 0.000000 0.000000 0.000000
# 2 -0.000076 0.010321 0.001504 0.000000 0.000000 0.000000
# 3 0.001816 0.001504 0.020446 0.000000 0.000000 0.000000
# 4 0.000000 0.000000 0.000000 0.051356 0.000000 0.000000
# 5 0.000000 0.000000 0.000000 0.000000 -0.105197 0.000000
# 6 0.000000 0.000000 0.000000 0.000000 0.000000 0.021245
#
#
# Mechanical properties :
#
#
# Convention : Reuss Voigt Hill
#
# Bulk Modulus (GPa) = 20.73723 23.67497 22.20610
# Shear Modulus (GPa) = 267.01801 28.37927 147.69864
#
# Velocity S-wave (km/s) = 11.01676 3.59157 8.19355
# Velocity P-wave (km/s) = 13.08630 5.28775 9.98027
#
# Compressibility (1/GPa) = 0.04822245
#
# Stress axis : x y z
#
# Youngs Moduli (GPa) = 91.17780 96.88548 48.90951
#
# Poissons Ratio (x) = 0.00741 -0.08882
# Poissons Ratio (y) = 0.00697 -0.07357
# Poissons Ratio (z) = -0.16558 -0.14574
#
# Static dielectric constant tensor:
#      x y z
#    x 1.764700 0.000000 0.000000 
#    y 0.000000 1.722880 0.000000 
#    z 0.000000 0.000000 1.843360 
# 
# From -- ./inp_files/5829.got.cif
#   From: 2010.05.17/outbox.cif.g08.bks.cpg/sg58_3_cif.got.tgz:5829.got - 2010.06.03 14:20:14.
