data_PCOD9443284
_publ_section_title
;
Structure prediction by ZEFSAII (Michael W. Deem and Ramdas Pophale) SiO2 
 PCOD9443284
Probable space group: P N N M
;
_chemical_formula_sum "Si O2"
_cell_formula_units_Z 48
_cell_length_a 6.747174
_cell_length_b 27.023567
_cell_length_c 10.897059
_cell_angle_alpha 90.000000
_cell_angle_beta 90.000000
_cell_angle_gamma 90.000000
_cell_volume 1986.890284
_symmetry_space_group_name_H-M "P N N M"
_symmetry_group_IT_number 58
_symmetry_cell_setting 'orthorhombic'
loop_
_space_group_symop_operation_xyz
x,y,z
-x,-y,z
1/2+x,1/2-y,1/2-z
1/2-x,1/2+y,1/2-z
-x,-y,-z
x,y,-z
1/2-x,1/2+y,1/2+z
1/2+x,1/2-y,1/2+z
loop_
_atom_site_type_symbol
_atom_site_label
_atom_site_fract_x
_atom_site_fract_y
_atom_site_fract_z
Si Si1 0.703224 0.734874 0.363614
Si Si2 0.571734 0.184618 0.637687
Si Si3 0.613088 0.924835 0.137824
Si Si4 0.578242 0.350435 0.363045
Si Si5 0.732967 0.985321 0.633094
Si Si6 0.736882 0.588660 0.219354
O O1 0.789718 0.725684 0.500000
O O2 0.650529 0.792846 0.354453
O O3 0.821058 0.709772 0.253926
O O4 0.490803 0.706080 0.359340
O O5 0.641913 0.199326 0.500000
O O6 0.617985 0.126199 0.646018
O O7 0.381647 0.927263 0.169434
O O8 0.696177 0.868493 0.144942
O O9 0.733846 0.953796 0.242572
O O10 0.648675 0.943134 0.000000
O O11 0.514072 0.367445 0.500000
O O12 0.445659 0.379260 0.265387
O O13 0.782115 0.962921 0.500000
O O14 0.832124 0.039056 0.652137
O O15 0.500000 0.000000 0.625888
#
# Coordination Sequence:
#
# PCOD9443284 Si02
#       6
#     8   8   8   8   8   8
#     4   9  20  37  56  81 114 146 185 233 283 338
#     4  10  21  37  59  84 113 149 189 235 285 339
#     4  10  21  36  59  85 110 148 190 230 280 333
#     4   9  19  36  54  81 115 143 182 234 279 331
#     4   9  19  36  56  80 114 148 182 231 280 331
#     4  10  20  35  58  82 112 149 188 228 284 336
#
# _framework density 24.158355
#
# number of rings (size 3 to 8) (size 9 to 14) (size 15 to 20)
#    0.000    2.500    0.000    1.000    2.333    6.333 
#    0.000    6.667    0.000    0.000    0.000    0.000 
#    0.000    0.000    0.000    0.000    0.000    0.000 
#
# Total GULP energy -267600.410349 kJ/mol
# GULP energy per Si atom -5575.008549 kJ/mol
# Density = 2.410337 g / cm^3
# Si number density = 24.158355 Si / 1000 Ang^3
#
#
#
# Elastic Constant Matrix: (Units=GPa)
#
#
# Indices 1 2 3 4 5 6 
#
# 1 30.2720 -11.0663 8.8123 0.0000 0.0000 0.0000
# 2 -11.0663 81.8907 43.0728 0.0000 0.0000 0.0000
# 3 8.8123 43.0728 188.9250 0.0000 0.0000 0.0000
# 4 0.0000 0.0000 0.0000 30.0956 0.0000 0.0000
# 5 0.0000 0.0000 0.0000 0.0000 23.9169 0.0000
# 6 0.0000 0.0000 0.0000 0.0000 0.0000 36.2697
#
#
#
# Elastic Compliance Matrix: (Units=1/GPa)
#
#
# Indices 1 2 3 4 5 6 
#
# 1 0.036379 0.006600 -0.003202 0.000000 0.000000 0.000000
# 2 0.006600 0.015073 -0.003744 0.000000 0.000000 0.000000
# 3 -0.003202 -0.003744 0.006296 0.000000 0.000000 0.000000
# 4 0.000000 0.000000 0.000000 0.033227 0.000000 0.000000
# 5 0.000000 0.000000 0.000000 0.000000 0.041812 0.000000
# 6 0.000000 0.000000 0.000000 0.000000 0.000000 0.027571
#
#
# Mechanical properties :
#
#
# Convention : Reuss Voigt Hill
#
# Bulk Modulus (GPa) = 17.52674 42.52503 30.02589
# Shear Modulus (GPa) = 27.76732 35.40769 31.58751
#
# Velocity S-wave (km/s) = 3.39394 3.83253 3.61989
# Velocity P-wave (km/s) = 4.75701 6.10125 5.47058
#
# Compressibility (1/GPa) = 0.05705567
#
# Stress axis : x y z
#
# Youngs Moduli (GPa) = 27.48870 66.34516 158.82864
#
# Poissons Ratio (x) = -0.43788 0.50850
# Poissons Ratio (y) = -0.18143 0.59470
# Poissons Ratio (z) = 0.08801 0.24841
#
# Static dielectric constant tensor:
#      x y z
#    x 1.974090 0.000000 0.000000 
#    y 0.000000 1.990100 0.000000 
#    z 0.000000 0.000000 1.944500 
# 
# From -- ./inp_files/3014.got.cif
#   From: 2010.05.17/outbox.cif.g08.bks.cpg/sg58_2_cif.got.tgz:3014.got - 2010.06.03 14:20:14.
