data_PCOD9443251
_publ_section_title
;
Structure prediction by ZEFSAII (Michael W. Deem and Ramdas Pophale) SiO2 
 PCOD9443251
Probable space group: P N N M
;
_chemical_formula_sum "Si O2"
_cell_formula_units_Z 64
_cell_length_a 17.042552
_cell_length_b 17.042535
_cell_length_c 12.799403
_cell_angle_alpha 90.000000
_cell_angle_beta 90.000000
_cell_angle_gamma 90.000000
_cell_volume 3717.564701
_symmetry_space_group_name_H-M "P N N M"
_symmetry_group_IT_number 58
_symmetry_cell_setting 'orthorhombic'
loop_
_space_group_symop_operation_xyz
x,y,z
-x,-y,z
1/2+x,1/2-y,1/2-z
1/2-x,1/2+y,1/2-z
-x,-y,-z
x,y,-z
1/2-x,1/2+y,1/2+z
1/2+x,1/2-y,1/2+z
loop_
_atom_site_type_symbol
_atom_site_label
_atom_site_fract_x
_atom_site_fract_y
_atom_site_fract_z
Si Si1 0.735648 0.235648 0.623912
Si Si2 0.826578 0.894302 0.229535
Si Si3 0.471846 0.590555 0.881592
Si Si4 0.394302 0.326578 0.229535
Si Si5 0.602910 0.102910 0.623122
Si Si6 0.054283 0.686221 0.877616
Si Si7 0.090555 0.971846 0.118408
Si Si8 0.686221 0.945717 0.377616
O O1 0.748852 0.248852 0.500000
O O2 0.704420 0.314093 0.679667
O O3 0.814093 0.204421 0.679668
O O4 0.669035 0.169035 0.633881
O O5 0.904216 0.886486 0.300724
O O6 0.760449 0.930644 0.304823
O O7 0.853271 0.954656 0.140131
O O8 0.500000 0.500000 0.867576
O O9 0.545344 0.646729 0.859869
O O10 0.443192 0.597851 0.000000
O O11 0.430644 0.260449 0.304823
O O12 0.386486 0.404216 0.300724
O O13 0.588311 0.088310 0.500000
O O14 0.520753 0.136979 0.662470
O O15 0.636979 0.020753 0.662470
O O16 0.129427 0.629427 0.875283
O O17 0.040457 0.708802 0.000000
O O18 0.097852 0.943192 0.000000
O O19 0.000000 0.000000 0.132424
O O20 0.708802 0.959543 0.500000
#
# Coordination Sequence:
#
# PCOD9443251 Si02
#       8
#     8   8   8   8   8   8   8   8
#     4  11  24  37  57  87 117 150 190 241 289 344
#     4  12  20  40  56  85 119 153 191 236 292 348
#     4  11  23  38  60  86 115 154 198 240 288 352
#     4  12  20  40  56  85 119 153 191 236 292 348
#     4   9  19  34  55  81 108 142 181 228 283 335
#     4  10  20  35  57  84 115 147 188 236 286 341
#     4  11  23  38  60  86 115 154 198 240 288 352
#     4  10  20  35  57  84 115 147 188 236 286 341
#
# _framework density 17.21557
#
# number of rings (size 3 to 8) (size 9 to 14) (size 15 to 20)
#    0.000    1.250    3.750    3.375    0.000    1.500 
#    0.000    0.000    0.000    0.000    0.000    3.500 
#    0.000    0.000    0.000    0.000    0.000    0.000 
#
# Total GULP energy -357262.296631 kJ/mol
# GULP energy per Si atom -5582.223385 kJ/mol
# Density = 1.717639 g / cm^3
# Si number density = 17.215570 Si / 1000 Ang^3
#
#
#
# Elastic Constant Matrix: (Units=GPa)
#
#
# Indices 1 2 3 4 5 6 
#
# 1 79.9639 26.7834 22.1692 0.0000 0.0000 0.0000
# 2 26.7834 79.9630 22.1690 0.0000 0.0000 0.0000
# 3 22.1692 22.1690 75.2669 0.0000 0.0000 0.0000
# 4 0.0000 0.0000 0.0000 22.2665 0.0000 0.0000
# 5 0.0000 0.0000 0.0000 0.0000 22.2664 0.0000
# 6 0.0000 0.0000 0.0000 0.0000 0.0000 33.8271
#
#
#
# Elastic Compliance Matrix: (Units=1/GPa)
#
#
# Indices 1 2 3 4 5 6 
#
# 1 0.014739 -0.004065 -0.003144 0.000000 0.000000 0.000000
# 2 -0.004065 0.014739 -0.003144 0.000000 0.000000 0.000000
# 3 -0.003144 -0.003144 0.015138 0.000000 0.000000 0.000000
# 4 0.000000 0.000000 0.000000 0.044910 0.000000 0.000000
# 5 0.000000 0.000000 0.000000 0.000000 0.044911 0.000000
# 6 0.000000 0.000000 0.000000 0.000000 0.000000 0.029562
#
#
# Mechanical properties :
#
#
# Convention : Reuss Voigt Hill
#
# Bulk Modulus (GPa) = 41.82319 41.93745 41.88032
# Shear Modulus (GPa) = 25.95045 26.61015 26.28030
#
# Velocity S-wave (km/s) = 3.88671 3.93581 3.91134
# Velocity P-wave (km/s) = 6.66998 6.71321 6.69163
#
# Compressibility (1/GPa) = 0.02391018
#
# Stress axis : x y z
#
# Youngs Moduli (GPa) = 67.84793 67.84716 66.05874
#
# Poissons Ratio (x) = 0.27581 0.20768
# Poissons Ratio (y) = 0.27581 0.20768
# Poissons Ratio (z) = 0.21330 0.21330
#
# Static dielectric constant tensor:
#      x y z
#    x 1.579640 0.000000 0.000000 
#    y 0.000000 1.579640 0.000000 
#    z 0.000000 0.000000 1.577360 
# 
# From -- ./inp_files/15919.got.cif
#   From: 2010.05.17/outbox.cif.g08.bks.cpg/sg58_8_cif.got.tgz:15919.got - 2010.06.03 14:20:14.
