data_PCOD9443540
_publ_section_title
;
Structure prediction by ZEFSAII (Michael W. Deem and Ramdas Pophale) SiO2 
 PCOD9443540
Probable space group: P N N M
;
_chemical_formula_sum "Si O2"
_cell_formula_units_Z 40
_cell_length_a 19.334530
_cell_length_b 12.709222
_cell_length_c 8.084070
_cell_angle_alpha 90.000000
_cell_angle_beta 90.000000
_cell_angle_gamma 90.000000
_cell_volume 1986.472927
_symmetry_space_group_name_H-M "P N N M"
_symmetry_group_IT_number 58
_symmetry_cell_setting 'orthorhombic'
loop_
_space_group_symop_operation_xyz
x,y,z
-x,-y,z
1/2+x,1/2-y,1/2-z
1/2-x,1/2+y,1/2-z
-x,-y,-z
x,y,-z
1/2-x,1/2+y,1/2+z
1/2+x,1/2-y,1/2+z
loop_
_atom_site_type_symbol
_atom_site_label
_atom_site_fract_x
_atom_site_fract_y
_atom_site_fract_z
Si Si1 0.815677 0.103081 0.300786
Si Si2 0.163733 0.457595 0.199668
Si Si3 0.453712 0.797840 0.300270
Si Si4 0.930534 0.939806 0.199957
Si Si5 0.112183 0.683045 0.697673
O O1 0.812721 0.110409 0.500000
O O2 0.737792 0.084401 0.239834
O O3 0.851123 0.210576 0.238061
O O4 0.864457 0.005343 0.256319
O O5 0.100431 0.385048 0.260251
O O6 0.150834 0.578012 0.246380
O O7 0.164050 0.451286 0.000000
O O8 0.450772 0.797570 0.500000
O O9 0.433081 0.680771 0.242577
O O10 0.532506 0.820471 0.252646
O O11 0.931095 0.939200 0.000000
O O12 0.000000 0.000000 0.256202
O O13 0.113379 0.686952 0.500000
#
# Coordination Sequence:
#
# PCOD9443540 Si02
#       5
#     8   8   8   8   8
#     4  10  23  40  58  85 120 155 191 242 300 346
#     4  10  23  41  60  83 117 159 197 235 292 356
#     4  10  21  39  63  87 116 155 198 240 288 350
#     4  10  20  36  61  89 115 151 199 242 284 344
#     4  11  23  39  61  88 120 152 193 246 294 341
#
# _framework density 20.136191
#
# number of rings (size 3 to 8) (size 9 to 14) (size 15 to 20)
#    0.000    1.800    2.000    1.200    2.800    6.000 
#    0.000    0.000    0.000    0.000    0.000    0.000 
#    0.000    0.000    0.000    0.000    0.000    0.000 
#
# Total GULP energy -223530.594854 kJ/mol
# GULP energy per Si atom -5588.264871 kJ/mol
# Density = 2.009036 g / cm^3
# Si number density = 20.136191 Si / 1000 Ang^3
#
#
#
# Elastic Constant Matrix: (Units=GPa)
#
#
# Indices 1 2 3 4 5 6 
#
# 1 165.6603 51.0458 4.9767 0.0000 0.0000 0.0000
# 2 51.0458 67.7872 0.8761 0.0000 0.0000 0.0000
# 3 4.9767 0.8761 9.0063 0.0000 0.0000 0.0000
# 4 0.0000 0.0000 0.0000 75.4124 0.0000 0.0000
# 5 0.0000 0.0000 0.0000 0.0000 12.2500 0.0000
# 6 0.0000 0.0000 0.0000 0.0000 0.0000 30.9098
#
#
#
# Elastic Compliance Matrix: (Units=1/GPa)
#
#
# Indices 1 2 3 4 5 6 
#
# 1 0.007990 -0.005967 -0.003835 0.000000 0.000000 0.000000
# 2 -0.005967 0.019227 0.001427 0.000000 0.000000 0.000000
# 3 -0.003835 0.001427 0.113014 0.000000 0.000000 0.000000
# 4 0.000000 0.000000 0.000000 0.013260 0.000000 0.000000
# 5 0.000000 0.000000 0.000000 0.000000 0.081632 0.000000
# 6 0.000000 0.000000 0.000000 0.000000 0.000000 0.032352
#
#
# Mechanical properties :
#
#
# Convention : Reuss Voigt Hill
#
# Bulk Modulus (GPa) = 8.09842 39.58343 23.84092
# Shear Modulus (GPa) = 15.36632 36.08481 25.72556
#
# Velocity S-wave (km/s) = 2.76546 4.23784 3.57820
# Velocity P-wave (km/s) = 3.77194 6.60653 5.37930
#
# Compressibility (1/GPa) = 0.12348095
#
# Stress axis : x y z
#
# Youngs Moduli (GPa) = 125.14947 52.00943 8.84850
#
# Poissons Ratio (x) = 0.31037 0.03393
# Poissons Ratio (y) = 0.74683 -0.01263
# Poissons Ratio (z) = 0.47993 -0.07423
#
# Static dielectric constant tensor:
#      x y z
#    x 1.683180 0.000000 0.000000 
#    y 0.000000 1.691790 0.000000 
#    z 0.000000 0.000000 1.722160 
# 
# From -- ./inp_files/3770.got.cif
#   From: 2010.05.17/outbox.cif.g08.bks.cpg/sg58_2_cif.got.tgz:3770.got - 2010.06.03 14:20:14.
