data_PCOD9443798
_publ_section_title
;
Structure prediction by ZEFSAII (Michael W. Deem and Ramdas Pophale) SiO2 
 PCOD9443798
Probable space group: P N N M
;
_chemical_formula_sum "Si O2"
_cell_formula_units_Z 48
_cell_length_a 20.522734
_cell_length_b 14.650581
_cell_length_c 8.893017
_cell_angle_alpha 90.000000
_cell_angle_beta 90.000000
_cell_angle_gamma 90.000000
_cell_volume 2673.863215
_symmetry_space_group_name_H-M "P N N M"
_symmetry_group_IT_number 58
_symmetry_cell_setting 'orthorhombic'
loop_
_space_group_symop_operation_xyz
x,y,z
-x,-y,z
1/2+x,1/2-y,1/2-z
1/2-x,1/2+y,1/2-z
-x,-y,-z
x,y,-z
1/2-x,1/2+y,1/2+z
1/2+x,1/2-y,1/2+z
loop_
_atom_site_type_symbol
_atom_site_label
_atom_site_fract_x
_atom_site_fract_y
_atom_site_fract_z
Si Si1 0.832502 0.664147 0.180250
Si Si2 0.703669 0.781710 0.180663
Si Si3 0.920523 0.157394 0.679596
Si Si4 0.934166 0.792519 0.321119
Si Si5 0.768851 0.474357 0.180162
Si Si6 0.625687 0.475216 0.679141
O O1 0.769877 0.727189 0.218750
O O2 0.895274 0.705595 0.260091
O O3 0.813985 0.560603 0.220002
O O4 0.840928 0.669416 0.000000
O O5 0.641366 0.719888 0.219075
O O6 0.703541 0.878420 0.262714
O O7 0.703613 0.795772 0.000000
O O8 0.917103 0.138747 0.500000
O O9 0.915673 0.061852 0.765622
O O10 0.988800 0.206753 0.710723
O O11 0.925216 0.799917 0.500000
O O12 0.903579 0.881915 0.243958
O O13 0.698199 0.487098 0.254850
O O14 0.760793 0.473907 0.000000
O O15 0.628116 0.470670 0.500000
#
# Coordination Sequence:
#
# PCOD9443798 Si02
#       6
#     8   8   8   8   8   8
#     4  10  21  38  60  84 116 152 188 238 287 332
#     4  10  20  38  61  85 115 150 191 238 285 334
#     4  10  22  41  60  83 118 156 192 236 287 340
#     4  11  23  38  60  86 116 155 194 233 285 348
#     4  11  22  38  60  87 117 151 193 238 285 340
#     4  12  23  35  57  88 121 153 187 237 291 342
#
# _framework density 17.951554999999999
#
# number of rings (size 3 to 8) (size 9 to 14) (size 15 to 20)
#    0.000    1.333    3.333    3.000    0.000    5.333 
#    0.000    0.833    0.000    5.000    0.000    0.000 
#    0.000    0.000    0.000    0.000    0.000    0.000 
#
# Total GULP energy -268301.129659 kJ/mol
# GULP energy per Si atom -5589.606868 kJ/mol
# Density = 1.791070 g / cm^3
# Si number density = 17.951555 Si / 1000 Ang^3
#
#
#
# Elastic Constant Matrix: (Units=GPa)
#
#
# Indices 1 2 3 4 5 6 
#
# 1 35.4413 -11.9540 10.2031 0.0000 0.0000 0.0000
# 2 -11.9540 70.7929 18.3132 0.0000 0.0000 0.0000
# 3 10.2031 18.3132 33.9732 0.0000 0.0000 0.0000
# 4 0.0000 0.0000 0.0000 8.9595 0.0000 0.0000
# 5 0.0000 0.0000 0.0000 0.0000 26.3572 0.0000
# 6 0.0000 0.0000 0.0000 0.0000 0.0000 24.0893
#
#
#
# Elastic Compliance Matrix: (Units=1/GPa)
#
#
# Indices 1 2 3 4 5 6 
#
# 1 0.036528 0.010465 -0.016612 0.000000 0.000000 0.000000
# 2 0.010465 0.019413 -0.013608 0.000000 0.000000 0.000000
# 3 -0.016612 -0.013608 0.041759 0.000000 0.000000 0.000000
# 4 0.000000 0.000000 0.000000 0.111613 0.000000 0.000000
# 5 0.000000 0.000000 0.000000 0.000000 0.037940 0.000000
# 6 0.000000 0.000000 0.000000 0.000000 0.000000 0.041512
#
#
# Mechanical properties :
#
#
# Convention : Reuss Voigt Hill
#
# Bulk Modulus (GPa) = 17.18449 19.25910 18.22180
# Shear Modulus (GPa) = 14.38144 20.12421 17.25283
#
# Velocity S-wave (km/s) = 2.83349 3.35181 3.10349
# Velocity P-wave (km/s) = 4.50537 5.07259 4.79737
#
# Compressibility (1/GPa) = 0.05819199
#
# Stress axis : x y z
#
# Youngs Moduli (GPa) = 27.37644 51.51201 23.94693
#
# Poissons Ratio (x) = -0.53909 0.39780
# Poissons Ratio (y) = -0.28650 0.32586
# Poissons Ratio (z) = 0.45477 0.70095
#
# Static dielectric constant tensor:
#      x y z
#    x 1.605470 0.000000 0.000000 
#    y 0.000000 1.594330 0.000000 
#    z 0.000000 0.000000 1.600530 
# 
# From -- ./inp_files/5743.got.cif
#   From: 2010.05.17/outbox.cif.g08.bks.cpg/sg58_3_cif.got.tgz:5743.got - 2010.06.03 14:20:14.
