data_PCOD9443015
_publ_section_title
;
Structure prediction by ZEFSAII (Michael W. Deem and Ramdas Pophale) SiO2 
 PCOD9443015
Probable space group: P N N M
;
_chemical_formula_sum "Si O2"
_cell_formula_units_Z 48
_cell_length_a 19.505317
_cell_length_b 15.653755
_cell_length_c 8.497422
_cell_angle_alpha 90.000000
_cell_angle_beta 90.000000
_cell_angle_gamma 90.000000
_cell_volume 2594.530210
_symmetry_space_group_name_H-M "P N N M"
_symmetry_group_IT_number 58
_symmetry_cell_setting 'orthorhombic'
loop_
_space_group_symop_operation_xyz
x,y,z
-x,-y,z
1/2+x,1/2-y,1/2-z
1/2-x,1/2+y,1/2-z
-x,-y,-z
x,y,-z
1/2-x,1/2+y,1/2+z
1/2+x,1/2-y,1/2+z
loop_
_atom_site_type_symbol
_atom_site_label
_atom_site_fract_x
_atom_site_fract_y
_atom_site_fract_z
Si Si1 0.327787 0.497388 0.188526
Si Si2 0.922060 0.344149 0.690369
Si Si3 0.079003 0.344178 0.691231
Si Si4 0.926840 0.850017 0.309481
Si Si5 0.920386 0.154389 0.187134
Si Si6 0.173438 0.499211 0.309404
O O1 0.372845 0.578867 0.242461
O O2 0.366282 0.412499 0.245270
O O3 0.250782 0.501419 0.250848
O O4 0.326674 0.498371 0.000000
O O5 0.921000 0.339211 0.500000
O O6 0.905484 0.250772 0.756388
O O7 0.869748 0.417542 0.740582
O O8 0.000609 0.365483 0.736656
O O9 0.080722 0.345283 0.500000
O O10 0.092656 0.246455 0.740466
O O11 0.132933 0.414551 0.745930
O O12 0.929951 0.850816 0.500000
O O13 0.003247 0.867913 0.248013
O O14 0.919562 0.151033 0.000000
O O15 0.173705 0.498202 0.500000
#
# Coordination Sequence:
#
# PCOD9443015 Si02
#       6
#     8   8   8   8   8   8
#     4  11  23  37  53  77 112 150 182 217 269 328
#     4   9  18  35  58  82 109 142 180 220 266 321
#     4   8  15  32  58  83 105 136 178 218 261 318
#     4   9  19  37  59  79 103 139 180 220 268 327
#     4  11  22  36  57  82 106 136 180 231 275 316
#     4  10  20  34  55  83 113 145 180 219 263 317
#
# _framework density 18.500458999999999
#
# number of rings (size 3 to 8) (size 9 to 14) (size 15 to 20)
#    0.000    2.333    0.000    4.000    0.000    7.333 
#    0.000    5.000    0.000    5.000    0.000    0.000 
#    0.000    0.000    0.000    0.000    0.000    0.000 
#
# Total GULP energy -267966.912384 kJ/mol
# GULP energy per Si atom -5582.644008 kJ/mol
# Density = 1.845835 g / cm^3
# Si number density = 18.500459 Si / 1000 Ang^3
#
#
#
# Elastic Constant Matrix: (Units=GPa)
#
#
# Indices 1 2 3 4 5 6 
#
# 1 148.2823 113.6911 25.9034 0.0000 0.0000 0.0000
# 2 113.6911 128.0097 26.5133 0.0000 0.0000 0.0000
# 3 25.9034 26.5133 21.4524 0.0000 0.0000 0.0000
# 4 0.0000 0.0000 0.0000 13.6090 0.0000 0.0000
# 5 0.0000 0.0000 0.0000 0.0000 30.5391 0.0000
# 6 0.0000 0.0000 0.0000 0.0000 0.0000 -78.9713
#
#
#
# Elastic Compliance Matrix: (Units=1/GPa)
#
#
# Indices 1 2 3 4 5 6 
#
# 1 0.021295 -0.018262 -0.003143 0.000000 0.000000 0.000000
# 2 -0.018262 0.026160 -0.010281 0.000000 0.000000 0.000000
# 3 -0.003143 -0.010281 0.063117 0.000000 0.000000 0.000000
# 4 0.000000 0.000000 0.000000 0.073481 0.000000 0.000000
# 5 0.000000 0.000000 0.000000 0.000000 0.032745 0.000000
# 6 0.000000 0.000000 0.000000 0.000000 0.000000 -0.012663
#
#
# Mechanical properties :
#
#
# Convention : Reuss Voigt Hill
#
# Bulk Modulus (GPa) = 21.18659 69.99558 45.59109
# Shear Modulus (GPa) = 17.65291 1.81114 9.73202
#
# Velocity S-wave (km/s) = 3.09234 0.99050 2.29605
# Velocity P-wave (km/s) = 4.92208 6.26297 5.63257
#
# Compressibility (1/GPa) = 0.04719966
#
# Stress axis : x y z
#
# Youngs Moduli (GPa) = 46.96038 38.22573 15.84370
#
# Poissons Ratio (x) = 0.69807 0.04980
# Poissons Ratio (y) = 0.85758 0.16289
# Poissons Ratio (z) = 0.14759 0.39301
#
# Static dielectric constant tensor:
#      x y z
#    x 1.601780 0.000000 0.000000 
#    y 0.000000 1.636620 0.000000 
#    z 0.000000 0.000000 1.635240 
# 
# From -- ./inp_files/5879.got.cif
#   From: 2010.05.17/outbox.cif.g08.bks.cpg/sg58_3_cif.got.tgz:5879.got - 2010.06.03 14:20:14.
