data_PCOD9443983
_publ_section_title
;
Structure prediction by ZEFSAII (Michael W. Deem and Ramdas Pophale) SiO2 
 PCOD9443983
Probable space group: P N N M
;
_chemical_formula_sum "Si O2"
_cell_formula_units_Z 48
_cell_length_a 9.693799
_cell_length_b 23.662708
_cell_length_c 11.231739
_cell_angle_alpha 90.000000
_cell_angle_beta 90.000000
_cell_angle_gamma 90.000000
_cell_volume 2576.353534
_symmetry_space_group_name_H-M "P N N M"
_symmetry_group_IT_number 58
_symmetry_cell_setting 'orthorhombic'
loop_
_space_group_symop_operation_xyz
x,y,z
-x,-y,z
1/2+x,1/2-y,1/2-z
1/2-x,1/2+y,1/2-z
-x,-y,-z
x,y,-z
1/2-x,1/2+y,1/2+z
1/2+x,1/2-y,1/2+z
loop_
_atom_site_type_symbol
_atom_site_label
_atom_site_fract_x
_atom_site_fract_y
_atom_site_fract_z
Si Si1 0.424200 0.556783 0.639848
Si Si2 0.410242 0.838911 0.858453
Si Si3 0.591239 0.295189 0.140299
Si Si4 0.861695 0.125303 0.275779
Si Si5 0.682393 0.882859 0.267540
Si Si6 0.617547 0.952728 0.500000
Si Si7 0.867247 0.039702 0.500000
O O1 0.500000 0.500000 0.680686
O O2 0.398122 0.553271 0.500000
O O3 0.536497 0.603851 0.672055
O O4 0.283004 0.571314 0.706091
O O5 0.402822 0.771436 0.837850
O O6 0.287990 0.865446 0.779606
O O7 0.557663 0.862392 0.815249
O O8 0.391395 0.849360 0.000000
O O9 0.441626 0.319300 0.177368
O O10 0.714272 0.330949 0.201238
O O11 0.607216 0.305563 0.000000
O O12 0.861184 0.080352 0.384254
O O13 0.620755 0.912109 0.385257
O O14 0.500000 0.000000 0.500000
O O15 0.750027 0.992734 0.500000
O O16 0.000000 0.000000 0.500000
#
# Coordination Sequence:
#
# PCOD9443983 Si02
#       7
#     8   8   8   8   8   4   4
#     4  10  21  37  60  86 117 159 207 248 298 369
#     4  11  24  39  60  87 124 166 205 251 311 367
#     4  10  20  40  62  89 118 159 207 259 308 368
#     4  11  21  38  62  89 123 153 205 259 307 366
#     4  11  22  40  62  87 125 161 204 258 310 372
#     4  12  24  38  60  90 126 156 198 248 319 370
#     4  12  22  38  66  94 116 156 204 262 312 360
#
# _framework density 18.630984000000002
#
# number of rings (size 3 to 8) (size 9 to 14) (size 15 to 20)
#    0.000    1.167    1.667    6.500    0.000    0.000 
#    0.000    0.000    7.333    5.000    0.000    0.000 
#    0.000    0.000    0.000    0.000    0.000    0.000 
#
# Total GULP energy -268008.922426 kJ/mol
# GULP energy per Si atom -5583.519217 kJ/mol
# Density = 1.858858 g / cm^3
# Si number density = 18.630984 Si / 1000 Ang^3
#
#
#
# Elastic Constant Matrix: (Units=GPa)
#
#
# Indices 1 2 3 4 5 6 
#
# 1 136.9665 51.7962 57.1666 0.0000 0.0000 0.0000
# 2 51.7962 83.7799 61.8594 0.0000 0.0000 0.0000
# 3 57.1666 61.8594 106.7814 0.0000 0.0000 0.0000
# 4 0.0000 0.0000 0.0000 21.7217 0.0000 0.0000
# 5 0.0000 0.0000 0.0000 0.0000 88.0636 0.0000
# 6 0.0000 0.0000 0.0000 0.0000 0.0000 31.7739
#
#
#
# Elastic Compliance Matrix: (Units=1/GPa)
#
#
# Indices 1 2 3 4 5 6 
#
# 1 0.010092 -0.003932 -0.003125 0.000000 0.000000 0.000000
# 2 -0.003932 0.022389 -0.010865 0.000000 0.000000 0.000000
# 3 -0.003125 -0.010865 0.017332 0.000000 0.000000 0.000000
# 4 0.000000 0.000000 0.000000 0.046037 0.000000 0.000000
# 5 0.000000 0.000000 0.000000 0.000000 0.011355 0.000000
# 6 0.000000 0.000000 0.000000 0.000000 0.000000 0.031472
#
#
# Mechanical properties :
#
#
# Convention : Reuss Voigt Hill
#
# Bulk Modulus (GPa) = 71.58652 74.35248 72.96950
# Shear Modulus (GPa) = 27.90479 38.75887 33.33183
#
# Velocity S-wave (km/s) = 3.87429 4.56603 4.23431
# Velocity P-wave (km/s) = 7.64986 8.23364 7.94711
#
# Compressibility (1/GPa) = 0.01396911
#
# Stress axis : x y z
#
# Youngs Moduli (GPa) = 99.08432 44.66388 57.69528
#
# Poissons Ratio (x) = 0.17562 0.18031
# Poissons Ratio (y) = 0.38960 0.62688
# Poissons Ratio (z) = 0.30966 0.48529
#
# Static dielectric constant tensor:
#      x y z
#    x 1.597490 0.000000 0.000000 
#    y 0.000000 1.657140 0.000000 
#    z 0.000000 0.000000 1.650350 
# 
# From -- ./inp_files/13105.got.cif
#   From: 2010.05.17/outbox.cif.g08.bks.cpg/sg58_7_cif.got.tgz:13105.got - 2010.06.03 14:20:14.
