data_PCOD9443264
_publ_section_title
;
Structure prediction by ZEFSAII (Michael W. Deem and Ramdas Pophale) SiO2 
 PCOD9443264
Probable space group: P N N M
;
_chemical_formula_sum "Si O2"
_cell_formula_units_Z 58
_cell_length_a 28.381737
_cell_length_b 10.969763
_cell_length_c 8.601121
_cell_angle_alpha 90.000000
_cell_angle_beta 90.000000
_cell_angle_gamma 90.000000
_cell_volume 2677.880998
_symmetry_space_group_name_H-M "P N N M"
_symmetry_group_IT_number 58
_symmetry_cell_setting 'orthorhombic'
loop_
_space_group_symop_operation_xyz
x,y,z
-x,-y,z
1/2+x,1/2-y,1/2-z
1/2-x,1/2+y,1/2-z
-x,-y,-z
x,y,-z
1/2-x,1/2+y,1/2+z
1/2+x,1/2-y,1/2+z
loop_
_atom_site_type_symbol
_atom_site_label
_atom_site_fract_x
_atom_site_fract_y
_atom_site_fract_z
Si Si1 0.860358 0.996038 0.315114
Si Si2 0.053317 0.871979 0.819419
Si Si3 0.703608 0.721575 0.813353
Si Si4 0.469556 0.758604 0.831269
Si Si5 0.106771 0.404464 0.823024
Si Si6 0.691277 0.263752 0.684684
Si Si7 0.500000 0.000000 0.000000
Si Si8 0.389631 0.153683 0.180534
O O1 0.864814 0.008903 0.500000
O O2 0.911354 0.024407 0.242448
O O3 0.823538 0.100567 0.258209
O O4 0.836911 0.869666 0.270260
O O5 0.082823 0.747130 0.788904
O O6 0.005411 0.843316 0.727671
O O7 0.043591 0.889505 0.000000
O O8 0.755862 0.745383 0.753236
O O9 0.665914 0.828785 0.786615
O O10 0.708724 0.708244 0.000000
O O11 0.428657 0.794191 0.712841
O O12 0.495785 0.888349 0.868026
O O13 0.448945 0.723069 0.000000
O O14 0.159669 0.356797 0.800886
O O15 0.096944 0.514609 0.706395
O O16 0.100737 0.446582 0.000000
O O17 0.693065 0.293634 0.500000
O O18 0.398163 0.188246 0.000000
#
# Coordination Sequence:
#
# PCOD9443264 Si02
#       8
#     8   8   8   8   8   8   2   8
#     4  10  21  39  62  87 116 154 203 245 291 354
#     4  11  21  36  61  89 118 153 194 243 297 352
#     4   8  18  37  59  83 113 154 192 243 295 348
#     4  10  20  36  58  83 117 154 196 237 295 352
#     4  11  23  36  55  86 123 160 196 246 302 355
#     4  10  22  40  59  82 120 158 198 246 300 347
#     4   8  20  32  58  84 110 160 182 244 288 342
#     4  10  20  35  57  85 120 154 198 241 292 353
#
# _framework density 21.658916000000001
#
# number of rings (size 3 to 8) (size 9 to 14) (size 15 to 20)
#    0.414    1.655    0.000    4.552    3.862    1.103 
#    0.000    6.207    0.000    4.138    0.000    0.000 
#    0.000    0.000    0.000    0.000    0.000    0.000 
#
# Total GULP energy -323416.727675 kJ/mol
# GULP energy per Si atom -5576.150477 kJ/mol
# Density = 2.160962 g / cm^3
# Si number density = 21.658916 Si / 1000 Ang^3
#
#
#
# Elastic Constant Matrix: (Units=GPa)
#
#
# Indices 1 2 3 4 5 6 
#
# 1 93.5475 12.9296 3.2776 0.0000 0.0000 0.0000
# 2 12.9296 53.0829 9.9903 0.0000 0.0000 0.0000
# 3 3.2776 9.9903 47.5616 0.0000 0.0000 0.0000
# 4 0.0000 0.0000 0.0000 16.9873 0.0000 0.0000
# 5 0.0000 0.0000 0.0000 0.0000 20.6025 0.0000
# 6 0.0000 0.0000 0.0000 0.0000 0.0000 26.7718
#
#
#
# Elastic Compliance Matrix: (Units=1/GPa)
#
#
# Indices 1 2 3 4 5 6 
#
# 1 0.011064 -0.002656 -0.000204 0.000000 0.000000 0.000000
# 2 -0.002656 0.020252 -0.004071 0.000000 0.000000 0.000000
# 3 -0.000204 -0.004071 0.021895 0.000000 0.000000 0.000000
# 4 0.000000 0.000000 0.000000 0.058868 0.000000 0.000000
# 5 0.000000 0.000000 0.000000 0.000000 0.048538 0.000000
# 6 0.000000 0.000000 0.000000 0.000000 0.000000 0.037353
#
#
# Mechanical properties :
#
#
# Convention : Reuss Voigt Hill
#
# Bulk Modulus (GPa) = 25.41502 27.39857 26.40680
# Shear Modulus (GPa) = 22.22742 24.07195 23.14969
#
# Velocity S-wave (km/s) = 3.20699 3.33740 3.27284
# Velocity P-wave (km/s) = 5.04705 5.24676 5.14787
#
# Compressibility (1/GPa) = 0.03934681
#
# Stress axis : x y z
#
# Youngs Moduli (GPa) = 90.38262 49.37871 45.67351
#
# Poissons Ratio (x) = 0.13117 0.00934
# Poissons Ratio (y) = 0.24010 0.18593
# Poissons Ratio (z) = 0.01848 0.20101
#
# Static dielectric constant tensor:
#      x y z
#    x 1.836240 0.000000 0.000000 
#    y 0.000000 1.780310 0.000000 
#    z 0.000000 0.000000 1.735750 
# 
# From -- ./inp_files/10416.got.cif
#   From: 2010.05.17/outbox.cif.g08.bks.cpg/sg58_6_cif.got.tgz:10416.got - 2010.06.03 14:20:14.
