data_PCOD9443803
_publ_section_title
;
Structure prediction by ZEFSAII (Michael W. Deem and Ramdas Pophale) SiO2 
 PCOD9443803
Probable space group: P N N M
;
_chemical_formula_sum "Si O2"
_cell_formula_units_Z 48
_cell_length_a 20.527239
_cell_length_b 14.645981
_cell_length_c 8.911437
_cell_angle_alpha 90.000000
_cell_angle_beta 90.000000
_cell_angle_gamma 90.000000
_cell_volume 2679.148254
_symmetry_space_group_name_H-M "P N N M"
_symmetry_group_IT_number 58
_symmetry_cell_setting 'orthorhombic'
loop_
_space_group_symop_operation_xyz
x,y,z
-x,-y,z
1/2+x,1/2-y,1/2-z
1/2-x,1/2+y,1/2-z
-x,-y,-z
x,y,-z
1/2-x,1/2+y,1/2+z
1/2+x,1/2-y,1/2+z
loop_
_atom_site_type_symbol
_atom_site_label
_atom_site_fract_x
_atom_site_fract_y
_atom_site_fract_z
Si Si1 0.877278 0.473876 0.820972
Si Si2 0.292971 0.728065 0.679094
Si Si3 0.563871 0.790710 0.178390
Si Si4 0.171011 0.831863 0.821228
Si Si5 0.572185 0.172362 0.320084
Si Si6 0.764007 0.980221 0.178710
O O1 0.904937 0.384694 0.740542
O O2 0.917769 0.565253 0.784682
O O3 0.803206 0.489698 0.768624
O O4 0.879571 0.460352 0.000000
O O5 0.282610 0.741996 0.500000
O O6 0.233143 0.773455 0.766099
O O7 0.361050 0.775559 0.719070
O O8 0.293047 0.619840 0.707477
O O9 0.607689 0.708892 0.242314
O O10 0.490237 0.788201 0.237241
O O11 0.566375 0.791016 0.000000
O O12 0.187800 0.936831 0.784675
O O13 0.164060 0.822689 0.000000
O O14 0.562937 0.179817 0.500000
O O15 0.749285 0.986126 0.000000
#
# Coordination Sequence:
#
# PCOD9443803 Si02
#       6
#     8   8   8   8   8   8
#     4  11  21  35  59  90 120 152 188 238 298 352
#     4  10  20  38  61  86 116 153 192 238 291 345
#     4  12  25  39  57  83 118 159 199 242 294 346
#     4  11  22  37  59  87 118 154 195 238 288 345
#     4  10  22  39  59  85 119 155 194 238 295 355
#     4  10  21  36  59  90 120 150 191 238 286 346
#
# _framework density 17.916141
#
# number of rings (size 3 to 8) (size 9 to 14) (size 15 to 20)
#    0.000    1.333    3.333    3.000    0.000    4.667 
#    0.000    0.833    0.000    5.000    0.000    0.000 
#    0.000    0.000    0.000    0.000    0.000    0.000 
#
# Total GULP energy -268302.715350 kJ/mol
# GULP energy per Si atom -5589.639903 kJ/mol
# Density = 1.787536 g / cm^3
# Si number density = 17.916141 Si / 1000 Ang^3
#
#
#
# Elastic Constant Matrix: (Units=GPa)
#
#
# Indices 1 2 3 4 5 6 
#
# 1 41.2013 -8.0850 14.3079 0.0000 0.0000 0.0000
# 2 -8.0850 64.0126 16.4835 0.0000 0.0000 0.0000
# 3 14.3079 16.4835 39.7558 0.0000 0.0000 0.0000
# 4 0.0000 0.0000 0.0000 20.8370 0.0000 0.0000
# 5 0.0000 0.0000 0.0000 0.0000 33.9190 0.0000
# 6 0.0000 0.0000 0.0000 0.0000 0.0000 25.5212
#
#
#
# Elastic Compliance Matrix: (Units=1/GPa)
#
#
# Indices 1 2 3 4 5 6 
#
# 1 0.030660 0.007516 -0.014151 0.000000 0.000000 0.000000
# 2 0.007516 0.019332 -0.010720 0.000000 0.000000 0.000000
# 3 -0.014151 -0.010720 0.034691 0.000000 0.000000 0.000000
# 4 0.000000 0.000000 0.000000 0.047992 0.000000 0.000000
# 5 0.000000 0.000000 0.000000 0.000000 0.029482 0.000000
# 6 0.000000 0.000000 0.000000 0.000000 0.000000 0.039183
#
#
# Mechanical properties :
#
#
# Convention : Reuss Voigt Hill
#
# Bulk Modulus (GPa) = 20.01064 21.15361 20.58213
# Shear Modulus (GPa) = 19.78572 24.20633 21.99602
#
# Velocity S-wave (km/s) = 3.32678 3.67971 3.50769
# Velocity P-wave (km/s) = 5.09411 5.46684 5.28376
#
# Compressibility (1/GPa) = 0.04997341
#
# Stress axis : x y z
#
# Youngs Moduli (GPa) = 32.61561 51.72824 28.82572
#
# Poissons Ratio (x) = -0.38881 0.40791
# Poissons Ratio (y) = -0.24515 0.30902
# Poissons Ratio (z) = 0.46154 0.55455
#
# Static dielectric constant tensor:
#      x y z
#    x 1.585250 0.000000 0.000000 
#    y 0.000000 1.609760 0.000000 
#    z 0.000000 0.000000 1.598000 
# 
# From -- ./inp_files/5739.got.cif
#   From: 2010.05.17/outbox.cif.g08.bks.cpg/sg58_3_cif.got.tgz:5739.got - 2010.06.03 14:20:14.
