data_PCOD9443961
_publ_section_title
;
Structure prediction by ZEFSAII (Michael W. Deem and Ramdas Pophale) SiO2 
 PCOD9443961
Probable space group: P N N M
;
_chemical_formula_sum "Si O2"
_cell_formula_units_Z 48
_cell_length_a 17.802522
_cell_length_b 14.387061
_cell_length_c 8.374013
_cell_angle_alpha 90.000000
_cell_angle_beta 90.000000
_cell_angle_gamma 90.000000
_cell_volume 2144.802202
_symmetry_space_group_name_H-M "P N N M"
_symmetry_group_IT_number 58
_symmetry_cell_setting 'orthorhombic'
loop_
_space_group_symop_operation_xyz
x,y,z
-x,-y,z
1/2+x,1/2-y,1/2-z
1/2-x,1/2+y,1/2-z
-x,-y,-z
x,y,-z
1/2-x,1/2+y,1/2+z
1/2+x,1/2-y,1/2+z
loop_
_atom_site_type_symbol
_atom_site_label
_atom_site_fract_x
_atom_site_fract_y
_atom_site_fract_z
Si Si1 0.244045 0.182659 0.817667
Si Si2 0.360147 0.050059 0.683044
Si Si3 0.163506 0.355792 0.687947
Si Si4 0.552882 0.634750 0.188710
Si Si5 0.509960 0.834129 0.193304
Si Si6 0.115738 0.052568 0.689815
O O1 0.324899 0.964360 0.779560
O O2 0.219570 0.286964 0.777007
O O3 0.172077 0.117105 0.785603
O O4 0.269705 0.176307 0.000000
O O5 0.364466 0.022195 0.500000
O O6 0.307643 0.139304 0.706891
O O7 0.441129 0.080051 0.747532
O O8 0.167998 0.335138 0.500000
O O9 0.077231 0.336796 0.741422
O O10 0.548610 0.738717 0.253435
O O11 0.467743 0.595947 0.199272
O O12 0.607480 0.553637 0.250416
O O13 0.570430 0.641730 0.000000
O O14 0.510785 0.833755 0.000000
O O15 0.136362 0.052975 0.500000
#
# Coordination Sequence:
#
# PCOD9443961 Si02
#       6
#     8   8   8   8   8   8
#     4  12  25  42  64  92 129 172 216 264 323 386
#     4  12  27  44  63  92 130 170 215 268 320 379
#     4  11  23  44  72  96 124 165 212 265 326 389
#     4   8  15  30  59  92 122 160 204 250 307 371
#     4  10  20  39  66  96 128 167 213 265 322 386
#     4   9  16  33  59  89 123 163 209 255 308 374
#
# _framework density 22.379686
#
# number of rings (size 3 to 8) (size 9 to 14) (size 15 to 20)
#    0.000    1.667    1.667    5.000    0.000    4.667 
#    0.000    7.500    0.000    0.000    0.000    0.000 
#    0.000    0.000    0.000    0.000    0.000    0.000 
#
# Total GULP energy -268389.135635 kJ/mol
# GULP energy per Si atom -5591.440326 kJ/mol
# Density = 2.232875 g / cm^3
# Si number density = 22.379686 Si / 1000 Ang^3
#
#
#
# Elastic Constant Matrix: (Units=GPa)
#
#
# Indices 1 2 3 4 5 6 
#
# 1 27.5371 26.7855 -8.8759 0.0000 0.0000 0.0000
# 2 26.7855 99.6412 -1.8205 0.0000 0.0000 0.0000
# 3 -8.8759 -1.8205 29.0634 0.0000 0.0000 0.0000
# 4 0.0000 0.0000 0.0000 30.3716 0.0000 0.0000
# 5 0.0000 0.0000 0.0000 0.0000 20.0128 0.0000
# 6 0.0000 0.0000 0.0000 0.0000 0.0000 28.4826
#
#
#
# Elastic Compliance Matrix: (Units=1/GPa)
#
#
# Indices 1 2 3 4 5 6 
#
# 1 0.055823 -0.014712 0.016127 0.000000 0.000000 0.000000
# 2 -0.014712 0.013925 -0.003621 0.000000 0.000000 0.000000
# 3 0.016127 -0.003621 0.039106 0.000000 0.000000 0.000000
# 4 0.000000 0.000000 0.000000 0.032925 0.000000 0.000000
# 5 0.000000 0.000000 0.000000 0.000000 0.049968 0.000000
# 6 0.000000 0.000000 0.000000 0.000000 0.000000 0.035109
#
#
# Mechanical properties :
#
#
# Convention : Reuss Voigt Hill
#
# Bulk Modulus (GPa) = 9.57467 20.93554 15.25511
# Shear Modulus (GPa) = 18.79126 25.11692 21.95409
#
# Velocity S-wave (km/s) = 2.90083 3.35372 3.13546
# Velocity P-wave (km/s) = 3.93793 4.93676 4.46536
#
# Compressibility (1/GPa) = 0.10444224
#
# Stress axis : x y z
#
# Youngs Moduli (GPa) = 17.91381 71.81521 25.57159
#
# Poissons Ratio (x) = 1.05652 -0.41239
# Poissons Ratio (y) = 0.26354 0.09259
# Poissons Ratio (z) = -0.28889 0.26002
#
# Static dielectric constant tensor:
#      x y z
#    x 1.829050 0.000000 0.000000 
#    y 0.000000 1.853810 0.000000 
#    z 0.000000 0.000000 1.758750 
# 
# From -- ./inp_files/8078.got.cif
#   From: 2010.05.17/outbox.cif.g08.bks.cpg/sg58_5_cif.got.tgz:8078.got - 2010.06.03 14:20:14.
