data_PCOD9443012
_publ_section_title
;
Structure prediction by ZEFSAII (Michael W. Deem and Ramdas Pophale) SiO2 
 PCOD9443012
Probable space group: P N N M
;
_chemical_formula_sum "Si O2"
_cell_formula_units_Z 58
_cell_length_a 24.210867
_cell_length_b 14.500801
_cell_length_c 7.593741
_cell_angle_alpha 90.000000
_cell_angle_beta 90.000000
_cell_angle_gamma 90.000000
_cell_volume 2665.987539
_symmetry_space_group_name_H-M "P N N M"
_symmetry_group_IT_number 58
_symmetry_cell_setting 'orthorhombic'
loop_
_space_group_symop_operation_xyz
x,y,z
-x,-y,z
1/2+x,1/2-y,1/2-z
1/2-x,1/2+y,1/2-z
-x,-y,-z
x,y,-z
1/2-x,1/2+y,1/2+z
1/2+x,1/2-y,1/2+z
loop_
_atom_site_type_symbol
_atom_site_label
_atom_site_fract_x
_atom_site_fract_y
_atom_site_fract_z
Si Si1 0.597241 0.060881 0.791964
Si Si2 0.881976 0.851221 0.703015
Si Si3 0.803957 0.687448 0.284860
Si Si4 0.820761 0.197864 0.213709
Si Si5 0.480376 0.777717 0.702421
Si Si6 0.913989 0.049996 0.800184
Si Si7 0.904011 0.346042 0.787434
Si Si8 0.500000 0.500000 0.000000
O O1 0.655682 0.104060 0.731114
O O2 0.548972 0.121968 0.707833
O O3 0.593651 0.952704 0.761667
O O4 0.592609 0.078566 0.000000
O O5 0.870504 0.875500 0.500000
O O6 0.835001 0.781627 0.769272
O O7 0.938829 0.792711 0.705282
O O8 0.890405 0.945889 0.802336
O O9 0.803567 0.688057 0.500000
O O10 0.741316 0.682333 0.221750
O O11 0.849077 0.293308 0.272083
O O12 0.864287 0.117645 0.253727
O O13 0.817204 0.200738 0.000000
O O14 0.483478 0.747700 0.500000
O O15 0.541551 0.791607 0.775897
O O16 0.961803 0.048163 0.656011
O O17 0.931986 0.074644 0.000000
O O18 0.906050 0.341870 0.000000
#
# Coordination Sequence:
#
# PCOD9443012 Si02
#       8
#     8   8   8   8   8   8   8   2
#     4  10  20  35  55  83 112 151 191 237 299 356
#     4  10  20  37  61  92 123 161 203 256 311 368
#     4   8  17  36  61  84 120 158 199 251 306 362
#     4   9  20  39  60  86 118 162 204 250 308 369
#     4  10  20  34  55  82 116 152 196 243 291 358
#     4  11  24  42  66  92 127 171 217 259 324 384
#     4  10  21  35  54  80 111 146 189 238 294 354
#     4  12  26  44  64  94 132 166 210 276 318 386
#
# _framework density 21.755541000000001
#
# number of rings (size 3 to 8) (size 9 to 14) (size 15 to 20)
#    0.000    2.207    0.690    2.690    1.931    3.862 
#    1.241    0.000    9.103    0.000    0.000    0.000 
#    0.000    0.000    0.000    0.000    0.000    0.000 
#
# Total GULP energy -323618.043094 kJ/mol
# GULP energy per Si atom -5579.621433 kJ/mol
# Density = 2.170602 g / cm^3
# Si number density = 21.755541 Si / 1000 Ang^3
#
#
#
# Elastic Constant Matrix: (Units=GPa)
#
#
# Indices 1 2 3 4 5 6 
#
# 1 133.0103 23.0903 19.3951 0.0000 0.0000 0.0000
# 2 23.0903 90.4661 -0.0050 0.0000 0.0000 0.0000
# 3 19.3951 -0.0050 82.2076 0.0000 0.0000 0.0000
# 4 0.0000 0.0000 0.0000 7.8998 0.0000 0.0000
# 5 0.0000 0.0000 0.0000 0.0000 18.4010 0.0000
# 6 0.0000 0.0000 0.0000 0.0000 0.0000 23.6171
#
#
#
# Elastic Compliance Matrix: (Units=1/GPa)
#
#
# Indices 1 2 3 4 5 6 
#
# 1 0.008161 -0.002083 -0.001925 0.000000 0.000000 0.000000
# 2 -0.002083 0.011586 0.000492 0.000000 0.000000 0.000000
# 3 -0.001925 0.000492 0.012619 0.000000 0.000000 0.000000
# 4 0.000000 0.000000 0.000000 0.126585 0.000000 0.000000
# 5 0.000000 0.000000 0.000000 0.000000 0.054345 0.000000
# 6 0.000000 0.000000 0.000000 0.000000 0.000000 0.042342
#
#
# Mechanical properties :
#
#
# Convention : Reuss Voigt Hill
#
# Bulk Modulus (GPa) = 39.47548 43.40496 41.44022
# Shear Modulus (GPa) = 18.44245 27.53049 22.98647
#
# Velocity S-wave (km/s) = 2.91471 3.56117 3.25403
# Velocity P-wave (km/s) = 5.43248 6.07485 5.76262
#
# Compressibility (1/GPa) = 0.02533218
#
# Stress axis : x y z
#
# Youngs Moduli (GPa) = 122.54039 86.31441 79.24801
#
# Poissons Ratio (x) = 0.17979 0.15259
# Poissons Ratio (y) = 0.25525 -0.03900
# Poissons Ratio (z) = 0.23594 -0.04248
#
# Static dielectric constant tensor:
#      x y z
#    x 1.784550 0.000000 0.000000 
#    y 0.000000 1.775890 0.000000 
#    z 0.000000 0.000000 1.825100 
# 
# From -- ./inp_files/9881.got.cif
#   From: 2010.05.17/outbox.cif.g08.bks.cpg/sg58_5_cif.got.tgz:9881.got - 2010.06.03 14:20:14.
