data_PCOD9443401
_publ_section_title
;
Structure prediction by ZEFSAII (Michael W. Deem and Ramdas Pophale) SiO2 
 PCOD9443401
Probable space group: P N N M
;
_chemical_formula_sum "Si O2"
_cell_formula_units_Z 64
_cell_length_a 8.607794
_cell_length_b 20.669511
_cell_length_c 18.595709
_cell_angle_alpha 90.000000
_cell_angle_beta 90.000000
_cell_angle_gamma 90.000000
_cell_volume 3308.527956
_symmetry_space_group_name_H-M "P N N M"
_symmetry_group_IT_number 58
_symmetry_cell_setting 'orthorhombic'
loop_
_space_group_symop_operation_xyz
x,y,z
-x,-y,z
1/2+x,1/2-y,1/2-z
1/2-x,1/2+y,1/2-z
-x,-y,-z
x,y,-z
1/2-x,1/2+y,1/2+z
1/2+x,1/2-y,1/2+z
loop_
_atom_site_type_symbol
_atom_site_label
_atom_site_fract_x
_atom_site_fract_y
_atom_site_fract_z
Si Si1 0.234631 0.622937 0.377957
Si Si2 0.326989 0.260941 0.329660
Si Si3 0.817672 0.514005 0.613293
Si Si4 0.394367 0.849330 0.917310
Si Si5 0.308847 0.627853 0.212354
Si Si6 0.859905 0.744055 0.080970
Si Si7 0.312379 0.488613 0.773369
Si Si8 0.158468 0.845723 0.315836
O O1 0.263126 0.552359 0.412206
O O2 0.314957 0.624099 0.299532
O O3 0.286426 0.684773 0.421310
O O4 0.048089 0.633294 0.371400
O O5 0.196309 0.290195 0.382154
O O6 0.298675 0.187900 0.304792
O O7 0.486950 0.256703 0.372321
O O8 0.323226 0.307473 0.259870
O O9 0.788575 0.585531 0.583877
O O10 0.773860 0.516346 0.697158
O O11 0.000000 0.500000 0.600352
O O12 0.437830 0.836958 0.000000
O O13 0.258886 0.555566 0.189702
O O14 0.473293 0.646046 0.177216
O O15 0.745254 0.695835 0.123782
O O16 0.892003 0.721230 0.000000
O O17 0.500000 0.500000 0.763182
O O18 0.284035 0.419980 0.811044
#
# Coordination Sequence:
#
# PCOD9443401 Si02
#       8
#     8   8   8   8   8   8   8   8
#     4  10  20  36  57  84 117 158 202 245 296 353
#     4  12  22  38  61  87 120 159 207 245 290 356
#     4   9  19  32  53  80 117 156 201 240 291 349
#     4  11  23  36  54  83 124 167 201 242 294 353
#     4  10  21  37  62  92 113 147 202 257 302 344
#     4  12  26  40  59  91 128 161 198 252 307 360
#     4   9  19  35  60  90 115 141 196 262 302 346
#     4  11  20  39  66  88 113 157 202 250 297 360
#
# _framework density 19.343952000000002
#
# number of rings (size 3 to 8) (size 9 to 14) (size 15 to 20)
#    0.000    1.500    3.750    1.500    1.750    3.750 
#    0.000    0.625    0.000    7.500    0.000    0.000 
#    0.000    0.000    0.000    0.000    0.000    0.000 
#
# Total GULP energy -356790.797983 kJ/mol
# GULP energy per Si atom -5574.856218 kJ/mol
# Density = 1.929992 g / cm^3
# Si number density = 19.343952 Si / 1000 Ang^3
#
#
#
# Elastic Constant Matrix: (Units=GPa)
#
#
# Indices 1 2 3 4 5 6 
#
# 1 7.4142 9.1448 -0.1295 0.0000 0.0000 0.0000
# 2 9.1448 130.8519 31.0428 0.0000 0.0000 0.0000
# 3 -0.1295 31.0428 54.2307 0.0000 0.0000 0.0000
# 4 0.0000 0.0000 0.0000 -6.8982 0.0000 0.0000
# 5 0.0000 0.0000 0.0000 0.0000 -2.4443 0.0000
# 6 0.0000 0.0000 0.0000 0.0000 0.0000 23.4275
#
#
#
# Elastic Compliance Matrix: (Units=1/GPa)
#
#
# Indices 1 2 3 4 5 6 
#
# 1 0.150099 -0.012237 0.007363 0.000000 0.000000 0.000000
# 2 -0.012237 0.009841 -0.005662 0.000000 0.000000 0.000000
# 3 0.007363 -0.005662 0.021699 0.000000 0.000000 0.000000
# 4 0.000000 0.000000 0.000000 -0.144965 0.000000 0.000000
# 5 0.000000 0.000000 0.000000 0.000000 -0.409108 0.000000
# 6 0.000000 0.000000 0.000000 0.000000 0.000000 0.042685
#
#
# Mechanical properties :
#
#
# Convention : Reuss Voigt Hill
#
# Bulk Modulus (GPa) = 6.22796 30.29031 18.25914
# Shear Modulus (GPa) = -19.59584 12.97957 -3.30813
#
# Velocity S-wave (km/s) = -3.18625 2.59316 -1.30915
# Velocity P-wave (km/s) = 3.21087 4.96576 2.67853
#
# Compressibility (1/GPa) = 0.16056617
#
# Stress axis : x y z
#
# Youngs Moduli (GPa) = 6.66228 101.61887 46.08612
#
# Poissons Ratio (x) = 1.24347 -0.33933
# Poissons Ratio (y) = 0.08152 0.26095
# Poissons Ratio (z) = -0.04905 0.57539
#
# Static dielectric constant tensor:
#      x y z
#    x 1.708140 0.000000 0.000000 
#    y 0.000000 1.731030 0.000000 
#    z 0.000000 0.000000 1.677920 
# 
# From -- ./inp_files/25638.got.cif
#   From: 2010.05.17/outbox.cif.g08.bks.cpg/sg58_13_cif.got.tgz:25638.got - 2010.06.03 14:20:14.
