data_PCOD9443959
_publ_section_title
;
Structure prediction by ZEFSAII (Michael W. Deem and Ramdas Pophale) SiO2 
 PCOD9443959
Probable space group: P N N M
;
_chemical_formula_sum "Si O2"
_cell_formula_units_Z 48
_cell_length_a 14.011774
_cell_length_b 8.061847
_cell_length_c 18.259670
_cell_angle_alpha 90.000000
_cell_angle_beta 90.000000
_cell_angle_gamma 90.000000
_cell_volume 2062.626533
_symmetry_space_group_name_H-M "P N N M"
_symmetry_group_IT_number 58
_symmetry_cell_setting 'orthorhombic'
loop_
_space_group_symop_operation_xyz
x,y,z
-x,-y,z
1/2+x,1/2-y,1/2-z
1/2-x,1/2+y,1/2-z
-x,-y,-z
x,y,-z
1/2-x,1/2+y,1/2+z
1/2+x,1/2-y,1/2+z
loop_
_atom_site_type_symbol
_atom_site_label
_atom_site_fract_x
_atom_site_fract_y
_atom_site_fract_z
Si Si1 0.975860 0.693575 0.136349
Si Si2 0.165929 0.838032 0.847520
Si Si3 0.169768 0.170605 0.418387
Si Si4 0.940841 0.658115 0.301032
Si Si5 0.758220 0.695856 0.916126
Si Si6 0.278212 0.091728 0.218061
O O1 0.982140 0.719071 0.224575
O O2 0.871195 0.715073 0.102223
O O3 0.000000 0.500000 0.123157
O O4 0.065626 0.805654 0.113107
O O5 0.250937 0.815133 0.906306
O O6 0.194804 0.694158 0.789372
O O7 0.176112 0.007412 0.800706
O O8 0.130790 0.178188 0.500000
O O9 0.087035 0.205393 0.359733
O O10 0.223470 0.994722 0.409754
O O11 0.843226 0.570104 0.275907
O O12 0.000000 0.500000 0.330354
O O13 0.702972 0.797937 0.853633
O O14 0.741339 0.748465 0.000000
#
# Coordination Sequence:
#
# PCOD9443959 Si02
#       6
#     8   8   8   8   8   8
#     4  11  20  38  64  95 124 157 209 257 316 379
#     4  11  21  38  65  93 121 161 206 259 315 381
#     4  10  21  37  60  87 121 166 208 244 306 379
#     4  10  20  39  66  94 123 156 208 262 315 373
#     4  11  24  41  60  88 127 167 208 261 315 377
#     4  11  22  38  63  88 122 161 205 259 318 382
#
# _framework density 23.2713
#
# number of rings (size 3 to 8) (size 9 to 14) (size 15 to 20)
#    0.000    1.333    5.000    3.000    0.000    4.667 
#    0.000    1.667    0.000    2.000    0.000    0.000 
#    0.000    0.000    0.000    0.000    0.000    0.000 
#
# Total GULP energy -267855.920565 kJ/mol
# GULP energy per Si atom -5580.331678 kJ/mol
# Density = 2.321833 g / cm^3
# Si number density = 23.271300 Si / 1000 Ang^3
#
#
#
# Elastic Constant Matrix: (Units=GPa)
#
#
# Indices 1 2 3 4 5 6 
#
# 1 32.5076 -12.1643 -34.5015 0.0000 0.0000 0.0000
# 2 -12.1643 31.2307 -2.8027 0.0000 0.0000 0.0000
# 3 -34.5015 -2.8027 74.8118 0.0000 0.0000 0.0000
# 4 0.0000 0.0000 0.0000 25.9000 0.0000 0.0000
# 5 0.0000 0.0000 0.0000 0.0000 15.5630 0.0000
# 6 0.0000 0.0000 0.0000 0.0000 0.0000 40.5332
#
#
#
# Elastic Compliance Matrix: (Units=1/GPa)
#
#
# Indices 1 2 3 4 5 6 
#
# 1 0.092778 0.040111 0.044290 0.000000 0.000000 0.000000
# 2 0.040111 0.049469 0.020352 0.000000 0.000000 0.000000
# 3 0.044290 0.020352 0.034555 0.000000 0.000000 0.000000
# 4 0.000000 0.000000 0.000000 0.038610 0.000000 0.000000
# 5 0.000000 0.000000 0.000000 0.000000 0.064255 0.000000
# 6 0.000000 0.000000 0.000000 0.000000 0.000000 0.024671
#
#
# Mechanical properties :
#
#
# Convention : Reuss Voigt Hill
#
# Bulk Modulus (GPa) = 2.58861 4.40147 3.49504
# Shear Modulus (GPa) = 22.36116 28.93379 25.64748
#
# Velocity S-wave (km/s) = 3.10319 3.52991 3.32340
# Velocity P-wave (km/s) = 3.73557 4.30222 4.02887
#
# Compressibility (1/GPa) = 0.38630699
#
# Stress axis : x y z
#
# Youngs Moduli (GPa) = 10.77845 20.21451 28.93967
#
# Poissons Ratio (x) = -0.81083 -1.28173
# Poissons Ratio (y) = -0.43234 -0.58897
# Poissons Ratio (z) = -0.47737 -0.41140
#
# Static dielectric constant tensor:
#      x y z
#    x 1.982710 0.000000 0.000000 
#    y 0.000000 1.912290 0.000000 
#    z 0.000000 0.000000 1.886550 
# 
# From -- ./inp_files/25301.got.cif
#   From: 2010.05.17/outbox.cif.g08.bks.cpg/sg58_13_cif.got.tgz:25301.got - 2010.06.03 14:20:14.
