data_PCOD9443507
_publ_section_title
;
Structure prediction by ZEFSAII (Michael W. Deem and Ramdas Pophale) SiO2 
 PCOD9443507
Probable space group: P N N M
;
_chemical_formula_sum "Si O2"
_cell_formula_units_Z 48
_cell_length_a 9.169573
_cell_length_b 31.646897
_cell_length_c 8.019230
_cell_angle_alpha 90.000000
_cell_angle_beta 90.000000
_cell_angle_gamma 90.000000
_cell_volume 2327.088584
_symmetry_space_group_name_H-M "P N N M"
_symmetry_group_IT_number 58
_symmetry_cell_setting 'orthorhombic'
loop_
_space_group_symop_operation_xyz
x,y,z
-x,-y,z
1/2+x,1/2-y,1/2-z
1/2-x,1/2+y,1/2-z
-x,-y,-z
x,y,-z
1/2-x,1/2+y,1/2+z
1/2+x,1/2-y,1/2+z
loop_
_atom_site_type_symbol
_atom_site_label
_atom_site_fract_x
_atom_site_fract_y
_atom_site_fract_z
Si Si1 0.061842 0.124457 0.195168
Si Si2 0.578341 0.043498 0.703951
Si Si3 0.903534 0.209797 0.202338
Si Si4 0.909432 0.039640 0.697573
Si Si5 0.108700 0.623701 0.804212
Si Si6 0.566966 0.205083 0.197782
O O1 0.234988 0.127073 0.217980
O O2 0.986031 0.167335 0.258445
O O3 0.997624 0.082758 0.279421
O O4 0.026906 0.121006 0.000000
O O5 0.580169 0.045059 0.500000
O O6 0.745138 0.044008 0.764473
O O7 0.486177 0.084123 0.759404
O O8 0.500000 0.000000 0.752029
O O9 0.734643 0.208433 0.254712
O O10 0.983993 0.251295 0.267540
O O11 0.908092 0.211422 0.000000
O O12 0.892616 0.031721 0.500000
O O13 0.000000 0.000000 0.768300
O O14 0.017063 0.666351 0.781572
O O15 0.137734 0.616839 0.000000
O O16 0.567858 0.197037 0.000000
#
# Coordination Sequence:
#
# PCOD9443507 Si02
#       6
#     8   8   8   8   8   8
#     4  11  23  39  59  84 117 153 192 239 288 339
#     4   9  18  34  57  85 114 146 188 236 282 333
#     4  10  23  41  59  83 115 151 190 232 281 338
#     4  10  20  36  60  87 115 150 193 238 286 344
#     4  11  22  37  59  85 115 150 189 233 283 340
#     4  11  23  39  60  85 114 147 186 233 282 334
#
# _framework density 20.626633000000002
#
# number of rings (size 3 to 8) (size 9 to 14) (size 15 to 20)
#    0.000    1.667    0.000    4.500    0.000    8.333 
#    0.000    0.833    0.000    3.500    0.000    0.000 
#    0.000    0.000    0.000    0.000    0.000    0.000 
#
# Total GULP energy -268395.271377 kJ/mol
# GULP energy per Si atom -5591.568154 kJ/mol
# Density = 2.057969 g / cm^3
# Si number density = 20.626633 Si / 1000 Ang^3
#
#
#
# Elastic Constant Matrix: (Units=GPa)
#
#
# Indices 1 2 3 4 5 6 
#
# 1 164.7949 67.3257 -12.5760 0.0000 0.0000 0.0000
# 2 67.3257 146.2302 -20.3776 0.0000 0.0000 0.0000
# 3 -12.5760 -20.3776 10.7536 0.0000 0.0000 0.0000
# 4 0.0000 0.0000 0.0000 25.2005 0.0000 0.0000
# 5 0.0000 0.0000 0.0000 0.0000 21.6475 0.0000
# 6 0.0000 0.0000 0.0000 0.0000 0.0000 41.2158
#
#
#
# Elastic Compliance Matrix: (Units=1/GPa)
#
#
# Indices 1 2 3 4 5 6 
#
# 1 0.007547 -0.003050 0.003046 0.000000 0.000000 0.000000
# 2 -0.003050 0.010525 0.016378 0.000000 0.000000 0.000000
# 3 0.003046 0.016378 0.127589 0.000000 0.000000 0.000000
# 4 0.000000 0.000000 0.000000 0.039682 0.000000 0.000000
# 5 0.000000 0.000000 0.000000 0.000000 0.046195 0.000000
# 6 0.000000 0.000000 0.000000 0.000000 0.000000 0.024263
#
#
# Mechanical properties :
#
#
# Convention : Reuss Voigt Hill
#
# Bulk Modulus (GPa) = 5.60516 43.39143 24.49830
# Shear Modulus (GPa) = 17.69772 36.77320 27.23546
#
# Velocity S-wave (km/s) = 2.93235 4.22690 3.63768
# Velocity P-wave (km/s) = 3.76673 6.70109 5.43566
#
# Compressibility (1/GPa) = 0.17840692
#
# Stress axis : x y z
#
# Youngs Moduli (GPa) = 132.50847 95.01099 7.83768
#
# Poissons Ratio (x) = 0.28980 -0.02387
# Poissons Ratio (y) = 0.40417 -0.12836
# Poissons Ratio (z) = -0.40359 -1.55605
#
# Static dielectric constant tensor:
#      x y z
#    x 1.701800 0.000000 0.000000 
#    y 0.000000 1.686800 0.000000 
#    z 0.000000 0.000000 1.747600 
# 
# From -- ./inp_files/2887.got.cif
#   From: 2010.05.17/outbox.cif.g08.bks.cpg/sg58_2_cif.got.tgz:2887.got - 2010.06.03 14:20:14.
