data_PCOD9443812
_publ_section_title
;
Structure prediction by ZEFSAII (Michael W. Deem and Ramdas Pophale) SiO2 
 PCOD9443812
Probable space group: P N N M
;
_chemical_formula_sum "Si O2"
_cell_formula_units_Z 58
_cell_length_a 25.111611
_cell_length_b 7.563903
_cell_length_c 12.463629
_cell_angle_alpha 90.000000
_cell_angle_beta 90.000000
_cell_angle_gamma 90.000000
_cell_volume 2367.363999
_symmetry_space_group_name_H-M "P N N M"
_symmetry_group_IT_number 58
_symmetry_cell_setting 'orthorhombic'
loop_
_space_group_symop_operation_xyz
x,y,z
-x,-y,z
1/2+x,1/2-y,1/2-z
1/2-x,1/2+y,1/2-z
-x,-y,-z
x,y,-z
1/2-x,1/2+y,1/2+z
1/2+x,1/2-y,1/2+z
loop_
_atom_site_type_symbol
_atom_site_label
_atom_site_fract_x
_atom_site_fract_y
_atom_site_fract_z
Si Si1 0.000000 0.500000 0.000000
Si Si2 0.501407 0.710921 0.885956
Si Si3 0.120896 0.765617 0.661253
Si Si4 0.225845 0.937914 0.613762
Si Si5 0.260168 0.538258 0.345892
Si Si6 0.929984 0.700474 0.190529
Si Si7 0.118098 0.933029 0.882722
Si Si8 0.845028 0.624622 0.619849
O O1 0.043236 0.422347 0.096684
O O2 0.500000 0.500000 0.876832
O O3 0.563313 0.743828 0.886518
O O4 0.473442 0.793432 0.784626
O O5 0.477940 0.768821 0.000000
O O6 0.161444 0.919399 0.625217
O O7 0.146112 0.584967 0.625137
O O8 0.112787 0.791820 0.788123
O O9 0.240802 0.014798 0.500000
O O10 0.247585 0.736959 0.617498
O O11 0.245170 0.037432 0.717490
O O12 0.320148 0.491560 0.378755
O O13 0.219185 0.383431 0.378081
O O14 0.918231 0.895006 0.140947
O O15 0.876342 0.678509 0.269649
O O16 0.104159 0.861275 0.000000
O O17 0.860875 0.692325 0.500000
#
# Coordination Sequence:
#
# PCOD9443812 Si02
#       8
#     2   8   8   8   8   8   8   8
#     4  12  28  48  68 100 148 184 238 290 328 418
#     4  11  22  40  67  98 127 165 222 284 336 399
#     4  10  21  40  61  92 123 165 222 271 334 397
#     4  10  20  38  61  89 129 173 211 274 337 401
#     4  10  21  39  66  97 129 172 225 270 342 409
#     4  12  25  46  67 101 132 184 227 275 344 402
#     4  11  22  42  65  93 133 177 226 280 330 409
#     4  11  23  43  67  98 135 172 218 283 344 411
#
# _framework density 24.499822999999999
#
# number of rings (size 3 to 8) (size 9 to 14) (size 15 to 20)
#    0.000    1.241    2.069    5.379    0.000    0.000 
#    6.207   13.448    0.000    0.000    0.000    0.000 
#    0.000    0.000    0.000    0.000    0.000    0.000 
#
# Total GULP energy -323113.835766 kJ/mol
# GULP energy per Si atom -5570.928203 kJ/mol
# Density = 2.444406 g / cm^3
# Si number density = 24.499823 Si / 1000 Ang^3
#
#
#
# Elastic Constant Matrix: (Units=GPa)
#
#
# Indices 1 2 3 4 5 6 
#
# 1 85.5392 4.7699 22.2546 0.0000 0.0000 0.0000
# 2 4.7699 31.9237 40.9004 0.0000 0.0000 0.0000
# 3 22.2546 40.9004 268.4228 0.0000 0.0000 0.0000
# 4 0.0000 0.0000 0.0000 22.1996 0.0000 0.0000
# 5 0.0000 0.0000 0.0000 0.0000 64.7557 0.0000
# 6 0.0000 0.0000 0.0000 0.0000 0.0000 19.7839
#
#
#
# Elastic Compliance Matrix: (Units=1/GPa)
#
#
# Indices 1 2 3 4 5 6 
#
# 1 0.011959 -0.000642 -0.000894 0.000000 0.000000 0.000000
# 2 -0.000642 0.038958 -0.005883 0.000000 0.000000 0.000000
# 3 -0.000894 -0.005883 0.004696 0.000000 0.000000 0.000000
# 4 0.000000 0.000000 0.000000 0.045046 0.000000 0.000000
# 5 0.000000 0.000000 0.000000 0.000000 0.015443 0.000000
# 6 0.000000 0.000000 0.000000 0.000000 0.000000 0.050546
#
#
# Mechanical properties :
#
#
# Convention : Reuss Voigt Hill
#
# Bulk Modulus (GPa) = 24.52444 57.97062 41.24753
# Shear Modulus (GPa) = 25.63103 42.54521 34.08812
#
# Velocity S-wave (km/s) = 3.23797 4.17172 3.73414
# Velocity P-wave (km/s) = 4.90010 6.84962 5.95518
#
# Compressibility (1/GPa) = 0.04077565
#
# Stress axis : x y z
#
# Youngs Moduli (GPa) = 83.62011 25.66888 212.94928
#
# Poissons Ratio (x) = 0.01648 0.19031
# Poissons Ratio (y) = 0.05367 1.25276
# Poissons Ratio (z) = 0.07473 0.15101
#
# Static dielectric constant tensor:
#      x y z
#    x 1.941800 0.000000 0.000000 
#    y 0.000000 1.952660 0.000000 
#    z 0.000000 0.000000 1.995640 
# 
# From -- ./inp_files/17757.got.cif
#   From: 2010.05.17/outbox.cif.g08.bks.cpg/sg58_9_cif.got.tgz:17757.got - 2010.06.03 14:20:14.
