data_PCOD9443817
_publ_section_title
;
Structure prediction by ZEFSAII (Michael W. Deem and Ramdas Pophale) SiO2 
 PCOD9443817
Probable space group: P N N M
;
_chemical_formula_sum "Si O2"
_cell_formula_units_Z 58
_cell_length_a 6.754578
_cell_length_b 14.712909
_cell_length_c 22.215032
_cell_angle_alpha 90.000000
_cell_angle_beta 90.000000
_cell_angle_gamma 90.000000
_cell_volume 2207.718583
_symmetry_space_group_name_H-M "P N N M"
_symmetry_group_IT_number 58
_symmetry_cell_setting 'orthorhombic'
loop_
_space_group_symop_operation_xyz
x,y,z
-x,-y,z
1/2+x,1/2-y,1/2-z
1/2-x,1/2+y,1/2-z
-x,-y,-z
x,y,-z
1/2-x,1/2+y,1/2+z
1/2+x,1/2-y,1/2+z
loop_
_atom_site_type_symbol
_atom_site_label
_atom_site_fract_x
_atom_site_fract_y
_atom_site_fract_z
Si Si1 0.260812 0.891105 0.337837
Si Si2 0.993732 0.390375 0.933253
Si Si3 0.246118 0.408529 0.298123
Si Si4 0.500000 0.000000 0.000000
Si Si5 0.755440 0.887972 0.338290
Si Si6 0.506769 0.644392 0.067540
Si Si7 0.960631 0.344546 0.599191
Si Si8 0.794986 0.880708 0.203624
O O1 0.253027 0.875565 0.416563
O O2 0.288689 0.865006 0.267157
O O3 0.009383 0.869642 0.350957
O O4 0.246761 0.001919 0.331622
O O5 0.992532 0.369146 0.856281
O O6 0.000000 0.500000 0.939058
O O7 0.992718 0.345797 0.000000
O O8 0.136584 0.364081 0.354109
O O9 0.205544 0.517026 0.299373
O O10 0.476521 0.394520 0.306744
O O11 0.566196 0.926755 0.946747
O O12 0.753281 0.846130 0.270497
O O13 0.761149 0.876944 0.416592
O O14 0.500442 0.753214 0.064219
O O15 0.508335 0.603040 0.000000
O O16 0.783766 0.326206 0.646400
#
# Coordination Sequence:
#
# PCOD9443817 Si02
#       8
#     8   8   8   2   8   8   8   8
#     4  10  20  38  61  91 133 169 211 266 318 391
#     4   9  17  30  53  83 118 176 227 249 299 376
#     4  10  20  40  69  98 122 163 220 269 328 393
#     4  12  24  52  74  92 130 178 214 276 330 388
#     4  10  20  38  61  91 133 169 211 266 318 391
#     4  12  25  39  59  93 134 174 214 260 325 390
#     4  12  25  45  71  94 129 171 218 280 329 383
#     4  10  20  40  69  98 122 163 220 269 328 393
#
# _framework density 26.271462
#
# number of rings (size 3 to 8) (size 9 to 14) (size 15 to 20)
#    0.000    1.517    3.448    2.069    0.000    5.517 
#    2.483    1.379    0.000    0.000    0.000    0.000 
#    0.000    0.000    0.000    0.000    0.000    0.000 
#
# Total GULP energy -323401.763569 kJ/mol
# GULP energy per Si atom -5575.892475 kJ/mol
# Density = 2.621167 g / cm^3
# Si number density = 26.271462 Si / 1000 Ang^3
#
#
#
# Elastic Constant Matrix: (Units=GPa)
#
#
# Indices 1 2 3 4 5 6 
#
# 1 200.0339 1.5703 88.5964 0.0000 0.0000 0.0000
# 2 1.5703 67.5397 28.6231 0.0000 0.0000 0.0000
# 3 88.5964 28.6231 256.1906 0.0000 0.0000 0.0000
# 4 0.0000 0.0000 0.0000 10.8244 0.0000 0.0000
# 5 0.0000 0.0000 0.0000 0.0000 27.2137 0.0000
# 6 0.0000 0.0000 0.0000 0.0000 0.0000 29.8817
#
#
#
# Elastic Compliance Matrix: (Units=1/GPa)
#
#
# Indices 1 2 3 4 5 6 
#
# 1 0.005941 0.000769 -0.002141 0.000000 0.000000 0.000000
# 2 0.000769 0.015642 -0.002014 0.000000 0.000000 0.000000
# 3 -0.002141 -0.002014 0.004869 0.000000 0.000000 0.000000
# 4 0.000000 0.000000 0.000000 0.092384 0.000000 0.000000
# 5 0.000000 0.000000 0.000000 0.000000 0.036746 0.000000
# 6 0.000000 0.000000 0.000000 0.000000 0.000000 0.033465
#
#
# Mechanical properties :
#
#
# Convention : Reuss Voigt Hill
#
# Bulk Modulus (GPa) = 50.80979 84.59374 67.70177
# Shear Modulus (GPa) = 24.70634 40.58224 32.64429
#
# Velocity S-wave (km/s) = 3.06996 3.93457 3.52884
# Velocity P-wave (km/s) = 5.65230 7.27398 6.51381
#
# Compressibility (1/GPa) = 0.01968124
#
# Stress axis : x y z
#
# Youngs Moduli (GPa) = 168.31732 63.93229 205.40050
#
# Poissons Ratio (x) = -0.04916 0.43966
# Poissons Ratio (y) = -0.12944 0.41357
# Poissons Ratio (z) = 0.36028 0.12873
#
# Static dielectric constant tensor:
#      x y z
#    x 2.285290 0.000000 0.000000 
#    y 0.000000 1.911650 0.000000 
#    z 0.000000 0.000000 2.063940 
# 
# From -- ./inp_files/25547.got.cif
#   From: 2010.05.17/outbox.cif.g08.bks.cpg/sg58_13_cif.got.tgz:25547.got - 2010.06.03 14:20:14.
