data_PCOD9443317
_publ_section_title
;
Structure prediction by ZEFSAII (Michael W. Deem and Ramdas Pophale) SiO2 
 PCOD9443317
Probable space group: P N N M
;
_chemical_formula_sum "Si O2"
_cell_formula_units_Z 52
_cell_length_a 20.140710
_cell_length_b 5.013749
_cell_length_c 20.508367
_cell_angle_alpha 90.000000
_cell_angle_beta 90.000000
_cell_angle_gamma 90.000000
_cell_volume 2070.944428
_symmetry_space_group_name_H-M "P N N M"
_symmetry_group_IT_number 58
_symmetry_cell_setting 'orthorhombic'
loop_
_space_group_symop_operation_xyz
x,y,z
-x,-y,z
1/2+x,1/2-y,1/2-z
1/2-x,1/2+y,1/2-z
-x,-y,-z
x,y,-z
1/2-x,1/2+y,1/2+z
1/2+x,1/2-y,1/2+z
loop_
_atom_site_type_symbol
_atom_site_label
_atom_site_fract_x
_atom_site_fract_y
_atom_site_fract_z
Si Si1 0.543758 0.737761 0.074219
Si Si2 0.500000 0.500000 0.654612
Si Si3 0.238705 0.524619 0.075722
Si Si4 0.931949 0.596295 0.257316
Si Si5 0.627982 0.712140 0.653590
Si Si6 0.297385 0.661112 0.742980
Si Si7 0.174864 0.510783 0.576114
O O1 0.500000 0.500000 0.104793
O O2 0.610933 0.844644 0.107444
O O3 0.500000 0.000000 0.066568
O O4 0.561539 0.636646 0.000000
O O5 0.535567 0.284836 0.701617
O O6 0.561289 0.626528 0.616771
O O7 0.172065 0.585877 0.113572
O O8 0.268113 0.231104 0.078109
O O9 0.294879 0.734005 0.099727
O O10 0.227662 0.591992 0.000000
O O11 0.898585 0.347459 0.220165
O O12 0.865701 0.753609 0.280740
O O13 0.000000 0.500000 0.294091
O O14 0.673219 0.467917 0.676993
O O15 0.249530 0.420445 0.767637
O O16 0.155411 0.462868 0.500000
#
# Coordination Sequence:
#
# PCOD9443317 Si02
#       7
#     8   4   8   8   8   8   8
#     4   9  15  24  42  65  92 119 156 219 282 326
#     4   8  18  32  55  84 112 152 188 246 279 336
#     4  10  21  34  52  76 111 155 195 234 284 339
#     4   9  18  35  57  86 121 156 187 236 294 349
#     4  10  20  35  59  81 121 150 195 238 294 331
#     4  11  21  35  56  91 123 146 186 244 291 351
#     4   9  18  31  45  70 104 134 178 231 279 335
#
# _framework density 25.109318999999999
#
# number of rings (size 3 to 8) (size 9 to 14) (size 15 to 20)
#    0.000    2.462    1.538    0.923    4.308    3.692 
#    0.000    0.385    0.000    4.154    0.000    5.385 
#   16.154    0.000    0.000    0.000    0.000    0.154 
#
# Total GULP energy -290476.186732 kJ/mol
# GULP energy per Si atom -5586.080514 kJ/mol
# Density = 2.505217 g / cm^3
# Si number density = 25.109319 Si / 1000 Ang^3
#
#
#
# Elastic Constant Matrix: (Units=GPa)
#
#
# Indices 1 2 3 4 5 6 
#
# 1 169.4285 37.8760 42.3595 0.0000 0.0000 0.0000
# 2 37.8760 141.9590 13.3541 0.0000 0.0000 0.0000
# 3 42.3595 13.3541 50.6495 0.0000 0.0000 0.0000
# 4 0.0000 0.0000 0.0000 2.7392 0.0000 0.0000
# 5 0.0000 0.0000 0.0000 0.0000 -67.7500 0.0000
# 6 0.0000 0.0000 0.0000 0.0000 0.0000 60.0932
#
#
#
# Elastic Compliance Matrix: (Units=1/GPa)
#
#
# Indices 1 2 3 4 5 6 
#
# 1 0.007761 -0.001497 -0.006096 0.000000 0.000000 0.000000
# 2 -0.001497 0.007512 -0.000728 0.000000 0.000000 0.000000
# 3 -0.006096 -0.000728 0.025034 0.000000 0.000000 0.000000
# 4 0.000000 0.000000 0.000000 0.365072 0.000000 0.000000
# 5 0.000000 0.000000 0.000000 0.000000 -0.014760 0.000000
# 6 0.000000 0.000000 0.000000 0.000000 0.000000 0.016641
#
#
# Mechanical properties :
#
#
# Convention : Reuss Voigt Hill
#
# Bulk Modulus (GPa) = 42.25881 61.02404 51.64143
# Shear Modulus (GPa) = 11.57968 16.91297 14.24633
#
# Velocity S-wave (km/s) = 2.14982 2.59814 2.38454
# Velocity P-wave (km/s) = 4.79883 5.77552 5.30968
#
# Compressibility (1/GPa) = 0.02366370
#
# Stress axis : x y z
#
# Youngs Moduli (GPa) = 128.84970 133.11501 39.94601
#
# Poissons Ratio (x) = 0.19931 0.24351
# Poissons Ratio (y) = 0.19292 0.02910
# Poissons Ratio (z) = 0.78546 0.09697
#
# Static dielectric constant tensor:
#      x y z
#    x 2.080980 0.000000 0.000000 
#    y 0.000000 2.017250 0.000000 
#    z 0.000000 0.000000 2.062360 
# 
# From -- ./inp_files/35114.got.cif
#   From: 2010.05.17/outbox.cif.g08.bks.cpg/sg58_18_cif.got.tgz:35114.got - 2010.06.03 14:20:14.
