data_PCOD9443588
_publ_section_title
;
Structure prediction by ZEFSAII (Michael W. Deem and Ramdas Pophale) SiO2 
 PCOD9443588
Probable space group: P N N M
;
_chemical_formula_sum "Si O2"
_cell_formula_units_Z 52
_cell_length_a 7.992583
_cell_length_b 23.218726
_cell_length_c 11.547049
_cell_angle_alpha 90.000000
_cell_angle_beta 90.000000
_cell_angle_gamma 90.000000
_cell_volume 2142.873579
_symmetry_space_group_name_H-M "P N N M"
_symmetry_group_IT_number 58
_symmetry_cell_setting 'orthorhombic'
loop_
_space_group_symop_operation_xyz
x,y,z
-x,-y,z
1/2+x,1/2-y,1/2-z
1/2-x,1/2+y,1/2-z
-x,-y,-z
x,y,-z
1/2-x,1/2+y,1/2+z
1/2+x,1/2-y,1/2+z
loop_
_atom_site_type_symbol
_atom_site_label
_atom_site_fract_x
_atom_site_fract_y
_atom_site_fract_z
Si Si1 0.691979 0.076934 0.365059
Si Si2 0.386189 0.122343 0.000000
Si Si3 0.997438 0.669706 0.738012
Si Si4 0.698762 0.034622 0.000000
Si Si5 0.515650 0.359474 0.760614
Si Si6 0.309780 0.524147 0.268471
Si Si7 0.499926 0.626874 0.500000
Si Si8 0.276260 0.739946 0.864667
O O1 0.667446 0.085864 0.500000
O O2 0.547993 0.108314 0.292573
O O3 0.860431 0.108643 0.320307
O O4 0.720307 0.010284 0.334388
O O5 0.416158 0.160361 0.114272
O O6 0.534316 0.074692 0.000000
O O7 0.191453 0.104868 0.000000
O O8 0.828710 0.705086 0.710742
O O9 0.110615 0.708067 0.821261
O O10 0.714455 0.997429 0.116744
O O11 0.860378 0.077044 0.000000
O O12 0.661075 0.408723 0.754039
O O13 0.483404 0.343198 0.625323
O O14 0.578174 0.306478 0.835970
O O15 0.500000 0.500000 0.281838
O O16 0.270510 0.753722 0.000000
#
# Coordination Sequence:
#
# PCOD9443588 Si02
#       8
#     8   4   8   4   8   8   4   8
#     4  11  23  42  68 100 137 183 233 284 354 433
#     4  12  24  45  77 106 146 182 241 304 361 431
#     4  12  25  50  69 103 133 177 237 299 364 431
#     4  12  20  42  74 104 152 190 236 306 357 421
#     4  11  23  41  67 101 140 183 234 287 349 419
#     4  10  20  36  69  99 140 187 231 290 350 420
#     4  12  21  42  71 106 142 188 239 295 358 419
#     4  12  27  47  72  97 137 182 230 296 361 432
#
# _framework density 24.266480000000001
#
# number of rings (size 3 to 8) (size 9 to 14) (size 15 to 20)
#    0.000    0.615    6.923    2.538    0.000    3.385 
#    8.308    3.846    0.000    1.846    0.000    0.000 
#    0.000    0.000    0.000    0.000    0.000    0.000 
#
# Total GULP energy -291402.106965 kJ/mol
# GULP energy per Si atom -5603.886672 kJ/mol
# Density = 2.421125 g / cm^3
# Si number density = 24.266480 Si / 1000 Ang^3
#
#
#
# Elastic Constant Matrix: (Units=GPa)
#
#
# Indices 1 2 3 4 5 6 
#
# 1 96.8197 3.5200 -1.1499 0.0000 0.0000 0.0000
# 2 3.5200 63.3380 -0.5813 0.0000 0.0000 0.0000
# 3 -1.1499 -0.5813 126.2432 0.0000 0.0000 0.0000
# 4 0.0000 0.0000 0.0000 39.3941 0.0000 0.0000
# 5 0.0000 0.0000 0.0000 0.0000 34.0950 0.0000
# 6 0.0000 0.0000 0.0000 0.0000 0.0000 38.6339
#
#
#
# Elastic Compliance Matrix: (Units=1/GPa)
#
#
# Indices 1 2 3 4 5 6 
#
# 1 0.010350 -0.000574 0.000092 0.000000 0.000000 0.000000
# 2 -0.000574 0.015821 0.000068 0.000000 0.000000 0.000000
# 3 0.000092 0.000068 0.007922 0.000000 0.000000 0.000000
# 4 0.000000 0.000000 0.000000 0.025384 0.000000 0.000000
# 5 0.000000 0.000000 0.000000 0.000000 0.029330 0.000000
# 6 0.000000 0.000000 0.000000 0.000000 0.000000 0.025884
#
#
# Mechanical properties :
#
#
# Convention : Reuss Voigt Hill
#
# Bulk Modulus (GPa) = 30.06307 32.21983 31.14145
# Shear Modulus (GPa) = 39.49132 41.39873 40.44503
#
# Velocity S-wave (km/s) = 4.03848 4.13486 4.08696
# Velocity P-wave (km/s) = 5.84478 6.00853 5.92722
#
# Compressibility (1/GPa) = 0.03326340
#
# Stress axis : x y z
#
# Youngs Moduli (GPa) = 96.61416 63.20771 126.22496
#
# Poissons Ratio (x) = 0.03631 -0.01157
# Poissons Ratio (y) = 0.05549 -0.00853
# Poissons Ratio (z) = -0.00885 -0.00427
#
# Static dielectric constant tensor:
#      x y z
#    x 1.962320 0.000000 0.000000 
#    y 0.000000 1.947450 0.000000 
#    z 0.000000 0.000000 1.848780 
# 
# From -- ./inp_files/13258.got.cif
#   From: 2010.05.17/outbox.cif.g08.bks.cpg/sg58_7_cif.got.tgz:13258.got - 2010.06.03 14:20:14.
