data_PCOD9443698
_publ_section_title
;
Structure prediction by ZEFSAII (Michael W. Deem and Ramdas Pophale) SiO2 
 PCOD9443698
Probable space group: P N N M
;
_chemical_formula_sum "Si O2"
_cell_formula_units_Z 40
_cell_length_a 24.571118
_cell_length_b 9.436408
_cell_length_c 9.761547
_cell_angle_alpha 90.000000
_cell_angle_beta 90.000000
_cell_angle_gamma 90.000000
_cell_volume 2263.342494
_symmetry_space_group_name_H-M "P N N M"
_symmetry_group_IT_number 58
_symmetry_cell_setting 'orthorhombic'
loop_
_space_group_symop_operation_xyz
x,y,z
-x,-y,z
1/2+x,1/2-y,1/2-z
1/2-x,1/2+y,1/2-z
-x,-y,-z
x,y,-z
1/2-x,1/2+y,1/2+z
1/2+x,1/2-y,1/2+z
loop_
_atom_site_type_symbol
_atom_site_label
_atom_site_fract_x
_atom_site_fract_y
_atom_site_fract_z
Si Si1 0.450183 0.104315 0.000000
Si Si2 0.374432 0.690673 0.225095
Si Si3 0.968119 0.854375 0.500000
Si Si4 0.363711 0.029809 0.227623
Si Si5 0.660126 0.810921 0.500000
Si Si6 0.848388 0.968529 0.000000
Si Si7 0.721769 0.972475 0.000000
Si Si8 0.787033 0.813634 0.500000
O O1 0.480639 0.250898 0.000000
O O2 0.500000 0.000000 0.000000
O O3 0.413281 0.073794 0.869088
O O4 0.366745 0.859783 0.251032
O O5 0.374524 0.600321 0.364053
O O6 0.322560 0.643576 0.132139
O O7 0.427932 0.669154 0.130417
O O8 0.000000 0.000000 0.500000
O O9 0.310455 0.070559 0.137217
O O10 0.364469 0.117622 0.365789
O O11 0.651546 0.640659 0.500000
O O12 0.724228 0.854932 0.500000
O O13 0.784146 0.928236 0.000000
O O14 0.715779 0.142759 0.000000
#
# Coordination Sequence:
#
# PCOD9443698 Si02
#       8
#     4   8   4   8   4   4   4   4
#     4  11  20  42  66  84 100 142 195 243 271 332
#     4  10  20  39  59  84 112 156 185 227 281 345
#     4  11  24  40  66  84 108 140 191 237 294 334
#     4  10  20  37  62  83 112 147 198 228 276 330
#     4  11  22  34  53  91 121 149 181 239 272 325
#     4  11  22  34  53  85 130 147 180 227 289 330
#     4   8  17  35  57  84 112 156 187 230 266 334
#     4   8  17  35  59  81 117 150 194 221 272 333
#
# _framework density 17.672975999999998
#
# number of rings (size 3 to 8) (size 9 to 14) (size 15 to 20)
#    0.000    2.000    2.000    3.000    2.800    0.000 
#    0.000    4.000    0.000    0.000    0.000    0.000 
#    0.000    0.000    0.000    0.000    0.000    0.000 
#
# Total GULP energy -223019.721196 kJ/mol
# GULP energy per Si atom -5575.493030 kJ/mol
# Density = 1.763275 g / cm^3
# Si number density = 17.672976 Si / 1000 Ang^3
#
#
#
# Elastic Constant Matrix: (Units=GPa)
#
#
# Indices 1 2 3 4 5 6 
#
# 1 80.5068 35.4222 50.9025 0.0000 0.0000 0.0000
# 2 35.4222 113.0650 63.5552 0.0000 0.0000 0.0000
# 3 50.9025 63.5552 170.4125 0.0000 0.0000 0.0000
# 4 0.0000 0.0000 0.0000 185.5482 0.0000 0.0000
# 5 0.0000 0.0000 0.0000 0.0000 -4.9113 0.0000
# 6 0.0000 0.0000 0.0000 0.0000 0.0000 29.1181
#
#
#
# Elastic Compliance Matrix: (Units=1/GPa)
#
#
# Indices 1 2 3 4 5 6 
#
# 1 0.016057 -0.002954 -0.003695 0.000000 0.000000 0.000000
# 2 -0.002954 0.011734 -0.003494 0.000000 0.000000 0.000000
# 3 -0.003695 -0.003494 0.008275 0.000000 0.000000 0.000000
# 4 0.000000 0.000000 0.000000 0.005389 0.000000 0.000000
# 5 0.000000 0.000000 0.000000 0.000000 -0.203611 0.000000
# 6 0.000000 0.000000 0.000000 0.000000 0.000000 0.034343
#
#
# Mechanical properties :
#
#
# Convention : Reuss Voigt Hill
#
# Bulk Modulus (GPa) = 63.36693 73.74934 68.55813
# Shear Modulus (GPa) = -48.89073 56.22463 3.66695
#
# Velocity S-wave (km/s) = -5.26538 5.64650 1.44201
# Velocity P-wave (km/s) = 1.01610 9.18320 6.45363
#
# Compressibility (1/GPa) = 0.01578110
#
# Stress axis : x y z
#
# Youngs Moduli (GPa) = 62.27842 85.22426 120.84973
#
# Poissons Ratio (x) = 0.25172 0.44650
# Poissons Ratio (y) = 0.18395 0.42223
# Poissons Ratio (z) = 0.23010 0.29776
#
# Static dielectric constant tensor:
#      x y z
#    x 1.596390 0.000000 0.000000 
#    y 0.000000 1.563020 0.000000 
#    z 0.000000 0.000000 1.595670 
# 
# From -- ./inp_files/10314.got.cif
#   From: 2010.05.17/outbox.cif.g08.bks.cpg/sg58_6_cif.got.tgz:10314.got - 2010.06.03 14:20:14.
