data_PCOD9443178
_publ_section_title
;
Structure prediction by ZEFSAII (Michael W. Deem and Ramdas Pophale) SiO2 
 PCOD9443178
Probable space group: P N N M
;
_chemical_formula_sum "Si O2"
_cell_formula_units_Z 40
_cell_length_a 30.148931
_cell_length_b 8.834596
_cell_length_c 7.687739
_cell_angle_alpha 90.000000
_cell_angle_beta 90.000000
_cell_angle_gamma 90.000000
_cell_volume 2047.657152
_symmetry_space_group_name_H-M "P N N M"
_symmetry_group_IT_number 58
_symmetry_cell_setting 'orthorhombic'
loop_
_space_group_symop_operation_xyz
x,y,z
-x,-y,z
1/2+x,1/2-y,1/2-z
1/2-x,1/2+y,1/2-z
-x,-y,-z
x,y,-z
1/2-x,1/2+y,1/2+z
1/2+x,1/2-y,1/2+z
loop_
_atom_site_type_symbol
_atom_site_label
_atom_site_fract_x
_atom_site_fract_y
_atom_site_fract_z
Si Si1 0.610310 0.939796 0.699679
Si Si2 0.795506 0.567412 0.206905
Si Si3 0.548929 0.430720 0.000000
Si Si4 0.880671 0.104952 0.301257
Si Si5 0.704415 0.421085 0.210613
Si Si6 0.048882 0.430744 0.500000
O O1 0.604863 0.992365 0.500000
O O2 0.659235 0.988306 0.765721
O O3 0.607778 0.757985 0.703970
O O4 0.574900 0.010137 0.830418
O O5 0.750063 0.495182 0.276700
O O6 0.797519 0.745544 0.241571
O O7 0.794061 0.543256 0.000000
O O8 0.500000 0.500000 0.000000
O O9 0.577607 0.494529 0.163596
O O10 0.547683 0.250699 0.000000
O O11 0.868767 0.154528 0.500000
O O12 0.838732 0.013818 0.228336
O O13 0.703496 0.428131 0.000000
O O14 0.000000 0.500000 0.500000
#
# Coordination Sequence:
#
# PCOD9443178 Si02
#       6
#     8   8   4   8   8   4
#     4  11  23  40  64  95 127 164 209 261 320 380
#     4  10  22  35  52  85 121 160 212 263 315 373
#     4  10  20  38  64  94 122 160 212 258 317 380
#     4   9  19  36  59  87 118 165 207 254 315 373
#     4  10  20  35  55  82 119 167 218 260 313 376
#     4  12  24  44  72  94 128 166 206 264 321 382
#
# _framework density 19.534520000000001
#
# number of rings (size 3 to 8) (size 9 to 14) (size 15 to 20)
#    0.600    1.200    1.000    3.600    1.400    2.000 
#    0.000    1.000    0.000    2.400    0.000    0.000 
#    0.000    0.000    0.000    0.000    0.000    0.000 
#
# Total GULP energy -223249.961509 kJ/mol
# GULP energy per Si atom -5581.249038 kJ/mol
# Density = 1.949006 g / cm^3
# Si number density = 19.534520 Si / 1000 Ang^3
#
#
#
# Elastic Constant Matrix: (Units=GPa)
#
#
# Indices 1 2 3 4 5 6 
#
# 1 198.3596 93.7289 46.2891 0.0000 0.0000 0.0000
# 2 93.7289 167.8041 18.6069 0.0000 0.0000 0.0000
# 3 46.2891 18.6069 54.6710 0.0000 0.0000 0.0000
# 4 0.0000 0.0000 0.0000 25.4560 0.0000 0.0000
# 5 0.0000 0.0000 0.0000 0.0000 19.1468 0.0000
# 6 0.0000 0.0000 0.0000 0.0000 0.0000 41.6445
#
#
#
# Elastic Compliance Matrix: (Units=1/GPa)
#
#
# Indices 1 2 3 4 5 6 
#
# 1 0.008230 -0.003974 -0.005615 0.000000 0.000000 0.000000
# 2 -0.003974 0.008112 0.000604 0.000000 0.000000 0.000000
# 3 -0.005615 0.000604 0.022840 0.000000 0.000000 0.000000
# 4 0.000000 0.000000 0.000000 0.039283 0.000000 0.000000
# 5 0.000000 0.000000 0.000000 0.000000 0.052228 0.000000
# 6 0.000000 0.000000 0.000000 0.000000 0.000000 0.024013
#
#
# Mechanical properties :
#
#
# Convention : Reuss Voigt Hill
#
# Bulk Modulus (GPa) = 47.14578 82.00940 64.57759
# Shear Modulus (GPa) = 27.81684 34.73012 31.27348
#
# Velocity S-wave (km/s) = 3.77767 4.22107 4.00551
# Velocity P-wave (km/s) = 6.57379 8.11354 7.38391
#
# Compressibility (1/GPa) = 0.02121081
#
# Stress axis : x y z
#
# Youngs Moduli (GPa) = 121.51318 123.27226 43.78261
#
# Poissons Ratio (x) = 0.48989 0.24585
# Poissons Ratio (y) = 0.48290 -0.02644
# Poissons Ratio (z) = 0.68233 -0.07444
#
# Static dielectric constant tensor:
#      x y z
#    x 1.681470 0.000000 0.000000 
#    y 0.000000 1.645430 0.000000 
#    z 0.000000 0.000000 1.736320 
# 
# From -- ./inp_files/10642.got.cif
#   From: 2010.05.17/outbox.cif.g08.bks.cpg/sg58_6_cif.got.tgz:10642.got - 2010.06.03 14:20:14.
