data_PCOD9443886
_publ_section_title
;
Structure prediction by ZEFSAII (Michael W. Deem and Ramdas Pophale) SiO2 
 PCOD9443886
Probable space group: P N N M
;
_chemical_formula_sum "Si O2"
_cell_formula_units_Z 44
_cell_length_a 13.433016
_cell_length_b 14.534428
_cell_length_c 8.372952
_cell_angle_alpha 90.000000
_cell_angle_beta 90.000000
_cell_angle_gamma 90.000000
_cell_volume 1634.745228
_symmetry_space_group_name_H-M "P N N M"
_symmetry_group_IT_number 58
_symmetry_cell_setting 'orthorhombic'
loop_
_space_group_symop_operation_xyz
x,y,z
-x,-y,z
1/2+x,1/2-y,1/2-z
1/2-x,1/2+y,1/2-z
-x,-y,-z
x,y,-z
1/2-x,1/2+y,1/2+z
1/2+x,1/2-y,1/2+z
loop_
_atom_site_type_symbol
_atom_site_label
_atom_site_fract_x
_atom_site_fract_y
_atom_site_fract_z
Si Si1 0.777782 0.315145 0.184767
Si Si2 0.892543 0.050494 0.500000
Si Si3 0.381754 0.989948 0.322409
Si Si4 0.425222 0.689172 0.668944
Si Si5 0.005847 0.759434 0.500000
Si Si6 0.634139 0.606406 0.323228
Si Si7 0.928664 0.583699 0.500000
O O1 0.845428 0.405148 0.198348
O O2 0.690614 0.330363 0.312787
O O3 0.829179 0.213602 0.199131
O O4 0.740230 0.318163 0.000000
O O5 0.916617 0.159504 0.500000
O O6 0.841040 0.040533 0.327339
O O7 0.000000 0.000000 0.500000
O O8 0.348455 0.955484 0.500000
O O9 0.364789 0.924986 0.165554
O O10 0.500000 0.000000 0.332712
O O11 0.443152 0.739033 0.500000
O O12 0.444814 0.735341 0.837223
O O13 0.512316 0.612486 0.673023
O O14 0.023212 0.654211 0.500000
O O15 0.663650 0.575192 0.500000
O O16 0.000000 0.500000 0.500000
#
# Coordination Sequence:
#
# PCOD9443886 Si02
#       7
#     8   4   8   8   4   8   4
#     4  10  20  38  64  96 131 170 214 262 320 381
#     4  10  22  38  66  92 113 161 220 272 321 366
#     4   9  20  34  54  89 133 165 203 254 311 395
#     4  10  21  37  63  92 124 173 219 256 321 389
#     4  10  22  42  62  86 135 170 214 277 318 389
#     4   9  21  38  63  91 123 166 209 266 320 380
#     4  10  22  34  60  98 127 169 209 257 326 393
#
# _framework density 26.915509
#
# number of rings (size 3 to 8) (size 9 to 14) (size 15 to 20)
#    0.000    2.364    0.909    0.000   12.727    1.091 
#    0.000    0.000    8.000    0.000    0.000    0.000 
#    0.000    0.000    0.000    0.000    0.000    0.000 
#
# Total GULP energy -245306.376037 kJ/mol
# GULP energy per Si atom -5575.144910 kJ/mol
# Density = 2.685425 g / cm^3
# Si number density = 26.915509 Si / 1000 Ang^3
#
#
#
# Elastic Constant Matrix: (Units=GPa)
#
#
# Indices 1 2 3 4 5 6 
#
# 1 86.5540 -3.5922 34.4482 0.0000 0.0000 0.0000
# 2 -3.5922 58.7132 22.7579 0.0000 0.0000 0.0000
# 3 34.4482 22.7579 244.8967 0.0000 0.0000 0.0000
# 4 0.0000 0.0000 0.0000 -21.3027 0.0000 0.0000
# 5 0.0000 0.0000 0.0000 0.0000 52.9727 0.0000
# 6 0.0000 0.0000 0.0000 0.0000 0.0000 13.0606
#
#
#
# Elastic Compliance Matrix: (Units=1/GPa)
#
#
# Indices 1 2 3 4 5 6 
#
# 1 0.012362 0.001484 -0.001877 0.000000 0.000000 0.000000
# 2 0.001484 0.017846 -0.001867 0.000000 0.000000 0.000000
# 3 -0.001877 -0.001867 0.004521 0.000000 0.000000 0.000000
# 4 0.000000 0.000000 0.000000 -0.046942 0.000000 0.000000
# 5 0.000000 0.000000 0.000000 0.000000 0.018878 0.000000
# 6 0.000000 0.000000 0.000000 0.000000 0.000000 0.076566
#
#
# Mechanical properties :
#
#
# Convention : Reuss Voigt Hill
#
# Bulk Modulus (GPa) = 33.10270 55.26575 44.18422
# Shear Modulus (GPa) = 51.11403 31.38280 41.24841
#
# Velocity S-wave (km/s) = 4.36254 3.41834 3.91898
# Velocity P-wave (km/s) = 6.14013 6.01313 6.07696
#
# Compressibility (1/GPa) = 0.03020902
#
# Stress axis : x y z
#
# Youngs Moduli (GPa) = 80.89301 56.03354 221.19671
#
# Poissons Ratio (x) = -0.08314 0.41514
# Poissons Ratio (y) = -0.12003 0.41301
# Poissons Ratio (z) = 0.15182 0.10462
#
# Static dielectric constant tensor:
#      x y z
#    x 2.132160 0.000000 0.000000 
#    y 0.000000 2.090540 0.000000 
#    z 0.000000 0.000000 2.224600 
# 
# From -- ./inp_files/7699.got.cif
#   From: 2010.05.17/outbox.cif.g08.bks.cpg/sg58_4_cif.got.tgz:7699.got - 2010.06.03 14:20:14.
