data_PCOD9443479
_publ_section_title
;
Structure prediction by ZEFSAII (Michael W. Deem and Ramdas Pophale) SiO2 
 PCOD9443479
Probable space group: P N N M
;
_chemical_formula_sum "Si O2"
_cell_formula_units_Z 64
_cell_length_a 24.537435
_cell_length_b 14.306312
_cell_length_c 9.055104
_cell_angle_alpha 90.000000
_cell_angle_beta 90.000000
_cell_angle_gamma 90.000000
_cell_volume 3178.705526
_symmetry_space_group_name_H-M "P N N M"
_symmetry_group_IT_number 58
_symmetry_cell_setting 'orthorhombic'
loop_
_space_group_symop_operation_xyz
x,y,z
-x,-y,z
1/2+x,1/2-y,1/2-z
1/2-x,1/2+y,1/2-z
-x,-y,-z
x,y,-z
1/2-x,1/2+y,1/2+z
1/2+x,1/2-y,1/2+z
loop_
_atom_site_type_symbol
_atom_site_label
_atom_site_fract_x
_atom_site_fract_y
_atom_site_fract_z
Si Si1 0.653053 0.229903 0.665617
Si Si2 0.337939 0.075121 0.321489
Si Si3 0.950364 0.930310 0.665680
Si Si4 0.457041 0.084432 0.823435
Si Si5 0.731639 0.737910 0.676131
Si Si6 0.349622 0.549667 0.663546
Si Si7 0.738944 0.549502 0.174793
Si Si8 0.033876 0.266107 0.821847
O O1 0.667089 0.194137 0.500000
O O2 0.705453 0.231645 0.769513
O O3 0.641375 0.339989 0.649782
O O4 0.594325 0.190601 0.713781
O O5 0.344289 0.077157 0.500000
O O6 0.396753 0.070515 0.244804
O O7 0.303388 0.169888 0.279906
O O8 0.300258 0.984306 0.285358
O O9 0.930547 0.906227 0.500000
O O10 0.903490 0.983629 0.755536
O O11 0.967735 0.835956 0.748582
O O12 0.000000 0.000000 0.655477
O O13 0.485937 0.172204 0.745218
O O14 0.500000 0.000000 0.797553
O O15 0.452370 0.097653 0.000000
O O16 0.729716 0.733438 0.500000
O O17 0.712850 0.640963 0.750149
O O18 0.341067 0.510508 0.500000
O O19 0.298415 0.533614 0.766502
O O20 0.735511 0.557460 0.000000
O O21 0.030706 0.260993 0.000000
#
# Coordination Sequence:
#
# PCOD9443479 Si02
#       8
#     8   8   8   8   8   8   8   8
#     4   9  19  36  59  88 118 152 198 249 309 371
#     4  10  24  45  66  92 129 172 215 262 319 383
#     4  10  21  37  60  90 124 164 207 256 314 375
#     4  11  26  45  66  95 127 168 219 271 327 382
#     4  11  23  39  62  93 125 162 206 256 315 376
#     4  10  20  36  59  87 120 159 202 250 308 370
#     4  11  23  40  62  92 126 166 212 258 317 385
#     4  10  22  40  63  90 121 162 209 261 315 378
#
# _framework density 20.133980999999999
#
# number of rings (size 3 to 8) (size 9 to 14) (size 15 to 20)
#    0.000    1.750    1.250    3.000    1.750    7.500 
#    0.000    0.000    0.000    0.000    0.000    0.000 
#    0.000    0.000    0.000    0.000    0.000    0.000 
#
# Total GULP energy -356805.965653 kJ/mol
# GULP energy per Si atom -5575.093213 kJ/mol
# Density = 2.008816 g / cm^3
# Si number density = 20.133981 Si / 1000 Ang^3
#
#
#
# Elastic Constant Matrix: (Units=GPa)
#
#
# Indices 1 2 3 4 5 6 
#
# 1 111.8848 27.6719 32.8977 0.0000 0.0000 0.0000
# 2 27.6719 67.8592 29.0073 0.0000 0.0000 0.0000
# 3 32.8977 29.0073 41.7942 0.0000 0.0000 0.0000
# 4 0.0000 0.0000 0.0000 -728.6949 0.0000 0.0000
# 5 0.0000 0.0000 0.0000 0.0000 40.7358 0.0000
# 6 0.0000 0.0000 0.0000 0.0000 0.0000 31.0095
#
#
#
# Elastic Compliance Matrix: (Units=1/GPa)
#
#
# Indices 1 2 3 4 5 6 
#
# 1 0.011696 -0.001186 -0.008383 0.000000 0.000000 0.000000
# 2 -0.001186 0.021073 -0.013692 0.000000 0.000000 0.000000
# 3 -0.008383 -0.013692 0.040029 0.000000 0.000000 0.000000
# 4 0.000000 0.000000 0.000000 -0.001372 0.000000 0.000000
# 5 0.000000 0.000000 0.000000 0.000000 0.024548 0.000000
# 6 0.000000 0.000000 0.000000 0.000000 0.000000 0.032248
#
#
# Mechanical properties :
#
#
# Convention : Reuss Voigt Hill
#
# Bulk Modulus (GPa) = 38.05934 44.52137 41.29035
# Shear Modulus (GPa) = 27.24752 -122.59250 -47.67249
#
# Velocity S-wave (km/s) = 3.68273 -7.81156 -4.87125
# Velocity P-wave (km/s) = 6.08501 7.69416 3.32962
#
# Compressibility (1/GPa) = 0.02627476
#
# Stress axis : x y z
#
# Youngs Moduli (GPa) = 85.49916 47.45424 24.98212
#
# Poissons Ratio (x) = 0.05628 0.20943
# Poissons Ratio (y) = 0.10139 0.34206
# Poissons Ratio (z) = 0.71676 0.64975
#
# Static dielectric constant tensor:
#      x y z
#    x 1.740350 0.000000 0.000000 
#    y 0.000000 1.778840 0.000000 
#    z 0.000000 0.000000 1.714480 
# 
# From -- ./inp_files/10035.got.cif
#   From: 2010.05.17/outbox.cif.g08.bks.cpg/sg58_6_cif.got.tgz:10035.got - 2010.06.03 14:20:14.
