data_PCOD9443625
_publ_section_title
;
Structure prediction by ZEFSAII (Michael W. Deem and Ramdas Pophale) SiO2 
 PCOD9443625
Probable space group: P N N M
;
_chemical_formula_sum "Si O2"
_cell_formula_units_Z 64
_cell_length_a 17.742170
_cell_length_b 19.944920
_cell_length_c 7.729261
_cell_angle_alpha 90.000000
_cell_angle_beta 90.000000
_cell_angle_gamma 90.000000
_cell_volume 2735.123920
_symmetry_space_group_name_H-M "P N N M"
_symmetry_group_IT_number 58
_symmetry_cell_setting 'orthorhombic'
loop_
_space_group_symop_operation_xyz
x,y,z
-x,-y,z
1/2+x,1/2-y,1/2-z
1/2-x,1/2+y,1/2-z
-x,-y,-z
x,y,-z
1/2-x,1/2+y,1/2+z
1/2+x,1/2-y,1/2+z
loop_
_atom_site_type_symbol
_atom_site_label
_atom_site_fract_x
_atom_site_fract_y
_atom_site_fract_z
Si Si1 0.256002 0.676403 0.301576
Si Si2 0.906377 0.897553 0.302454
Si Si3 0.843659 0.695941 0.706183
Si Si4 0.343912 0.470691 0.701021
Si Si5 0.675124 0.044622 0.788132
Si Si6 0.931624 0.154945 0.290772
Si Si7 0.989388 0.292248 0.710827
Si Si8 0.613033 0.908547 0.787875
O O1 0.235286 0.685652 0.500000
O O2 0.332858 0.633353 0.286834
O O3 0.278369 0.750348 0.238276
O O4 0.186805 0.633361 0.226798
O O5 0.902341 0.872822 0.500000
O O6 0.987296 0.875039 0.234598
O O7 0.898214 0.977653 0.296565
O O8 0.849269 0.690146 0.500000
O O9 0.834587 0.620465 0.774466
O O10 0.925394 0.721659 0.769161
O O11 0.347328 0.489094 0.500000
O O12 0.258706 0.478850 0.762511
O O13 0.368202 0.393913 0.720520
O O14 0.618767 0.985774 0.732604
O O15 0.673627 0.046875 0.000000
O O16 0.927312 0.151865 0.500000
O O17 0.933782 0.232293 0.236170
O O18 0.989703 0.291154 0.500000
O O19 0.958708 0.364544 0.764431
O O20 0.613893 0.910133 0.000000
#
# Coordination Sequence:
#
# PCOD9443625 Si02
#       8
#     8   8   8   8   8   8   8   8
#     4  11  21  35  58  84 114 148 182 226 280 332
#     4  11  21  37  59  81 111 150 187 228 276 332
#     4  10  20  37  59  83 112 146 186 229 276 327
#     4  11  22  36  53  82 118 150 185 229 278 331
#     4   9  19  35  55  82 116 146 180 231 278 326
#     4  10  21  36  53  80 114 147 187 232 275 327
#     4   9  18  34  56  82 111 144 185 233 277 325
#     4   9  18  34  56  83 113 142 181 232 281 324
#
# _framework density 23.399305999999999
#
# number of rings (size 3 to 8) (size 9 to 14) (size 15 to 20)
#    0.000    2.000    2.500    1.500    1.750    3.000 
#    0.000    3.125    0.000    1.500    0.000    0.875 
#    0.000    0.000    0.000    0.000    0.000    0.000 
#
# Total GULP energy -357548.801681 kJ/mol
# GULP energy per Si atom -5586.700026 kJ/mol
# Density = 2.334605 g / cm^3
# Si number density = 23.399306 Si / 1000 Ang^3
#
#
#
# Elastic Constant Matrix: (Units=GPa)
#
#
# Indices 1 2 3 4 5 6 
#
# 1 6.3268 -10.7038 1.3061 0.0000 0.0000 0.0000
# 2 -10.7038 128.4158 2.7661 0.0000 0.0000 0.0000
# 3 1.3061 2.7661 29.5634 0.0000 0.0000 0.0000
# 4 0.0000 0.0000 0.0000 21.6788 0.0000 0.0000
# 5 0.0000 0.0000 0.0000 0.0000 10.5693 0.0000
# 6 0.0000 0.0000 0.0000 0.0000 0.0000 37.2370
#
#
#
# Elastic Compliance Matrix: (Units=1/GPa)
#
#
# Indices 1 2 3 4 5 6 
#
# 1 0.186758 0.015776 -0.009727 0.000000 0.000000 0.000000
# 2 0.015776 0.009136 -0.001552 0.000000 0.000000 0.000000
# 3 -0.009727 -0.001552 0.034400 0.000000 0.000000 0.000000
# 4 0.000000 0.000000 0.000000 0.046128 0.000000 0.000000
# 5 0.000000 0.000000 0.000000 0.000000 0.094614 0.000000
# 6 0.000000 0.000000 0.000000 0.000000 0.000000 0.026855
#
#
# Mechanical properties :
#
#
# Convention : Reuss Voigt Hill
#
# Bulk Modulus (GPa) = 4.17905 16.78253 10.48079
# Shear Modulus (GPa) = 10.66876 25.29286 17.98081
#
# Velocity S-wave (km/s) = 2.13760 3.29131 2.77507
# Velocity P-wave (km/s) = 2.80754 4.65096 3.84146
#
# Compressibility (1/GPa) = 0.23928867
#
# Stress axis : x y z
#
# Youngs Moduli (GPa) = 5.35454 109.46162 29.06936
#
# Poissons Ratio (x) = -1.72689 0.28276
# Poissons Ratio (y) = -0.08447 0.04511
# Poissons Ratio (z) = 0.05208 0.16986
#
# Static dielectric constant tensor:
#      x y z
#    x 1.863140 0.000000 0.000000 
#    y 0.000000 1.902810 0.000000 
#    z 0.000000 0.000000 1.883310 
# 
# From -- ./inp_files/8315.got.cif
#   From: 2010.05.17/outbox.cif.g08.bks.cpg/sg58_5_cif.got.tgz:8315.got - 2010.06.03 14:20:14.
