data_PCOD9443863
_publ_section_title
;
Structure prediction by ZEFSAII (Michael W. Deem and Ramdas Pophale) SiO2 
 PCOD9443863
Probable space group: P N N M
;
_chemical_formula_sum "Si O2"
_cell_formula_units_Z 58
_cell_length_a 9.234625
_cell_length_b 18.661710
_cell_length_c 17.375947
_cell_angle_alpha 90.000000
_cell_angle_beta 90.000000
_cell_angle_gamma 90.000000
_cell_volume 2994.464603
_symmetry_space_group_name_H-M "P N N M"
_symmetry_group_IT_number 58
_symmetry_cell_setting 'orthorhombic'
loop_
_space_group_symop_operation_xyz
x,y,z
-x,-y,z
1/2+x,1/2-y,1/2-z
1/2-x,1/2+y,1/2-z
-x,-y,-z
x,y,-z
1/2-x,1/2+y,1/2+z
1/2+x,1/2-y,1/2+z
loop_
_atom_site_type_symbol
_atom_site_label
_atom_site_fract_x
_atom_site_fract_y
_atom_site_fract_z
Si Si1 0.671952 0.492150 0.911235
Si Si2 0.168069 0.788320 0.829870
Si Si3 0.102990 0.434394 0.185393
Si Si4 0.500000 0.000000 0.000000
Si Si5 0.363380 0.771583 0.323211
Si Si6 0.112919 0.401171 0.362438
Si Si7 0.833550 0.833758 0.591516
Si Si8 0.585182 0.769847 0.908459
O O1 0.500000 0.500000 0.913665
O O2 0.745292 0.548740 0.855521
O O3 0.700121 0.412522 0.878498
O O4 0.725119 0.499892 0.000000
O O5 0.262546 0.776701 0.752567
O O6 0.232922 0.860333 0.866503
O O7 0.214824 0.723944 0.885674
O O8 0.998515 0.781667 0.814337
O O9 0.072580 0.351586 0.163994
O O10 0.107397 0.435726 0.277941
O O11 0.000000 0.500000 0.159012
O O12 0.584639 0.045644 0.931897
O O13 0.250650 0.744624 0.387153
O O14 0.988957 0.338743 0.368406
O O15 0.840870 0.842423 0.500000
O O16 0.987247 0.798740 0.614642
O O17 0.569131 0.780700 0.000000
#
# Coordination Sequence:
#
# PCOD9443863 Si02
#       8
#     8   8   8   2   8   8   8   8
#     4  10  21  36  55  83 123 167 204 247 304 378
#     4  10  21  37  58  90 117 157 203 259 314 370
#     4  11  22  37  58  90 125 168 213 251 316 382
#     4  12  20  44  76  90 122 168 210 274 318 420
#     4  11  22  37  59  86 126 156 204 265 311 375
#     4  10  22  40  68  93 117 165 217 265 324 395
#     4   9  18  34  56  80 114 152 199 244 295 364
#     4  10  20  38  63  93 118 161 210 259 324 378
#
# _framework density 19.369071999999999
#
# number of rings (size 3 to 8) (size 9 to 14) (size 15 to 20)
#    0.000    1.793    1.379    4.138    0.966    3.586 
#    0.000    0.000    0.000    0.828    0.000    0.000 
#    0.000    0.000    0.000    0.000    0.000    0.000 
#
# Total GULP energy -322985.757927 kJ/mol
# GULP energy per Si atom -5568.719964 kJ/mol
# Density = 1.932499 g / cm^3
# Si number density = 19.369072 Si / 1000 Ang^3
#
#
#
# Elastic Constant Matrix: (Units=GPa)
#
#
# Indices 1 2 3 4 5 6 
#
# 1 103.9377 28.5569 34.4944 0.0000 0.0000 0.0000
# 2 28.5569 50.4003 38.7580 0.0000 0.0000 0.0000
# 3 34.4944 38.7580 66.8889 0.0000 0.0000 0.0000
# 4 0.0000 0.0000 0.0000 27.7099 0.0000 0.0000
# 5 0.0000 0.0000 0.0000 0.0000 24.5341 0.0000
# 6 0.0000 0.0000 0.0000 0.0000 0.0000 26.2900
#
#
#
# Elastic Compliance Matrix: (Units=1/GPa)
#
#
# Indices 1 2 3 4 5 6 
#
# 1 0.011973 -0.003672 -0.004047 0.000000 0.000000 0.000000
# 2 -0.003672 0.036914 -0.019496 0.000000 0.000000 0.000000
# 3 -0.004047 -0.019496 0.028334 0.000000 0.000000 0.000000
# 4 0.000000 0.000000 0.000000 0.036088 0.000000 0.000000
# 5 0.000000 0.000000 0.000000 0.000000 0.040760 0.000000
# 6 0.000000 0.000000 0.000000 0.000000 0.000000 0.038037
#
#
# Mechanical properties :
#
#
# Convention : Reuss Voigt Hill
#
# Bulk Modulus (GPa) = 43.87564 47.20506 45.54035
# Shear Modulus (GPa) = 19.67481 23.66796 21.67139
#
# Velocity S-wave (km/s) = 3.19060 3.49943 3.34857
# Velocity P-wave (km/s) = 6.02286 6.38375 6.20593
#
# Compressibility (1/GPa) = 0.02279169
#
# Stress axis : x y z
#
# Youngs Moduli (GPa) = 83.52085 27.09001 35.29368
#
# Poissons Ratio (x) = 0.09947 0.14283
# Poissons Ratio (y) = 0.30668 0.68808
# Poissons Ratio (z) = 0.33799 0.52814
#
# Static dielectric constant tensor:
#      x y z
#    x 1.686460 0.000000 0.000000 
#    y 0.000000 1.706750 0.000000 
#    z 0.000000 0.000000 1.680220 
# 
# From -- ./inp_files/25519.got.cif
#   From: 2010.05.17/outbox.cif.g08.bks.cpg/sg58_13_cif.got.tgz:25519.got - 2010.06.03 14:20:14.
