data_PCOD9443936
_publ_section_title
;
Structure prediction by ZEFSAII (Michael W. Deem and Ramdas Pophale) SiO2 
 PCOD9443936
Probable space group: P N N M
;
_chemical_formula_sum "Si O2"
_cell_formula_units_Z 48
_cell_length_a 8.445288
_cell_length_b 16.512470
_cell_length_c 15.385180
_cell_angle_alpha 90.000000
_cell_angle_beta 90.000000
_cell_angle_gamma 90.000000
_cell_volume 2145.502810
_symmetry_space_group_name_H-M "P N N M"
_symmetry_group_IT_number 58
_symmetry_cell_setting 'orthorhombic'
loop_
_space_group_symop_operation_xyz
x,y,z
-x,-y,z
1/2+x,1/2-y,1/2-z
1/2-x,1/2+y,1/2-z
-x,-y,-z
x,y,-z
1/2-x,1/2+y,1/2+z
1/2+x,1/2-y,1/2+z
loop_
_atom_site_type_symbol
_atom_site_label
_atom_site_fract_x
_atom_site_fract_y
_atom_site_fract_z
Si Si1 0.984697 0.245112 0.000000
Si Si2 0.182127 0.332115 0.669872
Si Si3 0.115597 0.074501 0.000000
Si Si4 0.182951 0.512673 0.346337
Si Si5 0.873714 0.923676 0.298932
Si Si6 0.608239 0.246983 0.000000
Si Si7 0.483612 0.740991 0.693675
Si Si8 0.409345 0.584696 0.000000
O O1 0.065881 0.260725 0.093574
O O2 0.995931 0.148382 0.000000
O O3 0.798757 0.270165 0.000000
O O4 0.248685 0.421155 0.654495
O O5 0.086623 0.305065 0.585311
O O6 0.329517 0.273089 0.685842
O O7 0.068755 0.317730 0.750570
O O8 0.227027 0.067224 0.916210
O O9 0.000000 0.000000 0.000000
O O10 0.218978 0.548301 0.252451
O O11 0.000000 0.500000 0.366528
O O12 0.929913 0.840965 0.248049
O O13 0.838597 0.912261 0.401569
O O14 0.000000 0.000000 0.291010
O O15 0.504611 0.327812 0.000000
O O16 0.500000 0.500000 0.000000
#
# Coordination Sequence:
#
# PCOD9443936 Si02
#       8
#     4   8   4   8   8   4   8   4
#     4  10  22  35  64  98 125 170 220 271 340 414
#     4  11  24  40  63  93 127 175 220 277 347 402
#     4  12  21  40  68  95 133 177 224 274 348 435
#     4  12  26  40  63  99 137 175 224 288 344 411
#     4  11  21  43  67  91 127 176 230 276 339 423
#     4  10  20  39  62  97 130 163 226 280 322 402
#     4  11  22  41  64  93 129 172 221 274 340 413
#     4  10  22  38  70 102 129 181 240 285 331 398
#
# _framework density 22.372378999999999
#
# number of rings (size 3 to 8) (size 9 to 14) (size 15 to 20)
#    0.000    1.000    5.000    3.250    2.333    0.000 
#    0.000    2.917    0.000    0.000    0.000    0.000 
#    0.000    0.000    0.000    0.000    0.000    0.000 
#
# Total GULP energy -267509.694663 kJ/mol
# GULP energy per Si atom -5573.118639 kJ/mol
# Density = 2.232146 g / cm^3
# Si number density = 22.372379 Si / 1000 Ang^3
#
#
#
# Elastic Constant Matrix: (Units=GPa)
#
#
# Indices 1 2 3 4 5 6 
#
# 1 46.2508 4.5463 7.2337 0.0000 0.0000 0.0000
# 2 4.5463 64.2475 31.0989 0.0000 0.0000 0.0000
# 3 7.2337 31.0989 202.8486 0.0000 0.0000 0.0000
# 4 0.0000 0.0000 0.0000 -36.9432 0.0000 0.0000
# 5 0.0000 0.0000 0.0000 0.0000 11.8819 0.0000
# 6 0.0000 0.0000 0.0000 0.0000 0.0000 26.8636
#
#
#
# Elastic Compliance Matrix: (Units=1/GPa)
#
#
# Indices 1 2 3 4 5 6 
#
# 1 0.021837 -0.001262 -0.000585 0.000000 0.000000 0.000000
# 2 -0.001262 0.016885 -0.002544 0.000000 0.000000 0.000000
# 3 -0.000585 -0.002544 0.005341 0.000000 0.000000 0.000000
# 4 0.000000 0.000000 0.000000 -0.027069 0.000000 0.000000
# 5 0.000000 0.000000 0.000000 0.000000 0.084162 0.000000
# 6 0.000000 0.000000 0.000000 0.000000 0.000000 0.037225
#
#
# Mechanical properties :
#
#
# Convention : Reuss Voigt Hill
#
# Bulk Modulus (GPa) = 28.34383 44.34498 36.34440
# Shear Modulus (GPa) = 31.46176 18.39168 24.92672
#
# Velocity S-wave (km/s) = 3.75410 2.87029 3.34155
# Velocity P-wave (km/s) = 5.61139 5.55419 5.58286
#
# Compressibility (1/GPa) = 0.03528105
#
# Stress axis : x y z
#
# Youngs Moduli (GPa) = 45.79422 59.22284 187.24375
#
# Poissons Ratio (x) = 0.07474 0.10958
# Poissons Ratio (y) = 0.05779 0.47629
# Poissons Ratio (z) = 0.02680 0.15065
#
# Static dielectric constant tensor:
#      x y z
#    x 1.826940 0.000000 0.000000 
#    y 0.000000 1.899130 0.000000 
#    z 0.000000 0.000000 1.881940 
# 
# From -- ./inp_files/19920.got.cif
#   From: 2010.05.17/outbox.cif.g08.bks.cpg/sg58_10_cif.got.tgz:19920.got - 2010.06.03 14:20:14.
