data_PCOD9443788
_publ_section_title
;
Structure prediction by ZEFSAII (Michael W. Deem and Ramdas Pophale) SiO2 
 PCOD9443788
Probable space group: P N N M
;
_chemical_formula_sum "Si O2"
_cell_formula_units_Z 48
_cell_length_a 15.195801
_cell_length_b 18.989376
_cell_length_c 7.489539
_cell_angle_alpha 90.000000
_cell_angle_beta 90.000000
_cell_angle_gamma 90.000000
_cell_volume 2161.172228
_symmetry_space_group_name_H-M "P N N M"
_symmetry_group_IT_number 58
_symmetry_cell_setting 'orthorhombic'
loop_
_space_group_symop_operation_xyz
x,y,z
-x,-y,z
1/2+x,1/2-y,1/2-z
1/2-x,1/2+y,1/2-z
-x,-y,-z
x,y,-z
1/2-x,1/2+y,1/2+z
1/2+x,1/2-y,1/2+z
loop_
_atom_site_type_symbol
_atom_site_label
_atom_site_fract_x
_atom_site_fract_y
_atom_site_fract_z
Si Si1 0.673159 0.232625 0.781230
Si Si2 0.671851 0.825477 0.295700
Si Si3 0.738290 0.078204 0.783432
Si Si4 0.088703 0.533677 0.207716
Si Si5 0.438472 0.436664 0.715283
Si Si6 0.019226 0.776663 0.289765
O O1 0.738759 0.293912 0.717028
O O2 0.710288 0.156719 0.726968
O O3 0.573448 0.245963 0.724060
O O4 0.674342 0.233771 0.000000
O O5 0.693662 0.845421 0.500000
O O6 0.601869 0.762064 0.297188
O O7 0.624968 0.893403 0.212346
O O8 0.666445 0.022811 0.718540
O O9 0.837100 0.060197 0.723228
O O10 0.737313 0.076881 0.000000
O O11 0.000000 0.500000 0.287032
O O12 0.067227 0.549597 0.000000
O O13 0.500000 0.500000 0.780878
O O14 0.436321 0.440796 0.500000
O O15 0.476029 0.360130 0.762788
O O16 0.025693 0.761808 0.500000
#
# Coordination Sequence:
#
# PCOD9443788 Si02
#       6
#     8   8   8   8   8   8
#     4   9  19  36  57  80 109 151 190 227 289 347
#     4  10  20  39  60  78 115 159 187 226 288 351
#     4  10  20  38  61  82 113 155 194 233 281 343
#     4  10  22  37  57  87 118 149 189 237 290 340
#     4  10  22  40  60  83 116 159 198 232 286 354
#     4  11  22  36  59  89 114 143 193 247 288 336
#
# _framework density 22.210170000000002
#
# number of rings (size 3 to 8) (size 9 to 14) (size 15 to 20)
#    0.000    2.000    1.667    1.500    2.333    2.000 
#    0.000    2.500    0.000    0.000    0.000    0.000 
#    0.000    0.000    0.000    0.000    0.000    0.000 
#
# Total GULP energy -268298.526129 kJ/mol
# GULP energy per Si atom -5589.552628 kJ/mol
# Density = 2.215962 g / cm^3
# Si number density = 22.210170 Si / 1000 Ang^3
#
#
#
# Elastic Constant Matrix: (Units=GPa)
#
#
# Indices 1 2 3 4 5 6 
#
# 1 103.6108 4.1630 -7.4510 0.0000 0.0000 0.0000
# 2 4.1630 87.2544 -11.9955 0.0000 0.0000 0.0000
# 3 -7.4510 -11.9955 62.4473 0.0000 0.0000 0.0000
# 4 0.0000 0.0000 0.0000 16.0349 0.0000 0.0000
# 5 0.0000 0.0000 0.0000 0.0000 8.0094 0.0000
# 6 0.0000 0.0000 0.0000 0.0000 0.0000 40.2293
#
#
#
# Elastic Compliance Matrix: (Units=1/GPa)
#
#
# Indices 1 2 3 4 5 6 
#
# 1 0.009743 -0.000313 0.001102 0.000000 0.000000 0.000000
# 2 -0.000313 0.011782 0.002226 0.000000 0.000000 0.000000
# 3 0.001102 0.002226 0.016573 0.000000 0.000000 0.000000
# 4 0.000000 0.000000 0.000000 0.062364 0.000000 0.000000
# 5 0.000000 0.000000 0.000000 0.000000 0.124853 0.000000
# 6 0.000000 0.000000 0.000000 0.000000 0.000000 0.024857
#
#
# Mechanical properties :
#
#
# Convention : Reuss Voigt Hill
#
# Bulk Modulus (GPa) = 22.66173 24.74949 23.70561
# Shear Modulus (GPa) = 19.31608 30.76113 25.03861
#
# Velocity S-wave (km/s) = 2.95226 3.72560 3.36124
# Velocity P-wave (km/s) = 4.67403 5.44741 5.07547
#
# Compressibility (1/GPa) = 0.04412725
#
# Stress axis : x y z
#
# Youngs Moduli (GPa) = 102.63389 84.87752 60.34061
#
# Poissons Ratio (x) = 0.02659 -0.06652
# Poissons Ratio (y) = 0.03216 -0.13430
# Poissons Ratio (z) = -0.11314 -0.18892
#
# Static dielectric constant tensor:
#      x y z
#    x 1.772130 0.000000 0.000000 
#    y 0.000000 1.778190 0.000000 
#    z 0.000000 0.000000 1.850320 
# 
# From -- ./inp_files/5756.got.cif
#   From: 2010.05.17/outbox.cif.g08.bks.cpg/sg58_3_cif.got.tgz:5756.got - 2010.06.03 14:20:14.
