data_PCOD9443500
_publ_section_title
;
Structure prediction by ZEFSAII (Michael W. Deem and Ramdas Pophale) SiO2 
 PCOD9443500
Probable space group: P N N M
;
_chemical_formula_sum "Si O2"
_cell_formula_units_Z 56
_cell_length_a 12.677959
_cell_length_b 15.644107
_cell_length_c 12.875830
_cell_angle_alpha 90.000000
_cell_angle_beta 90.000000
_cell_angle_gamma 90.000000
_cell_volume 2553.732213
_symmetry_space_group_name_H-M "P N N M"
_symmetry_group_IT_number 58
_symmetry_cell_setting 'orthorhombic'
loop_
_space_group_symop_operation_xyz
x,y,z
-x,-y,z
1/2+x,1/2-y,1/2-z
1/2-x,1/2+y,1/2-z
-x,-y,-z
x,y,-z
1/2-x,1/2+y,1/2+z
1/2+x,1/2-y,1/2+z
loop_
_atom_site_type_symbol
_atom_site_label
_atom_site_fract_x
_atom_site_fract_y
_atom_site_fract_z
Si Si1 0.168179 0.609668 0.163791
Si Si2 0.901070 0.697090 0.697998
Si Si3 0.880533 0.075512 0.696625
Si Si4 0.574341 0.915326 0.116495
Si Si5 0.663544 0.698159 0.382532
Si Si6 0.144959 0.422649 0.886563
Si Si7 0.401137 0.612010 0.181833
O O1 0.156282 0.594962 0.288570
O O2 0.128210 0.703746 0.136571
O O3 0.118507 0.523455 0.119296
O O4 0.289274 0.613053 0.123769
O O5 0.789975 0.689757 0.637774
O O6 0.903971 0.631998 0.794202
O O7 0.905117 0.795217 0.733748
O O8 0.996990 0.666327 0.626676
O O9 0.882804 0.138133 0.794119
O O10 0.771270 0.083726 0.635360
O O11 0.984574 0.098603 0.630269
O O12 0.888318 0.978611 0.739385
O O13 0.500000 0.000000 0.130247
O O14 0.619559 0.920249 0.000000
O O15 0.639178 0.673667 0.500000
O O16 0.119076 0.389185 0.000000
#
# Coordination Sequence:
#
# PCOD9443500 Si02
#       7
#     8   8   8   8   8   8   8
#     4  10  20  38  59  88 121 152 194 247 297 363
#     4  10  20  38  58  86 124 156 196 247 299 360
#     4   9  19  38  59  82 111 150 201 248 290 352
#     4  11  22  38  62  91 120 157 202 247 301 360
#     4  10  20  36  60  85 116 160 200 243 297 357
#     4  10  20  37  60  88 120 154 193 245 306 361
#     4   9  19  38  59  79 115 155 189 245 302 339
#
# _framework density 21.92869
#
# number of rings (size 3 to 8) (size 9 to 14) (size 15 to 20)
#    0.000    2.143    1.429    1.714    0.000    0.000 
#    0.000   27.857    0.000    0.000    0.000    0.000 
#    0.000    0.000    0.000    0.000    0.000    0.000 
#
# Total GULP energy -312059.135098 kJ/mol
# GULP energy per Si atom -5572.484555 kJ/mol
# Density = 2.187878 g / cm^3
# Si number density = 21.928690 Si / 1000 Ang^3
#
#
#
# Elastic Constant Matrix: (Units=GPa)
#
#
# Indices 1 2 3 4 5 6 
#
# 1 72.0173 0.8261 3.8494 0.0000 0.0000 0.0000
# 2 0.8261 125.7030 13.9208 0.0000 0.0000 0.0000
# 3 3.8494 13.9208 120.0391 0.0000 0.0000 0.0000
# 4 0.0000 0.0000 0.0000 10.9874 0.0000 0.0000
# 5 0.0000 0.0000 0.0000 0.0000 -17.2455 0.0000
# 6 0.0000 0.0000 0.0000 0.0000 0.0000 25.0902
#
#
#
# Elastic Compliance Matrix: (Units=1/GPa)
#
#
# Indices 1 2 3 4 5 6 
#
# 1 0.013910 -0.000043 -0.000441 0.000000 0.000000 0.000000
# 2 -0.000043 0.008059 -0.000933 0.000000 0.000000 0.000000
# 3 -0.000441 -0.000933 0.008453 0.000000 0.000000 0.000000
# 4 0.000000 0.000000 0.000000 0.091013 0.000000 0.000000
# 5 0.000000 0.000000 0.000000 0.000000 -0.057986 0.000000
# 6 0.000000 0.000000 0.000000 0.000000 0.000000 0.039856
#
#
# Mechanical properties :
#
#
# Convention : Reuss Voigt Hill
#
# Bulk Modulus (GPa) = 36.24802 39.43910 37.84356
# Shear Modulus (GPa) = 43.35226 23.71065 33.53146
#
# Velocity S-wave (km/s) = 4.45113 3.29182 3.91463
# Velocity P-wave (km/s) = 6.55611 5.69845 6.14227
#
# Compressibility (1/GPa) = 0.02758772
#
# Stress axis : x y z
#
# Youngs Moduli (GPa) = 71.89272 124.08666 118.30141
#
# Poissons Ratio (x) = 0.00528 0.05218
# Poissons Ratio (y) = 0.00306 0.11040
# Poissons Ratio (z) = 0.03171 0.11580
#
# Static dielectric constant tensor:
#      x y z
#    x 1.879920 0.000000 0.000000 
#    y 0.000000 1.808050 0.000000 
#    z 0.000000 0.000000 1.754960 
# 
# From -- ./inp_files/15693.got.cif
#   From: 2010.05.17/outbox.cif.g08.bks.cpg/sg58_8_cif.got.tgz:15693.got - 2010.06.03 14:20:14.
