data_PCOD9443206
_publ_section_title
;
Structure prediction by ZEFSAII (Michael W. Deem and Ramdas Pophale) SiO2 
 PCOD9443206
Probable space group: P N N M
;
_chemical_formula_sum "Si O2"
_cell_formula_units_Z 56
_cell_length_a 17.047104
_cell_length_b 19.463651
_cell_length_c 7.472395
_cell_angle_alpha 90.000000
_cell_angle_beta 90.000000
_cell_angle_gamma 90.000000
_cell_volume 2479.332313
_symmetry_space_group_name_H-M "P N N M"
_symmetry_group_IT_number 58
_symmetry_cell_setting 'orthorhombic'
loop_
_space_group_symop_operation_xyz
x,y,z
-x,-y,z
1/2+x,1/2-y,1/2-z
1/2-x,1/2+y,1/2-z
-x,-y,-z
x,y,-z
1/2-x,1/2+y,1/2+z
1/2+x,1/2-y,1/2+z
loop_
_atom_site_type_symbol
_atom_site_label
_atom_site_fract_x
_atom_site_fract_y
_atom_site_fract_z
Si Si1 0.243426 0.286119 0.283769
Si Si2 0.842865 0.427262 0.718326
Si Si3 0.578401 0.708461 0.718626
Si Si4 0.499615 0.155525 0.293450
Si Si5 0.681332 0.359557 0.711442
Si Si6 0.655724 0.082311 0.796017
Si Si7 0.017532 0.077578 0.218934
O O1 0.244137 0.288512 0.500000
O O2 0.332928 0.276094 0.222662
O O3 0.188696 0.222119 0.234876
O O4 0.209995 0.358363 0.215478
O O5 0.846270 0.425318 0.500000
O O6 0.918583 0.386234 0.783296
O O7 0.762287 0.392085 0.780455
O O8 0.844965 0.506143 0.781104
O O9 0.578443 0.711005 0.500000
O O10 0.519998 0.768766 0.778814
O O11 0.547524 0.633720 0.771814
O O12 0.523703 0.162379 0.500000
O O13 0.568670 0.113714 0.201625
O O14 0.680864 0.373399 0.500000
O O15 0.601857 0.393761 0.781022
O O16 0.683881 0.073018 0.000000
O O17 0.017937 0.076997 0.000000
O O18 0.000000 0.000000 0.277065
#
# Coordination Sequence:
#
# PCOD9443206 Si02
#       7
#     8   8   8   8   8   8   8
#     4  10  20  36  57  79 108 148 185 219 267 325
#     4  10  21  36  54  80 113 144 178 223 272 325
#     4   9  18  32  51  77 108 139 177 222 267 321
#     4  11  21  36  57  80 109 143 180 223 274 328
#     4  10  20  35  56  82 111 142 181 227 273 319
#     4  10  22  36  54  79 109 143 180 224 273 324
#     4   9  18  31  53  83 111 139 177 229 277 317
#
# _framework density 22.586725999999999
#
# number of rings (size 3 to 8) (size 9 to 14) (size 15 to 20)
#    0.000    2.143    1.429    1.714    2.000    4.000 
#    0.000    0.000    0.000    0.429    0.000    0.000 
#    0.000    0.000    0.000    0.000    0.000    0.000 
#
# Total GULP energy -313008.208437 kJ/mol
# GULP energy per Si atom -5589.432294 kJ/mol
# Density = 2.253532 g / cm^3
# Si number density = 22.586726 Si / 1000 Ang^3
#
#
#
# Elastic Constant Matrix: (Units=GPa)
#
#
# Indices 1 2 3 4 5 6 
#
# 1 52.7470 8.6334 -8.4875 0.0000 0.0000 0.0000
# 2 8.6334 150.0906 -10.6355 0.0000 0.0000 0.0000
# 3 -8.4875 -10.6355 65.5963 0.0000 0.0000 0.0000
# 4 0.0000 0.0000 0.0000 8.5153 0.0000 0.0000
# 5 0.0000 0.0000 0.0000 0.0000 -0.3805 0.0000
# 6 0.0000 0.0000 0.0000 0.0000 0.0000 13.4971
#
#
#
# Elastic Compliance Matrix: (Units=1/GPa)
#
#
# Indices 1 2 3 4 5 6 
#
# 1 0.019496 -0.000954 0.002368 0.000000 0.000000 0.000000
# 2 -0.000954 0.006787 0.000977 0.000000 0.000000 0.000000
# 3 0.002368 0.000977 0.015710 0.000000 0.000000 0.000000
# 4 0.000000 0.000000 0.000000 0.117435 0.000000 0.000000
# 5 0.000000 0.000000 0.000000 0.000000 -2.627872 0.000000
# 6 0.000000 0.000000 0.000000 0.000000 0.000000 0.074090
#
#
# Mechanical properties :
#
#
# Convention : Reuss Voigt Hill
#
# Bulk Modulus (GPa) = 21.37925 27.49497 24.43711
# Shear Modulus (GPa) = -2.09771 22.92127 10.41178
#
# Velocity S-wave (km/s) = -0.96476 3.18907 2.14935
# Velocity P-wave (km/s) = 2.87140 5.07540 4.12339
#
# Compressibility (1/GPa) = 0.04677432
#
# Stress axis : x y z
#
# Youngs Moduli (GPa) = 51.29386 147.34643 63.65554
#
# Poissons Ratio (x) = 0.14051 -0.15073
# Poissons Ratio (y) = 0.04891 -0.06219
# Poissons Ratio (z) = -0.12146 -0.14396
#
# Static dielectric constant tensor:
#      x y z
#    x 1.793720 0.000000 0.000000 
#    y 0.000000 1.800920 0.000000 
#    z 0.000000 0.000000 1.869660 
# 
# From -- ./inp_files/6426.got.cif
#   From: 2010.05.17/outbox.cif.g08.bks.cpg/sg58_4_cif.got.tgz:6426.got - 2010.06.03 14:20:14.
