data_PCOD9443385
_publ_section_title
;
Structure prediction by ZEFSAII (Michael W. Deem and Ramdas Pophale) SiO2 
 PCOD9443385
Probable space group: P N N M
;
_chemical_formula_sum "Si O2"
_cell_formula_units_Z 60
_cell_length_a 19.984713
_cell_length_b 13.505433
_cell_length_c 9.710955
_cell_angle_alpha 90.000000
_cell_angle_beta 90.000000
_cell_angle_gamma 90.000000
_cell_volume 2621.008142
_symmetry_space_group_name_H-M "P N N M"
_symmetry_group_IT_number 58
_symmetry_cell_setting 'orthorhombic'
loop_
_space_group_symop_operation_xyz
x,y,z
-x,-y,z
1/2+x,1/2-y,1/2-z
1/2-x,1/2+y,1/2-z
-x,-y,-z
x,y,-z
1/2-x,1/2+y,1/2+z
1/2+x,1/2-y,1/2+z
loop_
_atom_site_type_symbol
_atom_site_label
_atom_site_fract_x
_atom_site_fract_y
_atom_site_fract_z
Si Si1 0.551310 0.695467 0.148866
Si Si2 0.088293 0.972120 0.154390
Si Si3 0.768766 0.119193 0.210231
Si Si4 0.641921 0.320804 0.336474
Si Si5 0.271963 0.155144 0.654813
Si Si6 0.187514 0.823087 0.500000
Si Si7 0.643831 0.978949 0.157270
Si Si8 0.062808 0.340082 0.664356
O O1 0.549617 0.600812 0.245665
O O2 0.630014 0.709591 0.116493
O O3 0.510775 0.793302 0.190712
O O4 0.521825 0.665350 0.000000
O O5 0.166003 0.942540 0.169986
O O6 0.089976 0.088969 0.179413
O O7 0.066663 0.951490 0.000000
O O8 0.777679 0.226985 0.145586
O O9 0.765475 0.135365 0.375127
O O10 0.704088 0.059699 0.159906
O O11 0.654631 0.306431 0.500000
O O12 0.709057 0.354212 0.258095
O O13 0.611601 0.226502 0.258503
O O14 0.259841 0.115946 0.500000
O O15 0.333406 0.100356 0.729443
O O16 0.578394 0.044635 0.189567
O O17 0.639500 0.938462 0.000000
O O18 0.076932 0.326844 0.500000
#
# Coordination Sequence:
#
# PCOD9443385 Si02
#       8
#     8   8   8   8   8   4   8   8
#     4   8  18  37  58  85 110 154 206 247 288 350
#     4  10  20  36  57  80 115 157 199 247 290 348
#     4  11  21  37  62  85 119 152 201 243 299 355
#     4  11  23  35  55  89 123 162 201 243 296 365
#     4  12  25  37  57  88 124 156 198 242 306 366
#     4   8  20  36  64  90 112 154 215 251 290 340
#     4  11  23  38  59  86 121 161 190 243 307 362
#     4  10  21  40  61  82 123 159 200 245 300 358
#
# _framework density 22.891956
#
# number of rings (size 3 to 8) (size 9 to 14) (size 15 to 20)
#    0.400    1.333    2.667    2.000    2.800    2.667 
#    0.000    2.667    0.000    4.000    0.000    4.667 
#    0.000    0.000    0.000    0.000    0.000    0.000 
#
# Total GULP energy -334017.670338 kJ/mol
# GULP energy per Si atom -5566.961172 kJ/mol
# Density = 2.283985 g / cm^3
# Si number density = 22.891956 Si / 1000 Ang^3
#
#
#
# Elastic Constant Matrix: (Units=GPa)
#
#
# Indices 1 2 3 4 5 6 
#
# 1 44.9713 -5.7528 2.9399 0.0000 0.0000 0.0000
# 2 -5.7528 86.5755 30.2881 0.0000 0.0000 0.0000
# 3 2.9399 30.2881 118.4735 0.0000 0.0000 0.0000
# 4 0.0000 0.0000 0.0000 63.0360 0.0000 0.0000
# 5 0.0000 0.0000 0.0000 0.0000 5.9523 0.0000
# 6 0.0000 0.0000 0.0000 0.0000 0.0000 39.7986
#
#
#
# Elastic Compliance Matrix: (Units=1/GPa)
#
#
# Indices 1 2 3 4 5 6 
#
# 1 0.022542 0.001860 -0.001035 0.000000 0.000000 0.000000
# 2 0.001860 0.012839 -0.003328 0.000000 0.000000 0.000000
# 3 -0.001035 -0.003328 0.009317 0.000000 0.000000 0.000000
# 4 0.000000 0.000000 0.000000 0.015864 0.000000 0.000000
# 5 0.000000 0.000000 0.000000 0.000000 0.168002 0.000000
# 6 0.000000 0.000000 0.000000 0.000000 0.000000 0.025127
#
#
# Mechanical properties :
#
#
# Convention : Reuss Voigt Hill
#
# Bulk Modulus (GPa) = 25.19449 33.88564 29.54007
# Shear Modulus (GPa) = 18.38726 36.59373 27.49049
#
# Velocity S-wave (km/s) = 2.83719 4.00251 3.46913
# Velocity P-wave (km/s) = 4.66504 6.01620 5.38318
#
# Compressibility (1/GPa) = 0.03969122
#
# Stress axis : x y z
#
# Youngs Moduli (GPa) = 44.36170 77.88999 107.32729
#
# Poissons Ratio (x) = -0.14487 0.11107
# Poissons Ratio (y) = -0.08251 0.35723
# Poissons Ratio (z) = 0.04591 0.25925
#
# Static dielectric constant tensor:
#      x y z
#    x 1.911290 0.000000 0.000000 
#    y 0.000000 1.916580 0.000000 
#    z 0.000000 0.000000 1.872450 
# 
# From -- ./inp_files/9861.got.cif
#   From: 2010.05.17/outbox.cif.g08.bks.cpg/sg58_5_cif.got.tgz:9861.got - 2010.06.03 14:20:14.
