data_PCOD9443496
_publ_section_title
;
Structure prediction by ZEFSAII (Michael W. Deem and Ramdas Pophale) SiO2 
 PCOD9443496
Probable space group: P N N M
;
_chemical_formula_sum "Si O2"
_cell_formula_units_Z 32
_cell_length_a 21.198701
_cell_length_b 9.189026
_cell_length_c 7.597454
_cell_angle_alpha 90.000000
_cell_angle_beta 90.000000
_cell_angle_gamma 90.000000
_cell_volume 1479.949202
_symmetry_space_group_name_H-M "P N N M"
_symmetry_group_IT_number 58
_symmetry_cell_setting 'orthorhombic'
loop_
_space_group_symop_operation_xyz
x,y,z
-x,-y,z
1/2+x,1/2-y,1/2-z
1/2-x,1/2+y,1/2-z
-x,-y,-z
x,y,-z
1/2-x,1/2+y,1/2+z
1/2+x,1/2-y,1/2+z
loop_
_atom_site_type_symbol
_atom_site_label
_atom_site_fract_x
_atom_site_fract_y
_atom_site_fract_z
Si Si1 0.934670 0.924192 0.284561
Si Si2 0.310852 0.402811 0.212612
Si Si3 0.815676 0.438267 0.208252
Si Si4 0.943409 0.595441 0.295339
O O1 0.932536 0.925147 0.500000
O O2 0.934033 0.757310 0.222090
O O3 0.873480 0.013726 0.224834
O O4 0.000000 0.000000 0.232668
O O5 0.247324 0.482171 0.275919
O O6 0.311759 0.233834 0.261384
O O7 0.310833 0.411220 0.000000
O O8 0.878769 0.506322 0.287695
O O9 0.819502 0.464723 0.000000
O O10 0.960739 0.619561 0.500000
O O11 0.000000 0.500000 0.215650
#
# Coordination Sequence:
#
# PCOD9443496 Si02
#       4
#     8   8   8   8
#     4   9  17  32  56  83 107 137 185 235 272 319
#     4  10  21  37  56  79 110 147 185 227 278 335
#     4  11  23  37  56  83 114 147 185 234 283 328
#     4  10  20  36  60  85 111 148 189 229 277 334
#
# _framework density 21.622364000000001
#
# number of rings (size 3 to 8) (size 9 to 14) (size 15 to 20)
#    0.000    2.000    0.000    3.750    0.000    8.500 
#    0.000    1.250    0.000    3.000    0.000    0.000 
#    0.000    0.000    0.000    0.000    0.000    0.000 
#
# Total GULP energy -178893.089540 kJ/mol
# GULP energy per Si atom -5590.409048 kJ/mol
# Density = 2.157315 g / cm^3
# Si number density = 21.622364 Si / 1000 Ang^3
#
#
#
# Elastic Constant Matrix: (Units=GPa)
#
#
# Indices 1 2 3 4 5 6 
#
# 1 175.6399 93.6204 -16.6406 0.0000 0.0000 0.0000
# 2 93.6204 203.1157 -18.9878 0.0000 0.0000 0.0000
# 3 -16.6406 -18.9878 42.8877 0.0000 0.0000 0.0000
# 4 0.0000 0.0000 0.0000 18.5279 0.0000 0.0000
# 5 0.0000 0.0000 0.0000 0.0000 -16.7452 0.0000
# 6 0.0000 0.0000 0.0000 0.0000 0.0000 43.7911
#
#
#
# Elastic Compliance Matrix: (Units=1/GPa)
#
#
# Indices 1 2 3 4 5 6 
#
# 1 0.007635 -0.003382 0.001465 0.000000 0.000000 0.000000
# 2 -0.003382 0.006634 0.001625 0.000000 0.000000 0.000000
# 3 0.001465 0.001625 0.024605 0.000000 0.000000 0.000000
# 4 0.000000 0.000000 0.000000 0.053973 0.000000 0.000000
# 5 0.000000 0.000000 0.000000 0.000000 -0.059719 0.000000
# 6 0.000000 0.000000 0.000000 0.000000 0.000000 0.022836
#
#
# Mechanical properties :
#
#
# Convention : Reuss Voigt Hill
#
# Bulk Modulus (GPa) = 26.11714 59.73634 42.92674
# Shear Modulus (GPa) = 72.13835 33.35819 52.74827
#
# Velocity S-wave (km/s) = 5.78232 3.93206 4.94451
# Velocity P-wave (km/s) = 7.52897 6.94996 7.24525
#
# Compressibility (1/GPa) = 0.03828904
#
# Stress axis : x y z
#
# Youngs Moduli (GPa) = 130.97461 150.73567 40.64293
#
# Poissons Ratio (x) = 0.50982 -0.05954
# Poissons Ratio (y) = 0.44298 -0.06604
# Poissons Ratio (z) = -0.19188 -0.24492
#
# Static dielectric constant tensor:
#      x y z
#    x 1.743750 0.000000 0.000000 
#    y 0.000000 1.736660 0.000000 
#    z 0.000000 0.000000 1.822550 
# 
# From -- ./inp_files/2138.got.cif
#   From: 2010.05.17/outbox.cif.g08.bks.cpg/sg58_2_cif.got.tgz:2138.got - 2010.06.03 14:20:14.
