data_PCOD9443237
_publ_section_title
;
Structure prediction by ZEFSAII (Michael W. Deem and Ramdas Pophale) SiO2 
 PCOD9443237
Probable space group: P N N M
;
_chemical_formula_sum "Si O2"
_cell_formula_units_Z 64
_cell_length_a 16.906807
_cell_length_b 21.225100
_cell_length_c 8.933673
_cell_angle_alpha 90.000000
_cell_angle_beta 90.000000
_cell_angle_gamma 90.000000
_cell_volume 3205.836668
_symmetry_space_group_name_H-M "P N N M"
_symmetry_group_IT_number 58
_symmetry_cell_setting 'orthorhombic'
loop_
_space_group_symop_operation_xyz
x,y,z
-x,-y,z
1/2+x,1/2-y,1/2-z
1/2-x,1/2+y,1/2-z
-x,-y,-z
x,y,-z
1/2-x,1/2+y,1/2+z
1/2+x,1/2-y,1/2+z
loop_
_atom_site_type_symbol
_atom_site_label
_atom_site_fract_x
_atom_site_fract_y
_atom_site_fract_z
Si Si1 0.321596 0.288667 0.829675
Si Si2 0.891913 0.348670 0.678007
Si Si3 0.461517 0.392170 0.829280
Si Si4 0.599666 0.300445 0.819444
Si Si5 0.057063 0.334651 0.177532
Si Si6 0.209240 0.380376 0.322945
Si Si7 0.722270 0.385682 0.680297
Si Si8 0.156134 0.981235 0.820601
O O1 0.359955 0.222015 0.791822
O O2 0.392587 0.339229 0.830382
O O3 0.255771 0.316345 0.720318
O O4 0.289321 0.284773 0.000000
O O5 0.908743 0.352733 0.500000
O O6 0.815629 0.391237 0.712881
O O7 0.971829 0.358716 0.767932
O O8 0.537230 0.354651 0.769500
O O9 0.423436 0.450467 0.742825
O O10 0.477990 0.411052 0.000000
O O11 0.573359 0.233664 0.752821
O O12 0.683074 0.325488 0.758573
O O13 0.598177 0.296558 0.000000
O O14 0.127390 0.379335 0.235125
O O15 0.059282 0.328157 0.000000
O O16 0.195007 0.382791 0.500000
O O17 0.269500 0.436297 0.280303
O O18 0.715205 0.378539 0.500000
O O19 0.676520 0.448486 0.729381
O O20 0.150992 0.981098 0.000000
#
# Coordination Sequence:
#
# PCOD9443237 Si02
#       8
#     8   8   8   8   8   8   8   8
#     4   9  16  31  54  80 110 142 182 229 282 336
#     4  10  20  37  58  79 111 149 184 230 287 344
#     4   9  18  33  55  82 113 150 188 229 278 333
#     4  11  22  38  59  87 120 150 188 232 284 347
#     4  12  24  37  57  86 116 145 184 235 292 346
#     4  10  20  35  57  82 111 149 192 235 280 333
#     4  10  22  39  59  85 116 153 193 236 284 332
#     4   9  20  38  58  83 115 152 198 239 275 329
#
# _framework density 19.963585999999999
#
# number of rings (size 3 to 8) (size 9 to 14) (size 15 to 20)
#    0.000    2.000    1.250    2.625    0.000    4.500 
#    0.000    3.125    0.000    3.750    0.000    0.000 
#    0.000    0.000    0.000    0.000    0.000    0.000 
#
# Total GULP energy -357478.687952 kJ/mol
# GULP energy per Si atom -5585.604499 kJ/mol
# Density = 1.991815 g / cm^3
# Si number density = 19.963586 Si / 1000 Ang^3
#
#
#
# Elastic Constant Matrix: (Units=GPa)
#
#
# Indices 1 2 3 4 5 6 
#
# 1 76.8687 -6.2245 24.8182 0.0000 0.0000 0.0000
# 2 -6.2245 42.6513 2.7267 0.0000 0.0000 0.0000
# 3 24.8182 2.7267 40.8341 0.0000 0.0000 0.0000
# 4 0.0000 0.0000 0.0000 3.1265 0.0000 0.0000
# 5 0.0000 0.0000 0.0000 0.0000 -297.8261 0.0000
# 6 0.0000 0.0000 0.0000 0.0000 0.0000 25.0679
#
#
#
# Elastic Compliance Matrix: (Units=1/GPa)
#
#
# Indices 1 2 3 4 5 6 
#
# 1 0.016578 0.003077 -0.010281 0.000000 0.000000 0.000000
# 2 0.003077 0.024117 -0.003480 0.000000 0.000000 0.000000
# 3 -0.010281 -0.003480 0.030970 0.000000 0.000000 0.000000
# 4 0.000000 0.000000 0.000000 0.319851 0.000000 0.000000
# 5 0.000000 0.000000 0.000000 0.000000 -0.003358 0.000000
# 6 0.000000 0.000000 0.000000 0.000000 0.000000 0.039892
#
#
# Mechanical properties :
#
#
# Convention : Reuss Voigt Hill
#
# Bulk Modulus (GPa) = 19.88232 22.55498 21.21865
# Shear Modulus (GPa) = 10.72536 -44.65743 -16.96603
#
# Velocity S-wave (km/s) = 2.32037 -4.73477 -2.91838
# Velocity P-wave (km/s) = 4.14243 4.30907 0.83915
#
# Compressibility (1/GPa) = 0.05029594
#
# Stress axis : x y z
#
# Youngs Moduli (GPa) = 60.32196 41.46380 32.28897
#
# Poissons Ratio (x) = -0.12757 0.33196
# Poissons Ratio (y) = -0.18559 0.11238
# Poissons Ratio (z) = 0.62017 0.14431
#
# Static dielectric constant tensor:
#      x y z
#    x 1.720520 0.000000 0.000000 
#    y 0.000000 1.711390 0.000000 
#    z 0.000000 0.000000 1.677520 
# 
# From -- ./inp_files/6849.got.cif
#   From: 2010.05.17/outbox.cif.g08.bks.cpg/sg58_4_cif.got.tgz:6849.got - 2010.06.03 14:20:14.
