data_PCOD9443484
_publ_section_title
;
Structure prediction by ZEFSAII (Michael W. Deem and Ramdas Pophale) SiO2 
 PCOD9443484
Probable space group: P N N M
;
_chemical_formula_sum "Si O2"
_cell_formula_units_Z 56
_cell_length_a 9.755042
_cell_length_b 21.262892
_cell_length_c 13.529948
_cell_angle_alpha 90.000000
_cell_angle_beta 90.000000
_cell_angle_gamma 90.000000
_cell_volume 2806.387287
_symmetry_space_group_name_H-M "P N N M"
_symmetry_group_IT_number 58
_symmetry_cell_setting 'orthorhombic'
loop_
_space_group_symop_operation_xyz
x,y,z
-x,-y,z
1/2+x,1/2-y,1/2-z
1/2-x,1/2+y,1/2-z
-x,-y,-z
x,y,-z
1/2-x,1/2+y,1/2+z
1/2+x,1/2-y,1/2+z
loop_
_atom_site_type_symbol
_atom_site_label
_atom_site_fract_x
_atom_site_fract_y
_atom_site_fract_z
Si Si1 0.669236 0.814639 0.734380
Si Si2 0.762560 0.922771 0.114111
Si Si3 0.500000 0.000000 0.829061
Si Si4 0.586397 0.726870 0.105362
Si Si5 0.622070 0.121642 0.273075
Si Si6 0.294571 0.787030 0.891737
Si Si7 0.000000 0.000000 0.778333
Si Si8 0.375301 0.410295 0.112174
O O1 0.738273 0.869306 0.801075
O O2 0.673396 0.754818 0.807609
O O3 0.515731 0.837989 0.709772
O O4 0.733245 0.780707 0.639469
O O5 0.623183 0.964644 0.114551
O O6 0.782508 0.900444 0.000000
O O7 0.890982 0.963315 0.153485
O O8 0.571809 0.054041 0.764636
O O9 0.456031 0.772074 0.101744
O O10 0.541855 0.655179 0.119979
O O11 0.659131 0.729708 0.000000
O O12 0.710145 0.156201 0.186732
O O13 0.719665 0.111288 0.366335
O O14 0.242923 0.806000 0.000000
O O15 0.080043 0.954805 0.701257
O O16 0.390299 0.435118 0.000000
#
# Coordination Sequence:
#
# PCOD9443484 Si02
#       8
#     8   8   4   8   8   8   4   8
#     4  10  20  36  62  87 124 158 203 252 313 372
#     4  11  23  39  64  93 125 167 210 259 317 378
#     4  10  21  42  65  90 130 172 213 258 317 380
#     4   9  18  34  58  84 115 153 198 248 299 366
#     4  10  21  39  62  90 125 162 211 262 306 374
#     4  10  20  36  59  90 122 159 201 251 314 371
#     4  12  24  42  62  90 132 156 212 266 310 360
#     4  11  22  40  64  88 120 168 210 253 314 373
#
# _framework density 19.954481000000001
#
# number of rings (size 3 to 8) (size 9 to 14) (size 15 to 20)
#    0.000    1.714    2.857    1.929    0.000    4.571 
#    0.000    1.071    0.000    0.000    0.000    0.000 
#    0.000    0.000    0.000    0.000    0.000    0.000 
#
# Total GULP energy -311803.472076 kJ/mol
# GULP energy per Si atom -5567.919144 kJ/mol
# Density = 1.990906 g / cm^3
# Si number density = 19.954481 Si / 1000 Ang^3
#
#
#
# Elastic Constant Matrix: (Units=GPa)
#
#
# Indices 1 2 3 4 5 6 
#
# 1 52.9188 14.8676 23.5151 0.0000 0.0000 0.0000
# 2 14.8676 70.8696 22.4227 0.0000 0.0000 0.0000
# 3 23.5151 22.4227 66.4963 0.0000 0.0000 0.0000
# 4 0.0000 0.0000 0.0000 -0.5950 0.0000 0.0000
# 5 0.0000 0.0000 0.0000 0.0000 3.4201 0.0000
# 6 0.0000 0.0000 0.0000 0.0000 0.0000 27.8464
#
#
#
# Elastic Compliance Matrix: (Units=1/GPa)
#
#
# Indices 1 2 3 4 5 6 
#
# 1 0.022809 -0.002500 -0.007223 0.000000 0.000000 0.000000
# 2 -0.002500 0.016070 -0.004535 0.000000 0.000000 0.000000
# 3 -0.007223 -0.004535 0.019122 0.000000 0.000000 0.000000
# 4 0.000000 0.000000 0.000000 -1.680743 0.000000 0.000000
# 5 0.000000 0.000000 0.000000 0.000000 0.292388 0.000000
# 6 0.000000 0.000000 0.000000 0.000000 0.000000 0.035911
#
#
# Mechanical properties :
#
#
# Convention : Reuss Voigt Hill
#
# Bulk Modulus (GPa) = 33.91512 34.65505 34.28509
# Shear Modulus (GPa) = -3.98057 14.76627 5.39285
#
# Velocity S-wave (km/s) = -1.41392 2.72324 1.64573
# Velocity P-wave (km/s) = 3.79046 5.22425 4.56401
#
# Compressibility (1/GPa) = 0.02948538
#
# Stress axis : x y z
#
# Youngs Moduli (GPa) = 43.84279 62.22935 52.29633
#
# Poissons Ratio (x) = 0.15555 0.37773
# Poissons Ratio (y) = 0.10959 0.23715
# Poissons Ratio (z) = 0.31667 0.28219
#
# Static dielectric constant tensor:
#      x y z
#    x 1.732130 0.000000 0.000000 
#    y 0.000000 1.720110 0.000000 
#    z 0.000000 0.000000 1.761670 
# 
# From -- ./inp_files/20165.got.cif
#   From: 2010.05.17/outbox.cif.g08.bks.cpg/sg58_11_cif.got.tgz:20165.got - 2010.06.03 14:20:14.
