data_PCOD9443997
_publ_section_title
;
Structure prediction by ZEFSAII (Michael W. Deem and Ramdas Pophale) SiO2 
 PCOD9443997
Probable space group: P N N M
;
_chemical_formula_sum "Si O2"
_cell_formula_units_Z 64
_cell_length_a 19.447882
_cell_length_b 16.391124
_cell_length_c 9.341876
_cell_angle_alpha 90.000000
_cell_angle_beta 90.000000
_cell_angle_gamma 90.000000
_cell_volume 2977.934526
_symmetry_space_group_name_H-M "P N N M"
_symmetry_group_IT_number 58
_symmetry_cell_setting 'orthorhombic'
loop_
_space_group_symop_operation_xyz
x,y,z
-x,-y,z
1/2+x,1/2-y,1/2-z
1/2-x,1/2+y,1/2-z
-x,-y,-z
x,y,-z
1/2-x,1/2+y,1/2+z
1/2+x,1/2-y,1/2+z
loop_
_atom_site_type_symbol
_atom_site_label
_atom_site_fract_x
_atom_site_fract_y
_atom_site_fract_z
Si Si1 0.050535 0.832663 0.834849
Si Si2 0.690961 0.675637 0.835928
Si Si3 0.833637 0.426607 0.666453
Si Si4 0.795335 0.988161 0.665684
Si Si5 0.414516 0.901765 0.833629
Si Si6 0.588317 0.410049 0.669714
Si Si7 0.667226 0.238600 0.669774
Si Si8 0.955539 0.355455 0.165516
O O1 0.121898 0.828932 0.753539
O O2 0.022904 0.739575 0.831765
O O3 0.989704 0.891687 0.783077
O O4 0.063772 0.853823 0.000000
O O5 0.722055 0.584129 0.830058
O O6 0.751906 0.736331 0.791025
O O7 0.672678 0.693642 0.000000
O O8 0.824547 0.404152 0.500000
O O9 0.761443 0.439841 0.744376
O O10 0.872883 0.513921 0.672835
O O11 0.884188 0.366364 0.750664
O O12 0.796437 0.962429 0.500000
O O13 0.869354 0.974593 0.738593
O O14 0.370269 0.829455 0.763845
O O15 0.485114 0.904696 0.745597
O O16 0.429813 0.884465 0.000000
O O17 0.588036 0.430168 0.500000
O O18 0.630652 0.325384 0.686715
O O19 0.662961 0.217020 0.500000
O O20 0.947816 0.380227 0.000000
#
# Coordination Sequence:
#
# PCOD9443997 Si02
#       8
#     8   8   8   8   8   8   8   8
#     4  10  23  42  64  90 121 160 206 254 305 364
#     4  10  23  41  64  91 123 162 203 252 307 363
#     4  11  24  40  59  90 128 164 205 252 305 365
#     4  11  24  42  64  92 122 160 207 254 308 365
#     4  11  22  37  61  92 125 163 205 252 303 363
#     4  10  22  42  65  90 123 163 205 251 306 365
#     4  10  20  40  65  88 122 164 204 246 305 368
#     4  11  23  40  61  90 126 165 207 252 303 368
#
# _framework density 21.491406000000001
#
# number of rings (size 3 to 8) (size 9 to 14) (size 15 to 20)
#    0.000    1.500    2.500    1.875    1.750    7.000 
#    0.000    2.500    0.000    0.000    0.000    0.000 
#    0.000    0.000    0.000    0.000    0.000    0.000 
#
# Total GULP energy -358012.214957 kJ/mol
# GULP energy per Si atom -5593.940859 kJ/mol
# Density = 2.144249 g / cm^3
# Si number density = 21.491406 Si / 1000 Ang^3
#
#
#
# Elastic Constant Matrix: (Units=GPa)
#
#
# Indices 1 2 3 4 5 6 
#
# 1 129.6060 -2.8744 52.3626 0.0000 0.0000 0.0000
# 2 -2.8744 49.9982 13.9605 0.0000 0.0000 0.0000
# 3 52.3626 13.9605 96.2746 0.0000 0.0000 0.0000
# 4 0.0000 0.0000 0.0000 24.7196 0.0000 0.0000
# 5 0.0000 0.0000 0.0000 0.0000 42.6308 0.0000
# 6 0.0000 0.0000 0.0000 0.0000 0.0000 38.9985
#
#
#
# Elastic Compliance Matrix: (Units=1/GPa)
#
#
# Indices 1 2 3 4 5 6 
#
# 1 0.010117 0.002207 -0.005823 0.000000 0.000000 0.000000
# 2 0.002207 0.021326 -0.004293 0.000000 0.000000 0.000000
# 3 -0.005823 -0.004293 0.014176 0.000000 0.000000 0.000000
# 4 0.000000 0.000000 0.000000 0.040454 0.000000 0.000000
# 5 0.000000 0.000000 0.000000 0.000000 0.023457 0.000000
# 6 0.000000 0.000000 0.000000 0.000000 0.000000 0.025642
#
#
# Mechanical properties :
#
#
# Convention : Reuss Voigt Hill
#
# Bulk Modulus (GPa) = 33.55344 44.75292 39.15318
# Shear Modulus (GPa) = 31.07062 35.43179 33.25121
#
# Velocity S-wave (km/s) = 3.80639 4.06476 3.93770
# Velocity P-wave (km/s) = 5.91308 6.54970 6.23952
#
# Compressibility (1/GPa) = 0.02980320
#
# Stress axis : x y z
#
# Youngs Moduli (GPa) = 98.84276 46.89033 70.54001
#
# Poissons Ratio (x) = -0.10351 0.41073
# Poissons Ratio (y) = -0.21819 0.30283
# Poissons Ratio (z) = 0.57553 0.20130
#
# Static dielectric constant tensor:
#      x y z
#    x 1.780340 0.000000 0.000000 
#    y 0.000000 1.806960 0.000000 
#    z 0.000000 0.000000 1.724630 
# 
# From -- ./inp_files/9276.got.cif
#   From: 2010.05.17/outbox.cif.g08.bks.cpg/sg58_5_cif.got.tgz:9276.got - 2010.06.03 14:20:14.
