data_PCOD9443980
_publ_section_title
;
Structure prediction by ZEFSAII (Michael W. Deem and Ramdas Pophale) SiO2 
 PCOD9443980
Probable space group: P N N M
;
_chemical_formula_sum "Si O2"
_cell_formula_units_Z 48
_cell_length_a 6.580836
_cell_length_b 27.126858
_cell_length_c 13.970532
_cell_angle_alpha 90.000000
_cell_angle_beta 90.000000
_cell_angle_gamma 90.000000
_cell_volume 2493.983101
_symmetry_space_group_name_H-M "P N N M"
_symmetry_group_IT_number 58
_symmetry_cell_setting 'orthorhombic'
loop_
_space_group_symop_operation_xyz
x,y,z
-x,-y,z
1/2+x,1/2-y,1/2-z
1/2-x,1/2+y,1/2-z
-x,-y,-z
x,y,-z
1/2-x,1/2+y,1/2+z
1/2+x,1/2-y,1/2+z
loop_
_atom_site_type_symbol
_atom_site_label
_atom_site_fract_x
_atom_site_fract_y
_atom_site_fract_z
Si Si1 0.299845 0.865527 0.112707
Si Si2 0.607996 0.791920 0.792320
Si Si3 0.723307 0.114239 0.609610
Si Si4 0.535877 0.942221 0.231954
Si Si5 0.080708 0.120048 0.243676
Si Si6 0.586919 0.228033 0.605445
O O1 0.413605 0.820416 0.165726
O O2 0.432482 0.913136 0.143710
O O3 0.077561 0.873651 0.156915
O O4 0.296297 0.858409 0.000000
O O5 0.768798 0.833460 0.759970
O O6 0.552877 0.761724 0.697072
O O7 0.708237 0.757837 0.872414
O O8 0.738029 0.097496 0.500000
O O9 0.577597 0.080465 0.674660
O O10 0.633284 0.169704 0.608954
O O11 0.940691 0.116971 0.662305
O O12 0.771704 0.926869 0.235563
O O13 0.500000 0.000000 0.226535
O O14 0.506905 0.240671 0.500000
#
# Coordination Sequence:
#
# PCOD9443980 Si02
#       6
#     8   8   8   8   8   8
#     4  10  22  40  61  89 120 160 204 254 314 372
#     4  11  22  41  60  89 131 162 206 256 305 372
#     4  10  21  39  59  88 121 159 207 252 306 369
#     4  10  22  41  63  88 123 162 202 260 316 367
#     4  10  20  40  61  85 120 163 199 256 301 370
#     4  11  22  38  62  89 122 164 205 249 306 366
#
# _framework density 19.246323
#
# number of rings (size 3 to 8) (size 9 to 14) (size 15 to 20)
#    0.000    1.667    5.000    1.500    0.000    8.000 
#    0.000    2.500    0.000    0.000    0.000    0.000 
#    0.000    0.000    0.000    0.000    0.000    0.000 
#
# Total GULP energy -268085.458310 kJ/mol
# GULP energy per Si atom -5585.113715 kJ/mol
# Density = 1.920252 g / cm^3
# Si number density = 19.246323 Si / 1000 Ang^3
#
#
#
# Elastic Constant Matrix: (Units=GPa)
#
#
# Indices 1 2 3 4 5 6 
#
# 1 95.8987 16.3371 43.1164 0.0000 0.0000 0.0000
# 2 16.3371 78.7783 12.3625 0.0000 0.0000 0.0000
# 3 43.1164 12.3625 158.9290 0.0000 0.0000 0.0000
# 4 0.0000 0.0000 0.0000 11.2734 0.0000 0.0000
# 5 0.0000 0.0000 0.0000 0.0000 12.7462 0.0000
# 6 0.0000 0.0000 0.0000 0.0000 0.0000 20.6093
#
#
#
# Elastic Compliance Matrix: (Units=1/GPa)
#
#
# Indices 1 2 3 4 5 6 
#
# 1 0.012190 -0.002034 -0.003149 0.000000 0.000000 0.000000
# 2 -0.002034 0.013190 -0.000474 0.000000 0.000000 0.000000
# 3 -0.003149 -0.000474 0.007183 0.000000 0.000000 0.000000
# 4 0.000000 0.000000 0.000000 0.088705 0.000000 0.000000
# 5 0.000000 0.000000 0.000000 0.000000 0.078454 0.000000
# 6 0.000000 0.000000 0.000000 0.000000 0.000000 0.048522
#
#
# Mechanical properties :
#
#
# Convention : Reuss Voigt Hill
#
# Bulk Modulus (GPa) = 47.06010 53.02644 50.04327
# Shear Modulus (GPa) = 18.75181 26.37845 22.56513
#
# Velocity S-wave (km/s) = 3.12477 3.70614 3.42780
# Velocity P-wave (km/s) = 6.12564 6.77682 6.45944
#
# Compressibility (1/GPa) = 0.02124942
#
# Stress axis : x y z
#
# Youngs Moduli (GPa) = 82.03528 75.81471 139.21243
#
# Poissons Ratio (x) = 0.15419 0.43836
# Poissons Ratio (y) = 0.16684 0.06602
# Poissons Ratio (z) = 0.25832 0.03596
#
# Static dielectric constant tensor:
#      x y z
#    x 1.687710 0.000000 0.000000 
#    y 0.000000 1.667050 0.000000 
#    z 0.000000 0.000000 1.665200 
# 
# From -- ./inp_files/18586.got.cif
#   From: 2010.05.17/outbox.cif.g08.bks.cpg/sg58_10_cif.got.tgz:18586.got - 2010.06.03 14:20:14.
