data_PCOD9443085
_publ_section_title
;
Structure prediction by ZEFSAII (Michael W. Deem and Ramdas Pophale) SiO2 
 PCOD9443085
Probable space group: P N N M
;
_chemical_formula_sum "Si O2"
_cell_formula_units_Z 58
_cell_length_a 16.331997
_cell_length_b 14.860245
_cell_length_c 13.015663
_cell_angle_alpha 90.000000
_cell_angle_beta 90.000000
_cell_angle_gamma 90.000000
_cell_volume 3158.868568
_symmetry_space_group_name_H-M "P N N M"
_symmetry_group_IT_number 58
_symmetry_cell_setting 'orthorhombic'
loop_
_space_group_symop_operation_xyz
x,y,z
-x,-y,z
1/2+x,1/2-y,1/2-z
1/2-x,1/2+y,1/2-z
-x,-y,-z
x,y,-z
1/2-x,1/2+y,1/2+z
1/2+x,1/2-y,1/2+z
loop_
_atom_site_type_symbol
_atom_site_label
_atom_site_fract_x
_atom_site_fract_y
_atom_site_fract_z
Si Si1 0.437356 0.619508 0.665323
Si Si2 0.906299 0.232692 0.814313
Si Si3 0.875374 0.931262 0.383278
Si Si4 0.843257 0.141490 0.386403
Si Si5 0.000000 0.000000 0.000000
Si Si6 0.222563 0.248662 0.613588
Si Si7 0.335220 0.793775 0.668674
Si Si8 0.497930 0.896965 0.620067
O O1 0.522598 0.670426 0.637439
O O2 0.432286 0.592960 0.785740
O O3 0.436581 0.535402 0.590709
O O4 0.366148 0.692549 0.645060
O O5 0.891502 0.193178 0.701765
O O6 0.819064 0.235158 0.870421
O O7 0.943047 0.332406 0.815883
O O8 0.910846 0.924371 0.500000
O O9 0.802578 0.857049 0.379347
O O10 0.845806 0.033757 0.369628
O O11 0.876418 0.158895 0.500000
O O12 0.750529 0.177610 0.379037
O O13 0.198071 0.279387 0.500000
O O14 0.176599 0.295971 0.707889
O O15 0.406832 0.858779 0.632240
O O16 0.522394 0.890283 0.500000
O O17 0.500000 0.000000 0.651436
#
# Coordination Sequence:
#
# PCOD9443085 Si02
#       8
#     8   8   8   8   2   8   8   8
#     4  10  22  37  53  81 116 150 189 220 288 329
#     4  10  21  35  54  82 113 146 180 233 273 341
#     4   9  19  37  58  84 109 143 193 242 277 331
#     4  10  20  34  58  83 112 145 182 227 284 327
#     4  12  24  32  54  76 110 160 176 218 260 354
#     4   9  18  34  58  81 109 144 186 230 275 326
#     4   9  20  36  55  81 112 145 177 231 276 336
#     4  10  21  35  57  84 108 140 184 233 277 318
#
# _framework density 18.361004999999999
#
# number of rings (size 3 to 8) (size 9 to 14) (size 15 to 20)
#    0.000    2.345    0.000    1.655    7.724    0.552 
#    0.000    3.793    0.000    1.655    0.000    0.000 
#    0.000    0.000    0.000    0.000    0.000    0.000 
#
# Total GULP energy -322880.198117 kJ/mol
# GULP energy per Si atom -5566.899968 kJ/mol
# Density = 1.831921 g / cm^3
# Si number density = 18.361005 Si / 1000 Ang^3
#
#
#
# Elastic Constant Matrix: (Units=GPa)
#
#
# Indices 1 2 3 4 5 6 
#
# 1 40.4757 7.0362 6.5422 0.0000 0.0000 0.0000
# 2 7.0362 77.6438 30.8980 0.0000 0.0000 0.0000
# 3 6.5422 30.8980 98.7560 0.0000 0.0000 0.0000
# 4 0.0000 0.0000 0.0000 11.2684 0.0000 0.0000
# 5 0.0000 0.0000 0.0000 0.0000 20.4169 0.0000
# 6 0.0000 0.0000 0.0000 0.0000 0.0000 16.7137
#
#
#
# Elastic Compliance Matrix: (Units=1/GPa)
#
#
# Indices 1 2 3 4 5 6 
#
# 1 0.025204 -0.001850 -0.001091 0.000000 0.000000 0.000000
# 2 -0.001850 0.014847 -0.004523 0.000000 0.000000 0.000000
# 3 -0.001091 -0.004523 0.011613 0.000000 0.000000 0.000000
# 4 0.000000 0.000000 0.000000 0.088744 0.000000 0.000000
# 5 0.000000 0.000000 0.000000 0.000000 0.048979 0.000000
# 6 0.000000 0.000000 0.000000 0.000000 0.000000 0.059831
#
#
# Mechanical properties :
#
#
# Convention : Reuss Voigt Hill
#
# Bulk Modulus (GPa) = 27.22032 33.98093 30.60062
# Shear Modulus (GPa) = 18.09033 21.17305 19.63169
#
# Velocity S-wave (km/s) = 3.14229 3.39950 3.27342
# Velocity P-wave (km/s) = 5.29363 5.82718 5.56680
#
# Compressibility (1/GPa) = 0.03673726
#
# Stress axis : x y z
#
# Youngs Moduli (GPa) = 39.67607 67.35498 86.10879
#
# Poissons Ratio (x) = 0.12460 0.09394
# Poissons Ratio (y) = 0.07340 0.38943
# Poissons Ratio (z) = 0.04328 0.30462
#
# Static dielectric constant tensor:
#      x y z
#    x 1.629050 0.000000 0.000000 
#    y 0.000000 1.647130 0.000000 
#    z 0.000000 0.000000 1.675310 
# 
# From -- ./inp_files/15874.got.cif
#   From: 2010.05.17/outbox.cif.g08.bks.cpg/sg58_8_cif.got.tgz:15874.got - 2010.06.03 14:20:14.
