data_PCOD9443227
_publ_section_title
;
Structure prediction by ZEFSAII (Michael W. Deem and Ramdas Pophale) SiO2 
 PCOD9443227
Probable space group: P N N M
;
_chemical_formula_sum "Si O2"
_cell_formula_units_Z 56
_cell_length_a 8.886304
_cell_length_b 17.243078
_cell_length_c 15.155407
_cell_angle_alpha 90.000000
_cell_angle_beta 90.000000
_cell_angle_gamma 90.000000
_cell_volume 2322.221080
_symmetry_space_group_name_H-M "P N N M"
_symmetry_group_IT_number 58
_symmetry_cell_setting 'orthorhombic'
loop_
_space_group_symop_operation_xyz
x,y,z
-x,-y,z
1/2+x,1/2-y,1/2-z
1/2-x,1/2+y,1/2-z
-x,-y,-z
x,y,-z
1/2-x,1/2+y,1/2+z
1/2+x,1/2-y,1/2+z
loop_
_atom_site_type_symbol
_atom_site_label
_atom_site_fract_x
_atom_site_fract_y
_atom_site_fract_z
Si Si1 0.688527 0.673269 0.357110
Si Si2 0.658187 0.490265 0.897199
Si Si3 0.076253 0.418115 0.105719
Si Si4 0.672675 0.006590 0.894607
Si Si5 0.784678 0.202537 0.351105
Si Si6 0.148658 0.143912 0.842640
Si Si7 0.374852 0.677677 0.134033
O O1 0.774096 0.593343 0.374898
O O2 0.690071 0.691915 0.252845
O O3 0.515980 0.656799 0.384209
O O4 0.781477 0.746975 0.394477
O O5 0.500000 0.500000 0.851776
O O6 0.760142 0.555787 0.858546
O O7 0.707181 0.401492 0.897253
O O8 0.648487 0.512180 0.000000
O O9 0.110752 0.329487 0.131081
O O10 0.000000 0.500000 0.132999
O O11 0.055194 0.416821 0.000000
O O12 0.500000 0.000000 0.862874
O O13 0.781843 0.941666 0.852601
O O14 0.675583 0.993503 0.000000
O O15 0.767255 0.292880 0.377211
O O16 0.948177 0.177914 0.393006
O O17 0.131798 0.165454 0.739309
#
# Coordination Sequence:
#
# PCOD9443227 Si02
#       7
#     8   8   8   8   8   8   8
#     4  10  23  40  62  92 120 155 203 255 305 362
#     4  10  20  35  56  85 118 156 199 239 287 351
#     4  10  22  37  55  86 123 158 200 244 293 356
#     4  11  25  45  66  89 120 161 209 258 315 380
#     4  10  21  39  60  89 125 163 199 247 305 365
#     4  10  23  40  62  91 122 154 203 256 304 362
#     4  10  21  38  61  89 125 161 202 247 303 366
#
# _framework density 24.114843
#
# number of rings (size 3 to 8) (size 9 to 14) (size 15 to 20)
#    0.000    1.857    1.429    1.286    4.000    4.000 
#    0.000    0.000    0.000    0.000    0.000    0.000 
#    0.000    0.000    0.000    0.000    0.000    0.000 
#
# Total GULP energy -311736.512946 kJ/mol
# GULP energy per Si atom -5566.723445 kJ/mol
# Density = 2.405996 g / cm^3
# Si number density = 24.114843 Si / 1000 Ang^3
#
#
#
# Elastic Constant Matrix: (Units=GPa)
#
#
# Indices 1 2 3 4 5 6 
#
# 1 60.9973 4.2241 16.2184 0.0000 0.0000 0.0000
# 2 4.2241 114.4062 9.4926 0.0000 0.0000 0.0000
# 3 16.2184 9.4926 45.7648 0.0000 0.0000 0.0000
# 4 0.0000 0.0000 0.0000 19.3951 0.0000 0.0000
# 5 0.0000 0.0000 0.0000 0.0000 -4.9526 0.0000
# 6 0.0000 0.0000 0.0000 0.0000 0.0000 46.4642
#
#
#
# Elastic Compliance Matrix: (Units=1/GPa)
#
#
# Indices 1 2 3 4 5 6 
#
# 1 0.018102 -0.000138 -0.006386 0.000000 0.000000 0.000000
# 2 -0.000138 0.008895 -0.001796 0.000000 0.000000 0.000000
# 3 -0.006386 -0.001796 0.024487 0.000000 0.000000 0.000000
# 4 0.000000 0.000000 0.000000 0.051559 0.000000 0.000000
# 5 0.000000 0.000000 0.000000 0.000000 -0.201916 0.000000
# 6 0.000000 0.000000 0.000000 0.000000 0.000000 0.021522
#
#
# Mechanical properties :
#
#
# Convention : Reuss Voigt Hill
#
# Bulk Modulus (GPa) = 28.70107 31.22650 29.96379
# Shear Modulus (GPa) = -101.84173 24.93022 -38.45576
#
# Velocity S-wave (km/s) = -6.50566 3.21878 -3.99769
# Velocity P-wave (km/s) = 6.67112 5.17603 2.97595
#
# Compressibility (1/GPa) = 0.03484190
#
# Stress axis : x y z
#
# Youngs Moduli (GPa) = 55.24315 112.42382 40.83872
#
# Poissons Ratio (x) = 0.01557 0.26081
# Poissons Ratio (y) = 0.00765 0.07334
# Poissons Ratio (z) = 0.35280 0.20191
#
# Static dielectric constant tensor:
#      x y z
#    x 2.490870 0.000000 0.000000 
#    y 0.000000 2.862390 0.000000 
#    z 0.000000 0.000000 1.920920 
# 
# From -- ./inp_files/28979.got.cif
#   From: 2010.05.17/outbox.cif.g08.bks.cpg/sg58_15_cif.got.tgz:28979.got - 2010.06.03 14:20:14.
