data_PCOD9443151
_publ_section_title
;
Structure prediction by ZEFSAII (Michael W. Deem and Ramdas Pophale) SiO2 
 PCOD9443151
Probable space group: P N N M
;
_chemical_formula_sum "Si O2"
_cell_formula_units_Z 64
_cell_length_a 9.467807
_cell_length_b 14.278945
_cell_length_c 21.518237
_cell_angle_alpha 90.000000
_cell_angle_beta 90.000000
_cell_angle_gamma 90.000000
_cell_volume 2909.056817
_symmetry_space_group_name_H-M "P N N M"
_symmetry_group_IT_number 58
_symmetry_cell_setting 'orthorhombic'
loop_
_space_group_symop_operation_xyz
x,y,z
-x,-y,z
1/2+x,1/2-y,1/2-z
1/2-x,1/2+y,1/2-z
-x,-y,-z
x,y,-z
1/2-x,1/2+y,1/2+z
1/2+x,1/2-y,1/2+z
loop_
_atom_site_type_symbol
_atom_site_label
_atom_site_fract_x
_atom_site_fract_y
_atom_site_fract_z
Si Si1 0.836927 0.856565 0.762521
Si Si2 0.177325 0.357680 0.573750
Si Si3 0.798676 0.940722 0.369236
Si Si4 0.532751 0.692172 0.889781
Si Si5 0.348333 0.325375 0.749171
Si Si6 0.697380 0.128348 0.431311
Si Si7 0.662445 0.012429 0.814300
Si Si8 0.594615 0.789518 0.425805
O O1 0.838840 0.925552 0.702481
O O2 0.749775 0.765661 0.740702
O O3 0.996505 0.832254 0.782732
O O4 0.744712 0.914435 0.811259
O O5 0.158671 0.370619 0.500000
O O6 0.066314 0.281046 0.599891
O O7 0.160758 0.448085 0.615955
O O8 0.330563 0.309640 0.585382
O O9 0.937129 0.899564 0.403391
O O10 0.678215 0.867723 0.387968
O O11 0.740474 0.041297 0.388119
O O12 0.598515 0.682708 0.820791
O O13 0.666268 0.693011 0.933420
O O14 0.249723 0.410876 0.726413
O O15 0.664880 0.089728 0.500000
O O16 0.567315 0.191532 0.410258
O O17 0.500000 0.000000 0.792213
O O18 0.613689 0.806230 0.500000
#
# Coordination Sequence:
#
# PCOD9443151 Si02
#       8
#     8   8   8   8   8   8   8   8
#     4  11  24  42  67  96 129 171 219 274 337 407
#     4  10  22  44  69  91 126 176 231 285 330 388
#     4  10  20  35  54  83 122 166 211 258 323 403
#     4  10  21  37  58  87 123 170 221 271 335 400
#     4  11  23  44  69  97 136 174 219 280 339 404
#     4  11  21  32  53  87 124 162 210 267 326 396
#     4  12  25  43  67 100 133 171 224 276 338 405
#     4   9  19  35  55  83 120 163 213 268 329 392
#
# _framework density 22.000257999999999
#
# number of rings (size 3 to 8) (size 9 to 14) (size 15 to 20)
#    0.000    1.500    0.000    6.375    0.000    9.250 
#    0.000    2.500    0.000    1.500    0.000    0.000 
#    0.000    0.000    0.000    0.000    0.000    0.000 
#
# Total GULP energy -357419.427911 kJ/mol
# GULP energy per Si atom -5584.678561 kJ/mol
# Density = 2.195018 g / cm^3
# Si number density = 22.000258 Si / 1000 Ang^3
#
#
#
# Elastic Constant Matrix: (Units=GPa)
#
#
# Indices 1 2 3 4 5 6 
#
# 1 185.3892 53.1885 37.7365 0.0000 0.0000 0.0000
# 2 53.1885 87.6592 24.0546 0.0000 0.0000 0.0000
# 3 37.7365 24.0546 73.7675 0.0000 0.0000 0.0000
# 4 0.0000 0.0000 0.0000 31.4893 0.0000 0.0000
# 5 0.0000 0.0000 0.0000 0.0000 18.7154 0.0000
# 6 0.0000 0.0000 0.0000 0.0000 0.0000 30.9459
#
#
#
# Elastic Compliance Matrix: (Units=1/GPa)
#
#
# Indices 1 2 3 4 5 6 
#
# 1 0.006890 -0.003529 -0.002374 0.000000 0.000000 0.000000
# 2 -0.003529 0.014337 -0.002870 0.000000 0.000000 0.000000
# 3 -0.002374 -0.002870 0.015706 0.000000 0.000000 0.000000
# 4 0.000000 0.000000 0.000000 0.031757 0.000000 0.000000
# 5 0.000000 0.000000 0.000000 0.000000 0.053432 0.000000
# 6 0.000000 0.000000 0.000000 0.000000 0.000000 0.032314
#
#
# Mechanical properties :
#
#
# Convention : Reuss Voigt Hill
#
# Bulk Modulus (GPa) = 51.57934 64.08613 57.83274
# Shear Modulus (GPa) = 28.02014 31.68587 29.85300
#
# Velocity S-wave (km/s) = 3.57266 3.79918 3.68766
# Velocity P-wave (km/s) = 6.36509 6.95974 6.66905
#
# Compressibility (1/GPa) = 0.01938761
#
# Stress axis : x y z
#
# Youngs Moduli (GPa) = 145.14349 69.75160 63.66926
#
# Poissons Ratio (x) = 0.24616 0.15113
# Poissons Ratio (y) = 0.51222 0.18271
# Poissons Ratio (z) = 0.34453 0.20016
#
# Static dielectric constant tensor:
#      x y z
#    x 1.827000 0.000000 0.000000 
#    y 0.000000 1.803330 0.000000 
#    z 0.000000 0.000000 1.895140 
# 
# From -- ./inp_files/31619.got.cif
#   From: 2010.05.17/outbox.cif.g08.bks.cpg/sg58_16_cif.got.tgz:31619.got - 2010.06.03 14:20:14.
