data_PCOD9443487
_publ_section_title
;
Structure prediction by ZEFSAII (Michael W. Deem and Ramdas Pophale) SiO2 
 PCOD9443487
Probable space group: P N N M
;
_chemical_formula_sum "Si O2"
_cell_formula_units_Z 48
_cell_length_a 5.568202
_cell_length_b 22.967636
_cell_length_c 18.550843
_cell_angle_alpha 90.000000
_cell_angle_beta 90.000000
_cell_angle_gamma 90.000000
_cell_volume 2372.438311
_symmetry_space_group_name_H-M "P N N M"
_symmetry_group_IT_number 58
_symmetry_cell_setting 'orthorhombic'
loop_
_space_group_symop_operation_xyz
x,y,z
-x,-y,z
1/2+x,1/2-y,1/2-z
1/2-x,1/2+y,1/2-z
-x,-y,-z
x,y,-z
1/2-x,1/2+y,1/2+z
1/2+x,1/2-y,1/2+z
loop_
_atom_site_type_symbol
_atom_site_label
_atom_site_fract_x
_atom_site_fract_y
_atom_site_fract_z
Si Si1 0.468455 0.762874 0.347641
Si Si2 0.246137 0.037224 0.078470
Si Si3 0.046667 0.568142 0.283214
Si Si4 0.702277 0.372101 0.154216
Si Si5 0.183138 0.838806 0.766253
Si Si6 0.214154 0.297206 0.000000
Si Si7 0.287982 0.631768 0.000000
O O1 0.695541 0.806555 0.357750
O O2 0.339583 0.791090 0.277759
O O3 0.536658 0.698418 0.323891
O O4 0.323561 0.765078 0.422974
O O5 0.263475 0.073663 0.151808
O O6 0.500000 0.000000 0.078984
O O7 0.243164 0.067272 0.000000
O O8 0.000000 0.000000 0.082096
O O9 0.122727 0.593363 0.206554
O O10 0.000000 0.500000 0.274264
O O11 0.826911 0.609554 0.304147
O O12 0.465159 0.367179 0.201144
O O13 0.681919 0.400203 0.076041
O O14 0.985201 0.342289 0.000000
O O15 0.481358 0.324350 0.000000
#
# Coordination Sequence:
#
# PCOD9443487 Si02
#       7
#     8   8   8   8   8   4   4
#     4  10  20  36  59  92 122 163 211 257 320 379
#     4   9  19  38  64  87 118 166 214 260 309 366
#     4  10  24  39  61  93 123 169 222 264 317 381
#     4  10  21  36  64  88 123 169 207 264 317 386
#     4  11  20  36  62  89 126 162 211 263 318 378
#     4  10  20  36  62  88 129 166 201 260 312 390
#     4  10  20  38  61  95 123 166 210 251 328 384
#
# _framework density 20.23235
#
# number of rings (size 3 to 8) (size 9 to 14) (size 15 to 20)
#    0.000    2.000    3.333    0.000    4.667    0.000 
#    1.500    0.417    1.833    1.000    0.000    0.000 
#    0.000    0.000    0.000    0.000    0.000    0.000 
#
# Total GULP energy -267227.672330 kJ/mol
# GULP energy per Si atom -5567.243174 kJ/mol
# Density = 2.018630 g / cm^3
# Si number density = 20.232350 Si / 1000 Ang^3
#
#
#
# Elastic Constant Matrix: (Units=GPa)
#
#
# Indices 1 2 3 4 5 6 
#
# 1 72.6206 12.8859 3.6385 0.0000 0.0000 0.0000
# 2 12.8859 74.4899 18.9674 0.0000 0.0000 0.0000
# 3 3.6385 18.9674 134.4037 0.0000 0.0000 0.0000
# 4 0.0000 0.0000 0.0000 113.7514 0.0000 0.0000
# 5 0.0000 0.0000 0.0000 0.0000 -64.9657 0.0000
# 6 0.0000 0.0000 0.0000 0.0000 0.0000 18.7701
#
#
#
# Elastic Compliance Matrix: (Units=1/GPa)
#
#
# Indices 1 2 3 4 5 6 
#
# 1 0.014206 -0.002448 -0.000039 0.000000 0.000000 0.000000
# 2 -0.002448 0.014347 -0.001958 0.000000 0.000000 0.000000
# 3 -0.000039 -0.001958 0.007718 0.000000 0.000000 0.000000
# 4 0.000000 0.000000 0.000000 0.008791 0.000000 0.000000
# 5 0.000000 0.000000 0.000000 0.000000 -0.015393 0.000000
# 6 0.000000 0.000000 0.000000 0.000000 0.000000 0.053276
#
#
# Mechanical properties :
#
#
# Convention : Reuss Voigt Hill
#
# Bulk Modulus (GPa) = 36.52223 39.16642 37.84432
# Shear Modulus (GPa) = 49.52323 29.91265 39.71794
#
# Velocity S-wave (km/s) = 4.95282 3.84924 4.43548
# Velocity P-wave (km/s) = 7.12726 6.25747 6.70648
#
# Compressibility (1/GPa) = 0.02738058
#
# Stress axis : x y z
#
# Youngs Moduli (GPa) = 70.39052 69.70243 129.57219
#
# Poissons Ratio (x) = 0.17060 0.00508
# Poissons Ratio (y) = 0.17229 0.25375
# Poissons Ratio (z) = 0.00276 0.13650
#
# Static dielectric constant tensor:
#      x y z
#    x 1.831740 0.000000 0.000000 
#    y 0.000000 1.686820 0.000000 
#    z 0.000000 0.000000 1.777350 
# 
# From -- ./inp_files/24351.got.cif
#   From: 2010.05.17/outbox.cif.g08.bks.cpg/sg58_13_cif.got.tgz:24351.got - 2010.06.03 14:20:14.
