data_PCOD9443166
_publ_section_title
;
Structure prediction by ZEFSAII (Michael W. Deem and Ramdas Pophale) SiO2 
 PCOD9443166
Probable space group: P N N M
;
_chemical_formula_sum "Si O2"
_cell_formula_units_Z 64
_cell_length_a 20.900753
_cell_length_b 17.075261
_cell_length_c 7.747596
_cell_angle_alpha 90.000000
_cell_angle_beta 90.000000
_cell_angle_gamma 90.000000
_cell_volume 2765.007094
_symmetry_space_group_name_H-M "P N N M"
_symmetry_group_IT_number 58
_symmetry_cell_setting 'orthorhombic'
loop_
_space_group_symop_operation_xyz
x,y,z
-x,-y,z
1/2+x,1/2-y,1/2-z
1/2-x,1/2+y,1/2-z
-x,-y,-z
x,y,-z
1/2-x,1/2+y,1/2+z
1/2+x,1/2-y,1/2+z
loop_
_atom_site_type_symbol
_atom_site_label
_atom_site_fract_x
_atom_site_fract_y
_atom_site_fract_z
Si Si1 0.649635 0.951846 0.711872
Si Si2 0.625469 0.530419 0.299819
Si Si3 0.286282 0.605735 0.803153
Si Si4 0.117005 0.715709 0.789475
Si Si5 0.365766 0.876151 0.696978
Si Si6 0.973778 0.146644 0.204271
Si Si7 0.772971 0.173065 0.200197
Si Si8 0.107553 0.208350 0.298587
O O1 0.650281 0.957390 0.500000
O O2 0.627555 0.036954 0.774377
O O3 0.722003 0.931788 0.772297
O O4 0.610160 0.874509 0.761449
O O5 0.617617 0.504843 0.500000
O O6 0.659658 0.461265 0.199988
O O7 0.559934 0.567864 0.228913
O O8 0.675046 0.603261 0.297454
O O9 0.324310 0.679113 0.723716
O O10 0.268277 0.626158 0.000000
O O11 0.063326 0.776352 0.727312
O O12 0.186263 0.751696 0.739019
O O13 0.116430 0.717188 0.000000
O O14 0.387780 0.879054 0.500000
O O15 0.290100 0.855548 0.704189
O O16 0.399912 0.801010 0.776816
O O17 0.048246 0.160280 0.225982
O O18 0.960219 0.143414 0.000000
O O19 0.753699 0.185866 0.000000
O O20 0.109831 0.191194 0.500000
#
# Coordination Sequence:
#
# PCOD9443166 Si02
#       8
#     8   8   8   8   8   8   8   8
#     4   9  17  31  53  82 108 132 171 221 265 313
#     4   9  18  32  54  83 112 143 173 216 269 315
#     4  10  20  35  55  80 110 142 178 219 265 324
#     4   8  15  31  56  79 102 138 181 221 261 313
#     4  11  21  33  53  79 108 139 174 223 272 317
#     4   9  19  37  58  79 105 141 187 228 263 312
#     4   9  16  30  53  79 108 140 172 207 263 327
#     4  11  24  39  55  75 105 147 185 224 272 322
#
# _framework density 23.146415999999999
#
# number of rings (size 3 to 8) (size 9 to 14) (size 15 to 20)
#    0.000    2.500    1.250    3.000    0.000    4.000 
#    0.000    5.000    0.000    6.750    0.000    0.000 
#    0.000    0.000    0.000    0.000    0.000    0.000 
#
# Total GULP energy -357255.207169 kJ/mol
# GULP energy per Si atom -5582.112612 kJ/mol
# Density = 2.309373 g / cm^3
# Si number density = 23.146416 Si / 1000 Ang^3
#
#
#
# Elastic Constant Matrix: (Units=GPa)
#
#
# Indices 1 2 3 4 5 6 
#
# 1 35.6417 -21.2328 -2.1211 0.0000 0.0000 0.0000
# 2 -21.2328 89.9951 6.5029 0.0000 0.0000 0.0000
# 3 -2.1211 6.5029 33.8621 0.0000 0.0000 0.0000
# 4 0.0000 0.0000 0.0000 16.9441 0.0000 0.0000
# 5 0.0000 0.0000 0.0000 0.0000 21.0425 0.0000
# 6 0.0000 0.0000 0.0000 0.0000 0.0000 29.3367
#
#
#
# Elastic Compliance Matrix: (Units=1/GPa)
#
#
# Indices 1 2 3 4 5 6 
#
# 1 0.032656 0.007663 0.000574 0.000000 0.000000 0.000000
# 2 0.007663 0.013066 -0.002029 0.000000 0.000000 0.000000
# 3 0.000574 -0.002029 0.029957 0.000000 0.000000 0.000000
# 4 0.000000 0.000000 0.000000 0.059018 0.000000 0.000000
# 5 0.000000 0.000000 0.000000 0.000000 0.047523 0.000000
# 6 0.000000 0.000000 0.000000 0.000000 0.000000 0.034087
#
#
# Mechanical properties :
#
#
# Convention : Reuss Voigt Hill
#
# Bulk Modulus (GPa) = 11.35127 13.97742 12.66435
# Shear Modulus (GPa) = 21.43558 25.22130 23.32844
#
# Velocity S-wave (km/s) = 3.04647 3.30455 3.17813
# Velocity P-wave (km/s) = 4.15805 4.54003 4.35323
#
# Compressibility (1/GPa) = 0.08809587
#
# Stress axis : x y z
#
# Youngs Moduli (GPa) = 30.62184 76.53239 33.38092
#
# Poissons Ratio (x) = -0.58649 -0.01916
# Poissons Ratio (y) = -0.23466 0.06774
# Poissons Ratio (z) = -0.01757 0.15530
#
# Static dielectric constant tensor:
#      x y z
#    x 1.869760 0.000000 0.000000 
#    y 0.000000 1.911510 0.000000 
#    z 0.000000 0.000000 1.854090 
# 
# From -- ./inp_files/10144.got.cif
#   From: 2010.05.17/outbox.cif.g08.bks.cpg/sg58_6_cif.got.tgz:10144.got - 2010.06.03 14:20:14.
