data_PCOD9443160
_publ_section_title
;
Structure prediction by ZEFSAII (Michael W. Deem and Ramdas Pophale) SiO2 
 PCOD9443160
Probable space group: P N N M
;
_chemical_formula_sum "Si O2"
_cell_formula_units_Z 48
_cell_length_a 8.314587
_cell_length_b 30.176047
_cell_length_c 7.547540
_cell_angle_alpha 90.000000
_cell_angle_beta 90.000000
_cell_angle_gamma 90.000000
_cell_volume 1893.688112
_symmetry_space_group_name_H-M "P N N M"
_symmetry_group_IT_number 58
_symmetry_cell_setting 'orthorhombic'
loop_
_space_group_symop_operation_xyz
x,y,z
-x,-y,z
1/2+x,1/2-y,1/2-z
1/2-x,1/2+y,1/2-z
-x,-y,-z
x,y,-z
1/2-x,1/2+y,1/2+z
1/2+x,1/2-y,1/2+z
loop_
_atom_site_type_symbol
_atom_site_label
_atom_site_fract_x
_atom_site_fract_y
_atom_site_fract_z
Si Si1 0.936579 0.272509 0.285693
Si Si2 0.576426 0.597848 0.205747
Si Si3 0.740315 0.352344 0.701947
Si Si4 0.739340 0.515502 0.788342
Si Si5 0.427084 0.067485 0.287514
Si Si6 0.219527 0.814420 0.710954
O O1 0.927067 0.272435 0.500000
O O2 0.796016 0.305626 0.220074
O O3 0.905117 0.222747 0.221510
O O4 0.105851 0.293662 0.236674
O O5 0.401392 0.619789 0.209976
O O6 0.599018 0.548098 0.278942
O O7 0.688913 0.636580 0.284673
O O8 0.622807 0.592208 0.000000
O O9 0.690251 0.345644 0.500000
O O10 0.894425 0.384745 0.708044
O O11 0.793579 0.467646 0.718853
O O12 0.899212 0.545664 0.760015
O O13 0.716266 0.507313 0.000000
O O14 0.411778 0.072122 0.500000
O O15 0.192923 0.818320 0.500000
#
# Coordination Sequence:
#
# PCOD9443160 Si02
#       6
#     8   8   8   8   8   8
#     4  10  22  38  55  79 111 141 170 212 264 311
#     4  10  20  35  55  79 105 135 177 222 260 305
#     4  11  23  36  50  75 111 145 176 211 259 316
#     4   8  16  32  56  82 103 129 172 224 270 309
#     4   9  17  34  58  79 102 135 175 219 266 312
#     4  10  21  37  59  84 106 135 179 220 255 309
#
# _framework density 25.347363000000001
#
# number of rings (size 3 to 8) (size 9 to 14) (size 15 to 20)
#    0.000    2.333    0.000    3.500    0.000    4.667 
#    0.000    6.667    0.000    0.000    0.000    0.000 
#    0.000    0.000    0.000    0.000    0.000    0.000 
#
# Total GULP energy -268257.390708 kJ/mol
# GULP energy per Si atom -5588.695640 kJ/mol
# Density = 2.528967 g / cm^3
# Si number density = 25.347363 Si / 1000 Ang^3
#
#
#
# Elastic Constant Matrix: (Units=GPa)
#
#
# Indices 1 2 3 4 5 6 
#
# 1 64.9488 -10.6670 -10.6876 0.0000 0.0000 0.0000
# 2 -10.6670 98.5560 8.1058 0.0000 0.0000 0.0000
# 3 -10.6876 8.1058 58.1050 0.0000 0.0000 0.0000
# 4 0.0000 0.0000 0.0000 10.2809 0.0000 0.0000
# 5 0.0000 0.0000 0.0000 0.0000 6.7791 0.0000
# 6 0.0000 0.0000 0.0000 0.0000 0.0000 47.0952
#
#
#
# Elastic Compliance Matrix: (Units=1/GPa)
#
#
# Indices 1 2 3 4 5 6 
#
# 1 0.016098 0.001516 0.002750 0.000000 0.000000 0.000000
# 2 0.001516 0.010407 -0.001173 0.000000 0.000000 0.000000
# 3 0.002750 -0.001173 0.017880 0.000000 0.000000 0.000000
# 4 0.000000 0.000000 0.000000 0.097268 0.000000 0.000000
# 5 0.000000 0.000000 0.000000 0.000000 0.147512 0.000000
# 6 0.000000 0.000000 0.000000 0.000000 0.000000 0.021234
#
#
# Mechanical properties :
#
#
# Convention : Reuss Voigt Hill
#
# Bulk Modulus (GPa) = 19.77437 21.67913 20.72675
# Shear Modulus (GPa) = 15.57298 28.48828 22.03063
#
# Velocity S-wave (km/s) = 2.48136 3.35612 2.95133
# Velocity P-wave (km/s) = 4.00348 4.85690 4.45069
#
# Compressibility (1/GPa) = 0.05057052
#
# Stress axis : x y z
#
# Youngs Moduli (GPa) = 62.11870 96.08832 55.92969
#
# Poissons Ratio (x) = -0.14569 -0.15378
# Poissons Ratio (y) = -0.09419 0.06560
# Poissons Ratio (z) = -0.17080 0.11271
#
# Static dielectric constant tensor:
#      x y z
#    x 2.043960 0.000000 0.000000 
#    y 0.000000 2.001440 0.000000 
#    z 0.000000 0.000000 1.958390 
# 
# From -- ./inp_files/2859.got.cif
#   From: 2010.05.17/outbox.cif.g08.bks.cpg/sg58_2_cif.got.tgz:2859.got - 2010.06.03 14:20:14.
