data_PCOD9443807
_publ_section_title
;
Structure prediction by ZEFSAII (Michael W. Deem and Ramdas Pophale) SiO2 
 PCOD9443807
Probable space group: P N N M
;
_chemical_formula_sum "Si O2"
_cell_formula_units_Z 32
_cell_length_a 13.667682
_cell_length_b 8.517209
_cell_length_c 13.493120
_cell_angle_alpha 90.000000
_cell_angle_beta 90.000000
_cell_angle_gamma 90.000000
_cell_volume 1570.740902
_symmetry_space_group_name_H-M "P N N M"
_symmetry_group_IT_number 58
_symmetry_cell_setting 'orthorhombic'
loop_
_space_group_symop_operation_xyz
x,y,z
-x,-y,z
1/2+x,1/2-y,1/2-z
1/2-x,1/2+y,1/2-z
-x,-y,-z
x,y,-z
1/2-x,1/2+y,1/2+z
1/2+x,1/2-y,1/2+z
loop_
_atom_site_type_symbol
_atom_site_label
_atom_site_fract_x
_atom_site_fract_y
_atom_site_fract_z
Si Si1 0.607002 0.199551 0.286434
Si Si2 0.467996 0.183212 0.107825
Si Si3 0.467606 0.746373 0.500000
Si Si4 0.162951 0.926113 0.000000
Si Si5 0.274865 0.058190 0.823199
O O1 0.525173 0.241505 0.204280
O O2 0.562269 0.178139 0.395663
O O3 0.684889 0.340467 0.285298
O O4 0.663742 0.042000 0.254965
O O5 0.352025 0.176462 0.125510
O O6 0.500000 0.000000 0.102288
O O7 0.491454 0.254538 0.000000
O O8 0.582957 0.709799 0.500000
O O9 0.403619 0.584482 0.500000
O O10 0.231894 0.937516 0.095584
#
# Coordination Sequence:
#
# PCOD9443807 Si02
#       5
#     8   8   4   4   8
#     4  10  22  37  59  87 120 154 192 242 293 344
#     4   9  18  36  58  82 113 151 196 241 281 342
#     4   9  20  38  54  88 121 151 192 250 288 337
#     4   9  18  36  64  81 110 161 212 224 272 363
#     4  10  20  38  61  88 113 155 197 239 289 348
#
# _framework density 20.372551000000001
#
# number of rings (size 3 to 8) (size 9 to 14) (size 15 to 20)
#    0.000    2.500    1.250    0.000    5.250    0.000 
#    2.250    5.625    0.000    1.500    0.000    0.000 
#    0.000    0.000    0.000    0.000    0.000    0.000 
#
# Total GULP energy -178483.351014 kJ/mol
# GULP energy per Si atom -5577.604719 kJ/mol
# Density = 2.032618 g / cm^3
# Si number density = 20.372551 Si / 1000 Ang^3
#
#
#
# Elastic Constant Matrix: (Units=GPa)
#
#
# Indices 1 2 3 4 5 6 
#
# 1 132.5815 13.8963 86.5688 0.0000 0.0000 0.0000
# 2 13.8963 21.5187 30.3398 0.0000 0.0000 0.0000
# 3 86.5688 30.3398 195.8703 0.0000 0.0000 0.0000
# 4 0.0000 0.0000 0.0000 21.5796 0.0000 0.0000
# 5 0.0000 0.0000 0.0000 0.0000 28.9172 0.0000
# 6 0.0000 0.0000 0.0000 0.0000 0.0000 36.0657
#
#
#
# Elastic Compliance Matrix: (Units=1/GPa)
#
#
# Indices 1 2 3 4 5 6 
#
# 1 0.010604 -0.000307 -0.004639 0.000000 0.000000 0.000000
# 2 -0.000307 0.059465 -0.009075 0.000000 0.000000 0.000000
# 3 -0.004639 -0.009075 0.008561 0.000000 0.000000 0.000000
# 4 0.000000 0.000000 0.000000 0.046340 0.000000 0.000000
# 5 0.000000 0.000000 0.000000 0.000000 0.034581 0.000000
# 6 0.000000 0.000000 0.000000 0.000000 0.000000 0.027727
#
#
# Mechanical properties :
#
#
# Convention : Reuss Voigt Hill
#
# Bulk Modulus (GPa) = 19.76766 67.95336 43.86051
# Shear Modulus (GPa) = 21.53463 31.92353 26.72908
#
# Velocity S-wave (km/s) = 3.25474 3.96281 3.62610
# Velocity P-wave (km/s) = 4.88351 7.37335 6.25360
#
# Compressibility (1/GPa) = 0.05058767
#
# Stress axis : x y z
#
# Youngs Moduli (GPa) = 94.30658 16.81659 116.80273
#
# Poissons Ratio (x) = 0.00516 0.54184
# Poissons Ratio (y) = 0.02896 1.06002
# Poissons Ratio (z) = 0.43749 0.15262
#
# Static dielectric constant tensor:
#      x y z
#    x 1.743380 0.000000 0.000000 
#    y 0.000000 1.728250 0.000000 
#    z 0.000000 0.000000 1.761380 
# 
# From -- ./inp_files/13788.got.cif
#   From: 2010.05.17/outbox.cif.g08.bks.cpg/sg58_7_cif.got.tgz:13788.got - 2010.06.03 14:20:14.
