data_PCOD9443365
_publ_section_title
;
Structure prediction by ZEFSAII (Michael W. Deem and Ramdas Pophale) SiO2 
 PCOD9443365
Probable space group: P N N M
;
_chemical_formula_sum "Si O2"
_cell_formula_units_Z 56
_cell_length_a 15.883545
_cell_length_b 11.303085
_cell_length_c 15.132583
_cell_angle_alpha 90.000000
_cell_angle_beta 90.000000
_cell_angle_gamma 90.000000
_cell_volume 2716.798920
_symmetry_space_group_name_H-M "P N N M"
_symmetry_group_IT_number 58
_symmetry_cell_setting 'orthorhombic'
loop_
_space_group_symop_operation_xyz
x,y,z
-x,-y,z
1/2+x,1/2-y,1/2-z
1/2-x,1/2+y,1/2-z
-x,-y,-z
x,y,-z
1/2-x,1/2+y,1/2+z
1/2+x,1/2-y,1/2+z
loop_
_atom_site_type_symbol
_atom_site_label
_atom_site_fract_x
_atom_site_fract_y
_atom_site_fract_z
Si Si1 0.487754 0.361745 0.606660
Si Si2 0.291251 0.531105 0.192659
Si Si3 0.930826 0.412296 0.400735
Si Si4 0.676643 0.785854 0.600704
Si Si5 0.811848 0.213128 0.394115
Si Si6 0.698970 0.090414 0.845324
Si Si7 0.860569 0.763817 0.788262
O O1 0.500000 0.500000 0.634164
O O2 0.487845 0.362765 0.500000
O O3 0.402832 0.291272 0.633592
O O4 0.565331 0.287303 0.644433
O O5 0.209258 0.601653 0.155994
O O6 0.318836 0.425628 0.128772
O O7 0.268570 0.473518 0.286171
O O8 0.358658 0.630066 0.217205
O O9 0.962161 0.384782 0.500000
O O10 0.893050 0.290031 0.363421
O O11 0.848787 0.495637 0.402862
O O12 0.000000 0.500000 0.359099
O O13 0.659909 0.822931 0.500000
O O14 0.755039 0.694898 0.603463
O O15 0.802384 0.229941 0.500000
O O16 0.728717 0.256258 0.340837
O O17 0.637307 0.147511 0.771865
#
# Coordination Sequence:
#
# PCOD9443365 Si02
#       7
#     8   8   8   8   8   8   8
#     4  10  21  36  56  86 119 154 200 244 293 359
#     4  10  20  36  58  86 119 152 199 242 298 366
#     4  10  21  37  58  83 108 145 199 249 295 352
#     4  10  21  37  60  84 117 159 197 244 295 361
#     4  10  20  36  61  82 113 157 195 244 300 361
#     4  10  20  36  56  81 113 148 192 240 296 353
#     4  10  20  36  55  83 117 150 192 244 298 360
#
# _framework density 20.612493000000001
#
# number of rings (size 3 to 8) (size 9 to 14) (size 15 to 20)
#    0.000    2.000    1.429    2.143    0.000    1.143 
#    2.571    2.143    0.000    7.714    0.000    7.000 
#    0.000    0.000    0.000    0.000    0.000    0.000 
#
# Total GULP energy -312005.760028 kJ/mol
# GULP energy per Si atom -5571.531429 kJ/mol
# Density = 2.056558 g / cm^3
# Si number density = 20.612493 Si / 1000 Ang^3
#
#
#
# Elastic Constant Matrix: (Units=GPa)
#
#
# Indices 1 2 3 4 5 6 
#
# 1 55.5217 20.8189 3.2263 0.0000 0.0000 0.0000
# 2 20.8189 100.2972 15.8279 0.0000 0.0000 0.0000
# 3 3.2263 15.8279 51.6937 0.0000 0.0000 0.0000
# 4 0.0000 0.0000 0.0000 29.6838 0.0000 0.0000
# 5 0.0000 0.0000 0.0000 0.0000 3.7748 0.0000
# 6 0.0000 0.0000 0.0000 0.0000 0.0000 34.8700
#
#
#
# Elastic Compliance Matrix: (Units=1/GPa)
#
#
# Indices 1 2 3 4 5 6 
#
# 1 0.019531 -0.004058 0.000023 0.000000 0.000000 0.000000
# 2 -0.004058 0.011320 -0.003213 0.000000 0.000000 0.000000
# 3 0.000023 -0.003213 0.020327 0.000000 0.000000 0.000000
# 4 0.000000 0.000000 0.000000 0.033688 0.000000 0.000000
# 5 0.000000 0.000000 0.000000 0.000000 0.264911 0.000000
# 6 0.000000 0.000000 0.000000 0.000000 0.000000 0.028678
#
#
# Mechanical properties :
#
#
# Convention : Reuss Voigt Hill
#
# Bulk Modulus (GPa) = 27.26005 31.91764 29.58884
# Shear Modulus (GPa) = 12.34027 24.84169 18.59098
#
# Velocity S-wave (km/s) = 2.44945 3.47533 3.00647
# Velocity P-wave (km/s) = 4.61015 5.62336 5.14177
#
# Compressibility (1/GPa) = 0.03668372
#
# Stress axis : x y z
#
# Youngs Moduli (GPa) = 51.20015 88.34185 49.19581
#
# Poissons Ratio (x) = 0.35848 -0.00116
# Poissons Ratio (y) = 0.20776 0.15805
# Poissons Ratio (z) = -0.00120 0.28381
#
# Static dielectric constant tensor:
#      x y z
#    x 1.761420 0.000000 0.000000 
#    y 0.000000 1.785090 0.000000 
#    z 0.000000 0.000000 1.731660 
# 
# From -- ./inp_files/22176.got.cif
#   From: 2010.05.17/outbox.cif.g08.bks.cpg/sg58_12_cif.got.tgz:22176.got - 2010.06.03 14:20:14.
