data_PCOD9443585
_publ_section_title
;
Structure prediction by ZEFSAII (Michael W. Deem and Ramdas Pophale) SiO2 
 PCOD9443585
Probable space group: P N N M
;
_chemical_formula_sum "Si O2"
_cell_formula_units_Z 58
_cell_length_a 11.649187
_cell_length_b 8.532714
_cell_length_c 28.360390
_cell_angle_alpha 90.000000
_cell_angle_beta 90.000000
_cell_angle_gamma 90.000000
_cell_volume 2818.999539
_symmetry_space_group_name_H-M "P N N M"
_symmetry_group_IT_number 58
_symmetry_cell_setting 'orthorhombic'
loop_
_space_group_symop_operation_xyz
x,y,z
-x,-y,z
1/2+x,1/2-y,1/2-z
1/2-x,1/2+y,1/2-z
-x,-y,-z
x,y,-z
1/2-x,1/2+y,1/2+z
1/2+x,1/2-y,1/2+z
loop_
_atom_site_type_symbol
_atom_site_label
_atom_site_fract_x
_atom_site_fract_y
_atom_site_fract_z
Si Si1 0.980318 0.811041 0.154538
Si Si2 0.399658 0.891439 0.831010
Si Si3 0.000000 0.500000 0.500000
Si Si4 0.247435 0.847041 0.690690
Si Si5 0.805373 0.298758 0.784066
Si Si6 0.328670 0.064677 0.924673
Si Si7 0.571151 0.340868 0.551497
Si Si8 0.441121 0.343569 0.111409
O O1 0.086303 0.739262 0.183097
O O2 0.861240 0.752372 0.177767
O O3 0.973097 0.759606 0.099464
O O4 0.000000 0.000000 0.155931
O O5 0.303253 0.808392 0.799996
O O6 0.466650 0.753769 0.858276
O O7 0.500000 0.000000 0.808502
O O8 0.340337 0.998762 0.871644
O O9 0.902700 0.540322 0.540824
O O10 0.177024 0.751637 0.730105
O O11 0.167362 0.873558 0.645421
O O12 0.277781 0.018575 0.710398
O O13 0.199824 0.099583 0.938644
O O14 0.393161 0.231172 0.928616
O O15 0.500000 0.500000 0.548216
O O16 0.564823 0.260403 0.500000
O O17 0.500000 0.500000 0.094372
#
# Coordination Sequence:
#
# PCOD9443585 Si02
#       8
#     8   8   2   8   8   8   8   8
#     4  11  24  44  66  96 136 174 229 280 334 406
#     4  10  22  38  65  90 125 173 211 273 334 392
#     4  12  20  36  64 108 124 168 226 278 330 398
#     4  12  27  42  66  96 131 179 223 284 339 407
#     4  12  27  43  65  95 133 175 228 279 343 411
#     4  11  21  39  67  95 135 168 218 281 333 404
#     4  10  20  36  66 100 130 171 220 273 330 393
#     4  11  22  42  62  91 128 174 217 268 343 398
#
# _framework density 20.574676
#
# number of rings (size 3 to 8) (size 9 to 14) (size 15 to 20)
#    0.000    0.966    5.517    2.897    7.724    0.552 
#    0.000    0.345    0.000    1.655    0.000    0.000 
#    0.000    0.000    0.000    0.000    0.000    0.000 
#
# Total GULP energy -323395.748830 kJ/mol
# GULP energy per Si atom -5575.788773 kJ/mol
# Density = 2.052785 g / cm^3
# Si number density = 20.574676 Si / 1000 Ang^3
#
#
#
# Elastic Constant Matrix: (Units=GPa)
#
#
# Indices 1 2 3 4 5 6 
#
# 1 120.2995 30.4484 36.1955 0.0000 0.0000 0.0000
# 2 30.4484 99.8535 18.3607 0.0000 0.0000 0.0000
# 3 36.1955 18.3607 96.6126 0.0000 0.0000 0.0000
# 4 0.0000 0.0000 0.0000 -31.0701 0.0000 0.0000
# 5 0.0000 0.0000 0.0000 0.0000 160.0854 0.0000
# 6 0.0000 0.0000 0.0000 0.0000 0.0000 39.4127
#
#
#
# Elastic Compliance Matrix: (Units=1/GPa)
#
#
# Indices 1 2 3 4 5 6 
#
# 1 0.009904 -0.002422 -0.003250 0.000000 0.000000 0.000000
# 2 -0.002422 0.010970 -0.001177 0.000000 0.000000 0.000000
# 3 -0.003250 -0.001177 0.011792 0.000000 0.000000 0.000000
# 4 0.000000 0.000000 0.000000 -0.032185 0.000000 0.000000
# 5 0.000000 0.000000 0.000000 0.000000 0.006247 0.000000
# 6 0.000000 0.000000 0.000000 0.000000 0.000000 0.025373
#
#
# Mechanical properties :
#
#
# Convention : Reuss Voigt Hill
#
# Bulk Modulus (GPa) = 52.72535 54.08610 53.40572
# Shear Modulus (GPa) = 95.93203 49.13634 72.53418
#
# Velocity S-wave (km/s) = 6.83575 4.89222 5.94396
# Velocity P-wave (km/s) = 9.38005 7.63259 8.55108
#
# Compressibility (1/GPa) = 0.01896621
#
# Stress axis : x y z
#
# Youngs Moduli (GPa) = 100.97409 91.15957 84.80369
#
# Poissons Ratio (x) = 0.22082 0.27561
# Poissons Ratio (y) = 0.24459 0.09983
# Poissons Ratio (z) = 0.32816 0.10732
#
# Static dielectric constant tensor:
#      x y z
#    x 1.780640 0.000000 0.000000 
#    y 0.000000 1.751560 0.000000 
#    z 0.000000 0.000000 1.831960 
# 
# From -- ./inp_files/33583.got.cif
#   From: 2010.05.17/outbox.cif.g08.bks.cpg/sg58_17_cif.got.tgz:33583.got - 2010.06.03 14:20:14.
