data_PCOD9443032
_publ_section_title
;
Structure prediction by ZEFSAII (Michael W. Deem and Ramdas Pophale) SiO2 
 PCOD9443032
Probable space group: P N N M
;
_chemical_formula_sum "Si O2"
_cell_formula_units_Z 64
_cell_length_a 23.570308
_cell_length_b 9.990937
_cell_length_c 14.216180
_cell_angle_alpha 90.000000
_cell_angle_beta 90.000000
_cell_angle_gamma 90.000000
_cell_volume 3347.760584
_symmetry_space_group_name_H-M "P N N M"
_symmetry_group_IT_number 58
_symmetry_cell_setting 'orthorhombic'
loop_
_space_group_symop_operation_xyz
x,y,z
-x,-y,z
1/2+x,1/2-y,1/2-z
1/2-x,1/2+y,1/2-z
-x,-y,-z
x,y,-z
1/2-x,1/2+y,1/2+z
1/2+x,1/2-y,1/2+z
loop_
_atom_site_type_symbol
_atom_site_label
_atom_site_fract_x
_atom_site_fract_y
_atom_site_fract_z
Si Si1 0.065957 0.961696 0.891212
Si Si2 0.840267 0.630951 0.388977
Si Si3 0.881107 0.281761 0.211599
Si Si4 0.219311 0.370400 0.113483
Si Si5 0.559681 0.054012 0.751368
Si Si6 0.761662 0.327536 0.114374
Si Si7 0.318494 0.175215 0.890460
Si Si8 0.097407 0.256052 0.111926
O O1 0.099335 0.098431 0.868234
O O2 0.081933 0.839300 0.825799
O O3 0.078269 0.925570 0.000000
O O4 0.000000 0.000000 0.885195
O O5 0.852530 0.651657 0.500000
O O6 0.898029 0.616216 0.329428
O O7 0.794050 0.741979 0.358972
O O8 0.811923 0.483944 0.379190
O O9 0.910057 0.426915 0.201125
O O10 0.820719 0.276047 0.157704
O O11 0.868015 0.275414 0.322541
O O12 0.239792 0.516493 0.144968
O O13 0.262696 0.254507 0.139671
O O14 0.156063 0.328203 0.140181
O O15 0.218628 0.375385 0.000000
O O16 0.500000 0.000000 0.789953
O O17 0.550510 0.167891 0.672809
O O18 0.765197 0.321361 0.000000
O O19 0.329869 0.202002 0.000000
O O20 0.087998 0.270554 0.000000
#
# Coordination Sequence:
#
# PCOD9443032 Si02
#       8
#     8   8   8   8   8   8   8   8
#     4  10  22  39  57  82 116 154 196 237 286 350
#     4   9  21  39  58  85 117 151 195 245 296 346
#     4  11  22  35  59  84 113 150 195 241 294 341
#     4   9  18  34  53  78 114 149 182 224 285 352
#     4  11  23  39  59  84 116 157 206 248 289 347
#     4  10  20  34  55  86 119 145 183 236 291 357
#     4   9  20  36  54  79 113 150 187 230 286 346
#     4  10  21  36  55  82 117 154 191 236 289 348
#
# _framework density 19.117258
#
# number of rings (size 3 to 8) (size 9 to 14) (size 15 to 20)
#    0.000    2.125    1.250    1.125    3.500    2.000 
#    0.000    0.000    0.000    0.375    0.000    0.000 
#    0.000    0.000    0.000    0.000    0.000    0.000 
#
# Total GULP energy -357121.078384 kJ/mol
# GULP energy per Si atom -5580.016850 kJ/mol
# Density = 1.907375 g / cm^3
# Si number density = 19.117258 Si / 1000 Ang^3
#
#
#
# Elastic Constant Matrix: (Units=GPa)
#
#
# Indices 1 2 3 4 5 6 
#
# 1 67.7696 46.0735 21.2749 0.0000 0.0000 0.0000
# 2 46.0735 96.1506 41.4437 0.0000 0.0000 0.0000
# 3 21.2749 41.4437 62.3886 0.0000 0.0000 0.0000
# 4 0.0000 0.0000 0.0000 22.5787 0.0000 0.0000
# 5 0.0000 0.0000 0.0000 0.0000 22.8165 0.0000
# 6 0.0000 0.0000 0.0000 0.0000 0.0000 31.4977
#
#
#
# Elastic Compliance Matrix: (Units=1/GPa)
#
#
# Indices 1 2 3 4 5 6 
#
# 1 0.021907 -0.010197 -0.000697 0.000000 0.000000 0.000000
# 2 -0.010197 0.019320 -0.009356 0.000000 0.000000 0.000000
# 3 -0.000697 -0.009356 0.022481 0.000000 0.000000 0.000000
# 4 0.000000 0.000000 0.000000 0.044289 0.000000 0.000000
# 5 0.000000 0.000000 0.000000 0.000000 0.043828 0.000000
# 6 0.000000 0.000000 0.000000 0.000000 0.000000 0.031748
#
#
# Mechanical properties :
#
#
# Convention : Reuss Voigt Hill
#
# Bulk Modulus (GPa) = 43.08911 49.32144 46.20528
# Shear Modulus (GPa) = 21.56938 23.21304 22.39121
#
# Velocity S-wave (km/s) = 3.36261 3.48838 3.42608
# Velocity P-wave (km/s) = 6.13714 6.48695 6.31447
#
# Compressibility (1/GPa) = 0.02320772
#
# Stress axis : x y z
#
# Youngs Moduli (GPa) = 45.64698 51.76114 44.48135
#
# Poissons Ratio (x) = 0.52782 0.03099
# Poissons Ratio (y) = 0.46547 0.41618
# Poissons Ratio (z) = 0.03180 0.48429
#
# Static dielectric constant tensor:
#      x y z
#    x 1.674230 0.000000 0.000000 
#    y 0.000000 1.670500 0.000000 
#    z 0.000000 0.000000 1.681740 
# 
# From -- ./inp_files/23567.got.cif
#   From: 2010.05.17/outbox.cif.g08.bks.cpg/sg58_12_cif.got.tgz:23567.got - 2010.06.03 14:20:14.
