data_PCOD9443856
_publ_section_title
;
Structure prediction by ZEFSAII (Michael W. Deem and Ramdas Pophale) SiO2 
 PCOD9443856
Probable space group: P N N M
;
_chemical_formula_sum "Si O2"
_cell_formula_units_Z 56
_cell_length_a 12.270104
_cell_length_b 15.735036
_cell_length_c 12.771509
_cell_angle_alpha 90.000000
_cell_angle_beta 90.000000
_cell_angle_gamma 90.000000
_cell_volume 2465.801988
_symmetry_space_group_name_H-M "P N N M"
_symmetry_group_IT_number 58
_symmetry_cell_setting 'orthorhombic'
loop_
_space_group_symop_operation_xyz
x,y,z
-x,-y,z
1/2+x,1/2-y,1/2-z
1/2-x,1/2+y,1/2-z
-x,-y,-z
x,y,-z
1/2-x,1/2+y,1/2+z
1/2+x,1/2-y,1/2+z
loop_
_atom_site_type_symbol
_atom_site_label
_atom_site_fract_x
_atom_site_fract_y
_atom_site_fract_z
Si Si1 0.794043 0.468475 0.119416
Si Si2 0.589852 0.604942 0.381474
Si Si3 0.884254 0.881806 0.264202
Si Si4 0.439089 0.198067 0.387794
Si Si5 0.770771 0.265009 0.377049
Si Si6 0.523925 0.214408 0.165105
Si Si7 0.301202 0.892358 0.228359
O O1 0.673936 0.451192 0.164350
O O2 0.852891 0.377056 0.121915
O O3 0.850008 0.534685 0.197434
O O4 0.794363 0.498884 0.000000
O O5 0.568585 0.578931 0.500000
O O6 0.486529 0.592406 0.306794
O O7 0.610636 0.707614 0.384099
O O8 0.699735 0.567998 0.334702
O O9 0.798040 0.837473 0.183962
O O10 0.927342 0.808208 0.342849
O O11 0.494984 0.188410 0.500000
O O12 0.517272 0.196761 0.290080
O O13 0.740707 0.257277 0.500000
O O14 0.749262 0.179667 0.307779
O O15 0.900223 0.287554 0.373222
O O16 0.616433 0.145935 0.141500
#
# Coordination Sequence:
#
# PCOD9443856 Si02
#       7
#     8   8   8   8   8   8   8
#     4  11  23  39  62  93 133 165 191 247 326 384
#     4  10  20  40  66  87 112 163 219 257 293 356
#     4  10  20  40  62  88 121 160 209 252 295 367
#     4   9  17  35  62  88 114 154 203 248 302 359
#     4  11  21  39  64  92 121 159 210 264 312 353
#     4  10  20  38  63  88 119 158 206 257 296 356
#     4  11  23  39  59  93 131 157 203 254 310 380
#
# _framework density 22.710663
#
# number of rings (size 3 to 8) (size 9 to 14) (size 15 to 20)
#    0.000    1.714    4.286    1.714    0.000    6.286 
#    0.000    4.286    0.000    0.857    0.000    0.000 
#    0.000    0.000    0.000    0.000    0.000    0.000 
#
# Total GULP energy -312681.069895 kJ/mol
# GULP energy per Si atom -5583.590534 kJ/mol
# Density = 2.265897 g / cm^3
# Si number density = 22.710663 Si / 1000 Ang^3
#
#
#
# Elastic Constant Matrix: (Units=GPa)
#
#
# Indices 1 2 3 4 5 6 
#
# 1 95.9712 15.7606 -4.2381 0.0000 0.0000 0.0000
# 2 15.7606 72.9593 10.5734 0.0000 0.0000 0.0000
# 3 -4.2381 10.5734 47.3477 0.0000 0.0000 0.0000
# 4 0.0000 0.0000 0.0000 21.0736 0.0000 0.0000
# 5 0.0000 0.0000 0.0000 0.0000 4.0681 0.0000
# 6 0.0000 0.0000 0.0000 0.0000 0.0000 10.6713
#
#
#
# Elastic Compliance Matrix: (Units=1/GPa)
#
#
# Indices 1 2 3 4 5 6 
#
# 1 0.010912 -0.002582 0.001553 0.000000 0.000000 0.000000
# 2 -0.002582 0.014776 -0.003531 0.000000 0.000000 0.000000
# 3 0.001553 -0.003531 0.022048 0.000000 0.000000 0.000000
# 4 0.000000 0.000000 0.000000 0.047453 0.000000 0.000000
# 5 0.000000 0.000000 0.000000 0.000000 0.245817 0.000000
# 6 0.000000 0.000000 0.000000 0.000000 0.000000 0.093709
#
#
# Mechanical properties :
#
#
# Convention : Reuss Voigt Hill
#
# Bulk Modulus (GPa) = 25.89558 28.94113 27.41835
# Shear Modulus (GPa) = 10.94794 20.10808 15.52801
#
# Velocity S-wave (km/s) = 2.19797 2.97880 2.61766
# Velocity P-wave (km/s) = 4.22712 4.96005 4.60818
#
# Compressibility (1/GPa) = 0.03861663
#
# Stress axis : x y z
#
# Youngs Moduli (GPa) = 91.63815 67.67817 45.35583
#
# Poissons Ratio (x) = 0.17477 -0.07046
# Poissons Ratio (y) = 0.23665 0.16014
# Poissons Ratio (z) = -0.14236 0.23896
#
# Static dielectric constant tensor:
#      x y z
#    x 1.910570 0.000000 0.000000 
#    y 0.000000 1.923220 0.000000 
#    z 0.000000 0.000000 1.852890 
# 
# From -- ./inp_files/21292.got.cif
#   From: 2010.05.17/outbox.cif.g08.bks.cpg/sg58_11_cif.got.tgz:21292.got - 2010.06.03 14:20:14.
