data_PCOD9443019
_publ_section_title
;
Structure prediction by ZEFSAII (Michael W. Deem and Ramdas Pophale) SiO2 
 PCOD9443019
Probable space group: P N N M
;
_chemical_formula_sum "Si O2"
_cell_formula_units_Z 48
_cell_length_a 5.336263
_cell_length_b 28.329808
_cell_length_c 15.348391
_cell_angle_alpha 90.000000
_cell_angle_beta 90.000000
_cell_angle_gamma 90.000000
_cell_volume 2320.297710
_symmetry_space_group_name_H-M "P N N M"
_symmetry_group_IT_number 58
_symmetry_cell_setting 'orthorhombic'
loop_
_space_group_symop_operation_xyz
x,y,z
-x,-y,z
1/2+x,1/2-y,1/2-z
1/2-x,1/2+y,1/2-z
-x,-y,-z
x,y,-z
1/2-x,1/2+y,1/2+z
1/2+x,1/2-y,1/2+z
loop_
_atom_site_type_symbol
_atom_site_label
_atom_site_fract_x
_atom_site_fract_y
_atom_site_fract_z
Si Si1 0.962015 0.339433 0.601829
Si Si2 0.634407 0.299786 0.161988
Si Si3 0.464291 0.281378 0.347850
Si Si4 0.667369 0.454040 0.903656
Si Si5 0.290952 0.366293 0.089871
Si Si6 0.409138 0.108768 0.730638
O O1 0.974892 0.351091 0.500000
O O2 0.223450 0.314472 0.630534
O O3 0.929755 0.384675 0.665973
O O4 0.720927 0.304381 0.615849
O O5 0.506009 0.274561 0.244072
O O6 0.431260 0.316576 0.093666
O O7 0.861817 0.269802 0.123141
O O8 0.723411 0.349001 0.203659
O O9 0.500000 0.500000 0.887308
O O10 0.483097 0.409657 0.913889
O O11 0.834587 0.439095 0.820402
O O12 0.791742 0.460124 0.000000
O O13 0.154174 0.374082 0.180310
O O14 0.133395 0.368639 0.000000
#
# Coordination Sequence:
#
# PCOD9443019 Si02
#       6
#     8   8   8   8   8   8
#     4  11  24  40  59  86 119 162 214 257 296 347
#     4  10  21  36  54  81 115 157 196 247 300 352
#     4  11  22  38  60  84 118 161 207 254 303 346
#     4   9  19  36  58  87 119 148 186 238 301 379
#     4  10  20  34  55  83 114 150 190 235 297 367
#     4  10  20  36  57  79 116 152 196 242 303 356
#
# _framework density 20.687000000000001
#
# number of rings (size 3 to 8) (size 9 to 14) (size 15 to 20)
#    0.000    1.833    1.667    3.000    2.333    2.667 
#    0.000    2.500    0.000    0.500    0.000    1.167 
#    0.000    0.000    0.000    0.000    0.000    0.000 
#
# Total GULP energy -267383.921218 kJ/mol
# GULP energy per Si atom -5570.498359 kJ/mol
# Density = 2.063992 g / cm^3
# Si number density = 20.687000 Si / 1000 Ang^3
#
#
#
# Elastic Constant Matrix: (Units=GPa)
#
#
# Indices 1 2 3 4 5 6 
#
# 1 96.7461 11.3296 30.8443 0.0000 0.0000 0.0000
# 2 11.3296 36.9101 20.3713 0.0000 0.0000 0.0000
# 3 30.8443 20.3713 155.4943 0.0000 0.0000 0.0000
# 4 0.0000 0.0000 0.0000 27.3315 0.0000 0.0000
# 5 0.0000 0.0000 0.0000 0.0000 39.0936 0.0000
# 6 0.0000 0.0000 0.0000 0.0000 0.0000 15.0707
#
#
#
# Elastic Compliance Matrix: (Units=1/GPa)
#
#
# Indices 1 2 3 4 5 6 
#
# 1 0.011226 -0.002390 -0.001914 0.000000 0.000000 0.000000
# 2 -0.002390 0.029713 -0.003419 0.000000 0.000000 0.000000
# 3 -0.001914 -0.003419 0.007259 0.000000 0.000000 0.000000
# 4 0.000000 0.000000 0.000000 0.036588 0.000000 0.000000
# 5 0.000000 0.000000 0.000000 0.000000 0.025580 0.000000
# 6 0.000000 0.000000 0.000000 0.000000 0.000000 0.066354
#
#
# Mechanical properties :
#
#
# Convention : Reuss Voigt Hill
#
# Bulk Modulus (GPa) = 30.53082 46.02675 38.27879
# Shear Modulus (GPa) = 24.62063 31.40618 28.01341
#
# Velocity S-wave (km/s) = 3.45360 3.90058 3.68388
# Velocity P-wave (km/s) = 5.54018 6.52560 6.05298
#
# Compressibility (1/GPa) = 0.03275379
#
# Stress axis : x y z
#
# Youngs Moduli (GPa) = 89.07626 33.65507 137.76723
#
# Poissons Ratio (x) = 0.08042 0.26366
# Poissons Ratio (y) = 0.21286 0.47099
# Poissons Ratio (z) = 0.17048 0.11506
#
# Static dielectric constant tensor:
#      x y z
#    x 1.903030 0.000000 0.000000 
#    y 0.000000 1.760970 0.000000 
#    z 0.000000 0.000000 1.817300 
# 
# From -- ./inp_files/18590.got.cif
#   From: 2010.05.17/outbox.cif.g08.bks.cpg/sg58_10_cif.got.tgz:18590.got - 2010.06.03 14:20:14.
