data_PCOD9443853
_publ_section_title
;
Structure prediction by ZEFSAII (Michael W. Deem and Ramdas Pophale) SiO2 
 PCOD9443853
Probable space group: P N N M
;
_chemical_formula_sum "Si O2"
_cell_formula_units_Z 64
_cell_length_a 28.715378
_cell_length_b 13.078411
_cell_length_c 8.590622
_cell_angle_alpha 90.000000
_cell_angle_beta 90.000000
_cell_angle_gamma 90.000000
_cell_volume 3226.221111
_symmetry_space_group_name_H-M "P N N M"
_symmetry_group_IT_number 58
_symmetry_cell_setting 'orthorhombic'
loop_
_space_group_symop_operation_xyz
x,y,z
-x,-y,z
1/2+x,1/2-y,1/2-z
1/2-x,1/2+y,1/2-z
-x,-y,-z
x,y,-z
1/2-x,1/2+y,1/2+z
1/2+x,1/2-y,1/2+z
loop_
_atom_site_type_symbol
_atom_site_label
_atom_site_fract_x
_atom_site_fract_y
_atom_site_fract_z
Si Si1 0.036792 0.187691 0.311490
Si Si2 0.204730 0.136253 0.183995
Si Si3 0.616965 0.469715 0.185880
Si Si4 0.060478 0.842410 0.184862
Si Si5 0.436922 0.905767 0.818503
Si Si6 0.304494 0.068625 0.810884
Si Si7 0.908915 0.376562 0.310449
Si Si8 0.327591 0.846041 0.181090
O O1 0.036138 0.191634 0.500000
O O2 0.037902 0.305456 0.251922
O O3 0.990636 0.133246 0.251559
O O4 0.082462 0.123510 0.265871
O O5 0.257855 0.124747 0.241385
O O6 0.185951 0.248903 0.219878
O O7 0.168829 0.058164 0.262399
O O8 0.204446 0.117254 0.000000
O O9 0.597020 0.573472 0.257104
O O10 0.614895 0.476767 0.000000
O O11 0.072888 0.730391 0.249279
O O12 0.059292 0.841372 0.000000
O O13 0.382387 0.873320 0.814453
O O14 0.437354 0.021902 0.756604
O O15 0.451342 0.912959 0.000000
O O16 0.354822 0.110400 0.760624
O O17 0.301880 0.949242 0.768172
O O18 0.306087 0.071824 0.000000
O O19 0.910535 0.377039 0.500000
O O20 0.316806 0.823574 0.000000
#
# Coordination Sequence:
#
# PCOD9443853 Si02
#       8
#     8   8   8   8   8   8   8   8
#     4  10  20  38  63  88 110 144 199 246 285 342
#     4  11  21  34  55  89 122 147 181 237 300 346
#     4  11  23  41  63  84 110 151 202 243 278 343
#     4  12  26  40  55  83 124 158 187 236 304 353
#     4   8  15  32  61  87 106 138 194 247 276 320
#     4   8  18  35  58  84 114 151 195 239 282 336
#     4   9  18  38  63  83 111 156 202 239 280 340
#     4   9  16  34  57  78 106 148 193 235 277 330
#
# _framework density 19.837451000000001
#
# number of rings (size 3 to 8) (size 9 to 14) (size 15 to 20)
#    0.000    2.250    1.250    3.750    0.000    4.000 
#    0.000   10.625    0.000    0.000    0.000    0.000 
#    0.000    0.000    0.000    0.000    0.000    0.000 
#
# Total GULP energy -357186.974590 kJ/mol
# GULP energy per Si atom -5581.046478 kJ/mol
# Density = 1.979230 g / cm^3
# Si number density = 19.837451 Si / 1000 Ang^3
#
#
#
# Elastic Constant Matrix: (Units=GPa)
#
#
# Indices 1 2 3 4 5 6 
#
# 1 55.4331 14.0544 8.8425 0.0000 0.0000 0.0000
# 2 14.0544 92.9690 16.5851 0.0000 0.0000 0.0000
# 3 8.8425 16.5851 20.2342 0.0000 0.0000 0.0000
# 4 0.0000 0.0000 0.0000 -16.0648 0.0000 0.0000
# 5 0.0000 0.0000 0.0000 0.0000 13.1651 0.0000
# 6 0.0000 0.0000 0.0000 0.0000 0.0000 22.5254
#
#
#
# Elastic Compliance Matrix: (Units=1/GPa)
#
#
# Indices 1 2 3 4 5 6 
#
# 1 0.019614 -0.001682 -0.007193 0.000000 0.000000 0.000000
# 2 -0.001682 0.012743 -0.009710 0.000000 0.000000 0.000000
# 3 -0.007193 -0.009710 0.060523 0.000000 0.000000 0.000000
# 4 0.000000 0.000000 0.000000 -0.062248 0.000000 0.000000
# 5 0.000000 0.000000 0.000000 0.000000 0.075959 0.000000
# 6 0.000000 0.000000 0.000000 0.000000 0.000000 0.044394
#
#
# Mechanical properties :
#
#
# Convention : Reuss Voigt Hill
#
# Bulk Modulus (GPa) = 17.94983 27.51114 22.73049
# Shear Modulus (GPa) = 24.18696 12.53542 18.36119
#
# Velocity S-wave (km/s) = 3.49557 2.51650 3.04564
# Velocity P-wave (km/s) = 5.03589 4.72674 4.88376
#
# Compressibility (1/GPa) = 0.05571082
#
# Stress axis : x y z
#
# Youngs Moduli (GPa) = 50.98518 78.47646 16.52263
#
# Poissons Ratio (x) = 0.13199 0.11884
# Poissons Ratio (y) = 0.08575 0.16043
# Poissons Ratio (z) = 0.36672 0.76198
#
# Static dielectric constant tensor:
#      x y z
#    x 1.705280 0.000000 0.000000 
#    y 0.000000 1.705290 0.000000 
#    z 0.000000 0.000000 1.666970 
# 
# From -- ./inp_files/10934.got.cif
#   From: 2010.05.17/outbox.cif.g08.bks.cpg/sg58_6_cif.got.tgz:10934.got - 2010.06.03 14:20:14.
