data_PCOD9443971
_publ_section_title
;
Structure prediction by ZEFSAII (Michael W. Deem and Ramdas Pophale) SiO2 
 PCOD9443971
Probable space group: P N N M
;
_chemical_formula_sum "Si O2"
_cell_formula_units_Z 40
_cell_length_a 17.350775
_cell_length_b 7.278873
_cell_length_c 13.059053
_cell_angle_alpha 90.000000
_cell_angle_beta 90.000000
_cell_angle_gamma 90.000000
_cell_volume 1649.281185
_symmetry_space_group_name_H-M "P N N M"
_symmetry_group_IT_number 58
_symmetry_cell_setting 'orthorhombic'
loop_
_space_group_symop_operation_xyz
x,y,z
-x,-y,z
1/2+x,1/2-y,1/2-z
1/2-x,1/2+y,1/2-z
-x,-y,-z
x,y,-z
1/2-x,1/2+y,1/2+z
1/2+x,1/2-y,1/2+z
loop_
_atom_site_type_symbol
_atom_site_label
_atom_site_fract_x
_atom_site_fract_y
_atom_site_fract_z
Si Si1 0.770922 0.575929 0.671681
Si Si2 0.593847 0.813349 0.885202
Si Si3 0.173588 0.273127 0.882352
Si Si4 0.971649 0.799674 0.220413
Si Si5 0.346725 0.590641 0.888181
O O1 0.846657 0.477721 0.627245
O O2 0.786771 0.608477 0.792141
O O3 0.701813 0.438293 0.642362
O O4 0.728526 0.281212 0.873827
O O5 0.537623 0.801139 0.786913
O O6 0.645640 0.628745 0.881817
O O7 0.558140 0.819042 0.000000
O O8 0.081255 0.292530 0.866016
O O9 0.194483 0.315581 0.000000
O O10 0.907668 0.841547 0.306086
O O11 0.000000 0.000000 0.184057
O O12 0.377092 0.635186 0.000000
#
# Coordination Sequence:
#
# PCOD9443971 Si02
#       5
#     8   8   8   8   8
#     4  11  25  43  69  99 138 176 229 290 341 411
#     4  10  20  39  69 103 138 178 228 291 348 395
#     4  11  26  47  69  99 140 183 229 284 344 410
#     4   9  20  38  64  98 138 178 225 278 330 411
#     4   9  18  35  62  98 134 170 215 272 338 391
#
# _framework density 24.252988999999999
#
# number of rings (size 3 to 8) (size 9 to 14) (size 15 to 20)
#    0.000    2.000    0.000    2.400    8.400    6.000 
#    0.000   10.000    0.000    0.000    0.000    0.000 
#    0.000    0.000    0.000    0.000    0.000    0.000 
#
# Total GULP energy -223194.850408 kJ/mol
# GULP energy per Si atom -5579.871260 kJ/mol
# Density = 2.419779 g / cm^3
# Si number density = 24.252989 Si / 1000 Ang^3
#
#
#
# Elastic Constant Matrix: (Units=GPa)
#
#
# Indices 1 2 3 4 5 6 
#
# 1 49.5794 2.4076 6.8731 0.0000 0.0000 0.0000
# 2 2.4076 117.4095 16.6181 0.0000 0.0000 0.0000
# 3 6.8731 16.6181 133.9648 0.0000 0.0000 0.0000
# 4 0.0000 0.0000 0.0000 22.3523 0.0000 0.0000
# 5 0.0000 0.0000 0.0000 0.0000 5.3453 0.0000
# 6 0.0000 0.0000 0.0000 0.0000 0.0000 32.4561
#
#
#
# Elastic Compliance Matrix: (Units=1/GPa)
#
#
# Indices 1 2 3 4 5 6 
#
# 1 0.020323 -0.000274 -0.001009 0.000000 0.000000 0.000000
# 2 -0.000274 0.008673 -0.001062 0.000000 0.000000 0.000000
# 3 -0.001009 -0.001062 0.007648 0.000000 0.000000 0.000000
# 4 0.000000 0.000000 0.000000 0.044738 0.000000 0.000000
# 5 0.000000 0.000000 0.000000 0.000000 0.187081 0.000000
# 6 0.000000 0.000000 0.000000 0.000000 0.000000 0.030811
#
#
# Mechanical properties :
#
#
# Convention : Reuss Voigt Hill
#
# Bulk Modulus (GPa) = 31.29394 39.19460 35.24427
# Shear Modulus (GPa) = 15.89248 30.36773 23.13010
#
# Velocity S-wave (km/s) = 2.56262 3.54237 3.09156
# Velocity P-wave (km/s) = 4.65695 5.73821 5.22562
#
# Compressibility (1/GPa) = 0.03195507
#
# Stress axis : x y z
#
# Youngs Moduli (GPa) = 49.20579 115.29892 130.75117
#
# Poissons Ratio (x) = 0.03159 0.13189
# Poissons Ratio (y) = 0.01348 0.13884
# Poissons Ratio (z) = 0.04963 0.12243
#
# Static dielectric constant tensor:
#      x y z
#    x 2.025990 0.000000 0.000000 
#    y 0.000000 2.055600 0.000000 
#    z 0.000000 0.000000 1.955350 
# 
# From -- ./inp_files/12902.got.cif
#   From: 2010.05.17/outbox.cif.g08.bks.cpg/sg58_7_cif.got.tgz:12902.got - 2010.06.03 14:20:14.
