data_PCOD9443300
_publ_section_title
;
Structure prediction by ZEFSAII (Michael W. Deem and Ramdas Pophale) SiO2 
 PCOD9443300
Probable space group: P N N M
;
_chemical_formula_sum "Si O2"
_cell_formula_units_Z 64
_cell_length_a 25.146632
_cell_length_b 14.455171
_cell_length_c 8.931333
_cell_angle_alpha 90.000000
_cell_angle_beta 90.000000
_cell_angle_gamma 90.000000
_cell_volume 3246.529414
_symmetry_space_group_name_H-M "P N N M"
_symmetry_group_IT_number 58
_symmetry_cell_setting 'orthorhombic'
loop_
_space_group_symop_operation_xyz
x,y,z
-x,-y,z
1/2+x,1/2-y,1/2-z
1/2-x,1/2+y,1/2-z
-x,-y,-z
x,y,-z
1/2-x,1/2+y,1/2+z
1/2+x,1/2-y,1/2+z
loop_
_atom_site_type_symbol
_atom_site_label
_atom_site_fract_x
_atom_site_fract_y
_atom_site_fract_z
Si Si1 0.279198 0.768403 0.827244
Si Si2 0.330621 0.255053 0.177627
Si Si3 0.104476 0.038944 0.822432
Si Si4 0.561687 0.635066 0.822740
Si Si5 0.327576 0.037388 0.178183
Si Si6 0.878271 0.630898 0.177796
Si Si7 0.215665 0.044371 0.326094
Si Si8 0.447407 0.718860 0.821878
O O1 0.220512 0.790984 0.766900
O O2 0.325440 0.813267 0.729236
O O3 0.284180 0.656747 0.820520
O O4 0.285690 0.796846 0.000000
O O5 0.385224 0.307070 0.210906
O O6 0.336915 0.145742 0.209945
O O7 0.319636 0.264097 0.000000
O O8 0.064454 0.958372 0.772027
O O9 0.162182 0.013425 0.755651
O O10 0.086041 0.134688 0.748478
O O11 0.107122 0.048256 0.000000
O O12 0.508952 0.694439 0.794973
O O13 0.562114 0.610740 0.000000
O O14 0.370189 0.970814 0.254578
O O15 0.269529 0.013479 0.245101
O O16 0.327547 0.024557 0.000000
O O17 0.927221 0.686938 0.248159
O O18 0.881756 0.628541 0.000000
O O19 0.215405 0.015698 0.500000
O O20 0.437784 0.721730 0.000000
#
# Coordination Sequence:
#
# PCOD9443300 Si02
#       8
#     8   8   8   8   8   8   8   8
#     4  10  20  35  58  86 119 156 194 242 298 356
#     4   9  20  40  63  88 119 155 199 250 301 358
#     4  12  24  37  58  89 124 161 201 245 300 365
#     4  10  23  42  64  87 117 159 205 252 308 363
#     4  10  21  38  61  88 122 157 198 249 301 359
#     4  12  24  38  60  88 121 160 201 248 303 363
#     4  10  20  36  58  85 121 160 197 240 295 355
#     4  11  23  42  64  87 118 158 205 256 304 360
#
# _framework density 19.713357999999999
#
# number of rings (size 3 to 8) (size 9 to 14) (size 15 to 20)
#    0.000    1.500    1.250    4.125    1.750    4.500 
#    0.000    0.625    0.000    3.750    0.000    0.000 
#    0.000    0.000    0.000    0.000    0.000    0.000 
#
# Total GULP energy -358050.019914 kJ/mol
# GULP energy per Si atom -5594.531561 kJ/mol
# Density = 1.966849 g / cm^3
# Si number density = 19.713358 Si / 1000 Ang^3
#
#
#
# Elastic Constant Matrix: (Units=GPa)
#
#
# Indices 1 2 3 4 5 6 
#
# 1 66.1953 4.3071 29.5830 0.0000 0.0000 0.0000
# 2 4.3071 46.8266 16.0092 0.0000 0.0000 0.0000
# 3 29.5830 16.0092 92.4414 0.0000 0.0000 0.0000
# 4 0.0000 0.0000 0.0000 12.7364 0.0000 0.0000
# 5 0.0000 0.0000 0.0000 0.0000 27.6219 0.0000
# 6 0.0000 0.0000 0.0000 0.0000 0.0000 32.5352
#
#
#
# Elastic Compliance Matrix: (Units=1/GPa)
#
#
# Indices 1 2 3 4 5 6 
#
# 1 0.017633 0.000327 -0.005699 0.000000 0.000000 0.000000
# 2 0.000327 0.022705 -0.004037 0.000000 0.000000 0.000000
# 3 -0.005699 -0.004037 0.013341 0.000000 0.000000 0.000000
# 4 0.000000 0.000000 0.000000 0.078515 0.000000 0.000000
# 5 0.000000 0.000000 0.000000 0.000000 0.036203 0.000000
# 6 0.000000 0.000000 0.000000 0.000000 0.000000 0.030736
#
#
# Mechanical properties :
#
#
# Convention : Reuss Voigt Hill
#
# Bulk Modulus (GPa) = 28.68624 33.91799 31.30212
# Shear Modulus (GPa) = 21.77971 24.94964 23.36467
#
# Velocity S-wave (km/s) = 3.32749 3.56142 3.44644
# Velocity P-wave (km/s) = 5.41721 5.84419 5.63474
#
# Compressibility (1/GPa) = 0.03485991
#
# Stress axis : x y z
#
# Youngs Moduli (GPa) = 56.71311 44.04229 74.95892
#
# Poissons Ratio (x) = -0.01439 0.42722
# Poissons Ratio (y) = -0.01853 0.30259
# Poissons Ratio (z) = 0.32323 0.17779
#
# Static dielectric constant tensor:
#      x y z
#    x 1.675440 0.000000 0.000000 
#    y 0.000000 1.716020 0.000000 
#    z 0.000000 0.000000 1.655840 
# 
# From -- ./inp_files/6732.got.cif
#   From: 2010.05.17/outbox.cif.g08.bks.cpg/sg58_4_cif.got.tgz:6732.got - 2010.06.03 14:20:14.
