data_PCOD9443604
_publ_section_title
;
Structure prediction by ZEFSAII (Michael W. Deem and Ramdas Pophale) SiO2 
 PCOD9443604
Probable space group: P N N M
;
_chemical_formula_sum "Si O2"
_cell_formula_units_Z 40
_cell_length_a 13.776531
_cell_length_b 18.534284
_cell_length_c 8.696101
_cell_angle_alpha 90.000000
_cell_angle_beta 90.000000
_cell_angle_gamma 90.000000
_cell_volume 2220.446238
_symmetry_space_group_name_H-M "P N N M"
_symmetry_group_IT_number 58
_symmetry_cell_setting 'orthorhombic'
loop_
_space_group_symop_operation_xyz
x,y,z
-x,-y,z
1/2+x,1/2-y,1/2-z
1/2-x,1/2+y,1/2-z
-x,-y,-z
x,y,-z
1/2-x,1/2+y,1/2+z
1/2+x,1/2-y,1/2+z
loop_
_atom_site_type_symbol
_atom_site_label
_atom_site_fract_x
_atom_site_fract_y
_atom_site_fract_z
Si Si1 0.623311 0.876266 0.184353
Si Si2 0.697657 0.023762 0.316878
Si Si3 0.895931 0.966953 0.815582
Si Si4 0.095288 0.336267 0.314716
Si Si5 0.321501 0.680251 0.815450
O O1 0.518023 0.845496 0.225278
O O2 0.711865 0.831464 0.256649
O O3 0.635957 0.957963 0.244378
O O4 0.633421 0.876321 0.000000
O O5 0.695248 0.017537 0.500000
O O6 0.655082 0.099542 0.262554
O O7 0.807112 0.011452 0.257357
O O8 0.882801 0.885434 0.755985
O O9 0.885640 0.967897 0.000000
O O10 0.000000 0.000000 0.774527
O O11 0.103464 0.343629 0.500000
O O12 0.136156 0.257926 0.271756
O O13 0.323073 0.673735 0.000000
#
# Coordination Sequence:
#
# PCOD9443604 Si02
#       5
#     8   8   8   8   8
#     4  10  20  37  58  78 108 147 182 220 271 325
#     4  11  22  35  56  84 110 140 182 228 271 320
#     4  10  21  38  59  81 109 147 185 221 268 324
#     4  10  22  38  56  80 111 146 181 222 273 325
#     4  10  21  37  56  81 112 142 179 227 273 319
#
# _framework density 18.014396999999999
#
# number of rings (size 3 to 8) (size 9 to 14) (size 15 to 20)
#    0.000    1.800    0.000    6.600    0.000    8.800 
#    0.000    4.000    0.000    0.000    0.000    0.000 
#    0.000    0.000    0.000    0.000    0.000    0.000 
#
# Total GULP energy -223495.677343 kJ/mol
# GULP energy per Si atom -5587.391934 kJ/mol
# Density = 1.797340 g / cm^3
# Si number density = 18.014397 Si / 1000 Ang^3
#
#
#
# Elastic Constant Matrix: (Units=GPa)
#
#
# Indices 1 2 3 4 5 6 
#
# 1 121.0538 113.7650 46.4331 0.0000 0.0000 0.0000
# 2 113.7650 148.7582 48.7695 0.0000 0.0000 0.0000
# 3 46.4331 48.7695 57.5006 0.0000 0.0000 0.0000
# 4 0.0000 0.0000 0.0000 8.9258 0.0000 0.0000
# 5 0.0000 0.0000 0.0000 0.0000 -48.7017 0.0000
# 6 0.0000 0.0000 0.0000 0.0000 0.0000 19.9439
#
#
#
# Elastic Compliance Matrix: (Units=1/GPa)
#
#
# Indices 1 2 3 4 5 6 
#
# 1 0.031211 -0.021617 -0.006869 0.000000 0.000000 0.000000
# 2 -0.021617 0.024284 -0.003140 0.000000 0.000000 0.000000
# 3 -0.006869 -0.003140 0.025601 0.000000 0.000000 0.000000
# 4 0.000000 0.000000 0.000000 0.112034 0.000000 0.000000
# 5 0.000000 0.000000 0.000000 0.000000 -0.020533 0.000000
# 6 0.000000 0.000000 0.000000 0.000000 0.000000 0.050141
#
#
# Mechanical properties :
#
#
# Convention : Reuss Voigt Hill
#
# Bulk Modulus (GPa) = 56.04208 82.80530 69.42369
# Shear Modulus (GPa) = 17.12687 3.92327 10.52507
#
# Velocity S-wave (km/s) = 3.08674 1.47736 2.41977
# Velocity P-wave (km/s) = 6.62428 6.99829 6.81385
#
# Compressibility (1/GPa) = 0.01784373
#
# Stress axis : x y z
#
# Youngs Moduli (GPa) = 32.03971 41.17948 39.06056
#
# Poissons Ratio (x) = 0.89019 0.26831
# Poissons Ratio (y) = 0.69261 0.12265
# Poissons Ratio (z) = 0.22008 0.12931
#
# Static dielectric constant tensor:
#      x y z
#    x 1.601480 0.000000 0.000000 
#    y 0.000000 1.587410 0.000000 
#    z 0.000000 0.000000 1.607220 
# 
# From -- ./inp_files/3817.got.cif
#   From: 2010.05.17/outbox.cif.g08.bks.cpg/sg58_2_cif.got.tgz:3817.got - 2010.06.03 14:20:14.
