data_PCOD9443036
_publ_section_title
;
Structure prediction by ZEFSAII (Michael W. Deem and Ramdas Pophale) SiO2 
 PCOD9443036
Probable space group: P N N M
;
_chemical_formula_sum "Si O2"
_cell_formula_units_Z 40
_cell_length_a 20.893346
_cell_length_b 5.095520
_cell_length_c 22.176627
_cell_angle_alpha 90.000000
_cell_angle_beta 90.000000
_cell_angle_gamma 90.000000
_cell_volume 2360.978318
_symmetry_space_group_name_H-M "P N N M"
_symmetry_group_IT_number 58
_symmetry_cell_setting 'orthorhombic'
loop_
_space_group_symop_operation_xyz
x,y,z
-x,-y,z
1/2+x,1/2-y,1/2-z
1/2-x,1/2+y,1/2-z
-x,-y,-z
x,y,-z
1/2-x,1/2+y,1/2+z
1/2+x,1/2-y,1/2+z
loop_
_atom_site_type_symbol
_atom_site_label
_atom_site_fract_x
_atom_site_fract_y
_atom_site_fract_z
Si Si1 0.325963 0.386016 0.207867
Si Si2 0.542276 0.754594 0.741868
Si Si3 0.926418 0.444083 0.890352
Si Si4 0.752053 0.610614 0.667159
Si Si5 0.850035 0.956923 0.930628
O O1 0.401782 0.355597 0.215597
O O2 0.296200 0.394946 0.275500
O O3 0.294672 0.629110 0.172750
O O4 0.299732 0.128276 0.176447
O O5 0.500000 0.500000 0.725223
O O6 0.573224 0.871260 0.680634
O O7 0.500000 0.000000 0.766045
O O8 0.881695 0.694960 0.902604
O O9 0.000000 0.500000 0.906639
O O10 0.901021 0.192131 0.925565
O O11 0.709729 0.560810 0.608316
O O12 0.833663 0.905917 0.000000
#
# Coordination Sequence:
#
# PCOD9443036 Si02
#       5
#     8   8   8   8   8
#     4  10  20  34  56  77 103 136 174 223 269 334
#     4  11  21  34  56  81 110 140 176 224 274 323
#     4  11  23  36  53  73 106 149 189 227 258 299
#     4  10  21  34  53  77 103 137 180 221 270 316
#     4  12  24  38  54  75 108 144 192 231 259 306
#
# _framework density 16.942129000000001
#
# number of rings (size 3 to 8) (size 9 to 14) (size 15 to 20)
#    0.000    1.200    2.000    6.000    5.600    2.400 
#    0.000    0.000    0.000    0.000    0.000    0.000 
#    0.000   16.000    0.000    0.000    0.000    0.000 
#
# Total GULP energy -223347.668724 kJ/mol
# GULP energy per Si atom -5583.691718 kJ/mol
# Density = 1.690357 g / cm^3
# Si number density = 16.942129 Si / 1000 Ang^3
#
#
#
# Elastic Constant Matrix: (Units=GPa)
#
#
# Indices 1 2 3 4 5 6 
#
# 1 97.5969 71.6398 69.3508 0.0000 0.0000 0.0000
# 2 71.6398 189.1182 64.4456 0.0000 0.0000 0.0000
# 3 69.3508 64.4456 88.3991 0.0000 0.0000 0.0000
# 4 0.0000 0.0000 0.0000 4.6339 0.0000 0.0000
# 5 0.0000 0.0000 0.0000 0.0000 2.4316 0.0000
# 6 0.0000 0.0000 0.0000 0.0000 0.0000 20.9341
#
#
#
# Elastic Compliance Matrix: (Units=1/GPa)
#
#
# Indices 1 2 3 4 5 6 
#
# 1 0.024961 -0.003702 -0.016883 0.000000 0.000000 0.000000
# 2 -0.003702 0.007585 -0.002625 0.000000 0.000000 0.000000
# 3 -0.016883 -0.002625 0.026471 0.000000 0.000000 0.000000
# 4 0.000000 0.000000 0.000000 0.215803 0.000000 0.000000
# 5 0.000000 0.000000 0.000000 0.000000 0.411252 0.000000
# 6 0.000000 0.000000 0.000000 0.000000 0.000000 0.047769
#
#
# Mechanical properties :
#
#
# Convention : Reuss Voigt Hill
#
# Bulk Modulus (GPa) = 79.39104 87.33185 83.36144
# Shear Modulus (GPa) = 6.37381 16.91177 11.64279
#
# Velocity S-wave (km/s) = 1.94172 3.16287 2.62431
# Velocity P-wave (km/s) = 7.21033 8.06210 7.64808
#
# Compressibility (1/GPa) = 0.01259588
#
# Stress axis : x y z
#
# Youngs Moduli (GPa) = 40.06320 131.84578 37.77687
#
# Poissons Ratio (x) = 0.48810 0.63779
# Poissons Ratio (y) = 0.14832 0.09917
# Poissons Ratio (z) = 0.67639 0.34611
#
# Static dielectric constant tensor:
#      x y z
#    x 1.517940 0.000000 0.000000 
#    y 0.000000 1.573240 0.000000 
#    z 0.000000 0.000000 1.386980 
# 
# From -- ./inp_files/30183.got.cif
#   From: 2010.05.17/outbox.cif.g08.bks.cpg/sg58_16_cif.got.tgz:30183.got - 2010.06.03 14:20:14.
