data_PCOD9443548
_publ_section_title
;
Structure prediction by ZEFSAII (Michael W. Deem and Ramdas Pophale) SiO2 
 PCOD9443548
Probable space group: P N N M
;
_chemical_formula_sum "Si O2"
_cell_formula_units_Z 56
_cell_length_a 16.118895
_cell_length_b 11.277843
_cell_length_c 15.416590
_cell_angle_alpha 90.000000
_cell_angle_beta 90.000000
_cell_angle_gamma 90.000000
_cell_volume 2802.525890
_symmetry_space_group_name_H-M "P N N M"
_symmetry_group_IT_number 58
_symmetry_cell_setting 'orthorhombic'
loop_
_space_group_symop_operation_xyz
x,y,z
-x,-y,z
1/2+x,1/2-y,1/2-z
1/2-x,1/2+y,1/2-z
-x,-y,-z
x,y,-z
1/2-x,1/2+y,1/2+z
1/2+x,1/2-y,1/2+z
loop_
_atom_site_type_symbol
_atom_site_label
_atom_site_fract_x
_atom_site_fract_y
_atom_site_fract_z
Si Si1 0.364429 0.191360 0.899775
Si Si2 0.388105 0.151371 0.401861
Si Si3 0.961541 0.742430 0.669818
Si Si4 0.796904 0.098035 0.712767
Si Si5 0.380999 0.982415 0.237447
Si Si6 0.459597 0.379413 0.673849
Si Si7 0.197567 0.136864 0.599086
O O1 0.459140 0.238340 0.892626
O O2 0.309890 0.288992 0.849539
O O3 0.363583 0.073694 0.840858
O O4 0.341459 0.173873 0.000000
O O5 0.398419 0.104748 0.500000
O O6 0.445734 0.265908 0.387486
O O7 0.290709 0.187574 0.391683
O O8 0.400155 0.055662 0.325426
O O9 0.949511 0.613211 0.711474
O O10 0.876940 0.776688 0.623002
O O11 0.983516 0.834700 0.746031
O O12 0.703775 0.090854 0.747260
O O13 0.868643 0.099147 0.784922
O O14 0.808767 0.978216 0.658481
O O15 0.500000 0.500000 0.638078
O O16 0.188228 0.098994 0.500000
#
# Coordination Sequence:
#
# PCOD9443548 Si02
#       7
#     8   8   8   8   8   8   8
#     4  11  24  40  64  99 132 161 205 266 324 380
#     4  10  22  41  63  88 120 170 222 263 306 367
#     4  11  22  36  62  95 130 167 201 250 323 385
#     4  10  21  38  62  89 124 172 210 255 305 375
#     4  11  23  40  66  88 128 175 210 256 313 381
#     4  11  21  38  61  90 122 161 208 258 316 373
#     4  10  20  36  61  92 124 164 211 253 305 382
#
# _framework density 19.981974999999998
#
# number of rings (size 3 to 8) (size 9 to 14) (size 15 to 20)
#    0.000    1.429    4.286    2.143    2.000    2.571 
#    0.000    4.286    0.000    1.714    0.000    0.000 
#    0.000    0.000    0.000    0.000    0.000    0.000 
#
# Total GULP energy -312795.612156 kJ/mol
# GULP energy per Si atom -5585.635931 kJ/mol
# Density = 1.993649 g / cm^3
# Si number density = 19.981975 Si / 1000 Ang^3
#
#
#
# Elastic Constant Matrix: (Units=GPa)
#
#
# Indices 1 2 3 4 5 6 
#
# 1 42.6745 5.0775 12.1647 0.0000 0.0000 0.0000
# 2 5.0775 60.2692 2.2132 0.0000 0.0000 0.0000
# 3 12.1647 2.2132 53.2826 0.0000 0.0000 0.0000
# 4 0.0000 0.0000 0.0000 2.9199 0.0000 0.0000
# 5 0.0000 0.0000 0.0000 0.0000 17.7984 0.0000
# 6 0.0000 0.0000 0.0000 0.0000 0.0000 41.3978
#
#
#
# Elastic Compliance Matrix: (Units=1/GPa)
#
#
# Indices 1 2 3 4 5 6 
#
# 1 0.025285 -0.001921 -0.005693 0.000000 0.000000 0.000000
# 2 -0.001921 0.016764 -0.000258 0.000000 0.000000 0.000000
# 3 -0.005693 -0.000258 0.020078 0.000000 0.000000 0.000000
# 4 0.000000 0.000000 0.000000 0.342477 0.000000 0.000000
# 5 0.000000 0.000000 0.000000 0.000000 0.056185 0.000000
# 6 0.000000 0.000000 0.000000 0.000000 0.000000 0.024156
#
#
# Mechanical properties :
#
#
# Convention : Reuss Voigt Hill
#
# Bulk Modulus (GPa) = 21.55955 21.68189 21.62072
# Shear Modulus (GPa) = 9.68714 21.54127 15.61421
#
# Velocity S-wave (km/s) = 2.20419 3.28691 2.79841
# Velocity P-wave (km/s) = 4.15823 5.02785 4.61358
#
# Compressibility (1/GPa) = 0.04638315
#
# Stress axis : x y z
#
# Youngs Moduli (GPa) = 39.54979 59.65333 49.80506
#
# Poissons Ratio (x) = 0.11460 0.28353
# Poissons Ratio (y) = 0.07598 0.01284
# Poissons Ratio (z) = 0.22515 0.01537
#
# Static dielectric constant tensor:
#      x y z
#    x 1.720740 0.000000 0.000000 
#    y 0.000000 1.704500 0.000000 
#    z 0.000000 0.000000 1.695830 
# 
# From -- ./inp_files/22201.got.cif
#   From: 2010.05.17/outbox.cif.g08.bks.cpg/sg58_12_cif.got.tgz:22201.got - 2010.06.03 14:20:14.
