data_PCOD9443420
_publ_section_title
;
Structure prediction by ZEFSAII (Michael W. Deem and Ramdas Pophale) SiO2 
 PCOD9443420
Probable space group: P N N M
;
_chemical_formula_sum "Si O2"
_cell_formula_units_Z 44
_cell_length_a 13.893197
_cell_length_b 14.005088
_cell_length_c 9.479883
_cell_angle_alpha 90.000000
_cell_angle_beta 90.000000
_cell_angle_gamma 90.000000
_cell_volume 1844.552468
_symmetry_space_group_name_H-M "P N N M"
_symmetry_group_IT_number 58
_symmetry_cell_setting 'orthorhombic'
loop_
_space_group_symop_operation_xyz
x,y,z
-x,-y,z
1/2+x,1/2-y,1/2-z
1/2-x,1/2+y,1/2-z
-x,-y,-z
x,y,-z
1/2-x,1/2+y,1/2+z
1/2+x,1/2-y,1/2+z
loop_
_atom_site_type_symbol
_atom_site_label
_atom_site_fract_x
_atom_site_fract_y
_atom_site_fract_z
Si Si1 0.501641 0.211050 0.656939
Si Si2 0.006934 0.892321 0.341114
Si Si3 0.500000 0.000000 0.767434
Si Si4 0.212427 0.528755 0.344970
Si Si5 0.235246 0.864942 0.343869
Si Si6 0.732339 0.802666 0.659408
O O1 0.534006 0.235115 0.500000
O O2 0.530609 0.297913 0.760619
O O3 0.384247 0.208925 0.655364
O O4 0.528486 0.099852 0.689304
O O5 0.965502 0.897233 0.500000
O O6 0.120554 0.872976 0.353535
O O7 0.000000 0.000000 0.277772
O O8 0.596267 0.967890 0.847082
O O9 0.249176 0.553225 0.500000
O O10 0.238027 0.424118 0.294767
O O11 0.250464 0.590850 0.214009
O O12 0.272976 0.890839 0.500000
O O13 0.264331 0.760482 0.292295
O O14 0.766801 0.783593 0.500000
#
# Coordination Sequence:
#
# PCOD9443420 Si02
#       6
#     8   8   4   8   8   8
#     4   9  18  33  57  84 111 146 186 236 288 340
#     4   9  19  37  59  83 114 152 190 232 283 343
#     4  10  22  38  58  84 118 154 196 242 294 350
#     4  11  22  37  58  84 115 153 195 239 288 345
#     4  10  20  36  58  83 112 149 191 235 286 343
#     4   9  18  35  57  80 109 146 186 232 288 342
#
# _framework density 23.854025
#
# number of rings (size 3 to 8) (size 9 to 14) (size 15 to 20)
#    0.000    2.364    0.000    2.182    0.000    8.364 
#    3.273    0.000    0.000    0.000    0.000    0.000 
#    0.000    0.000    0.000    0.000    0.000    0.000 
#
# Total GULP energy -245244.550669 kJ/mol
# GULP energy per Si atom -5573.739788 kJ/mol
# Density = 2.379973 g / cm^3
# Si number density = 23.854025 Si / 1000 Ang^3
#
#
#
# Elastic Constant Matrix: (Units=GPa)
#
#
# Indices 1 2 3 4 5 6 
#
# 1 44.8153 1.0884 0.4453 0.0000 0.0000 0.0000
# 2 1.0884 116.3818 49.0275 0.0000 0.0000 0.0000
# 3 0.4453 49.0275 155.0691 0.0000 0.0000 0.0000
# 4 0.0000 0.0000 0.0000 13.7190 0.0000 0.0000
# 5 0.0000 0.0000 0.0000 0.0000 17.1494 0.0000
# 6 0.0000 0.0000 0.0000 0.0000 0.0000 21.4176
#
#
#
# Elastic Compliance Matrix: (Units=1/GPa)
#
#
# Indices 1 2 3 4 5 6 
#
# 1 0.022319 -0.000210 0.000002 0.000000 0.000000 0.000000
# 2 -0.000210 0.009915 -0.003134 0.000000 0.000000 0.000000
# 3 0.000002 -0.003134 0.007440 0.000000 0.000000 0.000000
# 4 0.000000 0.000000 0.000000 0.072892 0.000000 0.000000
# 5 0.000000 0.000000 0.000000 0.000000 0.058311 0.000000
# 6 0.000000 0.000000 0.000000 0.000000 0.000000 0.046691
#
#
# Mechanical properties :
#
#
# Convention : Reuss Voigt Hill
#
# Bulk Modulus (GPa) = 30.31216 46.37653 38.34434
# Shear Modulus (GPa) = 21.25432 28.17086 24.71259
#
# Velocity S-wave (km/s) = 2.98823 3.44025 3.22218
# Velocity P-wave (km/s) = 4.96396 5.93839 5.47291
#
# Compressibility (1/GPa) = 0.03299006
#
# Stress axis : x y z
#
# Youngs Moduli (GPa) = 44.80516 100.86095 134.41561
#
# Poissons Ratio (x) = 0.02115 -0.00029
# Poissons Ratio (y) = 0.00939 0.42127
# Poissons Ratio (z) = -0.00010 0.31610
#
# Static dielectric constant tensor:
#      x y z
#    x 1.979730 0.000000 0.000000 
#    y 0.000000 1.859730 0.000000 
#    z 0.000000 0.000000 1.840220 
# 
# From -- ./inp_files/7629.got.cif
#   From: 2010.05.17/outbox.cif.g08.bks.cpg/sg58_4_cif.got.tgz:7629.got - 2010.06.03 14:20:14.
