data_PCOD9443165
_publ_section_title
;
Structure prediction by ZEFSAII (Michael W. Deem and Ramdas Pophale) SiO2 
 PCOD9443165
Probable space group: P N N M
;
_chemical_formula_sum "Si O2"
_cell_formula_units_Z 48
_cell_length_a 31.741290
_cell_length_b 9.218087
_cell_length_c 7.615569
_cell_angle_alpha 90.000000
_cell_angle_beta 90.000000
_cell_angle_gamma 90.000000
_cell_volume 2228.269588
_symmetry_space_group_name_H-M "P N N M"
_symmetry_group_IT_number 58
_symmetry_cell_setting 'orthorhombic'
loop_
_space_group_symop_operation_xyz
x,y,z
-x,-y,z
1/2+x,1/2-y,1/2-z
1/2-x,1/2+y,1/2-z
-x,-y,-z
x,y,-z
1/2-x,1/2+y,1/2+z
1/2+x,1/2-y,1/2+z
loop_
_atom_site_type_symbol
_atom_site_label
_atom_site_fract_x
_atom_site_fract_y
_atom_site_fract_z
Si Si1 0.372114 0.082622 0.295138
Si Si2 0.623949 0.589072 0.285056
Si Si3 0.289860 0.567214 0.712793
Si Si4 0.958465 0.913928 0.212638
Si Si5 0.205073 0.396056 0.792322
Si Si6 0.957464 0.574494 0.293368
O O1 0.361368 0.104871 0.500000
O O2 0.333885 0.988577 0.217298
O O3 0.415368 0.994149 0.285539
O O4 0.377576 0.244671 0.222590
O O5 0.622640 0.588264 0.500000
O O6 0.667675 0.514865 0.231947
O O7 0.583602 0.496505 0.227050
O O8 0.289140 0.567512 0.500000
O O9 0.248198 0.483428 0.771002
O O10 0.290660 0.732957 0.777972
O O11 0.959027 0.746734 0.267470
O O12 0.958504 0.915444 0.000000
O O13 0.000000 0.000000 0.272130
O O14 0.196589 0.377846 0.000000
O O15 0.955410 0.542526 0.500000
O O16 0.000000 0.500000 0.222266
#
# Coordination Sequence:
#
# PCOD9443165 Si02
#       6
#     8   8   8   8   8   8
#     4  10  20  37  61  83 106 140 183 229 273 320
#     4   9  18  34  57  84 109 137 180 232 277 318
#     4  10  20  35  55  79 111 147 181 222 273 328
#     4  10  20  36  60  86 110 142 187 231 271 321
#     4  10  21  36  56  83 111 142 183 229 274 321
#     4  11  24  39  55  80 115 149 180 220 272 327
#
# _framework density 21.541377000000001
#
# number of rings (size 3 to 8) (size 9 to 14) (size 15 to 20)
#    0.000    2.000    0.000    3.500    0.000    8.333 
#    0.000    4.167    0.000    0.000    0.000    0.000 
#    0.000    0.000    0.000    0.000    0.000    0.000 
#
# Total GULP energy -268334.461066 kJ/mol
# GULP energy per Si atom -5590.301272 kJ/mol
# Density = 2.149235 g / cm^3
# Si number density = 21.541377 Si / 1000 Ang^3
#
#
#
# Elastic Constant Matrix: (Units=GPa)
#
#
# Indices 1 2 3 4 5 6 
#
# 1 164.1422 89.2726 -26.0557 0.0000 0.0000 0.0000
# 2 89.2726 202.6830 -18.6310 0.0000 0.0000 0.0000
# 3 -26.0557 -18.6310 36.7860 0.0000 0.0000 0.0000
# 4 0.0000 0.0000 0.0000 13.8430 0.0000 0.0000
# 5 0.0000 0.0000 0.0000 0.0000 32.8806 0.0000
# 6 0.0000 0.0000 0.0000 0.0000 0.0000 43.9761
#
#
#
# Elastic Compliance Matrix: (Units=1/GPa)
#
#
# Indices 1 2 3 4 5 6 
#
# 1 0.008640 -0.003401 0.004397 0.000000 0.000000 0.000000
# 2 -0.003401 0.006514 0.000890 0.000000 0.000000 0.000000
# 3 0.004397 0.000890 0.030749 0.000000 0.000000 0.000000
# 4 0.000000 0.000000 0.000000 0.072239 0.000000 0.000000
# 5 0.000000 0.000000 0.000000 0.000000 0.030413 0.000000
# 6 0.000000 0.000000 0.000000 0.000000 0.000000 0.022740
#
#
# Mechanical properties :
#
#
# Convention : Reuss Voigt Hill
#
# Bulk Modulus (GPa) = 20.13104 54.75366 37.44235
# Shear Modulus (GPa) = 27.16182 42.07497 34.61840
#
# Velocity S-wave (km/s) = 3.55479 4.42432 4.01317
# Velocity P-wave (km/s) = 5.11999 7.18140 6.23646
#
# Compressibility (1/GPa) = 0.04967453
#
# Stress axis : x y z
#
# Youngs Moduli (GPa) = 115.73771 153.52076 32.52093
#
# Poissons Ratio (x) = 0.52219 -0.14300
# Poissons Ratio (y) = 0.39367 -0.02894
# Poissons Ratio (z) = -0.50892 -0.13660
#
# Static dielectric constant tensor:
#      x y z
#    x 1.728220 0.000000 0.000000 
#    y 0.000000 1.744340 0.000000 
#    z 0.000000 0.000000 1.825740 
# 
# From -- ./inp_files/2902.got.cif
#   From: 2010.05.17/outbox.cif.g08.bks.cpg/sg58_2_cif.got.tgz:2902.got - 2010.06.03 14:20:14.
