data_PCOD9443555
_publ_section_title
;
Structure prediction by ZEFSAII (Michael W. Deem and Ramdas Pophale) SiO2 
 PCOD9443555
Probable space group: P N N M
;
_chemical_formula_sum "Si O2"
_cell_formula_units_Z 58
_cell_length_a 28.023011
_cell_length_b 11.636129
_cell_length_c 7.640068
_cell_angle_alpha 90.000000
_cell_angle_beta 90.000000
_cell_angle_gamma 90.000000
_cell_volume 2491.268568
_symmetry_space_group_name_H-M "P N N M"
_symmetry_group_IT_number 58
_symmetry_cell_setting 'orthorhombic'
loop_
_space_group_symop_operation_xyz
x,y,z
-x,-y,z
1/2+x,1/2-y,1/2-z
1/2-x,1/2+y,1/2-z
-x,-y,-z
x,y,-z
1/2-x,1/2+y,1/2+z
1/2+x,1/2-y,1/2+z
loop_
_atom_site_type_symbol
_atom_site_label
_atom_site_fract_x
_atom_site_fract_y
_atom_site_fract_z
Si Si1 0.888978 0.022389 0.301370
Si Si2 0.431141 0.998406 0.297025
Si Si3 0.133697 0.318018 0.289890
Si Si4 0.717902 0.519720 0.211396
Si Si5 0.562633 0.740384 0.701223
Si Si6 0.457439 0.664720 0.788953
Si Si7 0.500000 0.000000 0.000000
Si Si8 0.264092 0.731798 0.210162
O O1 0.884515 0.976884 0.500000
O O2 0.903396 0.154384 0.302238
O O3 0.836826 0.006928 0.222262
O O4 0.935654 0.957615 0.229342
O O5 0.446084 0.989997 0.500000
O O6 0.432288 0.129907 0.235212
O O7 0.378984 0.943896 0.279191
O O8 0.466406 0.942393 0.155441
O O9 0.136144 0.321275 0.500000
O O10 0.087159 0.245188 0.239235
O O11 0.182434 0.263020 0.226591
O O12 0.745504 0.401540 0.269704
O O13 0.735242 0.649808 0.252289
O O14 0.717199 0.516547 0.000000
O O15 0.577928 0.738635 0.500000
O O16 0.507788 0.701419 0.712587
O O17 0.464900 0.663895 0.000000
O O18 0.264124 0.724546 0.000000
#
# Coordination Sequence:
#
# PCOD9443555 Si02
#       8
#     8   8   8   8   8   8   2   8
#     4  10  21  40  64  87 119 165 218 264 318 394
#     4  11  25  40  58  93 132 169 226 277 327 389
#     4  10  20  39  66  91 122 170 218 267 329 395
#     4  10  22  43  67  98 131 171 219 280 339 408
#     4  11  25  39  55  89 133 169 207 267 325 384
#     4  10  20  36  62  89 116 160 216 262 309 376
#     4  12  22  40  64  86 126 188 222 272 328 400
#     4  10  22  42  69  99 134 169 221 276 340 415
#
# _framework density 23.281313000000001
#
# number of rings (size 3 to 8) (size 9 to 14) (size 15 to 20)
#    0.000    1.655    2.069    1.862    3.862    6.621 
#    0.000    5.517    0.000    0.000    0.000    0.000 
#    0.000    0.000    0.000    0.000    0.000    0.000 
#
# Total GULP energy -323118.788551 kJ/mol
# GULP energy per Si atom -5571.013596 kJ/mol
# Density = 2.322832 g / cm^3
# Si number density = 23.281313 Si / 1000 Ang^3
#
#
#
# Elastic Constant Matrix: (Units=GPa)
#
#
# Indices 1 2 3 4 5 6 
#
# 1 43.1713 35.1571 0.8479 0.0000 0.0000 0.0000
# 2 35.1571 148.5784 15.2226 0.0000 0.0000 0.0000
# 3 0.8479 15.2226 54.8384 0.0000 0.0000 0.0000
# 4 0.0000 0.0000 0.0000 16.0108 0.0000 0.0000
# 5 0.0000 0.0000 0.0000 0.0000 23.7161 0.0000
# 6 0.0000 0.0000 0.0000 0.0000 0.0000 35.0063
#
#
#
# Elastic Compliance Matrix: (Units=1/GPa)
#
#
# Indices 1 2 3 4 5 6 
#
# 1 0.028810 -0.006970 0.001489 0.000000 0.000000 0.000000
# 2 -0.006970 0.008614 -0.002283 0.000000 0.000000 0.000000
# 3 0.001489 -0.002283 0.018846 0.000000 0.000000 0.000000
# 4 0.000000 0.000000 0.000000 0.062458 0.000000 0.000000
# 5 0.000000 0.000000 0.000000 0.000000 0.042165 0.000000
# 6 0.000000 0.000000 0.000000 0.000000 0.000000 0.028566
#
#
# Mechanical properties :
#
#
# Convention : Reuss Voigt Hill
#
# Bulk Modulus (GPa) = 24.54442 38.78261 31.66352
# Shear Modulus (GPa) = 22.87619 27.97066 25.42343
#
# Velocity S-wave (km/s) = 3.13804 3.46991 3.30814
# Velocity P-wave (km/s) = 4.86777 5.72260 5.31241
#
# Compressibility (1/GPa) = 0.04074246
#
# Stress axis : x y z
#
# Youngs Moduli (GPa) = 34.70989 116.09551 53.06111
#
# Poissons Ratio (x) = 0.80916 -0.07902
# Poissons Ratio (y) = 0.24192 0.12115
# Poissons Ratio (z) = -0.05169 0.26508
#
# Static dielectric constant tensor:
#      x y z
#    x 1.883440 0.000000 0.000000 
#    y 0.000000 2.066260 0.000000 
#    z 0.000000 0.000000 1.862610 
# 
# From -- ./inp_files/10872.got.cif
#   From: 2010.05.17/outbox.cif.g08.bks.cpg/sg58_6_cif.got.tgz:10872.got - 2010.06.03 14:20:14.
