data_PCOD9443023
_publ_section_title
;
Structure prediction by ZEFSAII (Michael W. Deem and Ramdas Pophale) SiO2 
 PCOD9443023
Probable space group: P N N M
;
_chemical_formula_sum "Si O2"
_cell_formula_units_Z 64
_cell_length_a 20.991193
_cell_length_b 19.151946
_cell_length_c 8.367770
_cell_angle_alpha 90.000000
_cell_angle_beta 90.000000
_cell_angle_gamma 90.000000
_cell_volume 3364.029261
_symmetry_space_group_name_H-M "P N N M"
_symmetry_group_IT_number 58
_symmetry_cell_setting 'orthorhombic'
loop_
_space_group_symop_operation_xyz
x,y,z
-x,-y,z
1/2+x,1/2-y,1/2-z
1/2-x,1/2+y,1/2-z
-x,-y,-z
x,y,-z
1/2-x,1/2+y,1/2+z
1/2+x,1/2-y,1/2+z
loop_
_atom_site_type_symbol
_atom_site_label
_atom_site_fract_x
_atom_site_fract_y
_atom_site_fract_z
Si Si1 0.939664 0.045594 0.806847
Si Si2 0.679382 0.954734 0.191358
Si Si3 0.941305 0.704270 0.804519
Si Si4 0.937853 0.205208 0.807493
Si Si5 0.938867 0.544112 0.193060
Si Si6 0.321638 0.543672 0.810159
Si Si7 0.175943 0.200613 0.193318
Si Si8 0.679415 0.794534 0.807247
O O1 0.943065 0.125550 0.749753
O O2 0.874500 0.008761 0.755732
O O3 0.941758 0.046544 0.000000
O O4 0.000000 0.000000 0.750641
O O5 0.750435 0.972667 0.249191
O O6 0.665480 0.874597 0.243530
O O7 0.625646 0.006225 0.254773
O O8 0.679343 0.955481 0.000000
O O9 0.942208 0.624148 0.751058
O O10 0.877828 0.745315 0.753974
O O11 0.003286 0.747184 0.751041
O O12 0.941635 0.703812 0.000000
O O13 0.872095 0.241453 0.759178
O O14 0.941148 0.203424 0.000000
O O15 0.000000 0.500000 0.249498
O O16 0.940452 0.544892 0.000000
O O17 0.337157 0.622378 0.752981
O O18 0.321799 0.541514 0.000000
O O19 0.247743 0.220631 0.242635
O O20 0.175182 0.197992 0.000000
O O21 0.677081 0.792324 0.000000
#
# Coordination Sequence:
#
# PCOD9443023 Si02
#       8
#     8   8   8   8   8   8   8   8
#     4  10  21  38  59  81 109 147 186 222 267 326
#     4  10  21  38  58  80 109 147 189 224 265 327
#     4   9  18  34  56  80 106 141 183 223 268 321
#     4  10  20  34  56  82 106 139 182 224 264 317
#     4  10  20  34  55  84 116 147 182 228 277 321
#     4  11  22  36  57  84 112 141 178 227 280 325
#     4   9  18  36  58  77 104 143 184 220 263 326
#     4   9  19  34  53  77 106 141 176 220 274 321
#
# _framework density 19.024806000000002
#
# number of rings (size 3 to 8) (size 9 to 14) (size 15 to 20)
#    0.000    2.250    0.000    3.750    0.000    7.500 
#    0.000    4.375    0.000    0.000    0.000    0.000 
#    0.000    0.000    0.000    0.000    0.000    0.000 
#
# Total GULP energy -357394.741142 kJ/mol
# GULP energy per Si atom -5584.292830 kJ/mol
# Density = 1.898150 g / cm^3
# Si number density = 19.024806 Si / 1000 Ang^3
#
#
#
# Elastic Constant Matrix: (Units=GPa)
#
#
# Indices 1 2 3 4 5 6 
#
# 1 140.1600 124.5910 14.8580 0.0000 0.0000 0.0000
# 2 124.5910 172.7574 23.4854 0.0000 0.0000 0.0000
# 3 14.8580 23.4854 9.1797 0.0000 0.0000 0.0000
# 4 0.0000 0.0000 0.0000 20.3856 0.0000 0.0000
# 5 0.0000 0.0000 0.0000 0.0000 22.0807 0.0000
# 6 0.0000 0.0000 0.0000 0.0000 0.0000 42.0640
#
#
#
# Elastic Compliance Matrix: (Units=1/GPa)
#
#
# Indices 1 2 3 4 5 6 
#
# 1 0.020168 -0.015497 0.007005 0.000000 0.000000 0.000000
# 2 -0.015497 0.020783 -0.028089 0.000000 0.000000 0.000000
# 3 0.007005 -0.028089 0.169462 0.000000 0.000000 0.000000
# 4 0.000000 0.000000 0.000000 0.049054 0.000000 0.000000
# 5 0.000000 0.000000 0.000000 0.000000 0.045289 0.000000
# 6 0.000000 0.000000 0.000000 0.000000 0.000000 0.023773
#
#
# Mechanical properties :
#
#
# Convention : Reuss Voigt Hill
#
# Bulk Modulus (GPa) = 7.28595 71.99621 39.64108
# Shear Modulus (GPa) = 11.17462 27.51690 19.34576
#
# Velocity S-wave (km/s) = 2.42620 3.80724 3.19230
# Velocity P-wave (km/s) = 3.41857 7.56652 5.87107
#
# Compressibility (1/GPa) = 0.13725040
#
# Stress axis : x y z
#
# Youngs Moduli (GPa) = 49.58384 48.11520 5.90102
#
# Poissons Ratio (x) = 0.74565 -0.04134
# Poissons Ratio (y) = 0.76841 0.16576
# Poissons Ratio (z) = -0.34733 1.35152
#
# Static dielectric constant tensor:
#      x y z
#    x 1.636430 0.000000 0.000000 
#    y 0.000000 1.643560 0.000000 
#    z 0.000000 0.000000 1.659890 
# 
# From -- ./inp_files/9303.got.cif
#   From: 2010.05.17/outbox.cif.g08.bks.cpg/sg58_5_cif.got.tgz:9303.got - 2010.06.03 14:20:14.
