data_PCOD9443581
_publ_section_title
;
Structure prediction by ZEFSAII (Michael W. Deem and Ramdas Pophale) SiO2 
 PCOD9443581
Probable space group: P N N M
;
_chemical_formula_sum "Si O2"
_cell_formula_units_Z 58
_cell_length_a 8.138679
_cell_length_b 11.891404
_cell_length_c 26.589220
_cell_angle_alpha 90.000000
_cell_angle_beta 90.000000
_cell_angle_gamma 90.000000
_cell_volume 2573.313221
_symmetry_space_group_name_H-M "P N N M"
_symmetry_group_IT_number 58
_symmetry_cell_setting 'orthorhombic'
loop_
_space_group_symop_operation_xyz
x,y,z
-x,-y,z
1/2+x,1/2-y,1/2-z
1/2-x,1/2+y,1/2-z
-x,-y,-z
x,y,-z
1/2-x,1/2+y,1/2+z
1/2+x,1/2-y,1/2+z
loop_
_atom_site_type_symbol
_atom_site_label
_atom_site_fract_x
_atom_site_fract_y
_atom_site_fract_z
Si Si1 0.848075 0.913310 0.150563
Si Si2 0.000000 0.500000 0.500000
Si Si3 0.832338 0.589875 0.406857
Si Si4 0.805673 0.990220 0.341650
Si Si5 0.666240 0.928227 0.445574
Si Si6 0.844132 0.751604 0.314351
Si Si7 0.276049 0.288677 0.787941
Si Si8 0.012320 0.819054 0.055604
O O1 0.815271 0.825843 0.195173
O O2 0.893586 0.837161 0.102163
O O3 0.689663 0.984179 0.131459
O O4 0.000000 0.000000 0.160617
O O5 0.956418 0.588731 0.453587
O O6 0.842476 0.693749 0.368771
O O7 0.656935 0.590515 0.435926
O O8 0.774445 0.971691 0.400213
O O9 0.754947 0.872507 0.316671
O O10 0.724304 0.102709 0.320449
O O11 0.000000 0.000000 0.332367
O O12 0.747480 0.941335 0.500000
O O13 0.603967 0.800251 0.441169
O O14 0.500000 0.000000 0.444795
O O15 0.755500 0.683945 0.270240
O O16 0.032882 0.766413 0.298674
O O17 0.937505 0.830653 0.000000
#
# Coordination Sequence:
#
# PCOD9443581 Si02
#       8
#     8   2   8   8   8   8   8   8
#     4  10  24  40  69  98 140 176 234 288 350 418
#     4  12  24  40  70  96 140 184 222 286 368 422
#     4  11  23  41  65  98 136 177 225 288 346 424
#     4  10  23  44  68  94 131 175 228 280 342 418
#     4  10  20  36  64  96 133 171 220 275 333 404
#     4  11  26  45  68 100 139 175 240 286 351 418
#     4  11  26  45  70  99 134 185 228 292 353 417
#     4  10  20  38  65  97 131 175 223 279 345 412
#
# _framework density 22.539034999999998
#
# number of rings (size 3 to 8) (size 9 to 14) (size 15 to 20)
#    0.000    1.517    2.069    1.655    6.759    2.759 
#    0.000    0.000    4.552    0.000    0.000    0.000 
#    0.000    0.000    0.000    0.000    0.000    0.000 
#
# Total GULP energy -323351.076584 kJ/mol
# GULP energy per Si atom -5575.018562 kJ/mol
# Density = 2.248774 g / cm^3
# Si number density = 22.539035 Si / 1000 Ang^3
#
#
#
# Elastic Constant Matrix: (Units=GPa)
#
#
# Indices 1 2 3 4 5 6 
#
# 1 21.0499 8.7979 21.5673 0.0000 0.0000 0.0000
# 2 8.7979 103.4563 52.5210 0.0000 0.0000 0.0000
# 3 21.5673 52.5210 139.2508 0.0000 0.0000 0.0000
# 4 0.0000 0.0000 0.0000 26.9623 0.0000 0.0000
# 5 0.0000 0.0000 0.0000 0.0000 18.7048 0.0000
# 6 0.0000 0.0000 0.0000 0.0000 0.0000 21.0782
#
#
#
# Elastic Compliance Matrix: (Units=1/GPa)
#
#
# Indices 1 2 3 4 5 6 
#
# 1 0.056484 -0.000448 -0.008579 0.000000 0.000000 0.000000
# 2 -0.000448 0.011959 -0.004441 0.000000 0.000000 0.000000
# 3 -0.008579 -0.004441 0.010185 0.000000 0.000000 0.000000
# 4 0.000000 0.000000 0.000000 0.037089 0.000000 0.000000
# 5 0.000000 0.000000 0.000000 0.000000 0.053462 0.000000
# 6 0.000000 0.000000 0.000000 0.000000 0.000000 0.047442
#
#
# Mechanical properties :
#
#
# Convention : Reuss Voigt Hill
#
# Bulk Modulus (GPa) = 19.34582 47.72548 33.53565
# Shear Modulus (GPa) = 19.17269 25.40710 22.28990
#
# Velocity S-wave (km/s) = 2.91974 3.36110 3.14816
# Velocity P-wave (km/s) = 4.46860 6.02355 5.30338
#
# Compressibility (1/GPa) = 0.05169076
#
# Stress axis : x y z
#
# Youngs Moduli (GPa) = 17.70423 83.62217 98.18298
#
# Poissons Ratio (x) = 0.03746 0.84234
# Poissons Ratio (y) = 0.00793 0.43603
# Poissons Ratio (z) = 0.15189 0.37137
#
# Static dielectric constant tensor:
#      x y z
#    x 1.905050 0.000000 0.000000 
#    y 0.000000 1.908030 0.000000 
#    z 0.000000 0.000000 1.846460 
# 
# From -- ./inp_files/33338.got.cif
#   From: 2010.05.17/outbox.cif.g08.bks.cpg/sg58_17_cif.got.tgz:33338.got - 2010.06.03 14:20:14.
