data_PCOD9443962
_publ_section_title
;
Structure prediction by ZEFSAII (Michael W. Deem and Ramdas Pophale) SiO2 
 PCOD9443962
Probable space group: P N N M
;
_chemical_formula_sum "Si O2"
_cell_formula_units_Z 46
_cell_length_a 9.655338
_cell_length_b 8.421374
_cell_length_c 24.986795
_cell_angle_alpha 90.000000
_cell_angle_beta 90.000000
_cell_angle_gamma 90.000000
_cell_volume 2031.706595
_symmetry_space_group_name_H-M "P N N M"
_symmetry_group_IT_number 58
_symmetry_cell_setting 'orthorhombic'
loop_
_space_group_symop_operation_xyz
x,y,z
-x,-y,z
1/2+x,1/2-y,1/2-z
1/2-x,1/2+y,1/2-z
-x,-y,-z
x,y,-z
1/2-x,1/2+y,1/2+z
1/2+x,1/2-y,1/2+z
loop_
_atom_site_type_symbol
_atom_site_label
_atom_site_fract_x
_atom_site_fract_y
_atom_site_fract_z
Si Si1 0.179824 0.141755 0.000000
Si Si2 0.261388 0.707807 0.798434
Si Si3 0.827253 0.874656 0.589628
Si Si4 0.148212 0.046870 0.801308
Si Si5 0.000000 0.500000 0.834562
Si Si6 0.277953 0.788635 0.386356
Si Si7 0.000000 0.000000 0.500000
Si Si8 0.644829 0.726606 0.500000
O O1 0.234339 0.218485 0.945541
O O2 0.017916 0.191847 0.000000
O O3 0.204482 0.952977 0.000000
O O4 0.329492 0.725552 0.856901
O O5 0.213099 0.882028 0.783823
O O6 0.364307 0.646486 0.753058
O O7 0.125815 0.590790 0.803758
O O8 0.696517 0.823434 0.552228
O O9 0.813090 0.052892 0.613243
O O10 0.947364 0.876810 0.546658
O O11 0.238033 0.150584 0.842666
O O12 0.000000 0.000000 0.826348
O O13 0.072647 0.364538 0.870520
#
# Coordination Sequence:
#
# PCOD9443962 Si02
#       8
#     4   8   8   8   4   8   2   4
#     4  11  20  31  61  89 129 166 200 259 334 389
#     4  11  23  42  67  96 134 177 224 278 344 396
#     4  10  22  41  64  92 127 171 220 276 322 402
#     4  12  26  43  68  99 136 177 226 281 336 411
#     4  10  20  39  66  96 134 167 224 278 330 404
#     4  11  22  38  61  96 130 167 214 274 328 391
#     4  10  22  42  70  92 130 174 232 258 326 406
#     4  10  21  33  56  95 122 164 209 256 321 391
#
# _framework density 22.641062999999999
#
# number of rings (size 3 to 8) (size 9 to 14) (size 15 to 20)
#    0.000    1.217    1.739    6.261    3.652    1.043 
#    0.000    0.000    0.000   17.739    0.000    0.000 
#    0.000    0.000    0.000    0.000    0.000    0.000 
#
# Total GULP energy -256154.261637 kJ/mol
# GULP energy per Si atom -5568.570905 kJ/mol
# Density = 2.258953 g / cm^3
# Si number density = 22.641063 Si / 1000 Ang^3
#
#
#
# Elastic Constant Matrix: (Units=GPa)
#
#
# Indices 1 2 3 4 5 6 
#
# 1 31.4687 3.9877 -1.7277 0.0000 0.0000 0.0000
# 2 3.9877 100.7091 10.8686 0.0000 0.0000 0.0000
# 3 -1.7277 10.8686 107.0597 0.0000 0.0000 0.0000
# 4 0.0000 0.0000 0.0000 32.4384 0.0000 0.0000
# 5 0.0000 0.0000 0.0000 0.0000 25.0165 0.0000
# 6 0.0000 0.0000 0.0000 0.0000 0.0000 19.0196
#
#
#
# Elastic Compliance Matrix: (Units=1/GPa)
#
#
# Indices 1 2 3 4 5 6 
#
# 1 0.031983 -0.001337 0.000652 0.000000 0.000000 0.000000
# 2 -0.001337 0.010095 -0.001046 0.000000 0.000000 0.000000
# 3 0.000652 -0.001046 0.009457 0.000000 0.000000 0.000000
# 4 0.000000 0.000000 0.000000 0.030828 0.000000 0.000000
# 5 0.000000 0.000000 0.000000 0.000000 0.039974 0.000000
# 6 0.000000 0.000000 0.000000 0.000000 0.000000 0.052577
#
#
# Mechanical properties :
#
#
# Convention : Reuss Voigt Hill
#
# Bulk Modulus (GPa) = 20.80177 29.49943 25.15060
# Shear Modulus (GPa) = 25.72002 30.36884 28.04443
#
# Velocity S-wave (km/s) = 3.37410 3.66637 3.52327
# Velocity P-wave (km/s) = 4.93832 5.56601 5.26153
#
# Compressibility (1/GPa) = 0.04807282
#
# Stress axis : x y z
#
# Youngs Moduli (GPa) = 31.26683 99.05452 105.73798
#
# Poissons Ratio (x) = 0.13241 -0.06892
# Poissons Ratio (y) = 0.04180 0.11065
# Poissons Ratio (z) = -0.02038 0.10366
#
# Static dielectric constant tensor:
#      x y z
#    x 1.953590 0.000000 0.000000 
#    y 0.000000 1.839630 0.000000 
#    z 0.000000 0.000000 1.885490 
# 
# From -- ./inp_files/31938.got.cif
#   From: 2010.05.17/outbox.cif.g08.bks.cpg/sg58_16_cif.got.tgz:31938.got - 2010.06.03 14:20:14.
