data_PCOD9443460
_publ_section_title
;
Structure prediction by ZEFSAII (Michael W. Deem and Ramdas Pophale) SiO2 
 PCOD9443460
Probable space group: P N N M
;
_chemical_formula_sum "Si O2"
_cell_formula_units_Z 64
_cell_length_a 16.134877
_cell_length_b 24.458091
_cell_length_c 7.711218
_cell_angle_alpha 90.000000
_cell_angle_beta 90.000000
_cell_angle_gamma 90.000000
_cell_volume 3043.064773
_symmetry_space_group_name_H-M "P N N M"
_symmetry_group_IT_number 58
_symmetry_cell_setting 'orthorhombic'
loop_
_space_group_symop_operation_xyz
x,y,z
-x,-y,z
1/2+x,1/2-y,1/2-z
1/2-x,1/2+y,1/2-z
-x,-y,-z
x,y,-z
1/2-x,1/2+y,1/2+z
1/2+x,1/2-y,1/2+z
loop_
_atom_site_type_symbol
_atom_site_label
_atom_site_fract_x
_atom_site_fract_y
_atom_site_fract_z
Si Si1 0.903763 0.500000 0.711980
Si Si2 0.341010 0.380484 0.294158
Si Si3 0.096049 1.000000 0.707901
Si Si4 1.000000 0.311093 0.793979
Si Si5 0.340482 0.116632 0.791844
Si Si6 0.841010 0.880485 0.205843
Si Si7 0.000000 0.186313 0.213737
Si Si8 0.659518 0.116632 0.791844
O O1 0.901525 0.500000 0.500000
O O2 0.861771 0.444257 0.773057
O O3 0.861770 0.555743 0.773057
O O4 0.000000 0.500000 0.762116
O O5 0.339645 0.370161 0.500000
O O6 0.359619 0.444673 0.268262
O O7 0.418153 0.345701 0.225109
O O8 0.249844 0.366106 0.224377
O O9 0.095358 0.999999 0.500000
O O10 0.140382 0.055326 0.768260
O O11 0.000000 0.000000 0.769083
O O12 0.000000 0.249017 0.727875
O O13 0.082650 0.343803 0.743066
O O14 0.917349 0.343802 0.743065
O O15 1.000000 0.307973 0.000000
O O16 0.250156 0.133894 0.724377
O O17 0.333842 0.112548 0.000000
O O18 0.918153 0.845701 0.274891
O O19 0.839645 0.870162 0.000000
O O20 0.000000 0.185296 0.000000
O O21 0.666158 0.112548 0.000000
#
# Coordination Sequence:
#
# PCOD9443460 Si02
#       8
#     8   8   8   8   8   8   8   8
#     4   9  15  28  52  77 106 134 164 220 279 323
#     4  10  20  37  62  84 108 150 198 235 271 330
#     4  11  22  35  55  88 126 152 176 225 289 340
#     4  11  23  38  55  78 114 153 184 231 298 345
#     4  10  20  36  59  85 108 141 191 238 278 330
#     4  10  20  37  62  84 108 150 198 235 271 330
#     4   9  20  38  57  80 110 147 194 239 278 331
#     4  10  20  36  59  85 108 141 191 238 278 330
#
# _framework density 21.03143
#
# number of rings (size 3 to 8) (size 9 to 14) (size 15 to 20)
#    0.000    2.000    2.500    1.500    0.000    4.500 
#    0.000    3.750    0.000    0.000    0.000    0.000 
#    0.000    0.000    0.000    0.000    0.000    0.000 
#
# Total GULP energy -357519.424923 kJ/mol
# GULP energy per Si atom -5586.241014 kJ/mol
# Density = 2.098356 g / cm^3
# Si number density = 21.031430 Si / 1000 Ang^3
#
#
#
# Elastic Constant Matrix: (Units=GPa)
#
#
# Indices 1 2 3 4 5 6 
#
# 1 240.4080 108.9070 8.2433 0.0000 0.0000 0.0000
# 2 108.9070 166.3362 -7.0142 0.0000 0.0000 0.0000
# 3 8.2433 -7.0142 31.1099 0.0000 0.0000 0.0000
# 4 0.0000 0.0000 0.0000 150.1491 0.0000 0.0000
# 5 0.0000 0.0000 0.0000 0.0000 5.6154 0.0000
# 6 0.0000 0.0000 0.0000 0.0000 0.0000 5.5332
#
#
#
# Elastic Compliance Matrix: (Units=1/GPa)
#
#
# Indices 1 2 3 4 5 6 
#
# 1 0.006107 -0.004106 -0.002544 0.000000 0.000000 0.000000
# 2 -0.004106 0.008830 0.003079 0.000000 0.000000 0.000000
# 3 -0.002544 0.003079 0.033512 0.000000 0.000000 0.000000
# 4 0.000000 0.000000 0.000000 0.006660 0.000000 0.000000
# 5 0.000000 0.000000 0.000000 0.000000 0.178082 0.000000
# 6 0.000000 0.000000 0.000000 0.000000 0.000000 0.180726
#
#
# Mechanical properties :
#
#
# Convention : Reuss Voigt Hill
#
# Bulk Modulus (GPa) = 24.20870 73.12514 48.66692
# Shear Modulus (GPa) = 11.49883 54.10742 32.80312
#
# Velocity S-wave (km/s) = 2.34079 5.07768 3.95361
# Velocity P-wave (km/s) = 4.34068 8.31998 6.63564
#
# Compressibility (1/GPa) = 0.04130746
#
# Stress axis : x y z
#
# Youngs Moduli (GPa) = 163.75543 113.25273 29.83982
#
# Poissons Ratio (x) = 0.46496 0.07591
# Poissons Ratio (y) = 0.67231 -0.09187
# Poissons Ratio (z) = 0.41655 -0.34867
#
# Static dielectric constant tensor:
#      x y z
#    x 1.817010 0.000000 0.000000 
#    y 0.000000 1.718470 0.000000 
#    z 0.000000 0.000000 1.765450 
# 
# From -- ./inp_files/6885.got.cif
#   From: 2010.05.17/outbox.cif.g08.bks.cpg/sg58_4_cif.got.tgz:6885.got - 2010.06.03 14:20:14.
