data_PCOD9443171
_publ_section_title
;
Structure prediction by ZEFSAII (Michael W. Deem and Ramdas Pophale) SiO2 
 PCOD9443171
Probable space group: P N N M
;
_chemical_formula_sum "Si O2"
_cell_formula_units_Z 64
_cell_length_a 18.926581
_cell_length_b 19.882594
_cell_length_c 7.502512
_cell_angle_alpha 90.000000
_cell_angle_beta 90.000000
_cell_angle_gamma 90.000000
_cell_volume 2823.266733
_symmetry_space_group_name_H-M "P N N M"
_symmetry_group_IT_number 58
_symmetry_cell_setting 'orthorhombic'
loop_
_space_group_symop_operation_xyz
x,y,z
-x,-y,z
1/2+x,1/2-y,1/2-z
1/2-x,1/2+y,1/2-z
-x,-y,-z
x,y,-z
1/2-x,1/2+y,1/2+z
1/2+x,1/2-y,1/2+z
loop_
_atom_site_type_symbol
_atom_site_label
_atom_site_fract_x
_atom_site_fract_y
_atom_site_fract_z
Si Si1 0.359196 0.704531 0.715867
Si Si2 0.275187 0.466648 0.284727
Si Si3 0.567474 0.535789 0.297293
Si Si4 0.167427 0.355301 0.789076
Si Si5 0.466879 0.932590 0.707214
Si Si6 0.231155 0.610773 0.282603
Si Si7 0.023783 0.818357 0.709023
Si Si8 0.915351 0.323390 0.716570
O O1 0.358046 0.703537 0.500000
O O2 0.336198 0.779093 0.779071
O O3 0.302262 0.649144 0.774935
O O4 0.439552 0.690381 0.770365
O O5 0.277184 0.466812 0.500000
O O6 0.355236 0.473773 0.217531
O O7 0.238994 0.396851 0.232805
O O8 0.232177 0.532832 0.226262
O O9 0.500000 0.500000 0.210961
O O10 0.572314 0.508183 0.500000
O O11 0.550316 0.614444 0.301290
O O12 0.104556 0.401746 0.712729
O O13 0.153831 0.348782 0.000000
O O14 0.450820 0.948489 0.500000
O O15 0.525510 0.874922 0.717674
O O16 0.500000 0.000000 0.788475
O O17 0.230824 0.610954 0.500000
O O18 0.161409 0.650785 0.225872
O O19 0.039738 0.826014 0.500000
O O20 0.062947 0.751248 0.774519
O O21 0.917277 0.324087 0.500000
#
# Coordination Sequence:
#
# PCOD9443171 Si02
#       8
#     8   8   8   8   8   8   8   8
#     4  10  20  38  63  82 109 156 202 236 280 352
#     4  10  21  37  59  86 113 145 192 248 290 339
#     4  10  22  41  64  87 114 155 203 245 293 354
#     4  10  21  35  55  83 114 154 191 230 288 348
#     4  10  20  35  55  81 114 149 188 230 279 339
#     4   9  19  37  60  83 108 147 197 238 284 347
#     4  11  23  37  58  89 122 151 189 245 298 344
#     4  10  21  36  56  84 115 150 191 236 286 344
#
# _framework density 22.668776999999999
#
# number of rings (size 3 to 8) (size 9 to 14) (size 15 to 20)
#    0.000    2.000    1.250    1.875    1.750    4.500 
#    0.000    2.500    0.000    0.000    0.000    0.000 
#    0.000    0.000    0.000    0.000    0.000    0.000 
#
# Total GULP energy -357747.680373 kJ/mol
# GULP energy per Si atom -5589.807506 kJ/mol
# Density = 2.261718 g / cm^3
# Si number density = 22.668777 Si / 1000 Ang^3
#
#
#
# Elastic Constant Matrix: (Units=GPa)
#
#
# Indices 1 2 3 4 5 6 
#
# 1 93.0015 -1.3395 -15.7100 0.0000 0.0000 0.0000
# 2 -1.3395 71.8218 -11.8449 0.0000 0.0000 0.0000
# 3 -15.7100 -11.8449 61.1753 0.0000 0.0000 0.0000
# 4 0.0000 0.0000 0.0000 17.5267 0.0000 0.0000
# 5 0.0000 0.0000 0.0000 0.0000 30.2928 0.0000
# 6 0.0000 0.0000 0.0000 0.0000 0.0000 44.0640
#
#
#
# Elastic Compliance Matrix: (Units=1/GPa)
#
#
# Indices 1 2 3 4 5 6 
#
# 1 0.011275 0.000710 0.003033 0.000000 0.000000 0.000000
# 2 0.000710 0.014427 0.002976 0.000000 0.000000 0.000000
# 3 0.003033 0.002976 0.017702 0.000000 0.000000 0.000000
# 4 0.000000 0.000000 0.000000 0.057056 0.000000 0.000000
# 5 0.000000 0.000000 0.000000 0.000000 0.033011 0.000000
# 6 0.000000 0.000000 0.000000 0.000000 0.000000 0.022694
#
#
# Mechanical properties :
#
#
# Convention : Reuss Voigt Hill
#
# Bulk Modulus (GPa) = 17.59233 18.68998 18.14116
# Shear Modulus (GPa) = 30.92644 35.36957 33.14800
#
# Velocity S-wave (km/s) = 3.69762 3.95432 3.82812
# Velocity P-wave (km/s) = 5.09973 5.39551 5.24971
#
# Compressibility (1/GPa) = 0.05684297
#
# Stress axis : x y z
#
# Youngs Moduli (GPa) = 88.69108 69.31259 56.49218
#
# Poissons Ratio (x) = -0.04925 -0.17134
# Poissons Ratio (y) = -0.06301 -0.16812
# Poissons Ratio (z) = -0.26900 -0.20627
#
# Static dielectric constant tensor:
#      x y z
#    x 1.811930 0.000000 0.000000 
#    y 0.000000 1.805570 0.000000 
#    z 0.000000 0.000000 1.910280 
# 
# From -- ./inp_files/8381.got.cif
#   From: 2010.05.17/outbox.cif.g08.bks.cpg/sg58_5_cif.got.tgz:8381.got - 2010.06.03 14:20:14.
