data_PCOD9443695
_publ_section_title
;
Structure prediction by ZEFSAII (Michael W. Deem and Ramdas Pophale) SiO2 
 PCOD9443695
Probable space group: P N N M
;
_chemical_formula_sum "Si O2"
_cell_formula_units_Z 32
_cell_length_a 12.463475
_cell_length_b 6.859165
_cell_length_c 13.029307
_cell_angle_alpha 90.000000
_cell_angle_beta 90.000000
_cell_angle_gamma 90.000000
_cell_volume 1113.862837
_symmetry_space_group_name_H-M "P N N M"
_symmetry_group_IT_number 58
_symmetry_cell_setting 'orthorhombic'
loop_
_space_group_symop_operation_xyz
x,y,z
-x,-y,z
1/2+x,1/2-y,1/2-z
1/2-x,1/2+y,1/2-z
-x,-y,-z
x,y,-z
1/2-x,1/2+y,1/2+z
1/2+x,1/2-y,1/2+z
loop_
_atom_site_type_symbol
_atom_site_label
_atom_site_fract_x
_atom_site_fract_y
_atom_site_fract_z
Si Si1 0.485647 0.232054 0.609770
Si Si2 0.470014 0.768289 0.166664
Si Si3 0.747380 0.605084 0.655408
Si Si4 0.296449 0.339023 0.889044
O O1 0.528149 0.301176 0.500000
O O2 0.539499 0.298820 0.715041
O O3 0.362373 0.295133 0.621740
O O4 0.500000 0.000000 0.609560
O O5 0.350814 0.767237 0.122732
O O6 0.573293 0.664244 0.118973
O O7 0.500000 0.000000 0.166300
O O8 0.747318 0.584206 0.780164
O O9 0.763558 0.389228 0.613330
O O10 0.260912 0.416671 0.000000
#
# Coordination Sequence:
#
# PCOD9443695 Si02
#       4
#     8   8   8   8
#     4   9  17  31  53  83 119 159 201 246 302 368
#     4   8  17  33  55  84 117 153 202 257 305 365
#     4  10  20  37  61  91 127 164 209 264 318 376
#     4  10  21  38  61  90 125 167 213 262 318 378
#
# _framework density 28.728850999999999
#
# number of rings (size 3 to 8) (size 9 to 14) (size 15 to 20)
#    0.000    2.750    0.000    2.250    0.000    6.500 
#    0.000   16.250    0.000    9.000    0.000    0.000 
#    0.000    0.000    0.000    0.000    0.000    0.000 
#
# Total GULP energy -179602.297046 kJ/mol
# GULP energy per Si atom -5612.571783 kJ/mol
# Density = 2.866346 g / cm^3
# Si number density = 28.728851 Si / 1000 Ang^3
#
#
#
# Elastic Constant Matrix: (Units=GPa)
#
#
# Indices 1 2 3 4 5 6 
#
# 1 203.8561 25.6177 22.8511 0.0000 0.0000 0.0000
# 2 25.6177 130.1415 19.9825 0.0000 0.0000 0.0000
# 3 22.8511 19.9825 229.7646 0.0000 0.0000 0.0000
# 4 0.0000 0.0000 0.0000 -32.1698 0.0000 0.0000
# 5 0.0000 0.0000 0.0000 0.0000 3.8567 0.0000
# 6 0.0000 0.0000 0.0000 0.0000 0.0000 59.3892
#
#
#
# Elastic Compliance Matrix: (Units=1/GPa)
#
#
# Indices 1 2 3 4 5 6 
#
# 1 0.005070 -0.000933 -0.000423 0.000000 0.000000 0.000000
# 2 -0.000933 0.007960 -0.000599 0.000000 0.000000 0.000000
# 3 -0.000423 -0.000599 0.004446 0.000000 0.000000 0.000000
# 4 0.000000 0.000000 0.000000 -0.031085 0.000000 0.000000
# 5 0.000000 0.000000 0.000000 0.000000 0.259292 0.000000
# 6 0.000000 0.000000 0.000000 0.000000 0.000000 0.016838
#
#
# Mechanical properties :
#
#
# Convention : Reuss Voigt Hill
#
# Bulk Modulus (GPa) = 73.71894 77.85165 75.78529
# Shear Modulus (GPa) = 18.45330 39.23593 28.84462
#
# Velocity S-wave (km/s) = 2.53717 3.69959 3.17208
# Velocity P-wave (km/s) = 5.85653 6.73846 6.31292
#
# Compressibility (1/GPa) = 0.01356504
#
# Stress axis : x y z
#
# Youngs Moduli (GPa) = 197.23474 125.63361 224.89629
#
# Poissons Ratio (x) = 0.11722 0.09515
# Poissons Ratio (y) = 0.18403 0.13481
# Poissons Ratio (z) = 0.08345 0.07531
#
# Static dielectric constant tensor:
#      x y z
#    x 2.178420 0.000000 0.000000 
#    y 0.000000 2.239860 0.000000 
#    z 0.000000 0.000000 2.136260 
# 
# From -- ./inp_files/19092.got.cif
#   From: 2010.05.17/outbox.cif.g08.bks.cpg/sg58_10_cif.got.tgz:19092.got - 2010.06.03 14:20:14.
