data_PCOD9443454
_publ_section_title
;
Structure prediction by ZEFSAII (Michael W. Deem and Ramdas Pophale) SiO2 
 PCOD9443454
Probable space group: P N N M
;
_chemical_formula_sum "Si O2"
_cell_formula_units_Z 48
_cell_length_a 15.092548
_cell_length_b 19.186603
_cell_length_c 7.482912
_cell_angle_alpha 90.000000
_cell_angle_beta 90.000000
_cell_angle_gamma 90.000000
_cell_volume 2166.862198
_symmetry_space_group_name_H-M "P N N M"
_symmetry_group_IT_number 58
_symmetry_cell_setting 'orthorhombic'
loop_
_space_group_symop_operation_xyz
x,y,z
-x,-y,z
1/2+x,1/2-y,1/2-z
1/2-x,1/2+y,1/2-z
-x,-y,-z
x,y,-z
1/2-x,1/2+y,1/2+z
1/2+x,1/2-y,1/2+z
loop_
_atom_site_type_symbol
_atom_site_label
_atom_site_fract_x
_atom_site_fract_y
_atom_site_fract_z
Si Si1 0.589451 0.032338 0.206077
Si Si2 0.557142 0.435013 0.286221
Si Si3 0.176800 0.731744 0.218639
Si Si4 0.517130 0.279152 0.282960
Si Si5 0.170775 0.327509 0.706639
Si Si6 0.736877 0.921236 0.287132
O O1 0.627965 0.103287 0.288658
O O2 0.500000 0.000000 0.287097
O O3 0.666710 0.975378 0.209421
O O4 0.566108 0.050137 0.000000
O O5 0.500000 0.500000 0.216339
O O6 0.544980 0.433939 0.500000
O O7 0.525764 0.359034 0.221553
O O8 0.661852 0.441089 0.251610
O O9 0.240030 0.794082 0.283093
O O10 0.214833 0.657076 0.276762
O O11 0.075888 0.745079 0.271003
O O12 0.179879 0.731918 0.000000
O O13 0.521507 0.278199 0.500000
O O14 0.598139 0.233370 0.213575
O O15 0.191622 0.344974 0.500000
O O16 0.724623 0.922088 0.500000
#
# Coordination Sequence:
#
# PCOD9443454 Si02
#       6
#     8   8   8   8   8   8
#     4  10  22  38  59  87 117 152 195 239 286 343
#     4  10  22  38  59  85 115 154 198 242 289 345
#     4   9  19  35  56  81 109 149 188 226 287 343
#     4  10  20  36  59  84 111 146 193 240 281 342
#     4  10  20  37  59  81 114 150 184 234 288 341
#     4  11  22  38  60  85 119 156 191 239 293 347
#
# _framework density 22.151845999999999
#
# number of rings (size 3 to 8) (size 9 to 14) (size 15 to 20)
#    0.000    2.000    1.667    1.500    2.333    1.333 
#    0.000    1.667    0.000    0.000    0.000    0.000 
#    0.000    0.000    0.000    0.000    0.000    0.000 
#
# Total GULP energy -268268.986798 kJ/mol
# GULP energy per Si atom -5588.937225 kJ/mol
# Density = 2.210143 g / cm^3
# Si number density = 22.151846 Si / 1000 Ang^3
#
#
#
# Elastic Constant Matrix: (Units=GPa)
#
#
# Indices 1 2 3 4 5 6 
#
# 1 92.9583 7.7269 -24.7006 0.0000 0.0000 0.0000
# 2 7.7269 95.3296 -6.3806 0.0000 0.0000 0.0000
# 3 -24.7006 -6.3806 60.0046 0.0000 0.0000 0.0000
# 4 0.0000 0.0000 0.0000 -140.0414 0.0000 0.0000
# 5 0.0000 0.0000 0.0000 0.0000 3.8539 0.0000
# 6 0.0000 0.0000 0.0000 0.0000 0.0000 40.0595
#
#
#
# Elastic Compliance Matrix: (Units=1/GPa)
#
#
# Indices 1 2 3 4 5 6 
#
# 1 0.012119 -0.000653 0.004919 0.000000 0.000000 0.000000
# 2 -0.000653 0.010600 0.000858 0.000000 0.000000 0.000000
# 3 0.004919 0.000858 0.018782 0.000000 0.000000 0.000000
# 4 0.000000 0.000000 0.000000 -0.007141 0.000000 0.000000
# 5 0.000000 0.000000 0.000000 0.000000 0.259477 0.000000
# 6 0.000000 0.000000 0.000000 0.000000 0.000000 0.024963
#
#
# Mechanical properties :
#
#
# Convention : Reuss Voigt Hill
#
# Bulk Modulus (GPa) = 19.32367 22.39822 20.86094
# Shear Modulus (GPa) = 15.34681 -1.11581 7.11550
#
# Velocity S-wave (km/s) = 2.63497 -0.71050 1.79419
# Velocity P-wave (km/s) = 4.24259 3.07573 3.70538
#
# Compressibility (1/GPa) = 0.05175002
#
# Stress axis : x y z
#
# Youngs Moduli (GPa) = 82.51561 94.33687 53.24347
#
# Poissons Ratio (x) = 0.06161 -0.26192
# Poissons Ratio (y) = 0.05389 -0.04570
# Poissons Ratio (z) = -0.40591 -0.08098
#
# Static dielectric constant tensor:
#      x y z
#    x 1.754570 0.000000 0.000000 
#    y 0.000000 1.797110 0.000000 
#    z 0.000000 0.000000 1.840950 
# 
# From -- ./inp_files/5758.got.cif
#   From: 2010.05.17/outbox.cif.g08.bks.cpg/sg58_3_cif.got.tgz:5758.got - 2010.06.03 14:20:14.
