data_PCOD9443512
_publ_section_title
;
Structure prediction by ZEFSAII (Michael W. Deem and Ramdas Pophale) SiO2 
 PCOD9443512
Probable space group: P N N M
;
_chemical_formula_sum "Si O2"
_cell_formula_units_Z 56
_cell_length_a 16.047152
_cell_length_b 20.715382
_cell_length_c 8.844179
_cell_angle_alpha 90.000000
_cell_angle_beta 90.000000
_cell_angle_gamma 90.000000
_cell_volume 2940.007487
_symmetry_space_group_name_H-M "P N N M"
_symmetry_group_IT_number 58
_symmetry_cell_setting 'orthorhombic'
loop_
_space_group_symop_operation_xyz
x,y,z
-x,-y,z
1/2+x,1/2-y,1/2-z
1/2-x,1/2+y,1/2-z
-x,-y,-z
x,y,-z
1/2-x,1/2+y,1/2+z
1/2+x,1/2-y,1/2+z
loop_
_atom_site_type_symbol
_atom_site_label
_atom_site_fract_x
_atom_site_fract_y
_atom_site_fract_z
Si Si1 0.825316 0.598899 0.320350
Si Si2 0.811826 0.193587 0.320025
Si Si3 0.168638 0.669679 0.819609
Si Si4 0.573654 0.453674 0.815818
Si Si5 0.971907 0.679179 0.179025
Si Si6 0.991751 0.815295 0.318476
Si Si7 0.261168 0.029945 0.317304
O O1 0.823119 0.598036 0.500000
O O2 0.750319 0.643798 0.258404
O O3 0.910651 0.630658 0.262496
O O4 0.813622 0.527193 0.255431
O O5 0.800565 0.189284 0.500000
O O6 0.797767 0.266861 0.263948
O O7 0.909191 0.178337 0.286246
O O8 0.209752 0.601976 0.775800
O O9 0.069433 0.665311 0.791258
O O10 0.180894 0.678843 0.000000
O O11 0.500000 0.500000 0.762273
O O12 0.555020 0.380230 0.771283
O O13 0.664735 0.477150 0.770862
O O14 0.572063 0.454382 0.000000
O O15 0.957804 0.751850 0.237495
O O16 0.957530 0.675345 0.000000
O O17 0.983407 0.807324 0.500000
O O18 0.266676 0.024772 0.500000
#
# Coordination Sequence:
#
# PCOD9443512 Si02
#       7
#     8   8   8   8   8   8   8
#     4  12  25  39  57  82 114 152 200 248 296 348
#     4  10  20  36  60  87 119 154 192 239 289 347
#     4   9  20  38  60  87 118 153 192 239 295 358
#     4   9  17  31  55  85 117 152 190 229 275 342
#     4  10  21  38  58  83 114 149 193 242 297 351
#     4   9  18  34  58  88 117 150 191 233 283 346
#     4  10  21  38  59  84 115 154 194 235 293 354
#
# _framework density 19.04757
#
# number of rings (size 3 to 8) (size 9 to 14) (size 15 to 20)
#    0.000    2.143    0.000    3.000    2.000    4.571 
#    0.000    3.571    0.000    1.714    0.000    0.000 
#    0.000    0.000    0.000    0.000    0.000    0.000 
#
# Total GULP energy -312858.356658 kJ/mol
# GULP energy per Si atom -5586.756369 kJ/mol
# Density = 1.900422 g / cm^3
# Si number density = 19.047570 Si / 1000 Ang^3
#
#
#
# Elastic Constant Matrix: (Units=GPa)
#
#
# Indices 1 2 3 4 5 6 
#
# 1 13.6459 2.8714 11.0751 0.0000 0.0000 0.0000
# 2 2.8714 62.4256 14.5723 0.0000 0.0000 0.0000
# 3 11.0751 14.5723 35.9461 0.0000 0.0000 0.0000
# 4 0.0000 0.0000 0.0000 35.4338 0.0000 0.0000
# 5 0.0000 0.0000 0.0000 0.0000 21.3148 0.0000
# 6 0.0000 0.0000 0.0000 0.0000 0.0000 33.3670
#
#
#
# Elastic Compliance Matrix: (Units=1/GPa)
#
#
# Indices 1 2 3 4 5 6 
#
# 1 0.098162 0.002811 -0.031384 0.000000 0.000000 0.000000
# 2 0.002811 0.017774 -0.008071 0.000000 0.000000 0.000000
# 3 -0.031384 -0.008071 0.040761 0.000000 0.000000 0.000000
# 4 0.000000 0.000000 0.000000 0.028222 0.000000 0.000000
# 5 0.000000 0.000000 0.000000 0.000000 0.046916 0.000000
# 6 0.000000 0.000000 0.000000 0.000000 0.000000 0.029970
#
#
# Mechanical properties :
#
#
# Convention : Reuss Voigt Hill
#
# Bulk Modulus (GPa) = 11.98919 18.78390 15.38654
# Shear Modulus (GPa) = 13.77809 23.58971 18.68390
#
# Velocity S-wave (km/s) = 2.69244 3.52300 3.13534
# Velocity P-wave (km/s) = 3.99670 5.14117 4.60463
#
# Compressibility (1/GPa) = 0.08340850
#
# Stress axis : x y z
#
# Youngs Moduli (GPa) = 10.18725 56.26221 24.53327
#
# Poissons Ratio (x) = -0.15815 0.76994
# Poissons Ratio (y) = -0.02864 0.19802
# Poissons Ratio (z) = 0.31971 0.45412
#
# Static dielectric constant tensor:
#      x y z
#    x 1.662050 0.000000 0.000000 
#    y 0.000000 1.632060 0.000000 
#    z 0.000000 0.000000 1.639120 
# 
# From -- ./inp_files/6394.got.cif
#   From: 2010.05.17/outbox.cif.g08.bks.cpg/sg58_4_cif.got.tgz:6394.got - 2010.06.03 14:20:14.
