data_PCOD9443027
_publ_section_title
;
Structure prediction by ZEFSAII (Michael W. Deem and Ramdas Pophale) SiO2 
 PCOD9443027
Probable space group: P N N M
;
_chemical_formula_sum "Si O2"
_cell_formula_units_Z 42
_cell_length_a 9.786878
_cell_length_b 21.651507
_cell_length_c 7.285349
_cell_angle_alpha 90.000000
_cell_angle_beta 90.000000
_cell_angle_gamma 90.000000
_cell_volume 1543.770243
_symmetry_space_group_name_H-M "P N N M"
_symmetry_group_IT_number 58
_symmetry_cell_setting 'orthorhombic'
loop_
_space_group_symop_operation_xyz
x,y,z
-x,-y,z
1/2+x,1/2-y,1/2-z
1/2-x,1/2+y,1/2-z
-x,-y,-z
x,y,-z
1/2-x,1/2+y,1/2+z
1/2+x,1/2-y,1/2+z
loop_
_atom_site_type_symbol
_atom_site_label
_atom_site_fract_x
_atom_site_fract_y
_atom_site_fract_z
Si Si1 0.424322 0.135524 0.721764
Si Si2 0.174849 0.440786 0.777493
Si Si3 0.500000 0.500000 0.500000
Si Si4 0.645980 0.672998 0.787551
Si Si5 0.102245 0.245076 0.708381
Si Si6 0.668525 0.434570 0.779379
O O1 0.428832 0.139596 0.500000
O O2 0.521565 0.077824 0.775283
O O3 0.501313 0.195279 0.793897
O O4 0.267795 0.122318 0.769936
O O5 0.270364 0.384708 0.711054
O O6 0.240084 0.505229 0.723980
O O7 0.174722 0.441191 0.000000
O O8 0.536484 0.448345 0.661570
O O9 0.500914 0.694486 0.708975
O O10 0.756754 0.728990 0.787212
O O11 0.618024 0.658063 0.000000
O O12 0.135116 0.226991 0.500000
O O13 0.645985 0.434965 0.000000
#
# Coordination Sequence:
#
# PCOD9443027 Si02
#       6
#     8   8   2   8   8   8
#     4   9  18  35  61  85 109 143 187 235 293 347
#     4   8  15  34  62  83 105 140 190 238 289 346
#     4  12  26  40  54  82 128 152 202 234 276 352
#     4   9  19  37  56  80 113 151 190 236 288 348
#     4  10  20  34  55  85 115 145 189 241 287 341
#     4  10  21  40  61  83 115 157 190 237 291 343
#
# _framework density 27.206123999999999
#
# number of rings (size 3 to 8) (size 9 to 14) (size 15 to 20)
#    0.000    2.667    0.000    2.571    1.333    3.810 
#   10.286    0.952    0.000    0.000    0.000    0.000 
#    0.000    0.000    0.000    0.000    0.000    0.000 
#
# Total GULP energy -234490.632387 kJ/mol
# GULP energy per Si atom -5583.110295 kJ/mol
# Density = 2.714420 g / cm^3
# Si number density = 27.206124 Si / 1000 Ang^3
#
#
#
# Elastic Constant Matrix: (Units=GPa)
#
#
# Indices 1 2 3 4 5 6 
#
# 1 171.5537 40.0912 5.2281 0.0000 0.0000 0.0000
# 2 40.0912 81.2953 -9.6636 0.0000 0.0000 0.0000
# 3 5.2281 -9.6636 126.9779 0.0000 0.0000 0.0000
# 4 0.0000 0.0000 0.0000 17.2183 0.0000 0.0000
# 5 0.0000 0.0000 0.0000 0.0000 0.9538 0.0000
# 6 0.0000 0.0000 0.0000 0.0000 0.0000 65.4892
#
#
#
# Elastic Compliance Matrix: (Units=1/GPa)
#
#
# Indices 1 2 3 4 5 6 
#
# 1 0.006623 -0.003329 -0.000526 0.000000 0.000000 0.000000
# 2 -0.003329 0.014086 0.001209 0.000000 0.000000 0.000000
# 3 -0.000526 0.001209 0.007989 0.000000 0.000000 0.000000
# 4 0.000000 0.000000 0.000000 0.058078 0.000000 0.000000
# 5 0.000000 0.000000 0.000000 0.000000 1.048479 0.000000
# 6 0.000000 0.000000 0.000000 0.000000 0.000000 0.015270
#
#
# Mechanical properties :
#
#
# Convention : Reuss Voigt Hill
#
# Bulk Modulus (GPa) = 42.72248 50.12650 46.42449
# Shear Modulus (GPa) = 4.29694 39.67701 21.98697
#
# Velocity S-wave (km/s) = 1.25811 3.82302 2.84590
# Velocity P-wave (km/s) = 4.22466 6.16052 5.28204
#
# Compressibility (1/GPa) = 0.02340688
#
# Stress axis : x y z
#
# Youngs Moduli (GPa) = 150.98881 70.99189 125.17120
#
# Poissons Ratio (x) = 0.23631 0.06584
# Poissons Ratio (y) = 0.50260 -0.15134
# Poissons Ratio (z) = 0.07942 -0.08583
#
# Static dielectric constant tensor:
#      x y z
#    x 2.170820 0.000000 0.000000 
#    y 0.000000 2.173720 0.000000 
#    z 0.000000 0.000000 1.325880 
# 
# From -- ./inp_files/4126.got.cif
#   From: 2010.05.17/outbox.cif.g08.bks.cpg/sg58_3_cif.got.tgz:4126.got - 2010.06.03 14:20:14.
