data_PCOD9443705
_publ_section_title
;
Structure prediction by ZEFSAII (Michael W. Deem and Ramdas Pophale) SiO2 
 PCOD9443705
Probable space group: P N N M
;
_chemical_formula_sum "Si O2"
_cell_formula_units_Z 58
_cell_length_a 25.241652
_cell_length_b 12.298337
_cell_length_c 10.386062
_cell_angle_alpha 90.000000
_cell_angle_beta 90.000000
_cell_angle_gamma 90.000000
_cell_volume 3224.148786
_symmetry_space_group_name_H-M "P N N M"
_symmetry_group_IT_number 58
_symmetry_cell_setting 'orthorhombic'
loop_
_space_group_symop_operation_xyz
x,y,z
-x,-y,z
1/2+x,1/2-y,1/2-z
1/2-x,1/2+y,1/2-z
-x,-y,-z
x,y,-z
1/2-x,1/2+y,1/2+z
1/2+x,1/2-y,1/2+z
loop_
_atom_site_type_symbol
_atom_site_label
_atom_site_fract_x
_atom_site_fract_y
_atom_site_fract_z
Si Si1 0.645685 0.550190 0.851811
Si Si2 0.500000 0.000000 0.500000
Si Si3 0.195919 0.183819 0.349386
Si Si4 0.092796 0.329537 0.653771
Si Si5 0.552670 0.569723 0.646127
Si Si6 0.982927 0.309444 0.788758
Si Si7 0.290051 0.225543 0.152874
Si Si8 0.386978 0.075002 0.153726
O O1 0.681630 0.443218 0.836760
O O2 0.598123 0.547914 0.750254
O O3 0.680338 0.658853 0.834391
O O4 0.625515 0.550597 0.000000
O O5 0.508116 0.905445 0.610354
O O6 0.210860 0.204527 0.500000
O O7 0.142283 0.251089 0.322420
O O8 0.240475 0.217439 0.247757
O O9 0.084802 0.334392 0.500000
O O10 0.106340 0.451604 0.701406
O O11 0.038600 0.290954 0.717542
O O12 0.500000 0.500000 0.673513
O O13 0.570247 0.543476 0.500000
O O14 0.536925 0.696327 0.653171
O O15 0.936917 0.353426 0.695291
O O16 0.332702 0.133565 0.193282
O O17 0.276828 0.211642 0.000000
O O18 0.385621 0.070829 0.000000
#
# Coordination Sequence:
#
# PCOD9443705 Si02
#       8
#     8   2   8   8   8   8   8   8
#     4  10  22  42  63  86 119 155 205 252 293 355
#     4  12  24  36  52  88 132 160 188 252 292 370
#     4  10  23  42  61  89 120 155 200 253 300 353
#     4  10  21  37  61  89 116 151 198 247 295 354
#     4  11  24  39  59  89 124 162 201 242 297 364
#     4  12  21  39  59  86 124 158 194 241 303 352
#     4  10  22  40  61  88 116 153 199 247 298 357
#     4  10  20  37  62  87 114 150 199 246 294 356
#
# _framework density 17.989243999999999
#
# number of rings (size 3 to 8) (size 9 to 14) (size 15 to 20)
#    0.000    1.517    3.448    1.241    1.931    3.034 
#    2.483    0.000    0.000    0.000    0.000    0.000 
#    0.000    0.000    0.000    0.000    0.000    0.000 
#
# Total GULP energy -323230.061350 kJ/mol
# GULP energy per Si atom -5572.932092 kJ/mol
# Density = 1.794830 g / cm^3
# Si number density = 17.989244 Si / 1000 Ang^3
#
#
#
# Elastic Constant Matrix: (Units=GPa)
#
#
# Indices 1 2 3 4 5 6 
#
# 1 99.7546 2.9087 73.4894 0.0000 0.0000 0.0000
# 2 2.9087 49.6884 17.8587 0.0000 0.0000 0.0000
# 3 73.4894 17.8587 87.6457 0.0000 0.0000 0.0000
# 4 0.0000 0.0000 0.0000 25.8237 0.0000 0.0000
# 5 0.0000 0.0000 0.0000 0.0000 -77.6768 0.0000
# 6 0.0000 0.0000 0.0000 0.0000 0.0000 16.3764
#
#
#
# Elastic Compliance Matrix: (Units=1/GPa)
#
#
# Indices 1 2 3 4 5 6 
#
# 1 0.028593 0.007492 -0.025501 0.000000 0.000000 0.000000
# 2 0.007492 0.023679 -0.011106 0.000000 0.000000 0.000000
# 3 -0.025501 -0.011106 0.035055 0.000000 0.000000 0.000000
# 4 0.000000 0.000000 0.000000 0.038724 0.000000 0.000000
# 5 0.000000 0.000000 0.000000 0.000000 -0.012874 0.000000
# 6 0.000000 0.000000 0.000000 0.000000 0.000000 0.061064
#
#
# Mechanical properties :
#
#
# Convention : Reuss Voigt Hill
#
# Bulk Modulus (GPa) = 34.37053 47.28914 40.82984
# Shear Modulus (GPa) = 20.64659 2.42677 11.53668
#
# Velocity S-wave (km/s) = 3.39147 1.16273 2.53516
# Velocity P-wave (km/s) = 5.87229 5.30538 5.59602
#
# Compressibility (1/GPa) = 0.02909469
#
# Stress axis : x y z
#
# Youngs Moduli (GPa) = 34.97360 42.23208 28.52659
#
# Poissons Ratio (x) = -0.31639 0.72746
# Poissons Ratio (y) = -0.26201 0.31683
# Poissons Ratio (z) = 0.89187 0.46905
#
# Static dielectric constant tensor:
#      x y z
#    x 1.578390 0.000000 0.000000 
#    y 0.000000 1.621420 0.000000 
#    z 0.000000 0.000000 1.606520 
# 
# From -- ./inp_files/4464.got.cif
#   From: 2010.05.17/outbox.cif.g08.bks.cpg/sg58_3_cif.got.tgz:4464.got - 2010.06.03 14:20:14.
