data_PCOD9443932
_publ_section_title
;
Structure prediction by ZEFSAII (Michael W. Deem and Ramdas Pophale) SiO2 
 PCOD9443932
Probable space group: P N N M
;
_chemical_formula_sum "Si O2"
_cell_formula_units_Z 58
_cell_length_a 18.900956
_cell_length_b 16.641178
_cell_length_c 9.864338
_cell_angle_alpha 90.000000
_cell_angle_beta 90.000000
_cell_angle_gamma 90.000000
_cell_volume 3102.671397
_symmetry_space_group_name_H-M "P N N M"
_symmetry_group_IT_number 58
_symmetry_cell_setting 'orthorhombic'
loop_
_space_group_symop_operation_xyz
x,y,z
-x,-y,z
1/2+x,1/2-y,1/2-z
1/2-x,1/2+y,1/2-z
-x,-y,-z
x,y,-z
1/2-x,1/2+y,1/2+z
1/2+x,1/2-y,1/2+z
loop_
_atom_site_type_symbol
_atom_site_label
_atom_site_fract_x
_atom_site_fract_y
_atom_site_fract_z
Si Si1 0.941928 0.833824 0.648958
Si Si2 0.821788 0.969118 0.345177
Si Si3 0.196158 0.594087 0.659196
Si Si4 0.617815 0.784198 0.346416
Si Si5 0.000000 0.000000 0.000000
Si Si6 0.582943 0.604695 0.730549
Si Si7 0.576179 0.041846 0.845729
Si Si8 0.048897 0.312686 0.158178
O O1 0.936350 0.795622 0.500000
O O2 0.885541 0.904785 0.658352
O O3 0.929889 0.769249 0.766612
O O4 0.020183 0.869686 0.667789
O O5 0.794760 0.972614 0.500000
O O6 0.763410 0.939496 0.239552
O O7 0.856064 0.053087 0.300501
O O8 0.210423 0.608863 0.500000
O O9 0.166279 0.672341 0.736118
O O10 0.135676 0.525826 0.668622
O O11 0.641336 0.803171 0.500000
O O12 0.612985 0.688292 0.328034
O O13 0.536884 0.815563 0.330886
O O14 0.955777 0.050573 0.117457
O O15 0.581581 0.112355 0.736943
O O16 0.500000 0.000000 0.829453
O O17 0.579635 0.074079 0.000000
O O18 0.067019 0.311228 0.000000
#
# Coordination Sequence:
#
# PCOD9443932 Si02
#       8
#     8   8   8   8   2   8   8   8
#     4  10  21  38  62  91 124 160 201 251 310 377
#     4  11  24  42  62  89 126 166 206 257 314 376
#     4  11  25  41  63  87 118 167 215 259 316 375
#     4  10  21  38  59  91 124 160 198 249 311 369
#     4  12  20  36  66 108 132 158 208 272 310 378
#     4  11  22  37  68  97 129 165 206 256 316 372
#     4  10  20  39  62  86 116 155 204 257 309 367
#     4  10  21  34  61  94 120 151 197 252 310 361
#
# _framework density 18.693569
#
# number of rings (size 3 to 8) (size 9 to 14) (size 15 to 20)
#    0.000    1.517    3.448    1.241    1.931    5.793 
#    2.483    0.000    0.000    0.000    0.000    0.000 
#    0.000    0.000    0.000    0.000    0.000    0.000 
#
# Total GULP energy -323355.384784 kJ/mol
# GULP energy per Si atom -5575.092841 kJ/mol
# Density = 1.865102 g / cm^3
# Si number density = 18.693569 Si / 1000 Ang^3
#
#
#
# Elastic Constant Matrix: (Units=GPa)
#
#
# Indices 1 2 3 4 5 6 
#
# 1 51.0851 29.1395 37.9717 0.0000 0.0000 0.0000
# 2 29.1395 91.4187 66.7916 0.0000 0.0000 0.0000
# 3 37.9717 66.7916 157.0511 0.0000 0.0000 0.0000
# 4 0.0000 0.0000 0.0000 18.9366 0.0000 0.0000
# 5 0.0000 0.0000 0.0000 0.0000 17.6899 0.0000
# 6 0.0000 0.0000 0.0000 0.0000 0.0000 15.6094
#
#
#
# Elastic Compliance Matrix: (Units=1/GPa)
#
#
# Indices 1 2 3 4 5 6 
#
# 1 0.025493 -0.005256 -0.003929 0.000000 0.000000 0.000000
# 2 -0.005256 0.016953 -0.005939 0.000000 0.000000 0.000000
# 3 -0.003929 -0.005939 0.009843 0.000000 0.000000 0.000000
# 4 0.000000 0.000000 0.000000 0.052808 0.000000 0.000000
# 5 0.000000 0.000000 0.000000 0.000000 0.056529 0.000000
# 6 0.000000 0.000000 0.000000 0.000000 0.000000 0.064064
#
#
# Mechanical properties :
#
#
# Convention : Reuss Voigt Hill
#
# Bulk Modulus (GPa) = 45.36683 63.04008 54.20346
# Shear Modulus (GPa) = 18.99082 21.49065 20.24074
#
# Velocity S-wave (km/s) = 3.19078 3.39429 3.29411
# Velocity P-wave (km/s) = 6.15598 7.01126 6.59749
#
# Compressibility (1/GPa) = 0.02204254
#
# Stress axis : x y z
#
# Youngs Moduli (GPa) = 39.22616 58.98592 101.59418
#
# Poissons Ratio (x) = 0.31001 0.39912
# Poissons Ratio (y) = 0.20616 0.60339
# Poissons Ratio (z) = 0.15410 0.35033
#
# Static dielectric constant tensor:
#      x y z
#    x 1.620590 0.000000 0.000000 
#    y 0.000000 1.631740 0.000000 
#    z 0.000000 0.000000 1.650340 
# 
# From -- ./inp_files/8054.got.cif
#   From: 2010.05.17/outbox.cif.g08.bks.cpg/sg58_5_cif.got.tgz:8054.got - 2010.06.03 14:20:14.
