data_PCOD9443260
_publ_section_title
;
Structure prediction by ZEFSAII (Michael W. Deem and Ramdas Pophale) SiO2 
 PCOD9443260
Probable space group: P N N M
;
_chemical_formula_sum "Si O2"
_cell_formula_units_Z 40
_cell_length_a 16.153317
_cell_length_b 12.838535
_cell_length_c 7.620582
_cell_angle_alpha 90.000000
_cell_angle_beta 90.000000
_cell_angle_gamma 90.000000
_cell_volume 1580.393832
_symmetry_space_group_name_H-M "P N N M"
_symmetry_group_IT_number 58
_symmetry_cell_setting 'orthorhombic'
loop_
_space_group_symop_operation_xyz
x,y,z
-x,-y,z
1/2+x,1/2-y,1/2-z
1/2-x,1/2+y,1/2-z
-x,-y,-z
x,y,-z
1/2-x,1/2+y,1/2+z
1/2+x,1/2-y,1/2+z
loop_
_atom_site_type_symbol
_atom_site_label
_atom_site_fract_x
_atom_site_fract_y
_atom_site_fract_z
Si Si1 0.505624 0.169318 0.207945
Si Si2 0.867846 0.511806 0.291837
Si Si3 0.235103 0.151571 0.295182
Si Si4 0.364707 0.321574 0.705138
Si Si5 0.415691 0.538394 0.201092
O O1 0.592187 0.120156 0.274389
O O2 0.455292 0.267059 0.280927
O O3 0.439289 0.075570 0.230649
O O4 0.515501 0.186165 0.000000
O O5 0.853026 0.524319 0.500000
O O6 0.788790 0.454733 0.214156
O O7 0.222177 0.176064 0.500000
O O8 0.294779 0.242012 0.224106
O O9 0.144811 0.125171 0.219629
O O10 0.348202 0.340415 0.500000
O O11 0.365941 0.430148 0.802234
O O12 0.500000 0.500000 0.290104
O O13 0.435126 0.570326 0.000000
#
# Coordination Sequence:
#
# PCOD9443260 Si02
#       5
#     8   8   8   8   8
#     4   8  14  27  48  76 111 148 185 222 271 338
#     4   8  14  26  48  78 109 143 183 228 275 330
#     4   9  19  36  57  82 113 148 188 238 293 342
#     4  10  20  35  57  85 116 147 187 241 293 340
#     4  10  22  42  63  81 111 157 200 235 280 348
#
# _framework density 25.310144999999999
#
# number of rings (size 3 to 8) (size 9 to 14) (size 15 to 20)
#    0.000    3.000    0.000    1.800    0.000    2.800 
#    3.600    4.000    0.000    0.000    0.000    0.000 
#    0.000    0.000    0.000    0.000    0.000    0.000 
#
# Total GULP energy -223216.754996 kJ/mol
# GULP energy per Si atom -5580.418875 kJ/mol
# Density = 2.525254 g / cm^3
# Si number density = 25.310145 Si / 1000 Ang^3
#
#
#
# Elastic Constant Matrix: (Units=GPa)
#
#
# Indices 1 2 3 4 5 6 
#
# 1 108.4781 31.4304 -6.3160 0.0000 0.0000 0.0000
# 2 31.4304 93.6672 -11.5437 0.0000 0.0000 0.0000
# 3 -6.3160 -11.5437 41.8661 0.0000 0.0000 0.0000
# 4 0.0000 0.0000 0.0000 7.4282 0.0000 0.0000
# 5 0.0000 0.0000 0.0000 0.0000 -10.0979 0.0000
# 6 0.0000 0.0000 0.0000 0.0000 0.0000 19.3711
#
#
#
# Elastic Compliance Matrix: (Units=1/GPa)
#
#
# Indices 1 2 3 4 5 6 
#
# 1 0.010227 -0.003355 0.000618 0.000000 0.000000 0.000000
# 2 -0.003355 0.012153 0.002845 0.000000 0.000000 0.000000
# 3 0.000618 0.002845 0.024763 0.000000 0.000000 0.000000
# 4 0.000000 0.000000 0.000000 0.134622 0.000000 0.000000
# 5 0.000000 0.000000 0.000000 0.000000 -0.099031 0.000000
# 6 0.000000 0.000000 0.000000 0.000000 0.000000 0.051623
#
#
# Mechanical properties :
#
#
# Convention : Reuss Voigt Hill
#
# Bulk Modulus (GPa) = 21.11670 30.12810 25.62240
# Shear Modulus (GPa) = 33.34925 18.70301 26.02613
#
# Velocity S-wave (km/s) = 3.63385 2.72132 3.21017
# Velocity P-wave (km/s) = 5.09586 4.66942 4.88729
#
# Compressibility (1/GPa) = 0.04735589
#
# Stress axis : x y z
#
# Youngs Moduli (GPa) = 97.78405 82.28684 40.38254
#
# Poissons Ratio (x) = 0.27611 -0.02494
# Poissons Ratio (y) = 0.32811 -0.11487
# Poissons Ratio (z) = -0.06039 -0.23407
#
# Static dielectric constant tensor:
#      x y z
#    x 2.066420 0.000000 0.000000 
#    y 0.000000 2.022950 0.000000 
#    z 0.000000 0.000000 1.921460 
# 
# From -- ./inp_files/7453.got.cif
#   From: 2010.05.17/outbox.cif.g08.bks.cpg/sg58_4_cif.got.tgz:7453.got - 2010.06.03 14:20:14.
