data_PCOD9443107
_publ_section_title
;
Structure prediction by ZEFSAII (Michael W. Deem and Ramdas Pophale) SiO2 
 PCOD9443107
Probable space group: P N N M
;
_chemical_formula_sum "Si O2"
_cell_formula_units_Z 28
_cell_length_a 5.064642
_cell_length_b 10.328383
_cell_length_c 28.612655
_cell_angle_alpha 90.000000
_cell_angle_beta 90.000000
_cell_angle_gamma 90.000000
_cell_volume 1496.715460
_symmetry_space_group_name_H-M "P N N M"
_symmetry_group_IT_number 58
_symmetry_cell_setting 'orthorhombic'
loop_
_space_group_symop_operation_xyz
x,y,z
-x,-y,z
1/2+x,1/2-y,1/2-z
1/2-x,1/2+y,1/2-z
-x,-y,-z
x,y,-z
1/2-x,1/2+y,1/2+z
1/2+x,1/2-y,1/2+z
loop_
_atom_site_type_symbol
_atom_site_label
_atom_site_fract_x
_atom_site_fract_y
_atom_site_fract_z
Si Si1 0.500000 0.500000 0.275807
Si Si2 0.026832 0.344571 0.596862
Si Si3 0.475196 0.733746 0.347562
Si Si4 0.000000 0.500000 0.208180
Si Si5 0.241898 0.402560 0.500000
O O1 0.435169 0.622391 0.308808
O O2 0.250429 0.488182 0.242083
O O3 0.232976 0.292647 0.633862
O O4 0.176734 0.322715 0.547056
O O5 0.000000 0.500000 0.601178
O O6 0.742372 0.285871 0.611074
O O7 0.479412 0.873680 0.324261
O O8 0.500000 0.500000 0.500000
O O9 0.000000 0.500000 0.500000
#
# Coordination Sequence:
#
# PCOD9443107 Si02
#       5
#     4   8   8   4   4
#     4  12  22  42  60  85 118 155 214 250 294 346
#     4  11  20  38  61  91 119 153 196 247 302 354
#     4  12  23  39  63  85 123 156 200 248 299 359
#     4  12  26  40  58  89 118 163 202 248 302 354
#     4  10  20  34  60  95 124 149 196 255 302 353
#
# _framework density 18.707630999999999
#
# number of rings (size 3 to 8) (size 9 to 14) (size 15 to 20)
#    0.000    0.571    2.857    8.571    0.000    0.000 
#    0.000    0.000    0.000    5.143    0.000    0.000 
#    0.000    0.000    0.000    0.000    0.000    0.000 
#
# Total GULP energy -156079.480049 kJ/mol
# GULP energy per Si atom -5574.267145 kJ/mol
# Density = 1.866505 g / cm^3
# Si number density = 18.707631 Si / 1000 Ang^3
#
#
#
# Elastic Constant Matrix: (Units=GPa)
#
#
# Indices 1 2 3 4 5 6 
#
# 1 122.8858 10.8556 14.1743 0.0000 0.0000 0.0000
# 2 10.8556 117.9480 55.1787 0.0000 0.0000 0.0000
# 3 14.1743 55.1787 73.9541 0.0000 0.0000 0.0000
# 4 0.0000 0.0000 0.0000 -1.9736 0.0000 0.0000
# 5 0.0000 0.0000 0.0000 0.0000 45.4103 0.0000
# 6 0.0000 0.0000 0.0000 0.0000 0.0000 0.4175
#
#
#
# Elastic Compliance Matrix: (Units=1/GPa)
#
#
# Indices 1 2 3 4 5 6 
#
# 1 0.008322 -0.000030 -0.001572 0.000000 0.000000 0.000000
# 2 -0.000030 0.013025 -0.009712 0.000000 0.000000 0.000000
# 3 -0.001572 -0.009712 0.021070 0.000000 0.000000 0.000000
# 4 0.000000 0.000000 0.000000 -0.506691 0.000000 0.000000
# 5 0.000000 0.000000 0.000000 0.000000 0.022021 0.000000
# 6 0.000000 0.000000 0.000000 0.000000 0.000000 2.395434
#
#
# Mechanical properties :
#
#
# Convention : Reuss Voigt Hill
#
# Bulk Modulus (GPa) = 50.53973 52.80054 51.67014
# Shear Modulus (GPa) = 2.52219 24.40946 13.46582
#
# Velocity S-wave (km/s) = 1.16239 3.61610 2.68583
# Velocity P-wave (km/s) = 5.37362 6.76168 6.10721
#
# Compressibility (1/GPa) = 0.01978641
#
# Stress axis : x y z
#
# Youngs Moduli (GPa) = 120.16809 76.77740 47.46151
#
# Poissons Ratio (x) = 0.00233 0.07463
# Poissons Ratio (y) = 0.00364 0.46095
# Poissons Ratio (z) = 0.18894 0.74567
#
# Static dielectric constant tensor:
#      x y z
#    x 1.627370 0.000000 0.000000 
#    y 0.000000 1.516220 0.000000 
#    z 0.000000 0.000000 1.774530 
# 
# From -- ./inp_files/30752.got.cif
#   From: 2010.05.17/outbox.cif.g08.bks.cpg/sg58_16_cif.got.tgz:30752.got - 2010.06.03 14:20:14.
