data_PCOD9443513
_publ_section_title
;
Structure prediction by ZEFSAII (Michael W. Deem and Ramdas Pophale) SiO2 
 PCOD9443513
Probable space group: P N N M
;
_chemical_formula_sum "Si O2"
_cell_formula_units_Z 64
_cell_length_a 8.707172
_cell_length_b 25.759770
_cell_length_c 13.857992
_cell_angle_alpha 90.000000
_cell_angle_beta 90.000000
_cell_angle_gamma 90.000000
_cell_volume 3108.274824
_symmetry_space_group_name_H-M "P N N M"
_symmetry_group_IT_number 58
_symmetry_cell_setting 'orthorhombic'
loop_
_space_group_symop_operation_xyz
x,y,z
-x,-y,z
1/2+x,1/2-y,1/2-z
1/2-x,1/2+y,1/2-z
-x,-y,-z
x,y,-z
1/2-x,1/2+y,1/2+z
1/2+x,1/2-y,1/2+z
loop_
_atom_site_type_symbol
_atom_site_label
_atom_site_fract_x
_atom_site_fract_y
_atom_site_fract_z
Si Si1 0.241390 0.878099 0.263753
Si Si2 0.005979 0.623188 0.387927
Si Si3 0.827077 0.477306 0.610877
Si Si4 0.257008 0.097022 0.389813
Si Si5 0.868654 0.275390 0.707133
Si Si6 0.020852 0.321789 0.888615
Si Si7 0.322980 0.491095 0.800558
Si Si8 0.055157 0.178634 0.732591
O O1 0.361698 0.889182 0.178841
O O2 0.323134 0.836387 0.333826
O O3 0.083170 0.855064 0.220783
O O4 0.216724 0.931572 0.321475
O O5 0.967574 0.617917 0.500000
O O6 0.145777 0.583617 0.368380
O O7 0.058659 0.679955 0.358289
O O8 0.781540 0.484982 0.500000
O O9 0.712219 0.501049 0.687286
O O10 0.000000 0.500000 0.622221
O O11 0.202817 0.095957 0.500000
O O12 0.421811 0.124980 0.386978
O O13 0.265475 0.038413 0.351248
O O14 0.146038 0.135453 0.329728
O O15 0.922840 0.284018 0.819048
O O16 0.955353 0.222704 0.677710
O O17 0.686790 0.289035 0.709644
O O18 0.037491 0.305113 0.000000
O O19 0.500000 0.500000 0.822759
#
# Coordination Sequence:
#
# PCOD9443513 Si02
#       8
#     8   8   8   8   8   8   8   8
#     4  11  22  37  61  89 124 162 204 248 302 364
#     4  10  21  39  62  91 122 157 203 253 303 361
#     4  10  20  36  60  87 119 160 206 250 297 355
#     4  10  23  41  62  91 128 163 205 253 301 358
#     4  10  21  39  67  86 119 154 202 250 303 368
#     4   9  20  39  62  91 121 158 200 249 301 357
#     4  12  23  37  59  88 125 169 205 244 304 357
#     4  11  22  42  62  89 119 160 197 254 307 360
#
# _framework density 20.590198000000001
#
# number of rings (size 3 to 8) (size 9 to 14) (size 15 to 20)
#    0.000    1.625    2.500    3.750    0.000    2.000 
#    0.000    6.875    0.000    0.750    0.000    0.000 
#    0.000    0.000    0.000    0.000    0.000    0.000 
#
# Total GULP energy -356803.329724 kJ/mol
# GULP energy per Si atom -5575.052027 kJ/mol
# Density = 2.054333 g / cm^3
# Si number density = 20.590198 Si / 1000 Ang^3
#
#
#
# Elastic Constant Matrix: (Units=GPa)
#
#
# Indices 1 2 3 4 5 6 
#
# 1 77.2544 0.0308 0.2754 0.0000 0.0000 0.0000
# 2 0.0308 63.6305 -31.5514 0.0000 0.0000 0.0000
# 3 0.2754 -31.5514 37.5547 0.0000 0.0000 0.0000
# 4 0.0000 0.0000 0.0000 7.4553 0.0000 0.0000
# 5 0.0000 0.0000 0.0000 0.0000 7.9089 0.0000
# 6 0.0000 0.0000 0.0000 0.0000 0.0000 32.1318
#
#
#
# Elastic Compliance Matrix: (Units=1/GPa)
#
#
# Indices 1 2 3 4 5 6 
#
# 1 0.012945 -0.000091 -0.000172 0.000000 0.000000 0.000000
# 2 -0.000091 0.026938 0.022633 0.000000 0.000000 0.000000
# 3 -0.000172 0.022633 0.045644 0.000000 0.000000 0.000000
# 4 0.000000 0.000000 0.000000 0.134133 0.000000 0.000000
# 5 0.000000 0.000000 0.000000 0.000000 0.126439 0.000000
# 6 0.000000 0.000000 0.000000 0.000000 0.000000 0.031122
#
#
# Mechanical properties :
#
#
# Convention : Reuss Voigt Hill
#
# Bulk Modulus (GPa) = 7.67657 12.88324 10.27991
# Shear Modulus (GPa) = 13.30127 23.47820 18.38973
#
# Velocity S-wave (km/s) = 2.54441 3.38044 2.99177
# Velocity P-wave (km/s) = 3.51687 4.63757 4.11555
#
# Compressibility (1/GPa) = 0.13026646
#
# Stress axis : x y z
#
# Youngs Moduli (GPa) = 77.25056 37.12181 21.90872
#
# Poissons Ratio (x) = 0.00339 0.00376
# Poissons Ratio (y) = 0.00706 -0.49586
# Poissons Ratio (z) = 0.01327 -0.84017
#
# Static dielectric constant tensor:
#      x y z
#    x 1.742090 0.000000 0.000000 
#    y 0.000000 1.809770 0.000000 
#    z 0.000000 0.000000 1.722620 
# 
# From -- ./inp_files/20271.got.cif
#   From: 2010.05.17/outbox.cif.g08.bks.cpg/sg58_11_cif.got.tgz:20271.got - 2010.06.03 14:20:14.
