data_PCOD9443434
_publ_section_title
;
Structure prediction by ZEFSAII (Michael W. Deem and Ramdas Pophale) SiO2 
 PCOD9443434
Probable space group: P N N M
;
_chemical_formula_sum "Si O2"
_cell_formula_units_Z 48
_cell_length_a 14.283096
_cell_length_b 20.573420
_cell_length_c 9.149429
_cell_angle_alpha 90.000000
_cell_angle_beta 90.000000
_cell_angle_gamma 90.000000
_cell_volume 2688.579227
_symmetry_space_group_name_H-M "P N N M"
_symmetry_group_IT_number 58
_symmetry_cell_setting 'orthorhombic'
loop_
_space_group_symop_operation_xyz
x,y,z
-x,-y,z
1/2+x,1/2-y,1/2-z
1/2-x,1/2+y,1/2-z
-x,-y,-z
x,y,-z
1/2-x,1/2+y,1/2+z
1/2+x,1/2-y,1/2+z
loop_
_atom_site_type_symbol
_atom_site_label
_atom_site_fract_x
_atom_site_fract_y
_atom_site_fract_z
Si Si1 0.544731 0.678978 0.824136
Si Si2 0.944180 0.685566 0.324361
Si Si3 0.254938 0.857344 0.324330
Si Si4 0.068597 0.561741 0.670240
Si Si5 0.433871 0.563178 0.330545
Si Si6 0.249677 0.010699 0.325377
O O1 0.497115 0.747685 0.787785
O O2 0.654464 0.673404 0.783812
O O3 0.487666 0.621979 0.746390
O O4 0.539739 0.670155 0.000000
O O5 0.931778 0.683044 0.500000
O O6 0.843545 0.676762 0.249843
O O7 0.010353 0.624927 0.283264
O O8 0.264673 0.853373 0.500000
O O9 0.253530 0.934060 0.283977
O O10 0.097093 0.570133 0.500000
O O11 0.157700 0.545979 0.767925
O O12 0.000000 0.500000 0.677339
O O13 0.500000 0.500000 0.324689
O O14 0.414804 0.578488 0.500000
O O15 0.339346 0.544412 0.247634
O O16 0.242618 0.013989 0.500000
#
# Coordination Sequence:
#
# PCOD9443434 Si02
#       6
#     8   8   8   8   8   8
#     4  10  22  41  61  85 119 158 197 241 297 358
#     4  10  22  39  61  87 119 158 199 243 297 356
#     4  10  21  37  59  85 118 158 197 244 301 353
#     4  10  20  36  58  86 120 155 194 246 297 347
#     4  11  23  38  60  89 117 150 195 245 294 350
#     4  11  22  36  60  90 119 156 200 247 295 352
#
# _framework density 17.853296
#
# number of rings (size 3 to 8) (size 9 to 14) (size 15 to 20)
#    0.000    1.667    3.333    1.000    0.000    5.000 
#    0.000    1.667    0.000    0.000    0.000    0.000 
#    0.000    0.000    0.000    0.000    0.000    0.000 
#
# Total GULP energy -268113.863785 kJ/mol
# GULP energy per Si atom -5585.705496 kJ/mol
# Density = 1.781266 g / cm^3
# Si number density = 17.853296 Si / 1000 Ang^3
#
#
#
# Elastic Constant Matrix: (Units=GPa)
#
#
# Indices 1 2 3 4 5 6 
#
# 1 181.1850 89.8593 70.2608 0.0000 0.0000 0.0000
# 2 89.8593 145.0925 54.1016 0.0000 0.0000 0.0000
# 3 70.2608 54.1016 53.8154 0.0000 0.0000 0.0000
# 4 0.0000 0.0000 0.0000 76.5578 0.0000 0.0000
# 5 0.0000 0.0000 0.0000 0.0000 38.5366 0.0000
# 6 0.0000 0.0000 0.0000 0.0000 0.0000 28.1057
#
#
#
# Elastic Compliance Matrix: (Units=1/GPa)
#
#
# Indices 1 2 3 4 5 6 
#
# 1 0.011713 -0.002483 -0.012796 0.000000 0.000000 0.000000
# 2 -0.002483 0.011551 -0.008371 0.000000 0.000000 0.000000
# 3 -0.012796 -0.008371 0.043704 0.000000 0.000000 0.000000
# 4 0.000000 0.000000 0.000000 0.013062 0.000000 0.000000
# 5 0.000000 0.000000 0.000000 0.000000 0.025949 0.000000
# 6 0.000000 0.000000 0.000000 0.000000 0.000000 0.035580
#
#
# Mechanical properties :
#
#
# Convention : Reuss Voigt Hill
#
# Bulk Modulus (GPa) = 50.84381 89.83737 70.34059
# Shear Modulus (GPa) = 25.58650 39.69811 32.64231
#
# Velocity S-wave (km/s) = 3.78981 4.72059 4.28058
# Velocity P-wave (km/s) = 6.90584 8.95215 7.99474
#
# Compressibility (1/GPa) = 0.01966808
#
# Stress axis : x y z
#
# Youngs Moduli (GPa) = 85.37846 86.57144 22.88097
#
# Poissons Ratio (x) = 0.21491 0.29279
# Poissons Ratio (y) = 0.21195 0.19155
# Poissons Ratio (z) = 1.09251 0.72473
#
# Static dielectric constant tensor:
#      x y z
#    x 1.584560 0.000000 0.000000 
#    y 0.000000 1.589900 0.000000 
#    z 0.000000 0.000000 1.600420 
# 
# From -- ./inp_files/5856.got.cif
#   From: 2010.05.17/outbox.cif.g08.bks.cpg/sg58_3_cif.got.tgz:5856.got - 2010.06.03 14:20:14.
