data_PCOD9443194
_publ_section_title
;
Structure prediction by ZEFSAII (Michael W. Deem and Ramdas Pophale) SiO2 
 PCOD9443194
Probable space group: P N N M
;
_chemical_formula_sum "Si O2"
_cell_formula_units_Z 32
_cell_length_a 12.590288
_cell_length_b 14.322925
_cell_length_c 9.375261
_cell_angle_alpha 90.000000
_cell_angle_beta 90.000000
_cell_angle_gamma 90.000000
_cell_volume 1690.638479
_symmetry_space_group_name_H-M "P N N M"
_symmetry_group_IT_number 58
_symmetry_cell_setting 'orthorhombic'
loop_
_space_group_symop_operation_xyz
x,y,z
-x,-y,z
1/2+x,1/2-y,1/2-z
1/2-x,1/2+y,1/2-z
-x,-y,-z
x,y,-z
1/2-x,1/2+y,1/2+z
1/2+x,1/2-y,1/2+z
loop_
_atom_site_type_symbol
_atom_site_label
_atom_site_fract_x
_atom_site_fract_y
_atom_site_fract_z
Si Si1 0.274580 0.079820 0.168195
Si Si2 0.969046 0.893072 0.168153
Si Si3 0.970736 0.282756 0.668976
Si Si4 0.897950 0.569737 0.163156
O O1 0.156522 0.114690 0.198206
O O2 0.361985 0.159940 0.194201
O O3 0.306545 0.989760 0.260453
O O4 0.280406 0.055011 0.000000
O O5 0.031545 0.819076 0.262564
O O6 0.986987 0.873844 0.000000
O O7 0.000000 0.000000 0.195095
O O8 0.989036 0.279473 0.500000
O O9 0.063501 0.341553 0.747015
O O10 0.000000 0.500000 0.161287
O O11 0.872067 0.594396 0.000000
#
# Coordination Sequence:
#
# PCOD9443194 Si02
#       4
#     8   8   8   8
#     4   9  19  36  56  80 110 143 178 221 273 321
#     4  10  22  39  56  77 109 145 182 225 271 321
#     4  10  20  35  56  80 108 142 181 224 269 322
#     4   9  17  31  54  82 108 136 175 220 263 314
#
# _framework density 18.927761
#
# number of rings (size 3 to 8) (size 9 to 14) (size 15 to 20)
#    0.000    2.500    0.000    1.500    0.000    7.500 
#    0.000    5.000    0.000    0.000    0.000    0.000 
#    0.000    0.000    0.000    0.000    0.000    0.000 
#
# Total GULP energy -178639.334158 kJ/mol
# GULP energy per Si atom -5582.479192 kJ/mol
# Density = 1.888468 g / cm^3
# Si number density = 18.927761 Si / 1000 Ang^3
#
#
#
# Elastic Constant Matrix: (Units=GPa)
#
#
# Indices 1 2 3 4 5 6 
#
# 1 53.7384 27.1799 44.7206 0.0000 0.0000 0.0000
# 2 27.1799 88.5682 64.2359 0.0000 0.0000 0.0000
# 3 44.7206 64.2359 88.9849 0.0000 0.0000 0.0000
# 4 0.0000 0.0000 0.0000 40.2920 0.0000 0.0000
# 5 0.0000 0.0000 0.0000 0.0000 15.8262 0.0000
# 6 0.0000 0.0000 0.0000 0.0000 0.0000 10.0597
#
#
#
# Elastic Compliance Matrix: (Units=1/GPa)
#
#
# Indices 1 2 3 4 5 6 
#
# 1 0.032630 0.003946 -0.019247 0.000000 0.000000 0.000000
# 2 0.003946 0.024175 -0.019434 0.000000 0.000000 0.000000
# 3 -0.019247 -0.019434 0.034940 0.000000 0.000000 0.000000
# 4 0.000000 0.000000 0.000000 0.024819 0.000000 0.000000
# 5 0.000000 0.000000 0.000000 0.000000 0.063187 0.000000
# 6 0.000000 0.000000 0.000000 0.000000 0.000000 0.099406
#
#
# Mechanical properties :
#
#
# Convention : Reuss Voigt Hill
#
# Bulk Modulus (GPa) = 44.89578 55.95160 50.42369
# Shear Modulus (GPa) = 14.04285 19.57925 16.81105
#
# Velocity S-wave (km/s) = 2.72677 3.21973 2.98345
# Velocity P-wave (km/s) = 5.80386 6.59143 6.21014
#
# Compressibility (1/GPa) = 0.02227381
#
# Stress axis : x y z
#
# Youngs Moduli (GPa) = 30.64637 41.36500 28.62048
#
# Poissons Ratio (x) = -0.16322 0.55086
# Poissons Ratio (y) = -0.12093 0.55622
# Poissons Ratio (z) = 0.58986 0.80390
#
# Static dielectric constant tensor:
#      x y z
#    x 1.663940 0.000000 0.000000 
#    y 0.000000 1.646910 0.000000 
#    z 0.000000 0.000000 1.636730 
# 
# From -- ./inp_files/3487.got.cif
#   From: 2010.05.17/outbox.cif.g08.bks.cpg/sg58_2_cif.got.tgz:3487.got - 2010.06.03 14:20:14.
