data_PCOD9443890
_publ_section_title
;
Structure prediction by ZEFSAII (Michael W. Deem and Ramdas Pophale) SiO2 
 PCOD9443890
Probable space group: P N N M
;
_chemical_formula_sum "Si O2"
_cell_formula_units_Z 58
_cell_length_a 12.196469
_cell_length_b 28.366271
_cell_length_c 7.726261
_cell_angle_alpha 90.000000
_cell_angle_beta 90.000000
_cell_angle_gamma 90.000000
_cell_volume 2673.041730
_symmetry_space_group_name_H-M "P N N M"
_symmetry_group_IT_number 58
_symmetry_cell_setting 'orthorhombic'
loop_
_space_group_symop_operation_xyz
x,y,z
-x,-y,z
1/2+x,1/2-y,1/2-z
1/2-x,1/2+y,1/2-z
-x,-y,-z
x,y,-z
1/2-x,1/2+y,1/2+z
1/2+x,1/2-y,1/2+z
loop_
_atom_site_type_symbol
_atom_site_label
_atom_site_fract_x
_atom_site_fract_y
_atom_site_fract_z
Si Si1 0.205644 0.109358 0.788812
Si Si2 0.791071 0.154909 0.291583
Si Si3 0.000000 0.000000 0.500000
Si Si4 0.665969 0.061155 0.296108
Si Si5 0.156740 0.003715 0.199300
Si Si6 0.953162 0.385467 0.295847
Si Si7 0.581611 0.209380 0.290649
Si Si8 0.966013 0.813773 0.793484
O O1 0.156470 0.058449 0.745816
O O2 0.330265 0.112121 0.724317
O O3 0.127498 0.151113 0.725299
O O4 0.207988 0.111424 0.000000
O O5 0.789066 0.153676 0.500000
O O6 0.739066 0.105549 0.230686
O O7 0.704787 0.195210 0.235493
O O8 0.913804 0.165299 0.236234
O O9 0.082034 0.979543 0.344478
O O10 0.681063 0.056168 0.500000
O O11 0.540447 0.076060 0.268856
O O12 0.718963 0.015518 0.210391
O O13 0.121596 0.998271 0.000000
O O14 0.945959 0.392400 0.500000
O O15 0.003944 0.333813 0.262196
O O16 0.580442 0.210027 0.500000
O O17 0.545284 0.260480 0.225388
O O18 0.949653 0.810999 0.000000
#
# Coordination Sequence:
#
# PCOD9443890 Si02
#       8
#     8   8   2   8   8   8   8   8
#     4   9  22  41  60  89 123 166 209 260 323 385
#     4   9  20  36  57  82 115 151 195 251 306 370
#     4  12  26  44  64  96 132 172 218 264 318 394
#     4  10  21  41  63  92 125 163 211 262 319 383
#     4  11  24  43  67  95 131 172 219 268 327 383
#     4  10  20  38  65  89 121 160 211 263 315 381
#     4   9  20  38  57  83 116 158 199 250 318 378
#     4  10  21  37  58  81 117 157 201 253 313 380
#
# _framework density 21.698126999999999
#
# number of rings (size 3 to 8) (size 9 to 14) (size 15 to 20)
#    0.000    2.207    0.690    1.862    3.862    3.862 
#    2.483    2.759    0.000    0.000    0.000    0.000 
#    0.000    0.000    0.000    0.000    0.000    0.000 
#
# Total GULP energy -323413.275593 kJ/mol
# GULP energy per Si atom -5576.090959 kJ/mol
# Density = 2.164874 g / cm^3
# Si number density = 21.698127 Si / 1000 Ang^3
#
#
#
# Elastic Constant Matrix: (Units=GPa)
#
#
# Indices 1 2 3 4 5 6 
#
# 1 124.2621 4.1789 12.3639 0.0000 0.0000 0.0000
# 2 4.1789 26.7682 11.2934 0.0000 0.0000 0.0000
# 3 12.3639 11.2934 67.8118 0.0000 0.0000 0.0000
# 4 0.0000 0.0000 0.0000 18.1408 0.0000 0.0000
# 5 0.0000 0.0000 0.0000 0.0000 -47.3830 0.0000
# 6 0.0000 0.0000 0.0000 0.0000 0.0000 16.0112
#
#
#
# Elastic Compliance Matrix: (Units=1/GPa)
#
#
# Indices 1 2 3 4 5 6 
#
# 1 0.008208 -0.000699 -0.001380 0.000000 0.000000 0.000000
# 2 -0.000699 0.040241 -0.006574 0.000000 0.000000 0.000000
# 3 -0.001380 -0.006574 0.016093 0.000000 0.000000 0.000000
# 4 0.000000 0.000000 0.000000 0.055124 0.000000 0.000000
# 5 0.000000 0.000000 0.000000 0.000000 -0.021105 0.000000
# 6 0.000000 0.000000 0.000000 0.000000 0.000000 0.062456
#
#
# Mechanical properties :
#
#
# Convention : Reuss Voigt Hill
#
# Bulk Modulus (GPa) = 21.17071 30.50161 25.83616
# Shear Modulus (GPa) = 25.76390 10.08753 17.92571
#
# Velocity S-wave (km/s) = 3.44957 2.15850 2.87738
# Velocity P-wave (km/s) = 5.06401 4.50555 4.79292
#
# Compressibility (1/GPa) = 0.04723508
#
# Stress axis : x y z
#
# Youngs Moduli (GPa) = 121.82725 24.85053 62.13796
#
# Poissons Ratio (x) = 0.01737 0.08576
# Poissons Ratio (y) = 0.08518 0.40851
# Poissons Ratio (z) = 0.16814 0.16337
#
# Static dielectric constant tensor:
#      x y z
#    x 1.818180 0.000000 0.000000 
#    y 0.000000 1.801920 0.000000 
#    z 0.000000 0.000000 1.797320 
# 
# From -- ./inp_files/4582.got.cif
#   From: 2010.05.17/outbox.cif.g08.bks.cpg/sg58_3_cif.got.tgz:4582.got - 2010.06.03 14:20:14.
