data_PCOD9443729
_publ_section_title
;
Structure prediction by ZEFSAII (Michael W. Deem and Ramdas Pophale) SiO2 
 PCOD9443729
Probable space group: P N N M
;
_chemical_formula_sum "Si O2"
_cell_formula_units_Z 58
_cell_length_a 5.327400
_cell_length_b 26.896248
_cell_length_c 17.355003
_cell_angle_alpha 90.000000
_cell_angle_beta 90.000000
_cell_angle_gamma 90.000000
_cell_volume 2486.747557
_symmetry_space_group_name_H-M "P N N M"
_symmetry_group_IT_number 58
_symmetry_cell_setting 'orthorhombic'
loop_
_space_group_symop_operation_xyz
x,y,z
-x,-y,z
1/2+x,1/2-y,1/2-z
1/2-x,1/2+y,1/2-z
-x,-y,-z
x,y,-z
1/2-x,1/2+y,1/2+z
1/2+x,1/2-y,1/2+z
loop_
_atom_site_type_symbol
_atom_site_label
_atom_site_fract_x
_atom_site_fract_y
_atom_site_fract_z
Si Si1 0.562564 0.240745 0.915246
Si Si2 0.303059 0.317122 0.299465
Si Si3 0.500000 0.000000 0.500000
Si Si4 0.949047 0.411518 0.125604
Si Si5 0.507558 0.908147 0.795342
Si Si6 0.044065 0.845836 0.634744
Si Si7 0.248307 0.967029 0.915588
Si Si8 0.808137 0.854905 0.087140
O O1 0.432023 0.294174 0.910645
O O2 0.369497 0.194354 0.911249
O O3 0.724536 0.235381 0.835990
O O4 0.690684 0.237475 0.000000
O O5 0.065395 0.350880 0.278254
O O6 0.467924 0.327762 0.224483
O O7 0.433127 0.339132 0.375233
O O8 0.544329 0.956854 0.433166
O O9 0.921422 0.430725 0.214078
O O10 0.213510 0.381134 0.121575
O O11 0.709416 0.375351 0.112945
O O12 0.278979 0.934944 0.838173
O O13 0.709243 0.900261 0.861706
O O14 0.500000 0.000000 0.914409
O O15 0.252553 0.940718 0.000000
O O16 0.000000 0.000000 0.912963
O O17 0.823395 0.870700 0.000000
#
# Coordination Sequence:
#
# PCOD9443729 Si02
#       8
#     8   8   2   8   8   8   8   8
#     4  10  24  39  65 103 147 196 241 301 354 439
#     4  10  22  39  65 100 144 192 240 289 352 438
#     4  12  32  58  88 110 150 186 264 330 416 462
#     4  11  28  50  77 108 135 188 242 319 387 452
#     4  10  22  43  64  98 136 184 236 290 366 435
#     4  11  26  47  76 107 147 189 247 303 373 446
#     4  10  23  39  61  95 132 174 225 282 347 416
#     4  10  20  37  63 101 145 189 239 284 353 436
#
# _framework density 23.323640000000001
#
# number of rings (size 3 to 8) (size 9 to 14) (size 15 to 20)
#    0.000    1.655    1.379    0.828    8.690    2.759 
#    0.000    0.000    0.000    0.000    0.000    0.000 
#    0.000    0.000    0.000    0.000    0.000    0.000 
#
# Total GULP energy -323020.595224 kJ/mol
# GULP energy per Si atom -5569.320607 kJ/mol
# Density = 2.327055 g / cm^3
# Si number density = 23.323640 Si / 1000 Ang^3
#
#
#
# Elastic Constant Matrix: (Units=GPa)
#
#
# Indices 1 2 3 4 5 6 
#
# 1 106.2718 42.1420 18.4238 0.0000 0.0000 0.0000
# 2 42.1420 109.3846 71.5757 0.0000 0.0000 0.0000
# 3 18.4238 71.5757 171.3110 0.0000 0.0000 0.0000
# 4 0.0000 0.0000 0.0000 21.7926 0.0000 0.0000
# 5 0.0000 0.0000 0.0000 0.0000 5.0973 0.0000
# 6 0.0000 0.0000 0.0000 0.0000 0.0000 27.8102
#
#
#
# Elastic Compliance Matrix: (Units=1/GPa)
#
#
# Indices 1 2 3 4 5 6 
#
# 1 0.011190 -0.004850 0.000823 0.000000 0.000000 0.000000
# 2 -0.004850 0.014684 -0.005613 0.000000 0.000000 0.000000
# 3 0.000823 -0.005613 0.008094 0.000000 0.000000 0.000000
# 4 0.000000 0.000000 0.000000 0.045887 0.000000 0.000000
# 5 0.000000 0.000000 0.000000 0.000000 0.196181 0.000000
# 6 0.000000 0.000000 0.000000 0.000000 0.000000 0.035958
#
#
# Mechanical properties :
#
#
# Convention : Reuss Voigt Hill
#
# Bulk Modulus (GPa) = 68.08486 72.36117 70.22301
# Shear Modulus (GPa) = 14.87341 27.92842 21.40091
#
# Velocity S-wave (km/s) = 2.52801 3.46414 3.03242
# Velocity P-wave (km/s) = 6.14620 6.86240 6.51415
#
# Compressibility (1/GPa) = 0.01468755
#
# Stress axis : x y z
#
# Youngs Moduli (GPa) = 89.36309 68.10335 123.54517
#
# Poissons Ratio (x) = 0.33027 -0.10165
# Poissons Ratio (y) = 0.43337 0.69351
# Poissons Ratio (z) = -0.07352 0.38229
#
# Static dielectric constant tensor:
#      x y z
#    x 1.923550 0.000000 0.000000 
#    y 0.000000 1.942680 0.000000 
#    z 0.000000 0.000000 1.945050 
# 
# From -- ./inp_files/24424.got.cif
#   From: 2010.05.17/outbox.cif.g08.bks.cpg/sg58_13_cif.got.tgz:24424.got - 2010.06.03 14:20:14.
