data_PCOD9443664
_publ_section_title
;
Structure prediction by ZEFSAII (Michael W. Deem and Ramdas Pophale) SiO2 
 PCOD9443664
Probable space group: P N N M
;
_chemical_formula_sum "Si O2"
_cell_formula_units_Z 64
_cell_length_a 8.403748
_cell_length_b 19.868434
_cell_length_c 18.798366
_cell_angle_alpha 90.000000
_cell_angle_beta 90.000000
_cell_angle_gamma 90.000000
_cell_volume 3138.750247
_symmetry_space_group_name_H-M "P N N M"
_symmetry_group_IT_number 58
_symmetry_cell_setting 'orthorhombic'
loop_
_space_group_symop_operation_xyz
x,y,z
-x,-y,z
1/2+x,1/2-y,1/2-z
1/2-x,1/2+y,1/2-z
-x,-y,-z
x,y,-z
1/2-x,1/2+y,1/2+z
1/2+x,1/2-y,1/2+z
loop_
_atom_site_type_symbol
_atom_site_label
_atom_site_fract_x
_atom_site_fract_y
_atom_site_fract_z
Si Si1 0.672753 0.839472 0.581051
Si Si2 0.241653 0.387429 0.288355
Si Si3 0.606735 0.247408 0.829607
Si Si4 0.211562 0.760010 0.420334
Si Si5 0.820696 0.971229 0.213694
Si Si6 0.408133 0.670584 0.682076
Si Si7 0.675489 0.471351 0.883251
Si Si8 0.159804 0.395844 0.122795
O O1 0.629392 0.821770 0.500000
O O2 0.749887 0.777680 0.623100
O O3 0.800629 0.899857 0.580744
O O4 0.523754 0.874130 0.620585
O O5 0.120905 0.331545 0.314499
O O6 0.216767 0.464966 0.310754
O O7 0.411915 0.357674 0.313523
O O8 0.231177 0.390234 0.202512
O O9 0.442980 0.256978 0.870933
O O10 0.613550 0.287562 0.755081
O O11 0.182654 0.734958 0.500000
O O12 0.353348 0.718871 0.381574
O O13 0.256421 0.838207 0.422015
O O14 0.804022 0.897975 0.180030
O O15 0.804563 0.960566 0.298370
O O16 0.000000 0.000000 0.203404
O O17 0.500000 0.500000 0.895863
O O18 0.801140 0.529371 0.903790
#
# Coordination Sequence:
#
# PCOD9443664 Si02
#       8
#     8   8   8   8   8   8   8   8
#     4  12  26  39  56  86 130 174 211 259 314 378
#     4  10  21  37  65  95 118 154 209 272 319 365
#     4  12  22  39  63  92 122 166 216 258 307 381
#     4  12  26  41  62  94 133 169 207 265 328 386
#     4   8  17  34  61  92 117 145 202 270 311 359
#     4  11  19  40  68  92 117 161 213 263 314 380
#     4  10  20  37  60  85 122 166 215 263 316 376
#     4  11  22  38  59  88 123 164 212 260 318 377
#
# _framework density 20.390281000000002
#
# number of rings (size 3 to 8) (size 9 to 14) (size 15 to 20)
#    0.000    1.250    3.750    3.375    1.750    1.750 
#    0.000    1.250    0.000    5.625    0.000    0.000 
#    0.000    0.000    0.000    0.000    0.000    0.000 
#
# Total GULP energy -357448.726995 kJ/mol
# GULP energy per Si atom -5585.136359 kJ/mol
# Density = 2.034387 g / cm^3
# Si number density = 20.390281 Si / 1000 Ang^3
#
#
#
# Elastic Constant Matrix: (Units=GPa)
#
#
# Indices 1 2 3 4 5 6 
#
# 1 34.8715 -6.0216 -3.5843 0.0000 0.0000 0.0000
# 2 -6.0216 82.5417 27.9586 0.0000 0.0000 0.0000
# 3 -3.5843 27.9586 59.8630 0.0000 0.0000 0.0000
# 4 0.0000 0.0000 0.0000 -7.7811 0.0000 0.0000
# 5 0.0000 0.0000 0.0000 0.0000 1.9858 0.0000
# 6 0.0000 0.0000 0.0000 0.0000 0.0000 32.3594
#
#
#
# Elastic Compliance Matrix: (Units=1/GPa)
#
#
# Indices 1 2 3 4 5 6 
#
# 1 0.029083 0.001820 0.000891 0.000000 0.000000 0.000000
# 2 0.001820 0.014506 -0.006666 0.000000 0.000000 0.000000
# 3 0.000891 -0.006666 0.019871 0.000000 0.000000 0.000000
# 4 0.000000 0.000000 0.000000 -0.128517 0.000000 0.000000
# 5 0.000000 0.000000 0.000000 0.000000 0.503569 0.000000
# 6 0.000000 0.000000 0.000000 0.000000 0.000000 0.030903
#
#
# Mechanical properties :
#
#
# Convention : Reuss Voigt Hill
#
# Bulk Modulus (GPa) = 18.00172 23.77574 20.88873
# Shear Modulus (GPa) = 10.08388 15.90773 12.99580
#
# Velocity S-wave (km/s) = 2.22625 2.79617 2.52732
# Velocity P-wave (km/s) = 3.93141 4.70217 4.33396
#
# Compressibility (1/GPa) = 0.05555025
#
# Stress axis : x y z
#
# Youngs Moduli (GPa) = 34.38486 68.93839 50.32356
#
# Poissons Ratio (x) = -0.12545 -0.04486
# Poissons Ratio (y) = -0.06257 0.33545
# Poissons Ratio (z) = -0.03065 0.45953
#
# Static dielectric constant tensor:
#      x y z
#    x 1.784730 0.000000 0.000000 
#    y 0.000000 1.738250 0.000000 
#    z 0.000000 0.000000 1.727270 
# 
# From -- ./inp_files/25639.got.cif
#   From: 2010.05.17/outbox.cif.g08.bks.cpg/sg58_13_cif.got.tgz:25639.got - 2010.06.03 14:20:14.
