data_PCOD9443167
_publ_section_title
;
Structure prediction by ZEFSAII (Michael W. Deem and Ramdas Pophale) SiO2 
 PCOD9443167
Probable space group: P N N M
;
_chemical_formula_sum "Si O2"
_cell_formula_units_Z 56
_cell_length_a 24.044213
_cell_length_b 13.887284
_cell_length_c 9.003281
_cell_angle_alpha 90.000000
_cell_angle_beta 90.000000
_cell_angle_gamma 90.000000
_cell_volume 3006.274885
_symmetry_space_group_name_H-M "P N N M"
_symmetry_group_IT_number 58
_symmetry_cell_setting 'orthorhombic'
loop_
_space_group_symop_operation_xyz
x,y,z
-x,-y,z
1/2+x,1/2-y,1/2-z
1/2-x,1/2+y,1/2-z
-x,-y,-z
x,y,-z
1/2-x,1/2+y,1/2+z
1/2+x,1/2-y,1/2+z
loop_
_atom_site_type_symbol
_atom_site_label
_atom_site_fract_x
_atom_site_fract_y
_atom_site_fract_z
Si Si1 0.868383 0.296311 0.824704
Si Si2 0.476460 0.105088 0.321604
Si Si3 0.067305 0.878643 0.323940
Si Si4 0.541644 0.282645 0.823569
Si Si5 0.670905 0.500503 0.823686
Si Si6 0.230594 0.800691 0.321692
Si Si7 0.338607 0.696928 0.677059
O O1 0.904015 0.202694 0.776512
O O2 0.810499 0.280976 0.741875
O O3 0.910741 0.382683 0.786416
O O4 0.858384 0.297424 0.000000
O O5 0.482174 0.121619 0.500000
O O6 0.510440 0.187134 0.235439
O O7 0.500000 0.000000 0.287628
O O8 0.074453 0.853373 0.500000
O O9 0.105574 0.971854 0.302092
O O10 0.001767 0.870711 0.293732
O O11 0.600880 0.290330 0.746796
O O12 0.549364 0.278042 0.000000
O O13 0.706659 0.594463 0.778537
O O14 0.683957 0.405880 0.732370
O O15 0.679162 0.484100 0.000000
O O16 0.227071 0.797286 0.500000
O O17 0.293548 0.777494 0.277201
O O18 0.343221 0.698243 0.500000
#
# Coordination Sequence:
#
# PCOD9443167 Si02
#       7
#     8   8   8   8   8   8   8
#     4   9  16  28  52  80 101 132 178 224 263 308
#     4   9  18  34  54  79 113 147 180 222 276 335
#     4   8  16  32  54  77 106 140 172 210 265 325
#     4  10  20  35  55  80 110 145 183 227 272 322
#     4   9  18  36  59  79 100 137 184 223 266 329
#     4   9  20  39  57  73 104 147 182 221 276 331
#     4  11  23  38  55  79 113 148 180 226 281 329
#
# _framework density 18.627703
#
# number of rings (size 3 to 8) (size 9 to 14) (size 15 to 20)
#    0.000    2.714    0.000    2.143    0.000    5.429 
#    2.571    2.857    0.000    0.000    0.000    0.000 
#    0.000    0.000    0.000    0.000    0.000    0.000 
#
# Total GULP energy -312049.254952 kJ/mol
# GULP energy per Si atom -5572.308124 kJ/mol
# Density = 1.858531 g / cm^3
# Si number density = 18.627703 Si / 1000 Ang^3
#
#
#
# Elastic Constant Matrix: (Units=GPa)
#
#
# Indices 1 2 3 4 5 6 
#
# 1 119.2866 28.9169 32.0102 0.0000 0.0000 0.0000
# 2 28.9169 48.7419 17.4460 0.0000 0.0000 0.0000
# 3 32.0102 17.4460 22.3239 0.0000 0.0000 0.0000
# 4 0.0000 0.0000 0.0000 21.1104 0.0000 0.0000
# 5 0.0000 0.0000 0.0000 0.0000 -63.4464 0.0000
# 6 0.0000 0.0000 0.0000 0.0000 0.0000 23.9525
#
#
#
# Elastic Compliance Matrix: (Units=1/GPa)
#
#
# Indices 1 2 3 4 5 6 
#
# 1 0.013707 -0.001523 -0.018465 0.000000 0.000000 0.000000
# 2 -0.001523 0.028653 -0.020208 0.000000 0.000000 0.000000
# 3 -0.018465 -0.020208 0.087064 0.000000 0.000000 0.000000
# 4 0.000000 0.000000 0.000000 0.047370 0.000000 0.000000
# 5 0.000000 0.000000 0.000000 0.000000 -0.015761 0.000000
# 6 0.000000 0.000000 0.000000 0.000000 0.000000 0.041749
#
#
# Mechanical properties :
#
#
# Convention : Reuss Voigt Hill
#
# Bulk Modulus (GPa) = 20.39464 38.56653 29.48058
# Shear Modulus (GPa) = 16.69349 3.78857 10.24103
#
# Velocity S-wave (km/s) = 2.99685 1.42767 2.34727
# Velocity P-wave (km/s) = 4.79032 4.84422 4.81734
#
# Compressibility (1/GPa) = 0.04903249
#
# Stress axis : x y z
#
# Youngs Moduli (GPa) = 72.95367 34.90053 11.48581
#
# Poissons Ratio (x) = 0.05316 0.21208
# Poissons Ratio (y) = 0.11112 0.23211
# Poissons Ratio (z) = 1.34706 0.70527
#
# Static dielectric constant tensor:
#      x y z
#    x 1.684600 0.000000 0.000000 
#    y 0.000000 1.646830 0.000000 
#    z 0.000000 0.000000 1.617380 
# 
# From -- ./inp_files/9014.got.cif
#   From: 2010.05.17/outbox.cif.g08.bks.cpg/sg58_5_cif.got.tgz:9014.got - 2010.06.03 14:20:14.
