data_PCOD9443219
_publ_section_title
;
Structure prediction by ZEFSAII (Michael W. Deem and Ramdas Pophale) SiO2 
 PCOD9443219
Probable space group: P N N M
;
_chemical_formula_sum "Si O2"
_cell_formula_units_Z 56
_cell_length_a 23.843219
_cell_length_b 13.920904
_cell_length_c 8.884794
_cell_angle_alpha 90.000000
_cell_angle_beta 90.000000
_cell_angle_gamma 90.000000
_cell_volume 2949.033386
_symmetry_space_group_name_H-M "P N N M"
_symmetry_group_IT_number 58
_symmetry_cell_setting 'orthorhombic'
loop_
_space_group_symop_operation_xyz
x,y,z
-x,-y,z
1/2+x,1/2-y,1/2-z
1/2-x,1/2+y,1/2-z
-x,-y,-z
x,y,-z
1/2-x,1/2+y,1/2+z
1/2+x,1/2-y,1/2+z
loop_
_atom_site_type_symbol
_atom_site_label
_atom_site_fract_x
_atom_site_fract_y
_atom_site_fract_z
Si Si1 0.474221 0.604925 0.679081
Si Si2 0.542090 0.781667 0.818234
Si Si3 0.834540 0.513598 0.820097
Si Si4 0.061599 0.397016 0.327855
Si Si5 0.628911 0.306520 0.173367
Si Si6 0.730609 0.203251 0.319288
Si Si7 0.165089 0.700789 0.180811
O O1 0.500000 0.500000 0.704742
O O2 0.472809 0.623528 0.500000
O O3 0.512578 0.684804 0.759219
O O4 0.411841 0.617862 0.746114
O O5 0.500713 0.870167 0.773865
O O6 0.603116 0.787543 0.747079
O O7 0.544177 0.780938 0.000000
O O8 0.897440 0.534588 0.763509
O O9 0.794204 0.599914 0.768786
O O10 0.816086 0.407366 0.775598
O O11 0.835530 0.517539 0.000000
O O12 0.058826 0.431040 0.500000
O O13 0.093607 0.293605 0.326900
O O14 0.685957 0.281736 0.259484
O O15 0.639884 0.332646 0.000000
O O16 0.732781 0.205509 0.500000
O O17 0.790748 0.225453 0.249734
O O18 0.163901 0.708567 0.000000
#
# Coordination Sequence:
#
# PCOD9443219 Si02
#       7
#     8   8   8   8   8   8   8
#     4  10  20  35  56  84 116 149 190 237 284 339
#     4  10  21  37  56  82 115 151 187 231 287 341
#     4   9  20  37  58  82 109 144 187 230 284 343
#     4   8  16  31  54  81 109 139 177 220 269 329
#     4   9  17  32  55  81 108 144 185 228 279 332
#     4  10  20  38  60  81 108 147 193 240 285 340
#     4  11  23  39  57  82 116 151 189 239 291 343
#
# _framework density 18.989273000000001
#
# number of rings (size 3 to 8) (size 9 to 14) (size 15 to 20)
#    0.000    2.429    0.000    3.000    0.000    7.429 
#    2.571    2.857    0.000    0.000    0.000    0.000 
#    0.000    0.000    0.000    0.000    0.000    0.000 
#
# Total GULP energy -312526.880604 kJ/mol
# GULP energy per Si atom -5580.837154 kJ/mol
# Density = 1.894605 g / cm^3
# Si number density = 18.989273 Si / 1000 Ang^3
#
#
#
# Elastic Constant Matrix: (Units=GPa)
#
#
# Indices 1 2 3 4 5 6 
#
# 1 116.1971 26.9301 27.0040 0.0000 0.0000 0.0000
# 2 26.9301 54.7926 22.7615 0.0000 0.0000 0.0000
# 3 27.0040 22.7615 53.6985 0.0000 0.0000 0.0000
# 4 0.0000 0.0000 0.0000 16.9085 0.0000 0.0000
# 5 0.0000 0.0000 0.0000 0.0000 34.3190 0.0000
# 6 0.0000 0.0000 0.0000 0.0000 0.0000 26.7956
#
#
#
# Elastic Compliance Matrix: (Units=1/GPa)
#
#
# Indices 1 2 3 4 5 6 
#
# 1 0.010277 -0.003525 -0.003674 0.000000 0.000000 0.000000
# 2 -0.003525 0.023360 -0.008129 0.000000 0.000000 0.000000
# 3 -0.003674 -0.008129 0.023916 0.000000 0.000000 0.000000
# 4 0.000000 0.000000 0.000000 0.059142 0.000000 0.000000
# 5 0.000000 0.000000 0.000000 0.000000 0.029138 0.000000
# 6 0.000000 0.000000 0.000000 0.000000 0.000000 0.037320
#
#
# Mechanical properties :
#
#
# Convention : Reuss Voigt Hill
#
# Bulk Modulus (GPa) = 37.17914 42.00881 39.59397
# Shear Modulus (GPa) = 22.44430 25.47080 23.95755
#
# Velocity S-wave (km/s) = 3.44167 3.66638 3.55580
# Velocity P-wave (km/s) = 5.95105 6.33195 6.14445
#
# Compressibility (1/GPa) = 0.02689681
#
# Stress axis : x y z
#
# Youngs Moduli (GPa) = 97.30660 42.80821 41.81329
#
# Poissons Ratio (x) = 0.15089 0.15362
# Poissons Ratio (y) = 0.34298 0.33991
# Poissons Ratio (z) = 0.35750 0.34800
#
# Static dielectric constant tensor:
#      x y z
#    x 1.657300 0.000000 0.000000 
#    y 0.000000 1.675090 0.000000 
#    z 0.000000 0.000000 1.635690 
# 
# From -- ./inp_files/6311.got.cif
#   From: 2010.05.17/outbox.cif.g08.bks.cpg/sg58_4_cif.got.tgz:6311.got - 2010.06.03 14:20:14.
