data_PCOD9443203
_publ_section_title
;
Structure prediction by ZEFSAII (Michael W. Deem and Ramdas Pophale) SiO2 
 PCOD9443203
Probable space group: P N N M
;
_chemical_formula_sum "Si O2"
_cell_formula_units_Z 40
_cell_length_a 15.982037
_cell_length_b 15.734171
_cell_length_c 9.096176
_cell_angle_alpha 90.000000
_cell_angle_beta 90.000000
_cell_angle_gamma 90.000000
_cell_volume 2287.361739
_symmetry_space_group_name_H-M "P N N M"
_symmetry_group_IT_number 58
_symmetry_cell_setting 'orthorhombic'
loop_
_space_group_symop_operation_xyz
x,y,z
-x,-y,z
1/2+x,1/2-y,1/2-z
1/2-x,1/2+y,1/2-z
-x,-y,-z
x,y,-z
1/2-x,1/2+y,1/2+z
1/2+x,1/2-y,1/2+z
loop_
_atom_site_type_symbol
_atom_site_label
_atom_site_fract_x
_atom_site_fract_y
_atom_site_fract_z
Si Si1 0.457258 0.365990 0.674526
Si Si2 0.307450 0.060464 0.323757
Si Si3 0.631708 0.455442 0.325462
Si Si4 0.062569 0.688899 0.674495
Si Si5 0.066389 0.421823 0.832229
O O1 0.451968 0.346946 0.500000
O O2 0.400101 0.448535 0.703049
O O3 0.552550 0.394926 0.706102
O O4 0.432292 0.284534 0.767306
O O5 0.313272 0.069077 0.500000
O O6 0.213457 0.065426 0.266846
O O7 0.365093 0.131724 0.248354
O O8 0.348129 0.968143 0.286232
O O9 0.649719 0.448812 0.500000
O O10 0.068770 0.684057 0.500000
O O11 0.974517 0.648527 0.729383
O O12 0.000000 0.500000 0.834413
O O13 0.073330 0.389795 0.000000
#
# Coordination Sequence:
#
# PCOD9443203 Si02
#       5
#     8   8   8   8   8
#     4   9  19  38  59  78 107 145 179 219 274 324
#     4  10  20  35  56  81 111 144 178 222 275 321
#     4   9  19  37  60  81 104 141 183 222 269 324
#     4  11  21  33  54  83 111 142 183 225 265 316
#     4   8  16  32  52  74 104 143 175 210 270 323
#
# _framework density 17.487396
#
# number of rings (size 3 to 8) (size 9 to 14) (size 15 to 20)
#    0.000    2.600    0.000    4.800    0.000    6.000 
#    3.600    2.000    0.000    0.000    0.000    0.000 
#    0.000    0.000    0.000    0.000    0.000    0.000 
#
# Total GULP energy -223080.703021 kJ/mol
# GULP energy per Si atom -5577.017576 kJ/mol
# Density = 1.744759 g / cm^3
# Si number density = 17.487396 Si / 1000 Ang^3
#
#
#
# Elastic Constant Matrix: (Units=GPa)
#
#
# Indices 1 2 3 4 5 6 
#
# 1 90.0361 37.5445 57.9695 0.0000 0.0000 0.0000
# 2 37.5445 76.5830 62.6476 0.0000 0.0000 0.0000
# 3 57.9695 62.6476 92.4219 0.0000 0.0000 0.0000
# 4 0.0000 0.0000 0.0000 22.0162 0.0000 0.0000
# 5 0.0000 0.0000 0.0000 0.0000 20.3029 0.0000
# 6 0.0000 0.0000 0.0000 0.0000 0.0000 7.9970
#
#
#
# Elastic Compliance Matrix: (Units=1/GPa)
#
#
# Indices 1 2 3 4 5 6 
#
# 1 0.018661 0.000957 -0.012354 0.000000 0.000000 0.000000
# 2 0.000957 0.029359 -0.020501 0.000000 0.000000 0.000000
# 3 -0.012354 -0.020501 0.032465 0.000000 0.000000 0.000000
# 4 0.000000 0.000000 0.000000 0.045421 0.000000 0.000000
# 5 0.000000 0.000000 0.000000 0.000000 0.049254 0.000000
# 6 0.000000 0.000000 0.000000 0.000000 0.000000 0.125047
#
#
# Mechanical properties :
#
#
# Convention : Reuss Voigt Hill
#
# Bulk Modulus (GPa) = 59.91588 63.92936 61.92262
# Shear Modulus (GPa) = 13.52934 16.78853 15.15893
#
# Velocity S-wave (km/s) = 2.78450 3.10181 2.94742
# Velocity P-wave (km/s) = 6.68391 7.03314 6.86074
#
# Compressibility (1/GPa) = 0.01669007
#
# Stress axis : x y z
#
# Youngs Moduli (GPa) = 53.58640 34.06067 30.80218
#
# Poissons Ratio (x) = -0.03260 0.38052
# Poissons Ratio (y) = -0.05129 0.63149
# Poissons Ratio (z) = 0.66199 0.69829
#
# Static dielectric constant tensor:
#      x y z
#    x 1.597920 0.000000 0.000000 
#    y 0.000000 1.587470 0.000000 
#    z 0.000000 0.000000 1.579770 
# 
# From -- ./inp_files/5368.got.cif
#   From: 2010.05.17/outbox.cif.g08.bks.cpg/sg58_3_cif.got.tgz:5368.got - 2010.06.03 14:20:14.
