data_PCOD9443361
_publ_section_title
;
Structure prediction by ZEFSAII (Michael W. Deem and Ramdas Pophale) SiO2 
 PCOD9443361
Probable space group: P N N M
;
_chemical_formula_sum "Si O2"
_cell_formula_units_Z 28
_cell_length_a 5.099313
_cell_length_b 11.082324
_cell_length_c 24.699895
_cell_angle_alpha 90.000000
_cell_angle_beta 90.000000
_cell_angle_gamma 90.000000
_cell_volume 1395.846366
_symmetry_space_group_name_H-M "P N N M"
_symmetry_group_IT_number 58
_symmetry_cell_setting 'orthorhombic'
loop_
_space_group_symop_operation_xyz
x,y,z
-x,-y,z
1/2+x,1/2-y,1/2-z
1/2-x,1/2+y,1/2-z
-x,-y,-z
x,y,-z
1/2-x,1/2+y,1/2+z
1/2+x,1/2-y,1/2+z
loop_
_atom_site_type_symbol
_atom_site_label
_atom_site_fract_x
_atom_site_fract_y
_atom_site_fract_z
Si Si1 0.500000 0.500000 0.295160
Si Si2 0.465423 0.856169 0.063524
Si Si3 0.048149 0.220618 0.125303
Si Si4 0.325028 0.823950 0.269712
O O1 0.587718 0.393518 0.334672
O O2 0.728101 0.553093 0.257539
O O3 0.734262 0.790583 0.079352
O O4 0.235786 0.798567 0.099468
O O5 0.500000 0.000000 0.074636
O O6 0.404796 0.844933 0.000000
O O7 0.092587 0.329208 0.167418
O O8 0.565737 0.760648 0.238320
#
# Coordination Sequence:
#
# PCOD9443361 Si02
#       4
#     4   8   8   8
#     4  10  20  36  53  78 115 144 174 230 266 326
#     4  11  21  34  52  78 107 143 182 224 280 332
#     4  11  20  34  54  78 110 147 176 225 278 322
#     4  10  22  34  53  80 108 148 191 216 274 335
#
# _framework density 20.059515999999999
#
# number of rings (size 3 to 8) (size 9 to 14) (size 15 to 20)
#    0.000    1.429    2.857    4.286    0.000    5.714 
#    0.000    0.000    0.000    0.000    0.000    6.000 
#    0.000    0.000    0.000    0.000    0.000    0.000 
#
# Total GULP energy -156362.402494 kJ/mol
# GULP energy per Si atom -5584.371518 kJ/mol
# Density = 2.001386 g / cm^3
# Si number density = 20.059516 Si / 1000 Ang^3
#
#
#
# Elastic Constant Matrix: (Units=GPa)
#
#
# Indices 1 2 3 4 5 6 
#
# 1 126.9037 10.1274 20.8791 0.0000 0.0000 0.0000
# 2 10.1274 19.2686 9.7637 0.0000 0.0000 0.0000
# 3 20.8791 9.7637 88.2419 0.0000 0.0000 0.0000
# 4 0.0000 0.0000 0.0000 32.8861 0.0000 0.0000
# 5 0.0000 0.0000 0.0000 0.0000 27.1912 0.0000
# 6 0.0000 0.0000 0.0000 0.0000 0.0000 28.8146
#
#
#
# Elastic Compliance Matrix: (Units=1/GPa)
#
#
# Indices 1 2 3 4 5 6 
#
# 1 0.008431 -0.003624 -0.001594 0.000000 0.000000 0.000000
# 2 -0.003624 0.056538 -0.005398 0.000000 0.000000 0.000000
# 3 -0.001594 -0.005398 0.012307 0.000000 0.000000 0.000000
# 4 0.000000 0.000000 0.000000 0.030408 0.000000 0.000000
# 5 0.000000 0.000000 0.000000 0.000000 0.036777 0.000000
# 6 0.000000 0.000000 0.000000 0.000000 0.000000 0.034705
#
#
# Mechanical properties :
#
#
# Convention : Reuss Voigt Hill
#
# Bulk Modulus (GPa) = 17.84308 35.10609 26.47458
# Shear Modulus (GPa) = 22.82278 30.68798 26.75538
#
# Velocity S-wave (km/s) = 3.37672 3.91557 3.65608
# Velocity P-wave (km/s) = 4.91094 6.16289 5.57219
#
# Compressibility (1/GPa) = 0.05604414
#
# Stress axis : x y z
#
# Youngs Moduli (GPa) = 118.60368 17.68720 81.25480
#
# Poissons Ratio (x) = 0.06409 0.12952
# Poissons Ratio (y) = 0.42979 0.43864
# Poissons Ratio (z) = 0.18906 0.09548
#
# Static dielectric constant tensor:
#      x y z
#    x 1.717030 0.000000 0.000000 
#    y 0.000000 1.807420 0.000000 
#    z 0.000000 0.000000 1.720930 
# 
# From -- ./inp_files/30744.got.cif
#   From: 2010.05.17/outbox.cif.g08.bks.cpg/sg58_16_cif.got.tgz:30744.got - 2010.06.03 14:20:14.
