data_PCOD9443112
_publ_section_title
;
Structure prediction by ZEFSAII (Michael W. Deem and Ramdas Pophale) SiO2 
 PCOD9443112
Probable space group: P N N M
;
_chemical_formula_sum "Si O2"
_cell_formula_units_Z 52
_cell_length_a 9.278954
_cell_length_b 24.465724
_cell_length_c 11.550807
_cell_angle_alpha 90.000000
_cell_angle_beta 90.000000
_cell_angle_gamma 90.000000
_cell_volume 2622.221786
_symmetry_space_group_name_H-M "P N N M"
_symmetry_group_IT_number 58
_symmetry_cell_setting 'orthorhombic'
loop_
_space_group_symop_operation_xyz
x,y,z
-x,-y,z
1/2+x,1/2-y,1/2-z
1/2-x,1/2+y,1/2-z
-x,-y,-z
x,y,-z
1/2-x,1/2+y,1/2+z
1/2+x,1/2-y,1/2+z
loop_
_atom_site_type_symbol
_atom_site_label
_atom_site_fract_x
_atom_site_fract_y
_atom_site_fract_z
Si Si1 0.847210 0.103697 0.249867
Si Si2 0.528679 0.119012 0.000000
Si Si3 0.875725 0.696566 0.706763
Si Si4 0.813716 0.050306 0.000000
Si Si5 0.671314 0.386426 0.752436
Si Si6 0.325092 0.503534 0.130946
Si Si7 0.287780 0.580400 0.500000
Si Si8 0.148960 0.710407 0.863261
O O1 0.739659 0.153974 0.258427
O O2 0.778094 0.054679 0.322708
O O3 0.006046 0.119961 0.293977
O O4 0.869403 0.077772 0.120026
O O5 0.546634 0.159781 0.108688
O O6 0.651389 0.072887 0.000000
O O7 0.383244 0.085520 0.000000
O O8 0.771194 0.743255 0.655745
O O9 0.998854 0.718986 0.793273
O O10 0.831967 0.984245 0.000000
O O11 0.720478 0.447146 0.788054
O O12 0.667238 0.386756 0.614246
O O13 0.776934 0.343514 0.810198
O O14 0.500000 0.500000 0.135316
O O15 0.281232 0.514168 0.000000
O O16 0.120375 0.705436 0.000000
#
# Coordination Sequence:
#
# PCOD9443112 Si02
#       8
#     8   4   8   4   8   8   4   8
#     4  10  21  38  63  94 129 166 209 266 325 382
#     4  10  21  42  64  92 136 168 211 274 338 388
#     4  11  24  47  67  93 124 166 216 276 328 400
#     4  10  20  34  63  97 137 171 213 269 332 388
#     4  11  22  37  63  97 131 169 216 268 318 386
#     4   9  18  34  57  87 126 166 206 248 306 379
#     4  12  20  36  65 101 133 175 222 272 328 395
#     4  12  26  47  69  94 129 170 219 274 335 393
#
# _framework density 19.830513
#
# number of rings (size 3 to 8) (size 9 to 14) (size 15 to 20)
#    0.000    1.385    3.846    2.077    0.000    1.846 
#    5.538    0.769    0.000    1.846    0.000    0.000 
#    0.000    0.000    0.000    0.000    0.000    0.000 
#
# Total GULP energy -290093.482311 kJ/mol
# GULP energy per Si atom -5578.720814 kJ/mol
# Density = 1.978538 g / cm^3
# Si number density = 19.830513 Si / 1000 Ang^3
#
#
#
# Elastic Constant Matrix: (Units=GPa)
#
#
# Indices 1 2 3 4 5 6 
#
# 1 73.8734 9.0209 9.2861 0.0000 0.0000 0.0000
# 2 9.0209 59.6603 10.2575 0.0000 0.0000 0.0000
# 3 9.2861 10.2575 75.7761 0.0000 0.0000 0.0000
# 4 0.0000 0.0000 0.0000 14.7744 0.0000 0.0000
# 5 0.0000 0.0000 0.0000 0.0000 21.9094 0.0000
# 6 0.0000 0.0000 0.0000 0.0000 0.0000 31.8715
#
#
#
# Elastic Compliance Matrix: (Units=1/GPa)
#
#
# Indices 1 2 3 4 5 6 
#
# 1 0.013947 -0.001858 -0.001458 0.000000 0.000000 0.000000
# 2 -0.001858 0.017409 -0.002129 0.000000 0.000000 0.000000
# 3 -0.001458 -0.002129 0.013664 0.000000 0.000000 0.000000
# 4 0.000000 0.000000 0.000000 0.067685 0.000000 0.000000
# 5 0.000000 0.000000 0.000000 0.000000 0.045643 0.000000
# 6 0.000000 0.000000 0.000000 0.000000 0.000000 0.031376
#
#
# Mechanical properties :
#
#
# Convention : Reuss Voigt Hill
#
# Bulk Modulus (GPa) = 29.29999 29.60430 29.45215
# Shear Modulus (GPa) = 23.58627 25.76076 24.67351
#
# Velocity S-wave (km/s) = 3.45250 3.60814 3.53118
# Velocity P-wave (km/s) = 5.54078 5.68501 5.61336
#
# Compressibility (1/GPa) = 0.03412970
#
# Stress axis : x y z
#
# Youngs Moduli (GPa) = 71.70102 57.44305 73.18733
#
# Poissons Ratio (x) = 0.10674 0.10668
# Poissons Ratio (y) = 0.13324 0.15580
# Poissons Ratio (z) = 0.10451 0.12228
#
# Static dielectric constant tensor:
#      x y z
#    x 1.708390 0.000000 0.000000 
#    y 0.000000 1.690350 0.000000 
#    z 0.000000 0.000000 1.732780 
# 
# From -- ./inp_files/13259.got.cif
#   From: 2010.05.17/outbox.cif.g08.bks.cpg/sg58_7_cif.got.tgz:13259.got - 2010.06.03 14:20:14.
