data_PCOD9443351
_publ_section_title
;
Structure prediction by ZEFSAII (Michael W. Deem and Ramdas Pophale) SiO2 
 PCOD9443351
Probable space group: P N N M
;
_chemical_formula_sum "Si O2"
_cell_formula_units_Z 58
_cell_length_a 22.985095
_cell_length_b 14.683933
_cell_length_c 7.608775
_cell_angle_alpha 90.000000
_cell_angle_beta 90.000000
_cell_angle_gamma 90.000000
_cell_volume 2568.049786
_symmetry_space_group_name_H-M "P N N M"
_symmetry_group_IT_number 58
_symmetry_cell_setting 'orthorhombic'
loop_
_space_group_symop_operation_xyz
x,y,z
-x,-y,z
1/2+x,1/2-y,1/2-z
1/2-x,1/2+y,1/2-z
-x,-y,-z
x,y,-z
1/2-x,1/2+y,1/2+z
1/2+x,1/2-y,1/2+z
loop_
_atom_site_type_symbol
_atom_site_label
_atom_site_fract_x
_atom_site_fract_y
_atom_site_fract_z
Si Si1 0.805298 0.732373 0.213022
Si Si2 0.434565 0.411612 0.690470
Si Si3 0.371195 0.085541 0.785716
Si Si4 0.762626 0.924226 0.786587
Si Si5 0.193511 0.877698 0.701075
Si Si6 0.500000 0.500000 0.000000
Si Si7 0.584772 0.109464 0.794373
Si Si8 0.472900 0.219082 0.785630
O O1 0.801944 0.837998 0.263055
O O2 0.745608 0.684153 0.273432
O O3 0.860599 0.676914 0.278855
O O4 0.806134 0.726943 0.000000
O O5 0.441406 0.453906 0.500000
O O6 0.368398 0.377245 0.707493
O O7 0.451597 0.478026 0.846265
O O8 0.473498 0.321056 0.714135
O O9 0.304153 0.094485 0.733359
O O10 0.413963 0.166751 0.734732
O O11 0.397077 0.988962 0.721867
O O12 0.371079 0.083751 0.000000
O O13 0.783556 0.019011 0.708877
O O14 0.763939 0.932622 0.000000
O O15 0.183406 0.848038 0.500000
O O16 0.527427 0.158810 0.724028
O O17 0.572118 0.093508 0.000000
O O18 0.474559 0.226713 0.000000
#
# Coordination Sequence:
#
# PCOD9443351 Si02
#       8
#     8   8   8   8   8   2   8   8
#     4  10  22  38  60  89 131 177 215 273 348 402
#     4  12  26  46  74 102 131 181 230 280 338 410
#     4   9  17  34  62  93 129 177 228 275 335 406
#     4  10  20  36  60  91 124 169 225 277 335 405
#     4  11  22  42  66  93 132 176 222 277 342 400
#     4  12  26  52  72  98 138 172 222 286 340 384
#     4  10  20  35  61  93 130 176 226 279 334 404
#     4  10  20  39  64  95 135 178 225 279 343 403
#
# _framework density 22.585232000000001
#
# number of rings (size 3 to 8) (size 9 to 14) (size 15 to 20)
#    0.000    1.655    2.759    1.862    0.000    6.621 
#    0.000    4.138    0.000    1.655    0.000    0.000 
#    0.000    0.000    0.000    0.000    0.000    0.000 
#
# Total GULP energy -323894.177648 kJ/mol
# GULP energy per Si atom -5584.382373 kJ/mol
# Density = 2.253383 g / cm^3
# Si number density = 22.585232 Si / 1000 Ang^3
#
#
#
# Elastic Constant Matrix: (Units=GPa)
#
#
# Indices 1 2 3 4 5 6 
#
# 1 68.9940 0.6642 5.5867 0.0000 0.0000 0.0000
# 2 0.6642 47.5450 -0.3257 0.0000 0.0000 0.0000
# 3 5.5867 -0.3257 90.4136 0.0000 0.0000 0.0000
# 4 0.0000 0.0000 0.0000 35.9389 0.0000 0.0000
# 5 0.0000 0.0000 0.0000 0.0000 49.8454 0.0000
# 6 0.0000 0.0000 0.0000 0.0000 0.0000 28.6761
#
#
#
# Elastic Compliance Matrix: (Units=1/GPa)
#
#
# Indices 1 2 3 4 5 6 
#
# 1 0.014569 -0.000210 -0.000901 0.000000 0.000000 0.000000
# 2 -0.000210 0.021036 0.000089 0.000000 0.000000 0.000000
# 3 -0.000901 0.000089 0.011116 0.000000 0.000000 0.000000
# 4 0.000000 0.000000 0.000000 0.027825 0.000000 0.000000
# 5 0.000000 0.000000 0.000000 0.000000 0.020062 0.000000
# 6 0.000000 0.000000 0.000000 0.000000 0.000000 0.034872
#
#
# Mechanical properties :
#
#
# Convention : Reuss Voigt Hill
#
# Bulk Modulus (GPa) = 22.38259 24.31146 23.34703
# Shear Modulus (GPa) = 34.14900 36.29391 35.22145
#
# Velocity S-wave (km/s) = 3.89267 4.01306 3.95332
# Velocity P-wave (km/s) = 5.48959 5.67984 5.58552
#
# Compressibility (1/GPa) = 0.04467758
#
# Stress axis : x y z
#
# Youngs Moduli (GPa) = 68.63895 47.53703 89.95823
#
# Poissons Ratio (x) = 0.00997 0.08105
# Poissons Ratio (y) = 0.01439 -0.00798
# Poissons Ratio (z) = 0.06184 -0.00422
#
# Static dielectric constant tensor:
#      x y z
#    x 1.799320 0.000000 0.000000 
#    y 0.000000 1.813740 0.000000 
#    z 0.000000 0.000000 1.868790 
# 
# From -- ./inp_files/9847.got.cif
#   From: 2010.05.17/outbox.cif.g08.bks.cpg/sg58_5_cif.got.tgz:9847.got - 2010.06.03 14:20:14.
