data_PCOD9443371
_publ_section_title
;
Structure prediction by ZEFSAII (Michael W. Deem and Ramdas Pophale) SiO2 
 PCOD9443371
Probable space group: P N N M
;
_chemical_formula_sum "Si O2"
_cell_formula_units_Z 64
_cell_length_a 17.547282
_cell_length_b 9.628039
_cell_length_c 15.633086
_cell_angle_alpha 90.000000
_cell_angle_beta 90.000000
_cell_angle_gamma 90.000000
_cell_volume 2641.146025
_symmetry_space_group_name_H-M "P N N M"
_symmetry_group_IT_number 58
_symmetry_cell_setting 'orthorhombic'
loop_
_space_group_symop_operation_xyz
x,y,z
-x,-y,z
1/2+x,1/2-y,1/2-z
1/2-x,1/2+y,1/2-z
-x,-y,-z
x,y,-z
1/2-x,1/2+y,1/2+z
1/2+x,1/2-y,1/2+z
loop_
_atom_site_type_symbol
_atom_site_label
_atom_site_fract_x
_atom_site_fract_y
_atom_site_fract_z
Si Si1 0.767779 0.416057 0.764172
Si Si2 0.021429 0.837951 0.218084
Si Si3 0.072834 0.775355 0.593729
Si Si4 0.806474 0.728176 0.405357
Si Si5 0.666761 0.560265 0.356805
Si Si6 0.087982 0.490838 0.679895
Si Si7 0.102302 0.242629 0.904972
Si Si8 0.236395 0.777145 0.596169
O O1 0.732650 0.343647 0.846016
O O2 0.707167 0.530910 0.734350
O O3 0.854153 0.467970 0.755685
O O4 0.764580 0.314129 0.681664
O O5 0.030556 0.811681 0.318697
O O6 0.100090 0.831155 0.164562
O O7 0.957646 0.746300 0.171366
O O8 0.000000 0.000000 0.210261
O O9 0.037379 0.797606 0.500000
O O10 0.092130 0.611279 0.606524
O O11 0.154948 0.851924 0.595305
O O12 0.826876 0.775786 0.500000
O O13 0.737519 0.616630 0.409801
O O14 0.877324 0.650078 0.359990
O O15 0.632379 0.418047 0.395103
O O16 0.000000 0.500000 0.705362
O O17 0.178099 0.337672 0.899492
O O18 0.068703 0.257817 0.000000
O O19 0.236969 0.710765 0.500000
#
# Coordination Sequence:
#
# PCOD9443371 Si02
#       8
#     8   8   8   8   8   8   8   8
#     4   9  19  36  57  84 121 160 201 250 304 361
#     4  10  21  34  51  81 117 154 197 242 296 361
#     4  10  20  36  56  78 111 154 196 243 296 352
#     4  11  22  37  62  92 121 158 204 253 305 365
#     4   9  18  33  53  79 115 153 195 241 294 359
#     4  10  22  39  61  89 121 159 205 256 310 364
#     4   9  17  30  51  80 110 137 176 237 297 345
#     4   8  15  31  55  77 100 141 194 238 284 345
#
# _framework density 24.231904
#
# number of rings (size 3 to 8) (size 9 to 14) (size 15 to 20)
#    0.000    2.500    0.000    3.000    0.000   12.000 
#    0.000    0.625    0.000    3.375    0.000    0.000 
#    0.000    0.000    0.000    0.000    0.000    0.000 
#
# Total GULP energy -356873.877102 kJ/mol
# GULP energy per Si atom -5576.154330 kJ/mol
# Density = 2.417675 g / cm^3
# Si number density = 24.231904 Si / 1000 Ang^3
#
#
#
# Elastic Constant Matrix: (Units=GPa)
#
#
# Indices 1 2 3 4 5 6 
#
# 1 154.2951 20.0155 83.5935 0.0000 0.0000 0.0000
# 2 20.0155 29.9056 38.5963 0.0000 0.0000 0.0000
# 3 83.5935 38.5963 172.0273 0.0000 0.0000 0.0000
# 4 0.0000 0.0000 0.0000 16.9764 0.0000 0.0000
# 5 0.0000 0.0000 0.0000 0.0000 -11.4160 0.0000
# 6 0.0000 0.0000 0.0000 0.0000 0.0000 18.4901
#
#
#
# Elastic Compliance Matrix: (Units=1/GPa)
#
#
# Indices 1 2 3 4 5 6 
#
# 1 0.008803 -0.000522 -0.004160 0.000000 0.000000 0.000000
# 2 -0.000522 0.047099 -0.010313 0.000000 0.000000 0.000000
# 3 -0.004160 -0.010313 0.010149 0.000000 0.000000 0.000000
# 4 0.000000 0.000000 0.000000 0.058905 0.000000 0.000000
# 5 0.000000 0.000000 0.000000 0.000000 -0.087596 0.000000
# 6 0.000000 0.000000 0.000000 0.000000 0.000000 0.054083
#
#
# Mechanical properties :
#
#
# Convention : Reuss Voigt Hill
#
# Bulk Modulus (GPa) = 27.73302 71.18206 49.45754
# Shear Modulus (GPa) = 37.46623 19.07827 28.27225
#
# Velocity S-wave (km/s) = 3.93638 2.80897 3.41946
# Velocity P-wave (km/s) = 5.66832 6.32135 6.00372
#
# Compressibility (1/GPa) = 0.03605810
#
# Stress axis : x y z
#
# Youngs Moduli (GPa) = 113.59964 21.23206 98.53552
#
# Poissons Ratio (x) = 0.01109 0.40995
# Poissons Ratio (y) = 0.05932 1.01623
# Poissons Ratio (z) = 0.47262 0.21897
#
# Static dielectric constant tensor:
#      x y z
#    x 2.004740 0.000000 0.000000 
#    y 0.000000 2.060780 0.000000 
#    z 0.000000 0.000000 1.932690 
# 
# From -- ./inp_files/22941.got.cif
#   From: 2010.05.17/outbox.cif.g08.bks.cpg/sg58_12_cif.got.tgz:22941.got - 2010.06.03 14:20:14.
