data_PCOD9443645
_publ_section_title
;
Structure prediction by ZEFSAII (Michael W. Deem and Ramdas Pophale) SiO2 
 PCOD9443645
Probable space group: P N N M
;
_chemical_formula_sum "Si O2"
_cell_formula_units_Z 64
_cell_length_a 11.086937
_cell_length_b 16.960605
_cell_length_c 17.753819
_cell_angle_alpha 90.000000
_cell_angle_beta 90.000000
_cell_angle_gamma 90.000000
_cell_volume 3338.448704
_symmetry_space_group_name_H-M "P N N M"
_symmetry_group_IT_number 58
_symmetry_cell_setting 'orthorhombic'
loop_
_space_group_symop_operation_xyz
x,y,z
-x,-y,z
1/2+x,1/2-y,1/2-z
1/2-x,1/2+y,1/2-z
-x,-y,-z
x,y,-z
1/2-x,1/2+y,1/2+z
1/2+x,1/2-y,1/2+z
loop_
_atom_site_type_symbol
_atom_site_label
_atom_site_fract_x
_atom_site_fract_y
_atom_site_fract_z
Si Si1 0.661301 0.390568 0.171657
Si Si2 0.291334 0.239335 0.410233
Si Si3 0.383181 0.412004 0.410246
Si Si4 0.307325 0.980012 0.413539
Si Si5 0.450285 0.835563 0.408922
Si Si6 0.427668 0.367309 0.913758
Si Si7 0.728842 0.772888 0.090725
Si Si8 0.153730 0.080133 0.848325
O O1 0.695367 0.303304 0.142600
O O2 0.761924 0.447938 0.135874
O O3 0.530649 0.405682 0.135815
O O4 0.653891 0.403885 0.259870
O O5 0.266746 0.227149 0.500000
O O6 0.309553 0.332046 0.397170
O O7 0.419258 0.197980 0.391886
O O8 0.386210 0.426886 0.500000
O O9 0.330340 0.488316 0.368536
O O10 0.521480 0.400414 0.383123
O O11 0.331248 0.006234 0.500000
O O12 0.415664 0.924174 0.385123
O O13 0.192558 0.920419 0.415374
O O14 0.440494 0.837622 0.500000
O O15 0.347802 0.774692 0.382296
O O16 0.384788 0.280819 0.886187
O O17 0.471817 0.361635 0.000000
O O18 0.746298 0.861816 0.117027
O O19 0.728717 0.771450 0.000000
#
# Coordination Sequence:
#
# PCOD9443645 Si02
#       8
#     8   8   8   8   8   8   8   8
#     4  12  24  33  48  84 122 156 178 216 285 355
#     4  10  20  37  60  82 114 149 191 240 281 338
#     4  10  21  39  63  85 106 143 198 253 289 322
#     4   9  18  33  54  77 107 148 192 232 265 319
#     4   8  15  31  56  83 101 134 188 236 278 313
#     4   9  19  34  56  78 106 149 189 221 259 329
#     4   9  16  34  59  79 100 134 185 237 275 319
#     4  11  22  34  55  87 112 142 179 240 299 343
#
# _framework density 19.170580000000001
#
# number of rings (size 3 to 8) (size 9 to 14) (size 15 to 20)
#    0.000    2.250    1.250    4.500    3.500    2.500 
#    2.250    1.875    0.000    2.250    0.000    3.500 
#    0.000    0.000    0.000    0.000    0.000    0.000 
#
# Total GULP energy -357133.478899 kJ/mol
# GULP energy per Si atom -5580.210608 kJ/mol
# Density = 1.912695 g / cm^3
# Si number density = 19.170580 Si / 1000 Ang^3
#
#
#
# Elastic Constant Matrix: (Units=GPa)
#
#
# Indices 1 2 3 4 5 6 
#
# 1 30.2740 27.6334 20.1496 0.0000 0.0000 0.0000
# 2 27.6334 124.5735 43.9118 0.0000 0.0000 0.0000
# 3 20.1496 43.9118 75.7412 0.0000 0.0000 0.0000
# 4 0.0000 0.0000 0.0000 21.9554 0.0000 0.0000
# 5 0.0000 0.0000 0.0000 0.0000 -51.7989 0.0000
# 6 0.0000 0.0000 0.0000 0.0000 0.0000 22.8384
#
#
#
# Elastic Compliance Matrix: (Units=1/GPa)
#
#
# Indices 1 2 3 4 5 6 
#
# 1 0.044750 -0.007202 -0.007730 0.000000 0.000000 0.000000
# 2 -0.007202 0.011248 -0.004605 0.000000 0.000000 0.000000
# 3 -0.007730 -0.004605 0.017929 0.000000 0.000000 0.000000
# 4 0.000000 0.000000 0.000000 0.045547 0.000000 0.000000
# 5 0.000000 0.000000 0.000000 0.000000 -0.019305 0.000000
# 6 0.000000 0.000000 0.000000 0.000000 0.000000 0.043786
#
#
# Mechanical properties :
#
#
# Convention : Reuss Voigt Hill
#
# Bulk Modulus (GPa) = 28.69134 45.99758 37.34446
# Shear Modulus (GPa) = 25.68758 7.85857 16.77308
#
# Velocity S-wave (km/s) = 3.66450 2.02687 2.96114
# Velocity P-wave (km/s) = 5.73617 5.43355 5.58691
#
# Compressibility (1/GPa) = 0.03485372
#
# Stress axis : x y z
#
# Youngs Moduli (GPa) = 22.34638 88.90188 55.77501
#
# Poissons Ratio (x) = 0.64027 0.43111
# Poissons Ratio (y) = 0.16094 0.25687
# Poissons Ratio (z) = 0.17273 0.40943
#
# Static dielectric constant tensor:
#      x y z
#    x 1.681350 0.000000 0.000000 
#    y 0.000000 1.722590 0.000000 
#    z 0.000000 0.000000 1.649000 
# 
# From -- ./inp_files/21519.got.cif
#   From: 2010.05.17/outbox.cif.g08.bks.cpg/sg58_11_cif.got.tgz:21519.got - 2010.06.03 14:20:14.
