data_PCOD9443558
_publ_section_title
;
Structure prediction by ZEFSAII (Michael W. Deem and Ramdas Pophale) SiO2 
 PCOD9443558
Probable space group: P N N M
;
_chemical_formula_sum "Si O2"
_cell_formula_units_Z 48
_cell_length_a 11.783337
_cell_length_b 12.330828
_cell_length_c 15.290767
_cell_angle_alpha 90.000000
_cell_angle_beta 90.000000
_cell_angle_gamma 90.000000
_cell_volume 2221.722479
_symmetry_space_group_name_H-M "P N N M"
_symmetry_group_IT_number 58
_symmetry_cell_setting 'orthorhombic'
loop_
_space_group_symop_operation_xyz
x,y,z
-x,-y,z
1/2+x,1/2-y,1/2-z
1/2-x,1/2+y,1/2-z
-x,-y,-z
x,y,-z
1/2-x,1/2+y,1/2+z
1/2+x,1/2-y,1/2+z
loop_
_atom_site_type_symbol
_atom_site_label
_atom_site_fract_x
_atom_site_fract_y
_atom_site_fract_z
Si Si1 0.507746 0.124307 0.104676
Si Si2 0.252046 0.350371 0.345424
Si Si3 0.112390 0.049265 0.099334
Si Si4 0.087060 0.652417 0.893971
Si Si5 0.278219 0.219282 0.099895
Si Si6 0.834369 0.582065 0.843441
O O1 0.626554 0.181145 0.123710
O O2 0.398933 0.188896 0.139523
O O3 0.500000 0.000000 0.139073
O O4 0.501706 0.117410 0.000000
O O5 0.297625 0.451975 0.401114
O O6 0.343509 0.254855 0.356359
O O7 0.224329 0.398165 0.249960
O O8 0.175822 0.150617 0.142525
O O9 0.077531 0.081448 0.000000
O O10 0.000000 0.000000 0.142894
O O11 0.154279 0.541883 0.871672
O O12 0.961701 0.632505 0.853208
O O13 0.075354 0.663375 0.000000
O O14 0.246016 0.343533 0.097770
O O15 0.281415 0.178690 0.000000
#
# Coordination Sequence:
#
# PCOD9443558 Si02
#       6
#     8   8   8   8   8   8
#     4  10  20  36  62  91 128 172 214 266 340 421
#     4  12  25  38  68  98 139 166 228 287 345 390
#     4  10  20  36  62  94 129 170 220 275 338 411
#     4  11  25  49  73  97 136 191 236 276 345 431
#     4  10  20  37  62  88 124 168 217 268 330 408
#     4  11  26  41  70  98 134 174 232 288 337 399
#
# _framework density 21.604858
#
# number of rings (size 3 to 8) (size 9 to 14) (size 15 to 20)
#    0.000    1.333    1.667    4.500    7.000    1.333 
#    0.000    0.833    0.000    3.000    0.000    0.000 
#    0.000    0.000    0.000    0.000    0.000    0.000 
#
# Total GULP energy -267858.101518 kJ/mol
# GULP energy per Si atom -5580.377115 kJ/mol
# Density = 2.155568 g / cm^3
# Si number density = 21.604858 Si / 1000 Ang^3
#
#
#
# Elastic Constant Matrix: (Units=GPa)
#
#
# Indices 1 2 3 4 5 6 
#
# 1 54.2120 10.3717 4.6732 0.0000 0.0000 0.0000
# 2 10.3717 101.3027 7.2275 0.0000 0.0000 0.0000
# 3 4.6732 7.2275 75.0029 0.0000 0.0000 0.0000
# 4 0.0000 0.0000 0.0000 5.4430 0.0000 0.0000
# 5 0.0000 0.0000 0.0000 0.0000 22.9146 0.0000
# 6 0.0000 0.0000 0.0000 0.0000 0.0000 37.4276
#
#
#
# Elastic Compliance Matrix: (Units=1/GPa)
#
#
# Indices 1 2 3 4 5 6 
#
# 1 0.018888 -0.001863 -0.000997 0.000000 0.000000 0.000000
# 2 -0.001863 0.010123 -0.000859 0.000000 0.000000 0.000000
# 3 -0.000997 -0.000859 0.013478 0.000000 0.000000 0.000000
# 4 0.000000 0.000000 0.000000 0.183721 0.000000 0.000000
# 5 0.000000 0.000000 0.000000 0.000000 0.043640 0.000000
# 6 0.000000 0.000000 0.000000 0.000000 0.000000 0.026718
#
#
# Mechanical properties :
#
#
# Convention : Reuss Voigt Hill
#
# Bulk Modulus (GPa) = 28.53023 30.56249 29.54636
# Shear Modulus (GPa) = 15.83823 27.04008 21.43915
#
# Velocity S-wave (km/s) = 2.71049 3.54160 3.15354
# Velocity P-wave (km/s) = 4.79894 5.55884 5.19281
#
# Compressibility (1/GPa) = 0.03505054
#
# Stress axis : x y z
#
# Youngs Moduli (GPa) = 52.94245 98.78067 74.19620
#
# Poissons Ratio (x) = 0.18400 0.07400
# Poissons Ratio (y) = 0.09862 0.06377
# Poissons Ratio (z) = 0.05280 0.08490
#
# Static dielectric constant tensor:
#      x y z
#    x 1.823540 0.000000 0.000000 
#    y 0.000000 1.771600 0.000000 
#    z 0.000000 0.000000 1.945230 
# 
# From -- ./inp_files/26138.got.cif
#   From: 2010.05.17/outbox.cif.g08.bks.cpg/sg58_14_cif.got.tgz:26138.got - 2010.06.03 14:20:14.
