data_PCOD9443471
_publ_section_title
;
Structure prediction by ZEFSAII (Michael W. Deem and Ramdas Pophale) SiO2 
 PCOD9443471
Probable space group: P N N M
;
_chemical_formula_sum "Si O2"
_cell_formula_units_Z 40
_cell_length_a 19.220726
_cell_length_b 10.859423
_cell_length_c 7.792729
_cell_angle_alpha 90.000000
_cell_angle_beta 90.000000
_cell_angle_gamma 90.000000
_cell_volume 1626.545107
_symmetry_space_group_name_H-M "P N N M"
_symmetry_group_IT_number 58
_symmetry_cell_setting 'orthorhombic'
loop_
_space_group_symop_operation_xyz
x,y,z
-x,-y,z
1/2+x,1/2-y,1/2-z
1/2-x,1/2+y,1/2-z
-x,-y,-z
x,y,-z
1/2-x,1/2+y,1/2+z
1/2+x,1/2-y,1/2+z
loop_
_atom_site_type_symbol
_atom_site_label
_atom_site_fract_x
_atom_site_fract_y
_atom_site_fract_z
Si Si1 0.541215 0.120203 0.707740
Si Si2 0.320267 0.773274 0.803921
Si Si3 0.166444 0.009788 0.209403
Si Si4 0.422614 0.283147 0.302579
Si Si5 0.802811 0.376942 0.695167
O O1 0.539734 0.122251 0.500000
O O2 0.621317 0.128014 0.760142
O O3 0.494440 0.234457 0.772771
O O4 0.500000 0.000000 0.766830
O O5 0.359608 0.641537 0.775807
O O6 0.250553 0.740884 0.700007
O O7 0.297814 0.787207 0.000000
O O8 0.119204 0.898498 0.273064
O O9 0.249041 0.017210 0.257692
O O10 0.166605 0.010104 0.000000
O O11 0.436483 0.316661 0.500000
O O12 0.369166 0.167509 0.298885
O O13 0.823412 0.400489 0.500000
#
# Coordination Sequence:
#
# PCOD9443471 Si02
#       5
#     8   8   8   8   8
#     4  10  22  39  58  84 117 155 193 235 293 350
#     4  10  20  37  59  82 111 150 192 234 284 339
#     4   8  18  36  56  81 110 146 186 230 287 339
#     4  10  20  36  59  86 115 148 192 237 285 348
#     4   9  19  36  56  81 113 148 186 233 287 339
#
# _framework density 24.592002000000001
#
# number of rings (size 3 to 8) (size 9 to 14) (size 15 to 20)
#    1.200    1.400    0.000    1.800    0.000    4.400 
#    0.000    8.000    0.000    0.000    0.000    0.000 
#    0.000    0.000    0.000    0.000    0.000    0.000 
#
# Total GULP energy -223046.485747 kJ/mol
# GULP energy per Si atom -5576.162144 kJ/mol
# Density = 2.453603 g / cm^3
# Si number density = 24.592002 Si / 1000 Ang^3
#
#
#
# Elastic Constant Matrix: (Units=GPa)
#
#
# Indices 1 2 3 4 5 6 
#
# 1 113.7870 7.5137 1.3549 0.0000 0.0000 0.0000
# 2 7.5137 52.2304 -1.8301 0.0000 0.0000 0.0000
# 3 1.3549 -1.8301 39.8788 0.0000 0.0000 0.0000
# 4 0.0000 0.0000 0.0000 27.1961 0.0000 0.0000
# 5 0.0000 0.0000 0.0000 0.0000 17.8604 0.0000
# 6 0.0000 0.0000 0.0000 0.0000 0.0000 42.2262
#
#
#
# Elastic Compliance Matrix: (Units=1/GPa)
#
#
# Indices 1 2 3 4 5 6 
#
# 1 0.008878 -0.001290 -0.000361 0.000000 0.000000 0.000000
# 2 -0.001290 0.019364 0.000932 0.000000 0.000000 0.000000
# 3 -0.000361 0.000932 0.025131 0.000000 0.000000 0.000000
# 4 0.000000 0.000000 0.000000 0.036770 0.000000 0.000000
# 5 0.000000 0.000000 0.000000 0.000000 0.055990 0.000000
# 6 0.000000 0.000000 0.000000 0.000000 0.000000 0.023682
#
#
# Mechanical properties :
#
#
# Convention : Reuss Voigt Hill
#
# Bulk Modulus (GPa) = 19.25418 24.44146 21.84782
# Shear Modulus (GPa) = 26.51631 30.71373 28.61502
#
# Velocity S-wave (km/s) = 3.28723 3.53786 3.41484
# Velocity P-wave (km/s) = 4.71745 5.16226 4.94486
#
# Compressibility (1/GPa) = 0.05193679
#
# Stress axis : x y z
#
# Youngs Moduli (GPa) = 112.64036 51.64180 39.79142
#
# Poissons Ratio (x) = 0.06661 0.01436
# Poissons Ratio (y) = 0.14528 -0.03710
# Poissons Ratio (z) = 0.04064 -0.04815
#
# Static dielectric constant tensor:
#      x y z
#    x 1.933420 0.000000 0.000000 
#    y 0.000000 2.127780 0.000000 
#    z 0.000000 0.000000 1.858930 
# 
# From -- ./inp_files/8790.got.cif
#   From: 2010.05.17/outbox.cif.g08.bks.cpg/sg58_5_cif.got.tgz:8790.got - 2010.06.03 14:20:14.
