data_PCOD9443244
_publ_section_title
;
Structure prediction by ZEFSAII (Michael W. Deem and Ramdas Pophale) SiO2 
 PCOD9443244
Probable space group: P N N M
;
_chemical_formula_sum "Si O2"
_cell_formula_units_Z 64
_cell_length_a 16.507310
_cell_length_b 23.100076
_cell_length_c 8.701118
_cell_angle_alpha 90.000000
_cell_angle_beta 90.000000
_cell_angle_gamma 90.000000
_cell_volume 3317.911321
_symmetry_space_group_name_H-M "P N N M"
_symmetry_group_IT_number 58
_symmetry_cell_setting 'orthorhombic'
loop_
_space_group_symop_operation_xyz
x,y,z
-x,-y,z
1/2+x,1/2-y,1/2-z
1/2-x,1/2+y,1/2-z
-x,-y,-z
x,y,-z
1/2-x,1/2+y,1/2+z
1/2+x,1/2-y,1/2+z
loop_
_atom_site_type_symbol
_atom_site_label
_atom_site_fract_x
_atom_site_fract_y
_atom_site_fract_z
Si Si1 0.603109 0.355273 0.321496
Si Si2 0.194454 0.835418 0.827230
Si Si3 0.745880 0.051844 0.680989
Si Si4 0.797789 0.748598 0.824593
Si Si5 0.458281 0.291060 0.823515
Si Si6 0.907453 0.980877 0.313945
Si Si7 0.431245 0.954082 0.185055
Si Si8 0.551145 0.180767 0.815207
O O1 0.575330 0.351202 0.500000
O O2 0.683205 0.316268 0.313325
O O3 0.542607 0.323202 0.205424
O O4 0.609909 0.420477 0.268398
O O5 0.239523 0.880970 0.719668
O O6 0.232360 0.773048 0.794768
O O7 0.102283 0.826239 0.783154
O O8 0.206556 0.854928 0.000000
O O9 0.737919 0.042821 0.500000
O O10 0.660363 0.033765 0.756582
O O11 0.831506 0.022171 0.729506
O O12 0.877889 0.711669 0.781228
O O13 0.773860 0.735957 0.000000
O O14 0.473974 0.223100 0.790094
O O15 0.432162 0.296810 0.000000
O O16 0.906453 0.975121 0.500000
O O17 0.000000 0.000000 0.273582
O O18 0.454085 0.887091 0.224996
O O19 0.500000 0.000000 0.237950
O O20 0.429087 0.956840 0.000000
O O21 0.569250 0.184541 0.000000
#
# Coordination Sequence:
#
# PCOD9443244 Si02
#       8
#     8   8   8   8   8   8   8   8
#     4  10  21  37  58  85 115 150 193 237 290 350
#     4  12  23  36  57  86 117 150 196 245 295 356
#     4  11  23  39  62  91 121 159 208 258 307 361
#     4  10  20  35  57  83 113 148 186 235 293 351
#     4  10  20  35  57  84 117 153 192 238 294 360
#     4  10  22  40  61  86 122 166 205 244 301 368
#     4  10  21  39  62  87 118 159 206 255 308 366
#     4   9  18  35  58  83 111 150 193 236 295 358
#
# _framework density 19.289244
#
# number of rings (size 3 to 8) (size 9 to 14) (size 15 to 20)
#    0.000    1.750    1.250    3.375    0.000    4.500 
#    2.250    0.000    0.000    0.000    0.000    0.000 
#    0.000    0.000    0.000    0.000    0.000    0.000 
#
# Total GULP energy -356743.296351 kJ/mol
# GULP energy per Si atom -5574.114005 kJ/mol
# Density = 1.924534 g / cm^3
# Si number density = 19.289244 Si / 1000 Ang^3
#
#
#
# Elastic Constant Matrix: (Units=GPa)
#
#
# Indices 1 2 3 4 5 6 
#
# 1 77.0766 29.4397 9.7824 0.0000 0.0000 0.0000
# 2 29.4397 98.9003 19.5125 0.0000 0.0000 0.0000
# 3 9.7824 19.5125 12.5195 0.0000 0.0000 0.0000
# 4 0.0000 0.0000 0.0000 51.0354 0.0000 0.0000
# 5 0.0000 0.0000 0.0000 0.0000 28.4410 0.0000
# 6 0.0000 0.0000 0.0000 0.0000 0.0000 18.6773
#
#
#
# Elastic Compliance Matrix: (Units=1/GPa)
#
#
# Indices 1 2 3 4 5 6 
#
# 1 0.015039 -0.003117 -0.006894 0.000000 0.000000 0.000000
# 2 -0.003117 0.015247 -0.021328 0.000000 0.000000 0.000000
# 3 -0.006894 -0.021328 0.118503 0.000000 0.000000 0.000000
# 4 0.000000 0.000000 0.000000 0.019594 0.000000 0.000000
# 5 0.000000 0.000000 0.000000 0.000000 0.035160 0.000000
# 6 0.000000 0.000000 0.000000 0.000000 0.000000 0.053541
#
#
# Mechanical properties :
#
#
# Convention : Reuss Voigt Hill
#
# Bulk Modulus (GPa) = 11.61276 33.99618 22.80447
# Shear Modulus (GPa) = 14.34862 28.28154 21.31508
#
# Velocity S-wave (km/s) = 2.73035 3.83323 3.32780
# Velocity P-wave (km/s) = 3.99664 6.10362 5.15885
#
# Compressibility (1/GPa) = 0.08611216
#
# Stress axis : x y z
#
# Youngs Moduli (GPa) = 66.49166 65.58741 8.43863
#
# Poissons Ratio (x) = 0.20442 0.05817
# Poissons Ratio (y) = 0.20723 0.17998
# Poissons Ratio (z) = 0.45838 1.39884
#
# Static dielectric constant tensor:
#      x y z
#    x 1.728540 0.000000 0.000000 
#    y 0.000000 1.695860 0.000000 
#    z 0.000000 0.000000 1.651180 
# 
# From -- ./inp_files/6860.got.cif
#   From: 2010.05.17/outbox.cif.g08.bks.cpg/sg58_4_cif.got.tgz:6860.got - 2010.06.03 14:20:14.
