data_PCOD9443100
_publ_section_title
;
Structure prediction by ZEFSAII (Michael W. Deem and Ramdas Pophale) SiO2 
 PCOD9443100
Probable space group: P N N M
;
_chemical_formula_sum "Si O2"
_cell_formula_units_Z 40
_cell_length_a 26.060793
_cell_length_b 10.222188
_cell_length_c 7.623296
_cell_angle_alpha 90.000000
_cell_angle_beta 90.000000
_cell_angle_gamma 90.000000
_cell_volume 2030.833289
_symmetry_space_group_name_H-M "P N N M"
_symmetry_group_IT_number 58
_symmetry_cell_setting 'orthorhombic'
loop_
_space_group_symop_operation_xyz
x,y,z
-x,-y,z
1/2+x,1/2-y,1/2-z
1/2-x,1/2+y,1/2-z
-x,-y,-z
x,y,-z
1/2-x,1/2+y,1/2+z
1/2+x,1/2-y,1/2+z
loop_
_atom_site_type_symbol
_atom_site_label
_atom_site_fract_x
_atom_site_fract_y
_atom_site_fract_z
Si Si1 0.546501 0.600444 0.500000
Si Si2 0.628583 0.542456 0.203586
Si Si3 0.287155 0.259196 0.799527
Si Si4 0.828534 0.764667 0.213635
Si Si5 0.547353 0.902000 0.500000
Si Si6 0.355872 0.022562 0.698893
O O1 0.500000 0.500000 0.500000
O O2 0.581514 0.575286 0.329311
O O3 0.530339 0.752132 0.500000
O O4 0.677404 0.625604 0.275071
O O5 0.642372 0.390133 0.213979
O O6 0.619483 0.579573 0.000000
O O7 0.230758 0.235960 0.724906
O O8 0.321455 0.128676 0.795011
O O9 0.277483 0.298591 0.000000
O O10 0.852406 0.624901 0.265540
O O11 0.830929 0.776078 0.000000
O O12 0.585921 0.929867 0.664282
O O13 0.500000 0.000000 0.500000
O O14 0.333543 0.019022 0.500000
#
# Coordination Sequence:
#
# PCOD9443100 Si02
#       6
#     4   8   8   8   4   8
#     4  12  26  44  74  92 124 170 212 278 333 370
#     4  11  23  42  63  94 132 165 211 268 316 381
#     4  10  20  35  56  88 128 168 209 248 312 373
#     4  10  20  34  58  91 128 173 206 248 302 384
#     4  10  22  40  68  92 110 166 216 262 329 378
#     4   9  19  36  58  82 121 154 205 261 304 368
#
# _framework density 19.696349000000001
#
# number of rings (size 3 to 8) (size 9 to 14) (size 15 to 20)
#    0.600    1.200    3.000    1.200    2.800    3.600 
#    0.000    0.000    0.000    1.200    0.000    0.000 
#    0.000    0.000    0.000    0.000    0.000    0.000 
#
# Total GULP energy -223114.817682 kJ/mol
# GULP energy per Si atom -5577.870442 kJ/mol
# Density = 1.965152 g / cm^3
# Si number density = 19.696349 Si / 1000 Ang^3
#
#
#
# Elastic Constant Matrix: (Units=GPa)
#
#
# Indices 1 2 3 4 5 6 
#
# 1 88.7109 49.7336 18.9828 0.0000 0.0000 0.0000
# 2 49.7336 163.1641 5.5018 0.0000 0.0000 0.0000
# 3 18.9828 5.5018 65.4059 0.0000 0.0000 0.0000
# 4 0.0000 0.0000 0.0000 13.6900 0.0000 0.0000
# 5 0.0000 0.0000 0.0000 0.0000 17.1253 0.0000
# 6 0.0000 0.0000 0.0000 0.0000 0.0000 43.0117
#
#
#
# Elastic Compliance Matrix: (Units=1/GPa)
#
#
# Indices 1 2 3 4 5 6 
#
# 1 0.014501 -0.004290 -0.003848 0.000000 0.000000 0.000000
# 2 -0.004290 0.007416 0.000621 0.000000 0.000000 0.000000
# 3 -0.003848 0.000621 0.016354 0.000000 0.000000 0.000000
# 4 0.000000 0.000000 0.000000 0.073046 0.000000 0.000000
# 5 0.000000 0.000000 0.000000 0.000000 0.058393 0.000000
# 6 0.000000 0.000000 0.000000 0.000000 0.000000 0.023250
#
#
# Mechanical properties :
#
#
# Convention : Reuss Voigt Hill
#
# Bulk Modulus (GPa) = 43.03492 51.74637 47.39064
# Shear Modulus (GPa) = 23.17621 30.96956 27.07289
#
# Velocity S-wave (km/s) = 3.43399 3.96959 3.71146
# Velocity P-wave (km/s) = 6.13349 6.88035 6.51763
#
# Compressibility (1/GPa) = 0.02323694
#
# Stress axis : x y z
#
# Youngs Moduli (GPa) = 68.95972 134.85133 61.14852
#
# Poissons Ratio (x) = 0.57856 0.23529
# Poissons Ratio (y) = 0.29586 -0.03800
# Poissons Ratio (z) = 0.26534 -0.08380
#
# Static dielectric constant tensor:
#      x y z
#    x 1.864510 0.000000 0.000000 
#    y 0.000000 1.687520 0.000000 
#    z 0.000000 0.000000 1.750650 
# 
# From -- ./inp_files/10289.got.cif
#   From: 2010.05.17/outbox.cif.g08.bks.cpg/sg58_6_cif.got.tgz:10289.got - 2010.06.03 14:20:14.
