data_PCOD9443618
_publ_section_title
;
Structure prediction by ZEFSAII (Michael W. Deem and Ramdas Pophale) SiO2 
 PCOD9443618
Probable space group: P N N M
;
_chemical_formula_sum "Si O2"
_cell_formula_units_Z 48
_cell_length_a 15.137433
_cell_length_b 10.080091
_cell_length_c 15.796223
_cell_angle_alpha 90.000000
_cell_angle_beta 90.000000
_cell_angle_gamma 90.000000
_cell_volume 2410.293574
_symmetry_space_group_name_H-M "P N N M"
_symmetry_group_IT_number 58
_symmetry_cell_setting 'orthorhombic'
loop_
_space_group_symop_operation_xyz
x,y,z
-x,-y,z
1/2+x,1/2-y,1/2-z
1/2-x,1/2+y,1/2-z
-x,-y,-z
x,y,-z
1/2-x,1/2+y,1/2+z
1/2+x,1/2-y,1/2+z
loop_
_atom_site_type_symbol
_atom_site_label
_atom_site_fract_x
_atom_site_fract_y
_atom_site_fract_z
Si Si1 0.545583 0.857015 0.000000
Si Si2 0.921897 0.891400 0.500000
Si Si3 0.561184 0.223705 0.500000
Si Si4 0.342962 0.040913 0.312569
Si Si5 0.359314 0.741405 0.325241
Si Si6 0.143138 0.735701 0.668383
Si Si7 0.117765 0.589388 0.000000
Si Si8 0.360626 0.536054 0.816515
O O1 0.604934 0.826537 0.082549
O O2 0.500000 0.000000 0.000000
O O3 0.466853 0.750752 0.000000
O O4 0.869663 0.912844 0.587325
O O5 0.000000 0.000000 0.500000
O O6 0.598756 0.290613 0.416030
O O7 0.457136 0.201636 0.500000
O O8 0.590758 0.067599 0.500000
O O9 0.382978 0.144418 0.247370
O O10 0.339906 0.097842 0.407680
O O11 0.241074 0.021275 0.289554
O O12 0.385290 0.895138 0.308125
O O13 0.251400 0.740065 0.334625
O O14 0.392930 0.643496 0.251771
O O15 0.105692 0.884692 0.680855
#
# Coordination Sequence:
#
# PCOD9443618 Si02
#       8
#     4   4   4   8   8   8   4   8
#     4  12  27  40  56  86 119 155 191 247 305 353
#     4  12  23  40  58  82 115 157 195 231 296 363
#     4   9  17  32  52  85 111 143 183 227 275 326
#     4   9  19  35  59  84 112 151 193 238 278 335
#     4   9  19  35  62  84 110 153 195 233 278 339
#     4  10  20  39  57  83 115 149 192 236 287 340
#     4   9  17  32  52  81 113 142 184 227 277 325
#     4  10  20  37  59  82 111 151 195 234 283 346
#
# _framework density 19.914587999999998
#
# number of rings (size 3 to 8) (size 9 to 14) (size 15 to 20)
#    0.000    2.167    1.667    1.000    2.333    4.000 
#    3.000    0.833    0.000    1.000    0.000    0.000 
#    0.000    0.000    0.000    0.000    0.000    0.000 
#
# Total GULP energy -267506.116530 kJ/mol
# GULP energy per Si atom -5573.044094 kJ/mol
# Density = 1.986926 g / cm^3
# Si number density = 19.914588 Si / 1000 Ang^3
#
#
#
# Elastic Constant Matrix: (Units=GPa)
#
#
# Indices 1 2 3 4 5 6 
#
# 1 31.9331 27.3043 15.8222 0.0000 0.0000 0.0000
# 2 27.3043 137.2083 95.2963 0.0000 0.0000 0.0000
# 3 15.8222 95.2963 178.1168 0.0000 0.0000 0.0000
# 4 0.0000 0.0000 0.0000 31.4695 0.0000 0.0000
# 5 0.0000 0.0000 0.0000 0.0000 66.8492 0.0000
# 6 0.0000 0.0000 0.0000 0.0000 0.0000 21.2374
#
#
#
# Elastic Compliance Matrix: (Units=1/GPa)
#
#
# Indices 1 2 3 4 5 6 
#
# 1 0.037862 -0.008273 0.001063 0.000000 0.000000 0.000000
# 2 -0.008273 0.013405 -0.006437 0.000000 0.000000 0.000000
# 3 0.001063 -0.006437 0.008964 0.000000 0.000000 0.000000
# 4 0.000000 0.000000 0.000000 0.031777 0.000000 0.000000
# 5 0.000000 0.000000 0.000000 0.000000 0.014959 0.000000
# 6 0.000000 0.000000 0.000000 0.000000 0.000000 0.047087
#
#
# Mechanical properties :
#
#
# Convention : Reuss Voigt Hill
#
# Bulk Modulus (GPa) = 30.36074 69.34485 49.85279
# Shear Modulus (GPa) = 25.99727 37.83358 31.91542
#
# Velocity S-wave (km/s) = 3.61700 4.36339 4.00761
# Velocity P-wave (km/s) = 5.72033 7.76417 6.81926
#
# Compressibility (1/GPa) = 0.03293727
#
# Stress axis : x y z
#
# Youngs Moduli (GPa) = 26.41142 74.59685 111.55749
#
# Poissons Ratio (x) = 0.61712 -0.11855
# Poissons Ratio (y) = 0.21849 0.71813
# Poissons Ratio (z) = -0.02807 0.48020
#
# Static dielectric constant tensor:
#      x y z
#    x 1.752940 0.000000 0.000000 
#    y 0.000000 1.768550 0.000000 
#    z 0.000000 0.000000 1.684140 
# 
# From -- ./inp_files/22809.got.cif
#   From: 2010.05.17/outbox.cif.g08.bks.cpg/sg58_12_cif.got.tgz:22809.got - 2010.06.03 14:20:14.
