data_PCOD9443527
_publ_section_title
;
Structure prediction by ZEFSAII (Michael W. Deem and Ramdas Pophale) SiO2 
 PCOD9443527
Probable space group: P N N M
;
_chemical_formula_sum "Si O2"
_cell_formula_units_Z 58
_cell_length_a 26.701931
_cell_length_b 8.891170
_cell_length_c 12.470014
_cell_angle_alpha 90.000000
_cell_angle_beta 90.000000
_cell_angle_gamma 90.000000
_cell_volume 2960.523580
_symmetry_space_group_name_H-M "P N N M"
_symmetry_group_IT_number 58
_symmetry_cell_setting 'orthorhombic'
loop_
_space_group_symop_operation_xyz
x,y,z
-x,-y,z
1/2+x,1/2-y,1/2-z
1/2-x,1/2+y,1/2-z
-x,-y,-z
x,y,-z
1/2-x,1/2+y,1/2+z
1/2+x,1/2-y,1/2+z
loop_
_atom_site_type_symbol
_atom_site_label
_atom_site_fract_x
_atom_site_fract_y
_atom_site_fract_z
Si Si1 0.311320 0.316578 0.755000
Si Si2 0.947535 0.870028 0.208644
Si Si3 0.000000 0.000000 0.000000
Si Si4 0.256290 0.574579 0.627064
Si Si5 0.468397 0.141151 0.788858
Si Si6 0.353544 0.784111 0.377676
Si Si7 0.380697 0.110400 0.375607
Si Si8 0.093151 0.900748 0.621464
O O1 0.272025 0.427986 0.696808
O O2 0.286233 0.175949 0.816620
O O3 0.349063 0.251625 0.665067
O O4 0.349446 0.396358 0.837712
O O5 0.896203 0.778891 0.198011
O O6 0.991238 0.755706 0.239874
O O7 0.937975 0.993089 0.299514
O O8 0.960987 0.946810 0.095902
O O9 0.245999 0.541524 0.500000
O O10 0.304443 0.684473 0.630455
O O11 0.431023 0.091936 0.693252
O O12 0.432242 0.235642 0.867169
O O13 0.500000 0.000000 0.832309
O O14 0.372169 0.772541 0.500000
O O15 0.347225 0.961399 0.359507
O O16 0.393596 0.127343 0.500000
O O17 0.090248 0.952678 0.500000
#
# Coordination Sequence:
#
# PCOD9443527 Si02
#       8
#     8   8   2   8   8   8   8   8
#     4  11  23  42  68  93 128 163 214 260 325 387
#     4  12  22  38  62  92 127 170 211 263 309 378
#     4  12  24  36  64 100 128 168 222 254 320 380
#     4  11  23  41  68  96 128 164 211 270 326 389
#     4  11  23  37  61  92 127 164 214 262 315 365
#     4  10  20  36  60  90 128 166 203 256 321 373
#     4  10  22  37  61  93 132 167 206 259 320 383
#     4  11  25  45  64  89 126 174 218 260 312 384
#
# _framework density 19.591128000000001
#
# number of rings (size 3 to 8) (size 9 to 14) (size 15 to 20)
#    0.000    1.103    4.828    1.655    0.966    1.655 
#    0.000    2.069    0.000    0.000    0.000    0.000 
#    0.000    0.000    0.000    0.000    0.000    0.000 
#
# Total GULP energy -323228.833753 kJ/mol
# GULP energy per Si atom -5572.910927 kJ/mol
# Density = 1.954654 g / cm^3
# Si number density = 19.591128 Si / 1000 Ang^3
#
#
#
# Elastic Constant Matrix: (Units=GPa)
#
#
# Indices 1 2 3 4 5 6 
#
# 1 47.5120 10.2894 14.4419 0.0000 0.0000 0.0000
# 2 10.2894 67.5809 34.8458 0.0000 0.0000 0.0000
# 3 14.4419 34.8458 105.3264 0.0000 0.0000 0.0000
# 4 0.0000 0.0000 0.0000 15.0268 0.0000 0.0000
# 5 0.0000 0.0000 0.0000 0.0000 13.1204 0.0000
# 6 0.0000 0.0000 0.0000 0.0000 0.0000 49.3404
#
#
#
# Elastic Compliance Matrix: (Units=1/GPa)
#
#
# Indices 1 2 3 4 5 6 
#
# 1 0.022227 -0.002186 -0.002325 0.000000 0.000000 0.000000
# 2 -0.002186 0.018055 -0.005674 0.000000 0.000000 0.000000
# 3 -0.002325 -0.005674 0.011690 0.000000 0.000000 0.000000
# 4 0.000000 0.000000 0.000000 0.066548 0.000000 0.000000
# 5 0.000000 0.000000 0.000000 0.000000 0.076217 0.000000
# 6 0.000000 0.000000 0.000000 0.000000 0.000000 0.020267
#
#
# Mechanical properties :
#
#
# Convention : Reuss Voigt Hill
#
# Bulk Modulus (GPa) = 31.64066 37.73038 34.68552
# Shear Modulus (GPa) = 20.33287 26.22035 23.27661
#
# Velocity S-wave (km/s) = 3.22508 3.66235 3.45065
# Velocity P-wave (km/s) = 5.48213 6.09791 5.79820
#
# Compressibility (1/GPa) = 0.03160490
#
# Stress axis : x y z
#
# Youngs Moduli (GPa) = 44.98987 55.38549 85.54251
#
# Poissons Ratio (x) = 0.12105 0.19886
# Poissons Ratio (y) = 0.09833 0.48534
# Poissons Ratio (z) = 0.10459 0.31424
#
# Static dielectric constant tensor:
#      x y z
#    x 1.690670 0.000000 0.000000 
#    y 0.000000 1.732880 0.000000 
#    z 0.000000 0.000000 1.667340 
# 
# From -- ./inp_files/17763.got.cif
#   From: 2010.05.17/outbox.cif.g08.bks.cpg/sg58_9_cif.got.tgz:17763.got - 2010.06.03 14:20:14.
