data_PCOD9443865
_publ_section_title
;
Structure prediction by ZEFSAII (Michael W. Deem and Ramdas Pophale) SiO2 
 PCOD9443865
Probable space group: P N N M
;
_chemical_formula_sum "Si O2"
_cell_formula_units_Z 48
_cell_length_a 21.206145
_cell_length_b 15.236718
_cell_length_c 7.533019
_cell_angle_alpha 90.000000
_cell_angle_beta 90.000000
_cell_angle_gamma 90.000000
_cell_volume 2434.009221
_symmetry_space_group_name_H-M "P N N M"
_symmetry_group_IT_number 58
_symmetry_cell_setting 'orthorhombic'
loop_
_space_group_symop_operation_xyz
x,y,z
-x,-y,z
1/2+x,1/2-y,1/2-z
1/2-x,1/2+y,1/2-z
-x,-y,-z
x,y,-z
1/2-x,1/2+y,1/2+z
1/2+x,1/2-y,1/2+z
loop_
_atom_site_type_symbol
_atom_site_label
_atom_site_fract_x
_atom_site_fract_y
_atom_site_fract_z
Si Si1 0.301456 0.919852 0.202786
Si Si2 0.807538 0.948011 0.786163
Si Si3 0.400813 0.261880 0.214933
Si Si4 0.435712 0.459148 0.791200
Si Si5 0.403411 0.951067 0.500000
Si Si6 0.034226 0.642549 0.000000
Si Si7 0.753992 0.265929 0.285299
O O1 0.360065 0.936552 0.328806
O O2 0.280494 0.819175 0.211046
O O3 0.241891 0.976943 0.268542
O O4 0.315129 0.945830 0.000000
O O5 0.780147 0.854877 0.725627
O O6 0.877279 0.974762 0.728780
O O7 0.808342 0.946830 0.000000
O O8 0.415343 0.362338 0.272487
O O9 0.445267 0.197821 0.327159
O O10 0.328155 0.238237 0.258867
O O11 0.408224 0.253784 0.000000
O O12 0.500000 0.500000 0.714287
O O13 0.446843 0.446020 0.000000
O O14 0.460969 0.882815 0.500000
O O15 0.429566 0.049746 0.500000
O O16 0.750013 0.261516 0.500000
#
# Coordination Sequence:
#
# PCOD9443865 Si02
#       7
#     8   8   8   8   4   4   8
#     4  11  23  41  66  95 129 167 214 272 331 386
#     4  10  22  37  60  95 125 161 216 268 324 390
#     4  10  22  42  66  94 131 174 217 269 326 394
#     4  10  22  39  60  90 130 172 215 263 328 396
#     4  11  26  46  64  98 129 168 218 280 323 382
#     4  11  26  44  69  92 128 174 227 258 329 414
#     4  10  20  38  63  94 130 167 214 271 324 381
#
# _framework density 19.720549999999999
#
# number of rings (size 3 to 8) (size 9 to 14) (size 15 to 20)
#    0.000    1.667    2.500    1.000    3.500    5.000 
#    0.000    3.333    0.000    0.000    0.000    0.000 
#    0.000    0.000    0.000    0.000    0.000    0.000 
#
# Total GULP energy -268240.514374 kJ/mol
# GULP energy per Si atom -5588.344049 kJ/mol
# Density = 1.967566 g / cm^3
# Si number density = 19.720550 Si / 1000 Ang^3
#
#
#
# Elastic Constant Matrix: (Units=GPa)
#
#
# Indices 1 2 3 4 5 6 
#
# 1 166.7441 68.0248 35.8173 0.0000 0.0000 0.0000
# 2 68.0248 129.4108 10.3312 0.0000 0.0000 0.0000
# 3 35.8173 10.3312 67.5643 0.0000 0.0000 0.0000
# 4 0.0000 0.0000 0.0000 0.6868 0.0000 0.0000
# 5 0.0000 0.0000 0.0000 0.0000 8.2742 0.0000
# 6 0.0000 0.0000 0.0000 0.0000 0.0000 17.2198
#
#
#
# Elastic Compliance Matrix: (Units=1/GPa)
#
#
# Indices 1 2 3 4 5 6 
#
# 1 0.008536 -0.004177 -0.003886 0.000000 0.000000 0.000000
# 2 -0.004177 0.009866 0.000705 0.000000 0.000000 0.000000
# 3 -0.003886 0.000705 0.016753 0.000000 0.000000 0.000000
# 4 0.000000 0.000000 0.000000 1.455952 0.000000 0.000000
# 5 0.000000 0.000000 0.000000 0.000000 0.120858 0.000000
# 6 0.000000 0.000000 0.000000 0.000000 0.000000 0.058073
#
#
# Mechanical properties :
#
#
# Convention : Reuss Voigt Hill
#
# Bulk Modulus (GPa) = 48.92299 65.78507 57.35403
# Shear Modulus (GPa) = 2.95584 21.87257 12.41420
#
# Velocity S-wave (km/s) = 1.22561 3.33397 2.51172
# Velocity P-wave (km/s) = 5.18313 6.94633 6.12847
#
# Compressibility (1/GPa) = 0.02044029
#
# Stress axis : x y z
#
# Youngs Moduli (GPa) = 117.15176 101.35343 59.69034
#
# Poissons Ratio (x) = 0.42332 0.23198
# Poissons Ratio (y) = 0.48930 -0.04211
# Poissons Ratio (z) = 0.45530 -0.07150
#
# Static dielectric constant tensor:
#      x y z
#    x 1.661100 0.000000 0.000000 
#    y 0.000000 1.677760 0.000000 
#    z 0.000000 0.000000 1.708720 
# 
# From -- ./inp_files/5935.got.cif
#   From: 2010.05.17/outbox.cif.g08.bks.cpg/sg58_3_cif.got.tgz:5935.got - 2010.06.03 14:20:14.
