data_PCOD9443577
_publ_section_title
;
Structure prediction by ZEFSAII (Michael W. Deem and Ramdas Pophale) SiO2 
 PCOD9443577
Probable space group: P N N M
;
_chemical_formula_sum "Si O2"
_cell_formula_units_Z 48
_cell_length_a 14.364565
_cell_length_b 8.832517
_cell_length_c 18.501281
_cell_angle_alpha 90.000000
_cell_angle_beta 90.000000
_cell_angle_gamma 90.000000
_cell_volume 2347.354922
_symmetry_space_group_name_H-M "P N N M"
_symmetry_group_IT_number 58
_symmetry_cell_setting 'orthorhombic'
loop_
_space_group_symop_operation_xyz
x,y,z
-x,-y,z
1/2+x,1/2-y,1/2-z
1/2-x,1/2+y,1/2-z
-x,-y,-z
x,y,-z
1/2-x,1/2+y,1/2+z
1/2+x,1/2-y,1/2+z
loop_
_atom_site_type_symbol
_atom_site_label
_atom_site_fract_x
_atom_site_fract_y
_atom_site_fract_z
Si Si1 0.700356 0.317629 0.667675
Si Si2 0.951259 0.663465 0.415411
Si Si3 0.070538 0.372671 0.917780
Si Si4 0.130908 0.838157 0.413145
Si Si5 0.267046 0.847207 0.817505
Si Si6 0.758732 0.401159 0.081091
O O1 0.604088 0.272273 0.627572
O O2 0.790987 0.271882 0.620125
O O3 0.707786 0.214930 0.739020
O O4 0.714483 0.493677 0.685371
O O5 0.930026 0.694755 0.500000
O O6 0.860082 0.649684 0.366631
O O7 0.000000 0.500000 0.413305
O O8 0.028658 0.785061 0.389946
O O9 0.166228 0.466251 0.922460
O O10 0.000000 0.500000 0.887580
O O11 0.039610 0.334125 0.000000
O O12 0.133762 0.823419 0.500000
O O13 0.163749 0.010269 0.397685
O O14 0.209482 0.719932 0.860592
O O15 0.752555 0.337467 0.000000
#
# Coordination Sequence:
#
# PCOD9443577 Si02
#       6
#     8   8   8   8   8   8
#     4  11  22  37  58  84 122 163 205 248 303 372
#     4  10  20  36  63  96 123 152 201 256 312 378
#     4   9  19  39  65  87 109 149 203 252 302 360
#     4   9  18  37  63  91 120 154 197 250 310 375
#     4  12  24  38  56  86 124 166 203 248 310 372
#     4   9  19  36  60  87 118 153 194 249 307 364
#
# _framework density 20.448547999999999
#
# number of rings (size 3 to 8) (size 9 to 14) (size 15 to 20)
#    0.000    2.000    1.667    4.000    0.000    3.333 
#    3.000    3.333    0.000    3.000    0.000    0.000 
#    0.000    0.000    0.000    0.000    0.000    0.000 
#
# Total GULP energy -267681.761983 kJ/mol
# GULP energy per Si atom -5576.703375 kJ/mol
# Density = 2.040201 g / cm^3
# Si number density = 20.448548 Si / 1000 Ang^3
#
#
#
# Elastic Constant Matrix: (Units=GPa)
#
#
# Indices 1 2 3 4 5 6 
#
# 1 64.6390 16.0909 5.8539 0.0000 0.0000 0.0000
# 2 16.0909 95.6915 38.5112 0.0000 0.0000 0.0000
# 3 5.8539 38.5112 51.6655 0.0000 0.0000 0.0000
# 4 0.0000 0.0000 0.0000 26.2164 0.0000 0.0000
# 5 0.0000 0.0000 0.0000 0.0000 34.1241 0.0000
# 6 0.0000 0.0000 0.0000 0.0000 0.0000 29.4532
#
#
#
# Elastic Compliance Matrix: (Units=1/GPa)
#
#
# Indices 1 2 3 4 5 6 
#
# 1 0.016149 -0.002827 0.000278 0.000000 0.000000 0.000000
# 2 -0.002827 0.015424 -0.011176 0.000000 0.000000 0.000000
# 3 0.000278 -0.011176 0.027655 0.000000 0.000000 0.000000
# 4 0.000000 0.000000 0.000000 0.038144 0.000000 0.000000
# 5 0.000000 0.000000 0.000000 0.000000 0.029305 0.000000
# 6 0.000000 0.000000 0.000000 0.000000 0.000000 0.033952
#
#
# Mechanical properties :
#
#
# Convention : Reuss Voigt Hill
#
# Bulk Modulus (GPa) = 31.47076 36.98977 34.23027
# Shear Modulus (GPa) = 25.16710 28.06142 26.61426
#
# Velocity S-wave (km/s) = 3.51201 3.70847 3.61158
# Velocity P-wave (km/s) = 5.64529 6.03866 5.84529
#
# Compressibility (1/GPa) = 0.03177552
#
# Stress axis : x y z
#
# Youngs Moduli (GPa) = 61.92253 64.83567 36.16038
#
# Poissons Ratio (x) = 0.18331 -0.01004
# Poissons Ratio (y) = 0.17507 0.40414
# Poissons Ratio (z) = -0.01720 0.72462
#
# Static dielectric constant tensor:
#      x y z
#    x 1.778700 0.000000 0.000000 
#    y 0.000000 1.784000 0.000000 
#    z 0.000000 0.000000 1.745300 
# 
# From -- ./inp_files/26808.got.cif
#   From: 2010.05.17/outbox.cif.g08.bks.cpg/sg58_14_cif.got.tgz:26808.got - 2010.06.03 14:20:14.
