data_PCOD9443597
_publ_section_title
;
Structure prediction by ZEFSAII (Michael W. Deem and Ramdas Pophale) SiO2 
 PCOD9443597
Probable space group: P N N M
;
_chemical_formula_sum "Si O2"
_cell_formula_units_Z 32
_cell_length_a 8.465996
_cell_length_b 13.349625
_cell_length_c 13.881442
_cell_angle_alpha 90.000000
_cell_angle_beta 90.000000
_cell_angle_gamma 90.000000
_cell_volume 1568.851033
_symmetry_space_group_name_H-M "P N N M"
_symmetry_group_IT_number 58
_symmetry_cell_setting 'orthorhombic'
loop_
_space_group_symop_operation_xyz
x,y,z
-x,-y,z
1/2+x,1/2-y,1/2-z
1/2-x,1/2+y,1/2-z
-x,-y,-z
x,y,-z
1/2-x,1/2+y,1/2+z
1/2+x,1/2-y,1/2+z
loop_
_atom_site_type_symbol
_atom_site_label
_atom_site_fract_x
_atom_site_fract_y
_atom_site_fract_z
Si Si1 0.205812 0.661357 0.338810
Si Si2 0.777436 0.229332 0.000000
Si Si3 0.491603 0.795615 0.331919
Si Si4 0.188841 0.502510 0.500000
Si Si5 0.852732 0.576444 0.000000
Si Si6 0.563576 0.690675 0.000000
O O1 0.368339 0.709824 0.299921
O O2 0.081663 0.647826 0.253045
O O3 0.239983 0.565160 0.405439
O O4 0.122588 0.741979 0.409771
O O5 0.879740 0.250327 0.905010
O O6 0.737680 0.112314 0.000000
O O7 0.625287 0.302225 0.000000
O O8 0.391627 0.867282 0.400571
O O9 0.000000 0.500000 0.500000
O O10 0.659908 0.585293 0.000000
O O11 0.000000 0.500000 0.000000
#
# Coordination Sequence:
#
# PCOD9443597 Si02
#       6
#     8   4   8   4   4   4
#     4  10  20  37  56  89 117 161 204 254 308 381
#     4  11  20  39  64  89 121 167 196 270 311 377
#     4  10  22  37  62  83 123 161 205 249 326 373
#     4  11  22  36  64  94 124 155 213 262 315 372
#     4   9  20  40  59  85 116 164 201 250 293 374
#     4   9  18  36  59  83 118 155 200 236 314 360
#
# _framework density 20.397093999999999
#
# number of rings (size 3 to 8) (size 9 to 14) (size 15 to 20)
#    0.000    2.000    2.500    3.750    0.000    3.000 
#    4.500    2.500    5.500    0.000    0.000    0.000 
#    0.000    0.000    0.000    0.000    0.000    0.000 
#
# Total GULP energy -178186.303202 kJ/mol
# GULP energy per Si atom -5568.321975 kJ/mol
# Density = 2.035067 g / cm^3
# Si number density = 20.397094 Si / 1000 Ang^3
#
#
#
# Elastic Constant Matrix: (Units=GPa)
#
#
# Indices 1 2 3 4 5 6 
#
# 1 101.9098 3.2950 13.2671 0.0000 0.0000 0.0000
# 2 3.2950 27.6766 2.5563 0.0000 0.0000 0.0000
# 3 13.2671 2.5563 97.0022 0.0000 0.0000 0.0000
# 4 0.0000 0.0000 0.0000 8.5205 0.0000 0.0000
# 5 0.0000 0.0000 0.0000 0.0000 62.3760 0.0000
# 6 0.0000 0.0000 0.0000 0.0000 0.0000 23.8080
#
#
#
# Elastic Compliance Matrix: (Units=1/GPa)
#
#
# Indices 1 2 3 4 5 6 
#
# 1 0.010022 -0.001069 -0.001343 0.000000 0.000000 0.000000
# 2 -0.001069 0.036334 -0.000811 0.000000 0.000000 0.000000
# 3 -0.001343 -0.000811 0.010514 0.000000 0.000000 0.000000
# 4 0.000000 0.000000 0.000000 0.117365 0.000000 0.000000
# 5 0.000000 0.000000 0.000000 0.000000 0.016032 0.000000
# 6 0.000000 0.000000 0.000000 0.000000 0.000000 0.042003
#
#
# Mechanical properties :
#
#
# Convention : Reuss Voigt Hill
#
# Bulk Modulus (GPa) = 19.83186 29.42504 24.62845
# Shear Modulus (GPa) = 19.56772 32.77224 26.16998
#
# Velocity S-wave (km/s) = 3.10068 4.01273 3.58582
# Velocity P-wave (km/s) = 4.75005 5.99389 5.40785
#
# Compressibility (1/GPa) = 0.05042391
#
# Stress axis : x y z
#
# Youngs Moduli (GPa) = 99.78100 27.52254 95.11090
#
# Poissons Ratio (x) = 0.02943 0.12769
# Poissons Ratio (y) = 0.10668 0.07716
# Poissons Ratio (z) = 0.13396 0.02233
#
# Static dielectric constant tensor:
#      x y z
#    x 1.797340 0.000000 0.000000 
#    y 0.000000 1.832140 0.000000 
#    z 0.000000 0.000000 1.730960 
# 
# From -- ./inp_files/12418.got.cif
#   From: 2010.05.17/outbox.cif.g08.bks.cpg/sg58_7_cif.got.tgz:12418.got - 2010.06.03 14:20:14.
