data_PCOD9443250
_publ_section_title
;
Structure prediction by ZEFSAII (Michael W. Deem and Ramdas Pophale) SiO2 
 PCOD9443250
Probable space group: P N N M
;
_chemical_formula_sum "Si O2"
_cell_formula_units_Z 56
_cell_length_a 14.358047
_cell_length_b 12.921362
_cell_length_c 15.772875
_cell_angle_alpha 90.000000
_cell_angle_beta 90.000000
_cell_angle_gamma 90.000000
_cell_volume 2926.270882
_symmetry_space_group_name_H-M "P N N M"
_symmetry_group_IT_number 58
_symmetry_cell_setting 'orthorhombic'
loop_
_space_group_symop_operation_xyz
x,y,z
-x,-y,z
1/2+x,1/2-y,1/2-z
1/2-x,1/2+y,1/2-z
-x,-y,-z
x,y,-z
1/2-x,1/2+y,1/2+z
1/2+x,1/2-y,1/2+z
loop_
_atom_site_type_symbol
_atom_site_label
_atom_site_fract_x
_atom_site_fract_y
_atom_site_fract_z
Si Si1 0.795063 0.866543 0.651409
Si Si2 0.018289 0.113881 0.900486
Si Si3 0.183895 0.906730 0.599153
Si Si4 0.600353 0.806942 0.593769
Si Si5 0.497912 0.715609 0.098365
Si Si6 0.991434 0.618008 0.256669
Si Si7 0.174807 0.256437 0.185264
O O1 0.709440 0.827228 0.595650
O O2 0.895712 0.830040 0.617592
O O3 0.779485 0.812756 0.741923
O O4 0.795080 0.990441 0.652067
O O5 0.101673 0.179793 0.860212
O O6 0.927884 0.187165 0.892787
O O7 0.039522 0.101446 0.000000
O O8 0.000000 0.000000 0.863513
O O9 0.198623 0.931689 0.500000
O O10 0.250952 0.812767 0.626101
O O11 0.077573 0.870535 0.610165
O O12 0.562724 0.836242 0.500000
O O13 0.553673 0.866464 0.672144
O O14 0.517400 0.805336 0.166673
O O15 0.502261 0.749757 0.000000
O O16 0.888312 0.654180 0.228399
O O17 0.000000 0.500000 0.283536
#
# Coordination Sequence:
#
# PCOD9443250 Si02
#       7
#     8   8   8   8   8   8   8
#     4  11  22  36  57  85 115 151 193 236 286 339
#     4   9  19  37  59  83 112 147 186 230 285 345
#     4  11  22  38  60  83 113 153 194 239 288 339
#     4  10  20  35  57  84 114 145 184 235 284 341
#     4  10  22  39  58  82 113 151 198 243 280 333
#     4  10  21  37  56  81 112 146 185 232 291 349
#     4  10  22  35  55  85 115 146 186 237 285 343
#
# _framework density 19.136984999999999
#
# number of rings (size 3 to 8) (size 9 to 14) (size 15 to 20)
#    0.000    1.857    0.000    3.857    0.000    6.857 
#    0.000    1.429    0.000    3.429    0.000    0.000 
#    0.000    0.000    0.000    0.000    0.000    0.000 
#
# Total GULP energy -312570.029280 kJ/mol
# GULP energy per Si atom -5581.607666 kJ/mol
# Density = 1.909343 g / cm^3
# Si number density = 19.136985 Si / 1000 Ang^3
#
#
#
# Elastic Constant Matrix: (Units=GPa)
#
#
# Indices 1 2 3 4 5 6 
#
# 1 71.0667 27.5681 16.2837 0.0000 0.0000 0.0000
# 2 27.5681 104.4289 36.8295 0.0000 0.0000 0.0000
# 3 16.2837 36.8295 60.0304 0.0000 0.0000 0.0000
# 4 0.0000 0.0000 0.0000 20.4318 0.0000 0.0000
# 5 0.0000 0.0000 0.0000 0.0000 18.8426 0.0000
# 6 0.0000 0.0000 0.0000 0.0000 0.0000 14.5230
#
#
#
# Elastic Compliance Matrix: (Units=1/GPa)
#
#
# Indices 1 2 3 4 5 6 
#
# 1 0.015905 -0.003416 -0.002218 0.000000 0.000000 0.000000
# 2 -0.003416 0.012954 -0.007021 0.000000 0.000000 0.000000
# 3 -0.002218 -0.007021 0.021567 0.000000 0.000000 0.000000
# 4 0.000000 0.000000 0.000000 0.048943 0.000000 0.000000
# 5 0.000000 0.000000 0.000000 0.000000 0.053071 0.000000
# 6 0.000000 0.000000 0.000000 0.000000 0.000000 0.068856
#
#
# Mechanical properties :
#
#
# Convention : Reuss Voigt Hill
#
# Bulk Modulus (GPa) = 39.81645 44.09872 41.95758
# Shear Modulus (GPa) = 19.60947 21.08247 20.34597
#
# Velocity S-wave (km/s) = 3.20455 3.32273 3.26417
# Velocity P-wave (km/s) = 5.87736 6.14934 6.01489
#
# Compressibility (1/GPa) = 0.02511525
#
# Stress axis : x y z
#
# Youngs Moduli (GPa) = 62.87392 77.19767 46.36674
#
# Poissons Ratio (x) = 0.26374 0.10286
# Poissons Ratio (y) = 0.21480 0.32552
# Poissons Ratio (z) = 0.13947 0.54197
#
# Static dielectric constant tensor:
#      x y z
#    x 1.665060 0.000000 0.000000 
#    y 0.000000 1.647240 0.000000 
#    z 0.000000 0.000000 1.690990 
# 
# From -- ./inp_files/22172.got.cif
#   From: 2010.05.17/outbox.cif.g08.bks.cpg/sg58_12_cif.got.tgz:22172.got - 2010.06.03 14:20:14.
