data_PCOD9443718
_publ_section_title
;
Structure prediction by ZEFSAII (Michael W. Deem and Ramdas Pophale) SiO2 
 PCOD9443718
Probable space group: P N N M
;
_chemical_formula_sum "Si O2"
_cell_formula_units_Z 56
_cell_length_a 19.686603
_cell_length_b 15.779112
_cell_length_c 7.954399
_cell_angle_alpha 90.000000
_cell_angle_beta 90.000000
_cell_angle_gamma 90.000000
_cell_volume 2470.931546
_symmetry_space_group_name_H-M "P N N M"
_symmetry_group_IT_number 58
_symmetry_cell_setting 'orthorhombic'
loop_
_space_group_symop_operation_xyz
x,y,z
-x,-y,z
1/2+x,1/2-y,1/2-z
1/2-x,1/2+y,1/2-z
-x,-y,-z
x,y,-z
1/2-x,1/2+y,1/2+z
1/2+x,1/2-y,1/2+z
loop_
_atom_site_type_symbol
_atom_site_label
_atom_site_fract_x
_atom_site_fract_y
_atom_site_fract_z
Si Si1 0.570991 0.820677 0.203771
Si Si2 0.420149 0.830235 0.692191
Si Si3 0.142809 0.837462 0.306305
Si Si4 0.781462 0.999542 0.304022
Si Si5 0.645130 0.334519 0.805879
Si Si6 0.998715 0.899102 0.195423
Si Si7 0.868752 0.496682 0.306648
O O1 0.496067 0.797383 0.268399
O O2 0.631077 0.757329 0.264288
O O3 0.587384 0.916869 0.253257
O O4 0.568592 0.814951 0.000000
O O5 0.417036 0.856180 0.500000
O O6 0.363848 0.757667 0.723359
O O7 0.407262 0.914423 0.798194
O O8 0.165272 0.827653 0.500000
O O9 0.065734 0.870727 0.292554
O O10 0.187364 0.913451 0.228568
O O11 0.803932 0.998231 0.500000
O O12 0.807910 0.909607 0.231896
O O13 0.701077 0.003694 0.292924
O O14 0.569517 0.372055 0.787996
O O15 0.663677 0.320324 0.000000
O O16 0.998588 0.868563 0.000000
O O17 0.000000 0.000000 0.188589
O O18 0.850336 0.478973 0.500000
#
# Coordination Sequence:
#
# PCOD9443718 Si02
#       7
#     8   8   8   8   8   8   8
#     4  10  22  41  66  93 121 158 206 257 313 374
#     4  12  25  41  65  95 123 158 207 266 318 362
#     4  10  20  37  62  90 123 163 203 249 308 372
#     4  10  23  41  62  92 128 168 208 246 302 373
#     4  11  22  38  62  92 127 166 205 250 311 374
#     4  11  21  32  53  90 129 161 201 253 306 360
#     4  11  25  44  64  88 123 169 212 256 310 369
#
# _framework density 22.663516999999999
#
# number of rings (size 3 to 8) (size 9 to 14) (size 15 to 20)
#    0.000    1.286    2.857    3.000    0.000    6.286 
#    0.000    1.429    0.000    0.000    0.000    0.000 
#    0.000    0.000    0.000    0.000    0.000    0.000 
#
# Total GULP energy -312739.761050 kJ/mol
# GULP energy per Si atom -5584.638590 kJ/mol
# Density = 2.261193 g / cm^3
# Si number density = 22.663517 Si / 1000 Ang^3
#
#
#
# Elastic Constant Matrix: (Units=GPa)
#
#
# Indices 1 2 3 4 5 6 
#
# 1 48.6114 17.2475 -8.2246 0.0000 0.0000 0.0000
# 2 17.2475 140.4988 4.7408 0.0000 0.0000 0.0000
# 3 -8.2246 4.7408 42.1652 0.0000 0.0000 0.0000
# 4 0.0000 0.0000 0.0000 18.8412 0.0000 0.0000
# 5 0.0000 0.0000 0.0000 0.0000 16.7612 0.0000
# 6 0.0000 0.0000 0.0000 0.0000 0.0000 23.7973
#
#
#
# Elastic Compliance Matrix: (Units=1/GPa)
#
#
# Indices 1 2 3 4 5 6 
#
# 1 0.022398 -0.002908 0.004696 0.000000 0.000000 0.000000
# 2 -0.002908 0.007522 -0.001413 0.000000 0.000000 0.000000
# 3 0.004696 -0.001413 0.024791 0.000000 0.000000 0.000000
# 4 0.000000 0.000000 0.000000 0.053075 0.000000 0.000000
# 5 0.000000 0.000000 0.000000 0.000000 0.059662 0.000000
# 6 0.000000 0.000000 0.000000 0.000000 0.000000 0.042022
#
#
# Mechanical properties :
#
#
# Convention : Reuss Voigt Hill
#
# Bulk Modulus (GPa) = 18.03086 28.75585 23.39336
# Shear Modulus (GPa) = 22.00644 26.38073 24.19358
#
# Velocity S-wave (km/s) = 3.11948 3.41547 3.27083
# Velocity P-wave (km/s) = 4.57690 5.31692 4.96073
#
# Compressibility (1/GPa) = 0.05546046
#
# Stress axis : x y z
#
# Youngs Moduli (GPa) = 44.64779 132.94072 40.33712
#
# Poissons Ratio (x) = 0.38658 -0.18941
# Poissons Ratio (y) = 0.12983 0.05699
# Poissons Ratio (z) = -0.20966 0.18784
#
# Static dielectric constant tensor:
#      x y z
#    x 1.764020 0.000000 0.000000 
#    y 0.000000 1.933360 0.000000 
#    z 0.000000 0.000000 1.758210 
# 
# From -- ./inp_files/9005.got.cif
#   From: 2010.05.17/outbox.cif.g08.bks.cpg/sg58_5_cif.got.tgz:9005.got - 2010.06.03 14:20:14.
