data_PCOD9443678
_publ_section_title
;
Structure prediction by ZEFSAII (Michael W. Deem and Ramdas Pophale) SiO2 
 PCOD9443678
Probable space group: P N N M
;
_chemical_formula_sum "Si O2"
_cell_formula_units_Z 48
_cell_length_a 31.455913
_cell_length_b 9.263996
_cell_length_c 9.105032
_cell_angle_alpha 90.000000
_cell_angle_beta 90.000000
_cell_angle_gamma 90.000000
_cell_volume 2653.274177
_symmetry_space_group_name_H-M "P N N M"
_symmetry_group_IT_number 58
_symmetry_cell_setting 'orthorhombic'
loop_
_space_group_symop_operation_xyz
x,y,z
-x,-y,z
1/2+x,1/2-y,1/2-z
1/2-x,1/2+y,1/2-z
-x,-y,-z
x,y,-z
1/2-x,1/2+y,1/2+z
1/2+x,1/2-y,1/2+z
loop_
_atom_site_type_symbol
_atom_site_label
_atom_site_fract_x
_atom_site_fract_y
_atom_site_fract_z
Si Si1 0.712448 0.417812 0.828107
Si Si2 0.709189 0.071695 0.827622
Si Si3 0.459636 0.399786 0.676111
Si Si4 0.542856 0.910447 0.175203
Si Si5 0.375588 0.581824 0.674645
Si Si6 0.879660 0.577346 0.175079
O O1 0.715440 0.244308 0.813035
O O2 0.750683 0.491587 0.741417
O O3 0.666711 0.460287 0.762039
O O4 0.714828 0.454408 0.000000
O O5 0.665796 0.034304 0.742770
O O6 0.704938 0.038127 0.000000
O O7 0.500000 0.500000 0.711533
O O8 0.460320 0.373693 0.500000
O O9 0.461504 0.249496 0.760210
O O10 0.416300 0.485307 0.711275
O O11 0.500000 0.000000 0.206882
O O12 0.582570 0.989523 0.250506
O O13 0.548814 0.906014 0.000000
O O14 0.367303 0.568835 0.500000
O O15 0.385128 0.750899 0.703868
O O16 0.879724 0.555407 0.000000
#
# Coordination Sequence:
#
# PCOD9443678 Si02
#       6
#     8   8   8   8   8   8
#     4  10  21  36  56  82 111 147 188 227 273 329
#     4  10  21  37  57  82 113 146 183 229 277 326
#     4  10  21  38  60  85 112 144 185 231 278 329
#     4  11  24  39  56  82 115 149 185 226 273 326
#     4   9  19  36  58  83 110 142 182 230 281 329
#     4  10  20  37  61  84 109 144 185 228 276 329
#
# _framework density 18.090854
#
# number of rings (size 3 to 8) (size 9 to 14) (size 15 to 20)
#    0.000    2.000    0.000    3.000    0.000    7.667 
#    0.000    1.667    0.000    0.000    0.000    0.000 
#    0.000    0.000    0.000    0.000    0.000    0.000 
#
# Total GULP energy -268189.382385 kJ/mol
# GULP energy per Si atom -5587.278800 kJ/mol
# Density = 1.804968 g / cm^3
# Si number density = 18.090854 Si / 1000 Ang^3
#
#
#
# Elastic Constant Matrix: (Units=GPa)
#
#
# Indices 1 2 3 4 5 6 
#
# 1 191.6686 98.2829 107.2006 0.0000 0.0000 0.0000
# 2 98.2829 91.7309 78.3877 0.0000 0.0000 0.0000
# 3 107.2006 78.3877 99.2351 0.0000 0.0000 0.0000
# 4 0.0000 0.0000 0.0000 29.4140 0.0000 0.0000
# 5 0.0000 0.0000 0.0000 0.0000 -105.1308 0.0000
# 6 0.0000 0.0000 0.0000 0.0000 0.0000 37.7611
#
#
#
# Elastic Compliance Matrix: (Units=1/GPa)
#
#
# Indices 1 2 3 4 5 6 
#
# 1 0.014356 -0.006551 -0.010334 0.000000 0.000000 0.000000
# 2 -0.006551 0.036534 -0.021782 0.000000 0.000000 0.000000
# 3 -0.010334 -0.021782 0.038447 0.000000 0.000000 0.000000
# 4 0.000000 0.000000 0.000000 0.033997 0.000000 0.000000
# 5 0.000000 0.000000 0.000000 0.000000 -0.009512 0.000000
# 6 0.000000 0.000000 0.000000 0.000000 0.000000 0.026482
#
#
# Mechanical properties :
#
#
# Convention : Reuss Voigt Hill
#
# Bulk Modulus (GPa) = 83.31318 105.59743 94.45531
# Shear Modulus (GPa) = 22.55909 -1.00692 10.77609
#
# Velocity S-wave (km/s) = 3.53510 -0.74686 2.44327
# Velocity P-wave (km/s) = 7.92561 7.59958 7.76430
#
# Compressibility (1/GPa) = 0.01200290
#
# Stress axis : x y z
#
# Youngs Moduli (GPa) = 69.65596 27.37167 26.00999
#
# Poissons Ratio (x) = 0.17931 0.26879
# Poissons Ratio (y) = 0.45631 0.56656
# Poissons Ratio (z) = 0.71982 0.59622
#
# Static dielectric constant tensor:
#      x y z
#    x 1.583850 0.000000 0.000000 
#    y 0.000000 1.597400 0.000000 
#    z 0.000000 0.000000 1.601780 
# 
# From -- ./inp_files/2871.got.cif
#   From: 2010.05.17/outbox.cif.g08.bks.cpg/sg58_2_cif.got.tgz:2871.got - 2010.06.03 14:20:14.
