data_PCOD9443582
_publ_section_title
;
Structure prediction by ZEFSAII (Michael W. Deem and Ramdas Pophale) SiO2 
 PCOD9443582
Probable space group: P N N M
;
_chemical_formula_sum "Si O2"
_cell_formula_units_Z 48
_cell_length_a 9.079507
_cell_length_b 14.631766
_cell_length_c 17.881892
_cell_angle_alpha 90.000000
_cell_angle_beta 90.000000
_cell_angle_gamma 90.000000
_cell_volume 2375.595437
_symmetry_space_group_name_H-M "P N N M"
_symmetry_group_IT_number 58
_symmetry_cell_setting 'orthorhombic'
loop_
_space_group_symop_operation_xyz
x,y,z
-x,-y,z
1/2+x,1/2-y,1/2-z
1/2-x,1/2+y,1/2-z
-x,-y,-z
x,y,-z
1/2-x,1/2+y,1/2+z
1/2+x,1/2-y,1/2+z
loop_
_atom_site_type_symbol
_atom_site_label
_atom_site_fract_x
_atom_site_fract_y
_atom_site_fract_z
Si Si1 0.622349 0.772837 0.317541
Si Si2 0.855057 0.126185 0.411927
Si Si3 0.861589 0.801302 0.911330
Si Si4 0.453158 0.758318 0.834136
Si Si5 0.339340 0.046695 0.585636
Si Si6 0.592850 0.916462 0.087748
O O1 0.509649 0.710816 0.364931
O O2 0.551230 0.785483 0.236741
O O3 0.784965 0.732710 0.311730
O O4 0.646023 0.867545 0.360802
O O5 0.893644 0.122801 0.500000
O O6 0.732805 0.207113 0.403004
O O7 0.992696 0.159194 0.362761
O O8 0.779071 0.030485 0.392098
O O9 0.754226 0.883730 0.885189
O O10 0.891148 0.811332 0.000000
O O11 0.492226 0.827409 0.900728
O O12 0.306183 0.075984 0.500000
O O13 0.500000 0.000000 0.584223
O O14 0.500000 0.000000 0.121972
O O15 0.613357 0.935370 0.000000
#
# Coordination Sequence:
#
# PCOD9443582 Si02
#       6
#     8   8   8   8   8   8
#     4  12  24  38  57  85 125 163 202 252 308 375
#     4   9  18  37  63  91 121 152 196 252 308 374
#     4   9  17  34  61  87 115 152 196 245 297 360
#     4  11  24  39  57  85 123 164 204 248 310 369
#     4  10  20  36  65  96 119 154 203 252 312 381
#     4   9  19  39  64  86 111 151 204 250 297 359
#
# _framework density 20.205462000000001
#
# number of rings (size 3 to 8) (size 9 to 14) (size 15 to 20)
#    0.000    2.000    1.667    4.000    0.000    4.000 
#    0.000    2.500    3.667    3.000    0.000    0.000 
#    0.000    0.000    0.000    0.000    0.000    0.000 
#
# Total GULP energy -267890.757316 kJ/mol
# GULP energy per Si atom -5581.057444 kJ/mol
# Density = 2.015947 g / cm^3
# Si number density = 20.205462 Si / 1000 Ang^3
#
#
#
# Elastic Constant Matrix: (Units=GPa)
#
#
# Indices 1 2 3 4 5 6 
#
# 1 134.7156 37.8155 33.3178 0.0000 0.0000 0.0000
# 2 37.8155 88.9474 22.8782 0.0000 0.0000 0.0000
# 3 33.3178 22.8782 45.5867 0.0000 0.0000 0.0000
# 4 0.0000 0.0000 0.0000 8.1121 0.0000 0.0000
# 5 0.0000 0.0000 0.0000 0.0000 30.2837 0.0000
# 6 0.0000 0.0000 0.0000 0.0000 0.0000 32.1657
#
#
#
# Elastic Compliance Matrix: (Units=1/GPa)
#
#
# Indices 1 2 3 4 5 6 
#
# 1 0.009558 -0.002603 -0.005680 0.000000 0.000000 0.000000
# 2 -0.002603 0.013618 -0.004932 0.000000 0.000000 0.000000
# 3 -0.005680 -0.004932 0.028562 0.000000 0.000000 0.000000
# 4 0.000000 0.000000 0.000000 0.123273 0.000000 0.000000
# 5 0.000000 0.000000 0.000000 0.000000 0.033021 0.000000
# 6 0.000000 0.000000 0.000000 0.000000 0.000000 0.031089
#
#
# Mechanical properties :
#
#
# Convention : Reuss Voigt Hill
#
# Bulk Modulus (GPa) = 39.51039 50.80805 45.15922
# Shear Modulus (GPa) = 18.24907 25.79484 22.02195
#
# Velocity S-wave (km/s) = 3.00855 3.57687 3.30495
# Velocity P-wave (km/s) = 5.62719 6.50069 6.07965
#
# Compressibility (1/GPa) = 0.02530980
#
# Stress axis : x y z
#
# Youngs Moduli (GPa) = 104.62053 73.43388 35.01110
#
# Poissons Ratio (x) = 0.19114 0.19885
# Poissons Ratio (y) = 0.27231 0.17267
# Poissons Ratio (z) = 0.59420 0.36217
#
# Static dielectric constant tensor:
#      x y z
#    x 1.748140 0.000000 0.000000 
#    y 0.000000 1.732110 0.000000 
#    z 0.000000 0.000000 1.717580 
# 
# From -- ./inp_files/25280.got.cif
#   From: 2010.05.17/outbox.cif.g08.bks.cpg/sg58_13_cif.got.tgz:25280.got - 2010.06.03 14:20:14.
