data_PCOD9443442
_publ_section_title
;
Structure prediction by ZEFSAII (Michael W. Deem and Ramdas Pophale) SiO2 
 PCOD9443442
Probable space group: P N N M
;
_chemical_formula_sum "Si O2"
_cell_formula_units_Z 48
_cell_length_a 21.303494
_cell_length_b 15.346366
_cell_length_c 7.792926
_cell_angle_alpha 90.000000
_cell_angle_beta 90.000000
_cell_angle_gamma 90.000000
_cell_volume 2547.750773
_symmetry_space_group_name_H-M "P N N M"
_symmetry_group_IT_number 58
_symmetry_cell_setting 'orthorhombic'
loop_
_space_group_symop_operation_xyz
x,y,z
-x,-y,z
1/2+x,1/2-y,1/2-z
1/2-x,1/2+y,1/2-z
-x,-y,-z
x,y,-z
1/2-x,1/2+y,1/2+z
1/2+x,1/2-y,1/2+z
loop_
_atom_site_type_symbol
_atom_site_label
_atom_site_fract_x
_atom_site_fract_y
_atom_site_fract_z
Si Si1 0.190651 0.984361 0.302873
Si Si2 0.307612 0.101044 0.709992
Si Si3 0.492246 0.261676 0.299364
Si Si4 0.348223 0.291558 0.703212
Si Si5 0.473507 0.864729 0.000000
Si Si6 0.558054 0.445784 0.700540
Si Si7 0.397272 0.029254 0.000000
O O1 0.206477 0.973573 0.500000
O O2 0.182417 0.885381 0.238116
O O3 0.244565 0.049290 0.235871
O O4 0.123734 0.031371 0.283759
O O5 0.316210 0.094593 0.500000
O O6 0.310663 0.204319 0.756491
O O7 0.361126 0.057327 0.827057
O O8 0.488677 0.233579 0.500000
O O9 0.421113 0.284936 0.236977
O O10 0.535656 0.346925 0.292790
O O11 0.521907 0.192663 0.171060
O O12 0.353007 0.286361 0.500000
O O13 0.536899 0.920965 0.000000
O O14 0.413654 0.927387 0.000000
O O15 0.500000 0.500000 0.775003
O O16 0.564984 0.472324 0.500000
#
# Coordination Sequence:
#
# PCOD9443442 Si02
#       7
#     8   8   8   8   4   8   4
#     4  11  24  38  60  94 125 162 214 265 311 373
#     4  10  24  45  63  90 127 167 215 256 311 381
#     4  10  21  38  61  90 129 166 202 258 315 376
#     4  10  20  39  64  85 119 169 208 250 312 376
#     4  11  24  40  65 100 120 156 223 253 315 381
#     4  10  20  36  58  88 126 162 204 256 318 376
#     4  11  24  42  70  92 121 168 206 268 312 368
#
# _framework density 18.840146000000001
#
# number of rings (size 3 to 8) (size 9 to 14) (size 15 to 20)
#    0.000    1.667    3.333    0.500    5.833    1.000 
#    3.000    1.667    0.000    0.000    0.000    0.000 
#    0.000    0.000    0.000    0.000    0.000    0.000 
#
# Total GULP energy -267562.048831 kJ/mol
# GULP energy per Si atom -5574.209351 kJ/mol
# Density = 1.879726 g / cm^3
# Si number density = 18.840146 Si / 1000 Ang^3
#
#
#
# Elastic Constant Matrix: (Units=GPa)
#
#
# Indices 1 2 3 4 5 6 
#
# 1 84.3241 66.1013 17.0867 0.0000 0.0000 0.0000
# 2 66.1013 134.8198 42.6070 0.0000 0.0000 0.0000
# 3 17.0867 42.6070 53.2032 0.0000 0.0000 0.0000
# 4 0.0000 0.0000 0.0000 30.1752 0.0000 0.0000
# 5 0.0000 0.0000 0.0000 0.0000 -24.6721 0.0000
# 6 0.0000 0.0000 0.0000 0.0000 0.0000 32.3534
#
#
#
# Elastic Compliance Matrix: (Units=1/GPa)
#
#
# Indices 1 2 3 4 5 6 
#
# 1 0.019398 -0.010098 0.001857 0.000000 0.000000 0.000000
# 2 -0.010098 0.015187 -0.008919 0.000000 0.000000 0.000000
# 3 0.001857 -0.008919 0.025342 0.000000 0.000000 0.000000
# 4 0.000000 0.000000 0.000000 0.033140 0.000000 0.000000
# 5 0.000000 0.000000 0.000000 0.000000 -0.040532 0.000000
# 6 0.000000 0.000000 0.000000 0.000000 0.000000 0.030909
#
#
# Mechanical properties :
#
#
# Convention : Reuss Voigt Hill
#
# Bulk Modulus (GPa) = 39.05175 58.21526 48.63350
# Shear Modulus (GPa) = 39.58814 17.34145 28.46479
#
# Velocity S-wave (km/s) = 4.58893 3.03719 3.89119
# Velocity P-wave (km/s) = 6.98932 6.57769 6.78663
#
# Compressibility (1/GPa) = 0.02560705
#
# Stress axis : x y z
#
# Youngs Moduli (GPa) = 51.55099 65.84654 39.45953
#
# Poissons Ratio (x) = 0.66489 -0.07326
# Poissons Ratio (y) = 0.52054 0.35195
# Poissons Ratio (z) = -0.09571 0.58730
#
# Static dielectric constant tensor:
#      x y z
#    x 1.663910 0.000000 0.000000 
#    y 0.000000 1.699020 0.000000 
#    z 0.000000 0.000000 1.684400 
# 
# From -- ./inp_files/7770.got.cif
#   From: 2010.05.17/outbox.cif.g08.bks.cpg/sg58_4_cif.got.tgz:7770.got - 2010.06.03 14:20:14.
