data_PCOD9443735
_publ_section_title
;
Structure prediction by ZEFSAII (Michael W. Deem and Ramdas Pophale) SiO2 
 PCOD9443735
Probable space group: P N N M
;
_chemical_formula_sum "Si O2"
_cell_formula_units_Z 56
_cell_length_a 15.250121
_cell_length_b 20.331394
_cell_length_c 9.134622
_cell_angle_alpha 90.000000
_cell_angle_beta 90.000000
_cell_angle_gamma 90.000000
_cell_volume 2832.246356
_symmetry_space_group_name_H-M "P N N M"
_symmetry_group_IT_number 58
_symmetry_cell_setting 'orthorhombic'
loop_
_space_group_symop_operation_xyz
x,y,z
-x,-y,z
1/2+x,1/2-y,1/2-z
1/2-x,1/2+y,1/2-z
-x,-y,-z
x,y,-z
1/2-x,1/2+y,1/2+z
1/2+x,1/2-y,1/2+z
loop_
_atom_site_type_symbol
_atom_site_label
_atom_site_fract_x
_atom_site_fract_y
_atom_site_fract_z
Si Si1 0.836444 0.595038 0.325183
Si Si2 0.805556 0.187503 0.325498
Si Si3 0.184579 0.676061 0.830230
Si Si4 0.587902 0.458509 0.828842
Si Si5 0.973686 0.682067 0.168613
Si Si6 0.987254 0.814993 0.327998
Si Si7 0.262148 0.042448 0.173103
O O1 0.831652 0.602834 0.500000
O O2 0.756512 0.634535 0.250784
O O3 0.924108 0.627642 0.262713
O O4 0.826960 0.517763 0.291423
O O5 0.792349 0.187257 0.500000
O O6 0.786292 0.259370 0.258209
O O7 0.909038 0.173966 0.297797
O O8 0.217856 0.608915 0.759767
O O9 0.078593 0.674558 0.823931
O O10 0.211762 0.681258 0.000000
O O11 0.500000 0.500000 0.806163
O O12 0.564542 0.382193 0.803278
O O13 0.665765 0.479827 0.723945
O O14 0.613620 0.466685 0.000000
O O15 0.953997 0.754252 0.232760
O O16 0.945918 0.677433 0.000000
O O17 0.980203 0.797608 0.500000
O O18 0.265122 0.054638 0.000000
#
# Coordination Sequence:
#
# PCOD9443735 Si02
#       7
#     8   8   8   8   8   8   8
#     4  11  24  40  59  85 120 159 200 247 303 359
#     4  10  20  37  63  90 119 155 198 247 297 356
#     4  10  22  41  63  88 120 157 198 249 305 360
#     4  10  21  38  61  88 121 160 200 244 299 361
#     4  10  22  39  61  88 115 151 200 250 301 357
#     4   9  19  36  59  87 118 153 193 242 298 355
#     4  11  25  41  59  87 121 161 204 248 301 360
#
# _framework density 19.772292
#
# number of rings (size 3 to 8) (size 9 to 14) (size 15 to 20)
#    0.000    1.857    0.000    3.000    2.000    7.143 
#    0.000    2.857    0.000    0.000    0.000    0.000 
#    0.000    0.000    0.000    0.000    0.000    0.000 
#
# Total GULP energy -313114.453918 kJ/mol
# GULP energy per Si atom -5591.329534 kJ/mol
# Density = 1.972729 g / cm^3
# Si number density = 19.772292 Si / 1000 Ang^3
#
#
#
# Elastic Constant Matrix: (Units=GPa)
#
#
# Indices 1 2 3 4 5 6 
#
# 1 19.7924 2.0453 9.6238 0.0000 0.0000 0.0000
# 2 2.0453 66.3973 29.6913 0.0000 0.0000 0.0000
# 3 9.6238 29.6913 61.6907 0.0000 0.0000 0.0000
# 4 0.0000 0.0000 0.0000 25.9111 0.0000 0.0000
# 5 0.0000 0.0000 0.0000 0.0000 31.5343 0.0000
# 6 0.0000 0.0000 0.0000 0.0000 0.0000 28.7889
#
#
#
# Elastic Compliance Matrix: (Units=1/GPa)
#
#
# Indices 1 2 3 4 5 6 
#
# 1 0.055058 0.002733 -0.009904 0.000000 0.000000 0.000000
# 2 0.002733 0.019327 -0.009728 0.000000 0.000000 0.000000
# 3 -0.009904 -0.009728 0.022437 0.000000 0.000000 0.000000
# 4 0.000000 0.000000 0.000000 0.038593 0.000000 0.000000
# 5 0.000000 0.000000 0.000000 0.000000 0.031712 0.000000
# 6 0.000000 0.000000 0.000000 0.000000 0.000000 0.034736
#
#
# Mechanical properties :
#
#
# Convention : Reuss Voigt Hill
#
# Bulk Modulus (GPa) = 15.86730 25.62235 20.74483
# Shear Modulus (GPa) = 19.48030 24.34821 21.91425
#
# Velocity S-wave (km/s) = 3.14225 3.51298 3.33277
# Velocity P-wave (km/s) = 4.60515 5.42601 5.03234
#
# Compressibility (1/GPa) = 0.06302269
#
# Stress axis : x y z
#
# Youngs Moduli (GPa) = 18.16265 51.74136 44.56899
#
# Poissons Ratio (x) = -0.14141 0.44143
# Poissons Ratio (y) = -0.04964 0.43358
# Poissons Ratio (z) = 0.17989 0.50335
#
# Static dielectric constant tensor:
#      x y z
#    x 1.712280 0.000000 0.000000 
#    y 0.000000 1.666640 0.000000 
#    z 0.000000 0.000000 1.660100 
# 
# From -- ./inp_files/6451.got.cif
#   From: 2010.05.17/outbox.cif.g08.bks.cpg/sg58_4_cif.got.tgz:6451.got - 2010.06.03 14:20:14.
