data_PCOD9443158
_publ_section_title
;
Structure prediction by ZEFSAII (Michael W. Deem and Ramdas Pophale) SiO2 
 PCOD9443158
Probable space group: P N N M
;
_chemical_formula_sum "Si O2"
_cell_formula_units_Z 64
_cell_length_a 21.591840
_cell_length_b 18.139674
_cell_length_c 7.910720
_cell_angle_alpha 90.000000
_cell_angle_beta 90.000000
_cell_angle_gamma 90.000000
_cell_volume 3098.383306
_symmetry_space_group_name_H-M "P N N M"
_symmetry_group_IT_number 58
_symmetry_cell_setting 'orthorhombic'
loop_
_space_group_symop_operation_xyz
x,y,z
-x,-y,z
1/2+x,1/2-y,1/2-z
1/2-x,1/2+y,1/2-z
-x,-y,-z
x,y,-z
1/2-x,1/2+y,1/2+z
1/2+x,1/2-y,1/2+z
loop_
_atom_site_type_symbol
_atom_site_label
_atom_site_fract_x
_atom_site_fract_y
_atom_site_fract_z
Si Si1 0.078741 0.656833 0.796062
Si Si2 0.675556 0.270065 0.695848
Si Si3 0.873142 0.087557 0.296728
Si Si4 0.936610 0.668926 0.792277
Si Si5 0.074803 0.494591 0.807178
Si Si6 0.361897 0.577586 0.808487
Si Si7 0.992124 0.911565 0.186670
Si Si8 0.310329 0.267136 0.795178
O O1 0.093705 0.573547 0.730731
O O2 0.133719 0.712883 0.754669
O O3 0.008771 0.679614 0.739147
O O4 0.075013 0.651089 0.000000
O O5 0.677749 0.247328 0.500000
O O6 0.614081 0.229034 0.764496
O O7 0.669663 0.357805 0.707083
O O8 0.742308 0.251555 0.772317
O O9 0.874055 0.081600 0.500000
O O10 0.826247 0.149811 0.241850
O O11 0.941120 0.114852 0.242911
O O12 0.859210 0.004910 0.234275
O O13 0.914327 0.587057 0.735004
O O14 0.938276 0.668387 0.000000
O O15 0.000000 0.500000 0.815537
O O16 0.099224 0.492668 0.000000
O O17 0.434536 0.599339 0.807116
O O18 0.338307 0.577022 0.000000
O O19 0.976531 0.882432 0.000000
O O20 0.000000 0.000000 0.177427
O O21 0.309028 0.265418 0.000000
#
# Coordination Sequence:
#
# PCOD9443158 Si02
#       8
#     8   8   8   8   8   8   8   8
#     4   9  17  31  55  84 106 129 171 222 267 315
#     4  10  21  37  54  75 107 143 181 220 264 320
#     4   9  19  36  54  75 106 145 182 218 266 320
#     4   8  15  30  54  81 104 131 170 219 266 311
#     4   7  11  24  48  79 107 125 156 213 268 309
#     4  10  20  35  55  78 108 141 177 221 266 316
#     4   9  17  30  52  82 108 134 174 220 264 311
#     4  10  22  38  52  73 110 147 177 216 268 319
#
# _framework density 20.655934999999999
#
# number of rings (size 3 to 8) (size 9 to 14) (size 15 to 20)
#    0.000    3.000    0.000    2.250    1.750    3.000 
#    2.250    0.000    0.000    4.125    0.000    0.000 
#    0.000    0.000    0.000    0.000    0.000    0.000 
#
# Total GULP energy -356434.398855 kJ/mol
# GULP energy per Si atom -5569.287482 kJ/mol
# Density = 2.060892 g / cm^3
# Si number density = 20.655935 Si / 1000 Ang^3
#
#
#
# Elastic Constant Matrix: (Units=GPa)
#
#
# Indices 1 2 3 4 5 6 
#
# 1 97.9177 62.3677 5.5379 0.0000 0.0000 0.0000
# 2 62.3677 122.7443 6.5269 0.0000 0.0000 0.0000
# 3 5.5379 6.5269 18.7512 0.0000 0.0000 0.0000
# 4 0.0000 0.0000 0.0000 10.3016 0.0000 0.0000
# 5 0.0000 0.0000 0.0000 0.0000 -0.1295 0.0000
# 6 0.0000 0.0000 0.0000 0.0000 0.0000 26.2793
#
#
#
# Elastic Compliance Matrix: (Units=1/GPa)
#
#
# Indices 1 2 3 4 5 6 
#
# 1 0.015161 -0.007606 -0.001830 0.000000 0.000000 0.000000
# 2 -0.007606 0.012117 -0.001971 0.000000 0.000000 0.000000
# 3 -0.001830 -0.001971 0.054556 0.000000 0.000000 0.000000
# 4 0.000000 0.000000 0.000000 0.097073 0.000000 0.000000
# 5 0.000000 0.000000 0.000000 0.000000 -7.722296 0.000000
# 6 0.000000 0.000000 0.000000 0.000000 0.000000 0.038053
#
#
# Mechanical properties :
#
#
# Convention : Reuss Voigt Hill
#
# Bulk Modulus (GPa) = 16.94362 43.14204 30.04283
# Shear Modulus (GPa) = -0.66999 18.28899 8.80950
#
# Velocity S-wave (km/s) = -0.57014 2.97881 2.06740
# Velocity P-wave (km/s) = 2.79055 5.72385 4.50276
#
# Compressibility (1/GPa) = 0.05901925
#
# Stress axis : x y z
#
# Youngs Moduli (GPa) = 65.95985 82.53181 18.32965
#
# Poissons Ratio (x) = 0.62774 0.03354
# Poissons Ratio (y) = 0.50169 0.03613
# Poissons Ratio (z) = 0.12071 0.16269
#
# Static dielectric constant tensor:
#      x y z
#    x 1.728430 0.000000 0.000000 
#    y 0.000000 1.778320 0.000000 
#    z 0.000000 0.000000 1.773970 
# 
# From -- ./inp_files/9248.got.cif
#   From: 2010.05.17/outbox.cif.g08.bks.cpg/sg58_5_cif.got.tgz:9248.got - 2010.06.03 14:20:14.
