data_PCOD9443847
_publ_section_title
;
Structure prediction by ZEFSAII (Michael W. Deem and Ramdas Pophale) SiO2 
 PCOD9443847
Probable space group: P N N M
;
_chemical_formula_sum "Si O2"
_cell_formula_units_Z 48
_cell_length_a 8.025388
_cell_length_b 17.727124
_cell_length_c 14.454570
_cell_angle_alpha 90.000000
_cell_angle_beta 90.000000
_cell_angle_gamma 90.000000
_cell_volume 2056.409007
_symmetry_space_group_name_H-M "P N N M"
_symmetry_group_IT_number 58
_symmetry_cell_setting 'orthorhombic'
loop_
_space_group_symop_operation_xyz
x,y,z
-x,-y,z
1/2+x,1/2-y,1/2-z
1/2-x,1/2+y,1/2-z
-x,-y,-z
x,y,-z
1/2-x,1/2+y,1/2+z
1/2+x,1/2-y,1/2+z
loop_
_atom_site_type_symbol
_atom_site_label
_atom_site_fract_x
_atom_site_fract_y
_atom_site_fract_z
Si Si1 0.976287 0.811567 0.000000
Si Si2 0.874879 0.838862 0.799023
Si Si3 0.599849 0.567522 0.152055
Si Si4 0.507456 0.207515 0.000000
Si Si5 0.985307 0.696446 0.703982
Si Si6 0.728706 0.175722 0.500000
Si Si7 0.768483 0.581688 0.500000
Si Si8 0.675369 0.039947 0.807762
O O1 0.169239 0.839247 0.000000
O O2 0.911130 0.852421 0.906613
O O3 0.951197 0.718993 0.000000
O O4 0.674549 0.833852 0.788993
O O5 0.979308 0.886880 0.723715
O O6 0.946127 0.755223 0.782459
O O7 0.500000 0.500000 0.101815
O O8 0.705443 0.624694 0.086438
O O9 0.720600 0.519378 0.219144
O O10 0.556207 0.232815 0.896575
O O11 0.541716 0.116905 0.000000
O O12 0.324282 0.243740 0.000000
O O13 0.859878 0.627728 0.708737
O O14 0.739479 0.535257 0.592565
O O15 0.500000 0.000000 0.812437
#
# Coordination Sequence:
#
# PCOD9443847 Si02
#       8
#     4   8   8   4   8   4   4   8
#     4  12  22  38  66 102 137 163 229 293 343 398
#     4  12  22  39  64  97 134 171 227 287 340 404
#     4  12  26  45  67  97 135 187 235 274 343 412
#     4  10  20  38  62  91 131 165 221 273 349 393
#     4  11  22  38  64  96 128 177 226 282 345 403
#     4  12  23  46  67  99 138 179 228 289 341 401
#     4  10  23  38  66 104 136 176 221 281 355 417
#     4  11  23  44  64  96 140 181 227 278 347 419
#
# _framework density 23.341659
#
# number of rings (size 3 to 8) (size 9 to 14) (size 15 to 20)
#    0.000    0.667    5.000    3.500    2.333    0.000 
#    0.000    3.750    0.000    0.000    0.000    0.000 
#    0.000    0.000    0.000    0.000    0.000    0.000 
#
# Total GULP energy -267468.004876 kJ/mol
# GULP energy per Si atom -5572.250102 kJ/mol
# Density = 2.328853 g / cm^3
# Si number density = 23.341659 Si / 1000 Ang^3
#
#
#
# Elastic Constant Matrix: (Units=GPa)
#
#
# Indices 1 2 3 4 5 6 
#
# 1 75.0022 17.0018 40.5529 0.0000 0.0000 0.0000
# 2 17.0018 71.4347 28.6758 0.0000 0.0000 0.0000
# 3 40.5529 28.6758 158.0718 0.0000 0.0000 0.0000
# 4 0.0000 0.0000 0.0000 -14.3222 0.0000 0.0000
# 5 0.0000 0.0000 0.0000 0.0000 35.5769 0.0000
# 6 0.0000 0.0000 0.0000 0.0000 0.0000 43.1501
#
#
#
# Elastic Compliance Matrix: (Units=1/GPa)
#
#
# Indices 1 2 3 4 5 6 
#
# 1 0.015824 -0.002304 -0.003642 0.000000 0.000000 0.000000
# 2 -0.002304 0.015434 -0.002209 0.000000 0.000000 0.000000
# 3 -0.003642 -0.002209 0.007661 0.000000 0.000000 0.000000
# 4 0.000000 0.000000 0.000000 -0.069822 0.000000 0.000000
# 5 0.000000 0.000000 0.000000 0.000000 0.028108 0.000000
# 6 0.000000 0.000000 0.000000 0.000000 0.000000 0.023175
#
#
# Mechanical properties :
#
#
# Convention : Reuss Voigt Hill
#
# Bulk Modulus (GPa) = 44.22841 52.99666 48.61253
# Shear Modulus (GPa) = 113.05399 27.43284 70.24342
#
# Velocity S-wave (km/s) = 6.96703 3.43195 5.49171
# Velocity P-wave (km/s) = 9.14925 6.20148 7.81560
#
# Compressibility (1/GPa) = 0.02260990
#
# Stress axis : x y z
#
# Youngs Moduli (GPa) = 63.19392 64.79248 130.52842
#
# Poissons Ratio (x) = 0.14931 0.47534
# Poissons Ratio (y) = 0.14563 0.28829
# Poissons Ratio (z) = 0.23013 0.14311
#
# Static dielectric constant tensor:
#      x y z
#    x 2.040100 0.000000 0.000000 
#    y 0.000000 1.892890 0.000000 
#    z 0.000000 0.000000 1.909410 
# 
# From -- ./inp_files/19911.got.cif
#   From: 2010.05.17/outbox.cif.g08.bks.cpg/sg58_10_cif.got.tgz:19911.got - 2010.06.03 14:20:14.
