data_PCOD9443855
_publ_section_title
;
Structure prediction by ZEFSAII (Michael W. Deem and Ramdas Pophale) SiO2 
 PCOD9443855
Probable space group: P N N M
;
_chemical_formula_sum "Si O2"
_cell_formula_units_Z 58
_cell_length_a 11.093404
_cell_length_b 27.553664
_cell_length_c 9.778544
_cell_angle_alpha 90.000000
_cell_angle_beta 90.000000
_cell_angle_gamma 90.000000
_cell_volume 2988.948154
_symmetry_space_group_name_H-M "P N N M"
_symmetry_group_IT_number 58
_symmetry_cell_setting 'orthorhombic'
loop_
_space_group_symop_operation_xyz
x,y,z
-x,-y,z
1/2+x,1/2-y,1/2-z
1/2-x,1/2+y,1/2-z
-x,-y,-z
x,y,-z
1/2-x,1/2+y,1/2+z
1/2+x,1/2-y,1/2+z
loop_
_atom_site_type_symbol
_atom_site_label
_atom_site_fract_x
_atom_site_fract_y
_atom_site_fract_z
Si Si1 0.203347 0.851999 0.161370
Si Si2 0.829856 0.547712 0.263117
Si Si3 0.946585 0.812340 0.165119
Si Si4 0.870253 0.975073 0.655572
Si Si5 0.953731 0.392440 0.848577
Si Si6 0.396826 0.796265 0.339709
Si Si7 0.500000 0.000000 0.000000
Si Si8 0.728821 0.394380 0.336984
O O1 0.249715 0.906930 0.182414
O O2 0.289583 0.816804 0.247660
O O3 0.066668 0.841113 0.207793
O O4 0.212889 0.841054 0.000000
O O5 0.738943 0.512210 0.185027
O O6 0.931327 0.572855 0.168909
O O7 0.904484 0.520021 0.380743
O O8 0.940674 0.756468 0.208679
O O9 0.827033 0.842270 0.201407
O O10 0.950332 0.811955 0.000000
O O11 0.860202 0.956395 0.500000
O O12 0.857665 0.933779 0.769019
O O13 0.000000 0.000000 0.668226
O O14 0.858326 0.402151 0.730458
O O15 0.000241 0.337300 0.833797
O O16 0.901293 0.398944 0.000000
O O17 0.360309 0.792749 0.500000
O O18 0.735491 0.399444 0.500000
#
# Coordination Sequence:
#
# PCOD9443855 Si02
#       8
#     8   8   8   8   8   8   2   8
#     4  10  20  38  63  88 119 158 206 255 310 375
#     4  11  23  39  64  91 127 165 208 262 319 376
#     4   9  20  39  60  86 123 163 202 253 315 378
#     4  11  25  44  66  92 125 167 216 263 314 378
#     4  10  22  39  62  89 124 165 206 256 317 378
#     4   9  20  38  60  87 119 159 201 248 309 374
#     4  12  24  36  60  96 128 160 214 266 312 376
#     4  11  24  39  61  90 126 165 206 262 315 371
#
# _framework density 19.404820000000001
#
# number of rings (size 3 to 8) (size 9 to 14) (size 15 to 20)
#    0.000    1.793    0.690    2.483    5.793    1.379 
#    0.000    4.828    0.000    0.000    0.000    0.000 
#    0.000    0.000    0.000    0.000    0.000    0.000 
#
# Total GULP energy -323263.403630 kJ/mol
# GULP energy per Si atom -5573.506959 kJ/mol
# Density = 1.936065 g / cm^3
# Si number density = 19.404820 Si / 1000 Ang^3
#
#
#
# Elastic Constant Matrix: (Units=GPa)
#
#
# Indices 1 2 3 4 5 6 
#
# 1 73.5453 24.9320 28.3001 0.0000 0.0000 0.0000
# 2 24.9320 80.2937 26.6963 0.0000 0.0000 0.0000
# 3 28.3001 26.6963 93.4448 0.0000 0.0000 0.0000
# 4 0.0000 0.0000 0.0000 17.1789 0.0000 0.0000
# 5 0.0000 0.0000 0.0000 0.0000 16.1715 0.0000
# 6 0.0000 0.0000 0.0000 0.0000 0.0000 22.4276
#
#
#
# Elastic Compliance Matrix: (Units=1/GPa)
#
#
# Indices 1 2 3 4 5 6 
#
# 1 0.016375 -0.003796 -0.003875 0.000000 0.000000 0.000000
# 2 -0.003796 0.014642 -0.003033 0.000000 0.000000 0.000000
# 3 -0.003875 -0.003033 0.012742 0.000000 0.000000 0.000000
# 4 0.000000 0.000000 0.000000 0.058211 0.000000 0.000000
# 5 0.000000 0.000000 0.000000 0.000000 0.061837 0.000000
# 6 0.000000 0.000000 0.000000 0.000000 0.000000 0.044588
#
#
# Mechanical properties :
#
#
# Convention : Reuss Voigt Hill
#
# Bulk Modulus (GPa) = 44.74343 45.23785 44.99064
# Shear Modulus (GPa) = 21.07458 22.31262 21.69360
#
# Velocity S-wave (km/s) = 3.29910 3.39462 3.34720
# Velocity P-wave (km/s) = 6.13352 6.22317 6.17851
#
# Compressibility (1/GPa) = 0.02234965
#
# Stress axis : x y z
#
# Youngs Moduli (GPa) = 61.06871 68.29870 78.48355
#
# Poissons Ratio (x) = 0.25929 0.30410
# Poissons Ratio (y) = 0.23184 0.23806
# Poissons Ratio (z) = 0.23662 0.20716
#
# Static dielectric constant tensor:
#      x y z
#    x 1.667270 0.000000 0.000000 
#    y 0.000000 1.700080 0.000000 
#    z 0.000000 0.000000 1.653620 
# 
# From -- ./inp_files/4431.got.cif
#   From: 2010.05.17/outbox.cif.g08.bks.cpg/sg58_3_cif.got.tgz:4431.got - 2010.06.03 14:20:14.
