data_PCOD9443617
_publ_section_title
;
Structure prediction by ZEFSAII (Michael W. Deem and Ramdas Pophale) SiO2 
 PCOD9443617
Probable space group: P N N M
;
_chemical_formula_sum "Si O2"
_cell_formula_units_Z 48
_cell_length_a 15.914203
_cell_length_b 18.357551
_cell_length_c 8.492981
_cell_angle_alpha 90.000000
_cell_angle_beta 90.000000
_cell_angle_gamma 90.000000
_cell_volume 2481.188671
_symmetry_space_group_name_H-M "P N N M"
_symmetry_group_IT_number 58
_symmetry_cell_setting 'orthorhombic'
loop_
_space_group_symop_operation_xyz
x,y,z
-x,-y,z
1/2+x,1/2-y,1/2-z
1/2-x,1/2+y,1/2-z
-x,-y,-z
x,y,-z
1/2-x,1/2+y,1/2+z
1/2+x,1/2-y,1/2+z
loop_
_atom_site_type_symbol
_atom_site_label
_atom_site_fract_x
_atom_site_fract_y
_atom_site_fract_z
Si Si1 0.753345 0.205929 0.690481
Si Si2 0.916782 0.788398 0.190638
Si Si3 0.584831 0.958976 0.688813
Si Si4 0.081114 0.705635 0.688841
Si Si5 0.250750 0.958733 0.188901
Si Si6 0.582983 0.456701 0.307865
O O1 0.753350 0.203096 0.500000
O O2 0.669353 0.248897 0.739782
O O3 0.836695 0.249204 0.741251
O O4 0.752756 0.124243 0.754241
O O5 0.918119 0.872603 0.242433
O O6 0.997300 0.745447 0.252804
O O7 0.919380 0.787566 0.000000
O O8 0.585475 0.958769 0.500000
O O9 0.584955 0.876421 0.748692
O O10 0.500000 0.000000 0.742032
O O11 0.666233 0.001710 0.748881
O O12 0.081324 0.703619 0.500000
O O13 0.167501 0.002128 0.242557
O O14 0.252167 0.960100 0.000000
O O15 0.500000 0.500000 0.256019
O O16 0.582711 0.456713 0.500000
#
# Coordination Sequence:
#
# PCOD9443617 Si02
#       6
#     8   8   8   8   8   8
#     4  10  22  39  57  81 118 157 188 229 290 349
#     4  10  20  37  59  81 111 151 189 227 282 348
#     4  11  24  41  60  83 115 155 193 233 290 351
#     4  11  23  39  60  87 117 149 191 241 285 331
#     4  11  22  37  61  89 114 147 194 242 283 331
#     4   9  18  34  57  84 113 147 187 230 280 340
#
# _framework density 19.345565000000001
#
# number of rings (size 3 to 8) (size 9 to 14) (size 15 to 20)
#    0.000    1.667    0.000    4.500    0.000   11.333 
#    0.000    3.333    0.000    4.500    0.000    0.000 
#    0.000    0.000    0.000    0.000    0.000    0.000 
#
# Total GULP energy -268385.013107 kJ/mol
# GULP energy per Si atom -5591.354440 kJ/mol
# Density = 1.930153 g / cm^3
# Si number density = 19.345565 Si / 1000 Ang^3
#
#
#
# Elastic Constant Matrix: (Units=GPa)
#
#
# Indices 1 2 3 4 5 6 
#
# 1 219.8706 126.7278 35.7630 0.0000 0.0000 0.0000
# 2 126.7278 220.4402 33.8090 0.0000 0.0000 0.0000
# 3 35.7630 33.8090 21.0180 0.0000 0.0000 0.0000
# 4 0.0000 0.0000 0.0000 -17.6333 0.0000 0.0000
# 5 0.0000 0.0000 0.0000 0.0000 -51.0628 0.0000
# 6 0.0000 0.0000 0.0000 0.0000 0.0000 47.0441
#
#
#
# Elastic Compliance Matrix: (Units=1/GPa)
#
#
# Indices 1 2 3 4 5 6 
#
# 1 0.007682 -0.003201 -0.007921 0.000000 0.000000 0.000000
# 2 -0.003201 0.007356 -0.006386 0.000000 0.000000 0.000000
# 3 -0.007921 -0.006386 0.071329 0.000000 0.000000 0.000000
# 4 0.000000 0.000000 0.000000 -0.056711 0.000000 0.000000
# 5 0.000000 0.000000 0.000000 0.000000 -0.019584 0.000000
# 6 0.000000 0.000000 0.000000 0.000000 0.000000 0.021257
#
#
# Mechanical properties :
#
#
# Convention : Reuss Voigt Hill
#
# Bulk Modulus (GPa) = 19.47428 94.88095 57.17761
# Shear Modulus (GPa) = 59.90747 13.33820 36.62283
#
# Velocity S-wave (km/s) = 5.57084 2.62863 4.35568
# Velocity P-wave (km/s) = 7.17408 7.63968 7.41054
#
# Compressibility (1/GPa) = 0.05134979
#
# Stress axis : x y z
#
# Youngs Moduli (GPa) = 130.18052 135.94190 14.01958
#
# Poissons Ratio (x) = 0.43517 0.11105
# Poissons Ratio (y) = 0.41673 0.08953
# Poissons Ratio (z) = 1.03120 0.86811
#
# Static dielectric constant tensor:
#      x y z
#    x 1.649770 0.000000 0.000000 
#    y 0.000000 1.630260 0.000000 
#    z 0.000000 0.000000 1.667660 
# 
# From -- ./inp_files/5745.got.cif
#   From: 2010.05.17/outbox.cif.g08.bks.cpg/sg58_3_cif.got.tgz:5745.got - 2010.06.03 14:20:14.
