data_PCOD9443580
_publ_section_title
;
Structure prediction by ZEFSAII (Michael W. Deem and Ramdas Pophale) SiO2 
 PCOD9443580
Probable space group: P N N M
;
_chemical_formula_sum "Si O2"
_cell_formula_units_Z 58
_cell_length_a 18.494452
_cell_length_b 16.239923
_cell_length_c 8.864493
_cell_angle_alpha 90.000000
_cell_angle_beta 90.000000
_cell_angle_gamma 90.000000
_cell_volume 2662.436967
_symmetry_space_group_name_H-M "P N N M"
_symmetry_group_IT_number 58
_symmetry_cell_setting 'orthorhombic'
loop_
_space_group_symop_operation_xyz
x,y,z
-x,-y,z
1/2+x,1/2-y,1/2-z
1/2-x,1/2+y,1/2-z
-x,-y,-z
x,y,-z
1/2-x,1/2+y,1/2+z
1/2+x,1/2-y,1/2+z
loop_
_atom_site_type_symbol
_atom_site_label
_atom_site_fract_x
_atom_site_fract_y
_atom_site_fract_z
Si Si1 0.774080 0.182089 0.320623
Si Si2 0.922522 0.113131 0.253241
Si Si3 0.000000 0.000000 0.000000
Si Si4 0.512829 0.228372 0.826767
Si Si5 0.837298 0.957682 0.664653
Si Si6 0.562295 0.936879 0.182978
Si Si7 0.855453 0.796221 0.823172
Si Si8 0.206388 0.472573 0.677346
O O1 0.792625 0.180288 0.500000
O O2 0.846566 0.163584 0.224999
O O3 0.725630 0.262853 0.293973
O O4 0.720183 0.107753 0.277751
O O5 0.972271 0.184177 0.321503
O O6 0.890965 0.034662 0.342451
O O7 0.967612 0.064777 0.127321
O O8 0.459103 0.155689 0.774911
O O9 0.583366 0.230990 0.722577
O O10 0.534634 0.210834 0.000000
O O11 0.802882 0.948845 0.500000
O O12 0.872312 0.873421 0.717172
O O13 0.779354 0.976382 0.794629
O O14 0.639103 0.973060 0.229982
O O15 0.500000 0.000000 0.231336
O O16 0.564315 0.937341 0.000000
O O17 0.862067 0.816903 0.000000
O O18 0.198443 0.451660 0.500000
#
# Coordination Sequence:
#
# PCOD9443580 Si02
#       8
#     8   8   2   8   8   8   8   8
#     4  10  23  44  67  95 134 180 228 281 343 415
#     4  11  25  43  70  95 137 183 228 286 348 423
#     4  12  28  44  66 104 138 172 224 294 360 410
#     4  11  23  41  67  97 135 181 230 280 346 423
#     4  11  24  42  64  93 130 174 227 281 342 415
#     4   9  19  36  61  95 133 171 220 274 334 407
#     4  11  25  42  65  95 132 172 225 283 341 402
#     4  10  20  36  64  96 125 165 217 276 330 392
#
# _framework density 21.784552999999999
#
# number of rings (size 3 to 8) (size 9 to 14) (size 15 to 20)
#    0.000    1.517    0.000    4.966    9.655    2.207 
#    0.000    5.172    0.000    3.724    0.000    0.000 
#    0.000    0.000    0.000    0.000    0.000    0.000 
#
# Total GULP energy -322998.867757 kJ/mol
# GULP energy per Si atom -5568.945996 kJ/mol
# Density = 2.173497 g / cm^3
# Si number density = 21.784553 Si / 1000 Ang^3
#
#
#
# Elastic Constant Matrix: (Units=GPa)
#
#
# Indices 1 2 3 4 5 6 
#
# 1 81.7221 35.0276 17.5227 0.0000 0.0000 0.0000
# 2 35.0276 87.8656 13.1640 0.0000 0.0000 0.0000
# 3 17.5227 13.1640 46.0101 0.0000 0.0000 0.0000
# 4 0.0000 0.0000 0.0000 21.5740 0.0000 0.0000
# 5 0.0000 0.0000 0.0000 0.0000 176.5391 0.0000
# 6 0.0000 0.0000 0.0000 0.0000 0.0000 40.4882
#
#
#
# Elastic Compliance Matrix: (Units=1/GPa)
#
#
# Indices 1 2 3 4 5 6 
#
# 1 0.015543 -0.005547 -0.004332 0.000000 0.000000 0.000000
# 2 -0.005547 0.013870 -0.001856 0.000000 0.000000 0.000000
# 3 -0.004332 -0.001856 0.023915 0.000000 0.000000 0.000000
# 4 0.000000 0.000000 0.000000 0.046352 0.000000 0.000000
# 5 0.000000 0.000000 0.000000 0.000000 0.005664 0.000000
# 6 0.000000 0.000000 0.000000 0.000000 0.000000 0.024699
#
#
# Mechanical properties :
#
#
# Convention : Reuss Voigt Hill
#
# Bulk Modulus (GPa) = 33.49188 38.55847 36.02517
# Shear Modulus (GPa) = 30.58709 57.71250 44.14979
#
# Velocity S-wave (km/s) = 3.75116 5.15266 4.50672
# Velocity P-wave (km/s) = 5.84544 7.28960 6.60709
#
# Compressibility (1/GPa) = 0.02985799
#
# Stress axis : x y z
#
# Youngs Moduli (GPa) = 64.33692 72.09571 41.81419
#
# Poissons Ratio (x) = 0.39993 0.18116
# Poissons Ratio (y) = 0.35689 0.07760
# Poissons Ratio (z) = 0.27873 0.13380
#
# Static dielectric constant tensor:
#      x y z
#    x 1.840420 0.000000 0.000000 
#    y 0.000000 1.835670 0.000000 
#    z 0.000000 0.000000 1.743330 
# 
# From -- ./inp_files/7997.got.cif
#   From: 2010.05.17/outbox.cif.g08.bks.cpg/sg58_4_cif.got.tgz:7997.got - 2010.06.03 14:20:14.
