data_PCOD9443040
_publ_section_title
;
Structure prediction by ZEFSAII (Michael W. Deem and Ramdas Pophale) SiO2 
 PCOD9443040
Probable space group: P N N M
;
_chemical_formula_sum "Si O2"
_cell_formula_units_Z 64
_cell_length_a 22.750142
_cell_length_b 16.092194
_cell_length_c 9.438939
_cell_angle_alpha 90.000000
_cell_angle_beta 90.000000
_cell_angle_gamma 90.000000
_cell_volume 3455.592723
_symmetry_space_group_name_H-M "P N N M"
_symmetry_group_IT_number 58
_symmetry_cell_setting 'orthorhombic'
loop_
_space_group_symop_operation_xyz
x,y,z
-x,-y,z
1/2+x,1/2-y,1/2-z
1/2-x,1/2+y,1/2-z
-x,-y,-z
x,y,-z
1/2-x,1/2+y,1/2+z
1/2+x,1/2-y,1/2+z
loop_
_atom_site_type_symbol
_atom_site_label
_atom_site_fract_x
_atom_site_fract_y
_atom_site_fract_z
Si Si1 0.227177 0.458007 0.839854
Si Si2 0.448757 0.567617 0.169986
Si Si3 0.959943 0.741887 0.665421
Si Si4 0.843519 0.370915 0.843157
Si Si5 0.979899 0.408366 0.167235
Si Si6 0.250347 0.697533 0.339112
Si Si7 0.172714 0.320550 0.336113
Si Si8 0.328499 0.528865 0.335990
O O1 0.197908 0.548369 0.848893
O O2 0.180041 0.401278 0.760030
O O3 0.286811 0.464948 0.749041
O O4 0.238677 0.429589 0.000000
O O5 0.500000 0.500000 0.195085
O O6 0.468434 0.661825 0.209309
O O7 0.389710 0.544400 0.255200
O O8 0.436113 0.568858 0.000000
O O9 0.976936 0.734900 0.500000
O O10 0.890605 0.722041 0.676368
O O11 0.991726 0.669994 0.753592
O O12 0.909881 0.399148 0.819142
O O13 0.815290 0.319115 0.716291
O O14 0.840459 0.330402 0.000000
O O15 0.000000 0.500000 0.218613
O O16 0.995300 0.403868 0.000000
O O17 0.251115 0.728660 0.500000
O O18 0.279574 0.758331 0.226801
O O19 0.290479 0.614330 0.337456
O O20 0.183065 0.340617 0.500000
O O21 0.337740 0.504621 0.500000
#
# Coordination Sequence:
#
# PCOD9443040 Si02
#       8
#     8   8   8   8   8   8   8   8
#     4  10  20  35  58  85 114 149 190 234 289 354
#     4  10  21  40  63  84 113 158 207 254 305 361
#     4  10  22  38  59  88 118 156 204 252 303 355
#     4   9  19  36  56  79 111 152 188 228 285 344
#     4  10  21  38  60  87 120 159 201 243 295 360
#     4  10  20  34  56  82 109 145 186 232 285 345
#     4  11  21  35  56  83 115 146 187 239 293 351
#     4  10  20  36  58  85 115 146 189 241 296 353
#
# _framework density 18.520702
#
# number of rings (size 3 to 8) (size 9 to 14) (size 15 to 20)
#    0.000    2.000    1.250    2.250    0.000    5.000 
#    2.250    0.000    0.000    0.000    0.000    0.000 
#    0.000    0.000    0.000    0.000    0.000    0.000 
#
# Total GULP energy -356899.662884 kJ/mol
# GULP energy per Si atom -5576.557233 kJ/mol
# Density = 1.847855 g / cm^3
# Si number density = 18.520702 Si / 1000 Ang^3
#
#
#
# Elastic Constant Matrix: (Units=GPa)
#
#
# Indices 1 2 3 4 5 6 
#
# 1 73.5826 31.1668 47.4436 0.0000 0.0000 0.0000
# 2 31.1668 72.4781 43.8568 0.0000 0.0000 0.0000
# 3 47.4436 43.8568 97.9665 0.0000 0.0000 0.0000
# 4 0.0000 0.0000 0.0000 21.9828 0.0000 0.0000
# 5 0.0000 0.0000 0.0000 0.0000 28.1581 0.0000
# 6 0.0000 0.0000 0.0000 0.0000 0.0000 23.4700
#
#
#
# Elastic Compliance Matrix: (Units=1/GPa)
#
#
# Indices 1 2 3 4 5 6 
#
# 1 0.020516 -0.003854 -0.008210 0.000000 0.000000 0.000000
# 2 -0.003854 0.019647 -0.006929 0.000000 0.000000 0.000000
# 3 -0.008210 -0.006929 0.017286 0.000000 0.000000 0.000000
# 4 0.000000 0.000000 0.000000 0.045490 0.000000 0.000000
# 5 0.000000 0.000000 0.000000 0.000000 0.035514 0.000000
# 6 0.000000 0.000000 0.000000 0.000000 0.000000 0.042608
#
#
# Mechanical properties :
#
#
# Convention : Reuss Voigt Hill
#
# Bulk Modulus (GPa) = 51.38159 54.32905 52.85532
# Shear Modulus (GPa) = 22.16945 22.82620 22.49782
#
# Velocity S-wave (km/s) = 3.46354 3.51446 3.48909
# Velocity P-wave (km/s) = 6.61799 6.77248 6.69568
#
# Compressibility (1/GPa) = 0.01946222
#
# Stress axis : x y z
#
# Youngs Moduli (GPa) = 48.74140 50.89717 57.85163
#
# Poissons Ratio (x) = 0.19617 0.47498
# Poissons Ratio (y) = 0.18786 0.40085
# Poissons Ratio (z) = 0.40018 0.35267
#
# Static dielectric constant tensor:
#      x y z
#    x 1.615770 0.000000 0.000000 
#    y 0.000000 1.673850 0.000000 
#    z 0.000000 0.000000 1.640140 
# 
# From -- ./inp_files/9231.got.cif
#   From: 2010.05.17/outbox.cif.g08.bks.cpg/sg58_5_cif.got.tgz:9231.got - 2010.06.03 14:20:14.
