data_PCOD9443750
_publ_section_title
;
Structure prediction by ZEFSAII (Michael W. Deem and Ramdas Pophale) SiO2 
 PCOD9443750
Probable space group: P N N M
;
_chemical_formula_sum "Si O2"
_cell_formula_units_Z 24
_cell_length_a 13.654778
_cell_length_b 4.915888
_cell_length_c 17.585473
_cell_angle_alpha 90.000000
_cell_angle_beta 90.000000
_cell_angle_gamma 90.000000
_cell_volume 1180.431194
_symmetry_space_group_name_H-M "P N N M"
_symmetry_group_IT_number 58
_symmetry_cell_setting 'orthorhombic'
loop_
_space_group_symop_operation_xyz
x,y,z
-x,-y,z
1/2+x,1/2-y,1/2-z
1/2-x,1/2+y,1/2-z
-x,-y,-z
x,y,-z
1/2-x,1/2+y,1/2+z
1/2+x,1/2-y,1/2+z
loop_
_atom_site_type_symbol
_atom_site_label
_atom_site_fract_x
_atom_site_fract_y
_atom_site_fract_z
Si Si1 0.000000 0.000000 0.629911
Si Si2 0.351546 0.587570 0.000000
Si Si3 0.722112 0.406847 0.500000
Si Si4 0.567253 0.235678 0.376223
Si Si5 0.000000 0.500000 0.267198
O O1 0.082692 0.124015 0.574712
O O2 0.964971 0.248549 0.682354
O O3 0.318649 0.275378 0.000000
O O4 0.257364 0.782589 0.000000
O O5 0.658385 0.321778 0.426782
O O6 0.500000 0.500000 0.367506
O O7 0.500000 0.000000 0.413664
O O8 0.582469 0.112894 0.291698
#
# Coordination Sequence:
#
# PCOD9443750 Si02
#       5
#     4   4   4   8   4
#     4  11  22  46  62  85 118 170 228 243 312 360
#     4  11  26  39  66  87 120 171 208 273 290 358
#     4  12  22  40  62  99 128 149 214 252 314 370
#     4  10  20  37  64  95 122 167 192 248 323 377
#     4  10  20  38  70  84 120 170 204 254 304 394
#
# _framework density 20.331554000000001
#
# number of rings (size 3 to 8) (size 9 to 14) (size 15 to 20)
#    1.000    0.333    1.667    5.000    0.000    2.667 
#    0.000    6.667    0.000    0.000    0.000    0.000 
#    0.000    0.000    0.000    0.000    0.000    0.000 
#
# Total GULP energy -133803.261454 kJ/mol
# GULP energy per Si atom -5575.135894 kJ/mol
# Density = 2.028528 g / cm^3
# Si number density = 20.331554 Si / 1000 Ang^3
#
#
#
# Elastic Constant Matrix: (Units=GPa)
#
#
# Indices 1 2 3 4 5 6 
#
# 1 45.7553 8.6291 35.5090 0.0000 0.0000 0.0000
# 2 8.6291 116.5834 42.4521 0.0000 0.0000 0.0000
# 3 35.5090 42.4521 141.9429 0.0000 0.0000 0.0000
# 4 0.0000 0.0000 0.0000 7.8812 0.0000 0.0000
# 5 0.0000 0.0000 0.0000 0.0000 -12.4726 0.0000
# 6 0.0000 0.0000 0.0000 0.0000 0.0000 36.4708
#
#
#
# Elastic Compliance Matrix: (Units=1/GPa)
#
#
# Indices 1 2 3 4 5 6 
#
# 1 0.027149 0.000520 -0.006947 0.000000 0.000000 0.000000
# 2 0.000520 0.009636 -0.003012 0.000000 0.000000 0.000000
# 3 -0.006947 -0.003012 0.009684 0.000000 0.000000 0.000000
# 4 0.000000 0.000000 0.000000 0.126884 0.000000 0.000000
# 5 0.000000 0.000000 0.000000 0.000000 -0.080176 0.000000
# 6 0.000000 0.000000 0.000000 0.000000 0.000000 0.027419
#
#
# Mechanical properties :
#
#
# Convention : Reuss Voigt Hill
#
# Bulk Modulus (GPa) = 36.24438 53.05133 44.64785
# Shear Modulus (GPa) = 33.63144 20.88866 27.26005
#
# Velocity S-wave (km/s) = 4.07154 3.20879 3.66563
# Velocity P-wave (km/s) = 6.32207 6.31492 6.31849
#
# Compressibility (1/GPa) = 0.02759049
#
# Stress axis : x y z
#
# Youngs Moduli (GPa) = 36.83406 103.77941 103.26448
#
# Poissons Ratio (x) = -0.05399 0.71740
# Poissons Ratio (y) = -0.01916 0.31104
# Poissons Ratio (z) = 0.25590 0.31259
#
# Static dielectric constant tensor:
#      x y z
#    x 1.701690 0.000000 0.000000 
#    y 0.000000 1.738800 0.000000 
#    z 0.000000 0.000000 1.764180 
# 
# From -- ./inp_files/25787.got.cif
#   From: 2010.05.17/outbox.cif.g08.bks.cpg/sg58_13_cif.got.tgz:25787.got - 2010.06.03 14:20:14.
