data_PCOD9443011
_publ_section_title
;
Structure prediction by ZEFSAII (Michael W. Deem and Ramdas Pophale) SiO2 
 PCOD9443011
Probable space group: P N N M
;
_chemical_formula_sum "Si O2"
_cell_formula_units_Z 64
_cell_length_a 18.612415
_cell_length_b 9.843356
_cell_length_c 19.846977
_cell_angle_alpha 90.000000
_cell_angle_beta 90.000000
_cell_angle_gamma 90.000000
_cell_volume 3636.137404
_symmetry_space_group_name_H-M "P N N M"
_symmetry_group_IT_number 58
_symmetry_cell_setting 'orthorhombic'
loop_
_space_group_symop_operation_xyz
x,y,z
-x,-y,z
1/2+x,1/2-y,1/2-z
1/2-x,1/2+y,1/2-z
-x,-y,-z
x,y,-z
1/2-x,1/2+y,1/2+z
1/2+x,1/2-y,1/2+z
loop_
_atom_site_type_symbol
_atom_site_label
_atom_site_fract_x
_atom_site_fract_y
_atom_site_fract_z
Si Si1 0.737219 0.669621 0.424228
Si Si2 0.673317 0.690127 0.283504
Si Si3 0.592468 0.672191 0.076176
Si Si4 0.433034 0.907705 0.214456
Si Si5 0.875167 0.489707 0.576518
Si Si6 0.212669 0.504097 0.782745
Si Si7 0.270282 0.522327 0.075521
Si Si8 0.979422 0.149261 0.283521
O O1 0.707094 0.662361 0.500000
O O2 0.680437 0.669587 0.363873
O O3 0.795020 0.549691 0.415788
O O4 0.779613 0.814223 0.419509
O O5 0.719045 0.571193 0.248877
O O6 0.593299 0.693918 0.254384
O O7 0.710588 0.835014 0.268186
O O8 0.656782 0.563326 0.083197
O O9 0.538099 0.649169 0.136782
O O10 0.621767 0.826748 0.084018
O O11 0.563136 0.660458 0.000000
O O12 0.420880 0.941276 0.135433
O O13 0.359709 0.943923 0.251642
O O14 0.456655 0.754500 0.226529
O O15 0.500000 0.000000 0.237298
O O16 0.899202 0.522716 0.500000
O O17 0.218231 0.485339 0.863186
O O18 0.242586 0.494239 0.000000
O O19 0.000000 0.000000 0.260985
#
# Coordination Sequence:
#
# PCOD9443011 Si02
#       8
#     8   8   8   8   8   8   8   8
#     4   9  19  35  59  86 111 145 191 237 283 333
#     4  11  22  38  60  87 113 150 196 236 285 339
#     4  10  20  36  54  80 117 153 188 227 275 340
#     4  12  23  40  56  81 118 153 187 236 285 340
#     4  10  20  34  55  82 113 153 192 225 274 344
#     4  11  22  36  62  85 113 152 194 238 285 338
#     4   9  19  35  57  84 115 146 187 239 284 333
#     4  12  27  40  55  83 120 153 195 236 291 340
#
# _framework density 17.601095000000001
#
# number of rings (size 3 to 8) (size 9 to 14) (size 15 to 20)
#    0.000    1.500    5.000    0.000    3.500    1.000 
#    0.000    0.000    0.000    1.500    0.000    0.000 
#    0.000    0.000    0.000    0.000    0.000    0.000 
#
# Total GULP energy -357166.465795 kJ/mol
# GULP energy per Si atom -5580.726028 kJ/mol
# Density = 1.756103 g / cm^3
# Si number density = 17.601095 Si / 1000 Ang^3
#
#
#
# Elastic Constant Matrix: (Units=GPa)
#
#
# Indices 1 2 3 4 5 6 
#
# 1 15.3491 -6.8878 9.4413 0.0000 0.0000 0.0000
# 2 -6.8878 60.5683 16.0390 0.0000 0.0000 0.0000
# 3 9.4413 16.0390 69.3527 0.0000 0.0000 0.0000
# 4 0.0000 0.0000 0.0000 19.2351 0.0000 0.0000
# 5 0.0000 0.0000 0.0000 0.0000 19.0096 0.0000
# 6 0.0000 0.0000 0.0000 0.0000 0.0000 31.1521
#
#
#
# Elastic Compliance Matrix: (Units=1/GPa)
#
#
# Indices 1 2 3 4 5 6 
#
# 1 0.079261 0.012645 -0.013715 0.000000 0.000000 0.000000
# 2 0.012645 0.019605 -0.006255 0.000000 0.000000 0.000000
# 3 -0.013715 -0.006255 0.017733 0.000000 0.000000 0.000000
# 4 0.000000 0.000000 0.000000 0.051988 0.000000 0.000000
# 5 0.000000 0.000000 0.000000 0.000000 0.052605 0.000000
# 6 0.000000 0.000000 0.000000 0.000000 0.000000 0.032101
#
#
# Mechanical properties :
#
#
# Convention : Reuss Voigt Hill
#
# Bulk Modulus (GPa) = 9.80883 20.27280 15.04082
# Shear Modulus (GPa) = 16.56041 22.32452 19.44246
#
# Velocity S-wave (km/s) = 3.07069 3.56527 3.32718
# Velocity P-wave (km/s) = 4.26112 5.33771 4.82951
#
# Compressibility (1/GPa) = 0.10194898
#
# Stress axis : x y z
#
# Youngs Moduli (GPa) = 12.61656 51.00797 56.39285
#
# Poissons Ratio (x) = -0.64501 0.77341
# Poissons Ratio (y) = -0.15954 0.35276
# Poissons Ratio (z) = 0.17303 0.31908
#
# Static dielectric constant tensor:
#      x y z
#    x 1.561610 0.000000 0.000000 
#    y 0.000000 1.621360 0.000000 
#    z 0.000000 0.000000 1.624760 
# 
# From -- ./inp_files/29095.got.cif
#   From: 2010.05.17/outbox.cif.g08.bks.cpg/sg58_15_cif.got.tgz:29095.got - 2010.06.03 14:20:14.
