data_PCOD9443792
_publ_section_title
;
Structure prediction by ZEFSAII (Michael W. Deem and Ramdas Pophale) SiO2 
 PCOD9443792
Probable space group: P N N M
;
_chemical_formula_sum "Si O2"
_cell_formula_units_Z 48
_cell_length_a 14.981339
_cell_length_b 19.310148
_cell_length_c 7.544477
_cell_angle_alpha 90.000000
_cell_angle_beta 90.000000
_cell_angle_gamma 90.000000
_cell_volume 2182.555885
_symmetry_space_group_name_H-M "P N N M"
_symmetry_group_IT_number 58
_symmetry_cell_setting 'orthorhombic'
loop_
_space_group_symop_operation_xyz
x,y,z
-x,-y,z
1/2+x,1/2-y,1/2-z
1/2-x,1/2+y,1/2-z
-x,-y,-z
x,y,-z
1/2-x,1/2+y,1/2+z
1/2+x,1/2-y,1/2+z
loop_
_atom_site_type_symbol
_atom_site_label
_atom_site_fract_x
_atom_site_fract_y
_atom_site_fract_z
Si Si1 0.254009 0.590717 0.288204
Si Si2 0.818062 0.257321 0.790045
Si Si3 0.898953 0.514825 0.716697
Si Si4 0.157065 0.332303 0.717195
Si Si5 0.043274 0.069485 0.705551
Si Si6 0.514355 0.278732 0.204921
O O1 0.260450 0.584197 0.500000
O O2 0.230844 0.670073 0.245191
O O3 0.172336 0.542697 0.226105
O O4 0.349454 0.568061 0.213273
O O5 0.753546 0.195695 0.727741
O O6 0.915825 0.252718 0.709085
O O7 0.829706 0.250504 0.000000
O O8 0.899788 0.513820 0.500000
O O9 0.867375 0.590732 0.773931
O O10 0.000000 0.500000 0.774486
O O11 0.155520 0.332920 0.500000
O O12 0.084134 0.276403 0.780344
O O13 0.013224 0.070952 0.500000
O O14 0.016065 0.144169 0.785107
O O15 0.000000 0.000000 0.784723
O O16 0.542596 0.287703 0.000000
#
# Coordination Sequence:
#
# PCOD9443792 Si02
#       6
#     8   8   8   8   8   8
#     4  11  22  37  61  89 118 153 198 246 291 350
#     4  11  22  37  59  85 117 154 192 239 295 351
#     4   9  18  33  56  84 111 144 188 239 289 340
#     4   9  18  35  57  81 112 147 188 234 287 344
#     4  10  22  40  60  84 121 164 198 239 302 359
#     4  10  20  38  61  84 112 152 197 239 288 352
#
# _framework density 21.992563000000001
#
# number of rings (size 3 to 8) (size 9 to 14) (size 15 to 20)
#    0.000    2.000    1.667    2.000    2.333    3.667 
#    0.000    0.000    0.000    9.000    0.000    0.000 
#    0.000    0.000    0.000    0.000    0.000    0.000 
#
# Total GULP energy -268242.557270 kJ/mol
# GULP energy per Si atom -5588.386610 kJ/mol
# Density = 2.194251 g / cm^3
# Si number density = 21.992563 Si / 1000 Ang^3
#
#
#
# Elastic Constant Matrix: (Units=GPa)
#
#
# Indices 1 2 3 4 5 6 
#
# 1 83.2274 12.2855 -17.9064 0.0000 0.0000 0.0000
# 2 12.2855 100.4585 -1.9390 0.0000 0.0000 0.0000
# 3 -17.9064 -1.9390 55.6661 0.0000 0.0000 0.0000
# 4 0.0000 0.0000 0.0000 0.2056 0.0000 0.0000
# 5 0.0000 0.0000 0.0000 0.0000 10.8629 0.0000
# 6 0.0000 0.0000 0.0000 0.0000 0.0000 38.4865
#
#
#
# Elastic Compliance Matrix: (Units=1/GPa)
#
#
# Indices 1 2 3 4 5 6 
#
# 1 0.013138 -0.001526 0.004173 0.000000 0.000000 0.000000
# 2 -0.001526 0.010138 -0.000138 0.000000 0.000000 0.000000
# 3 0.004173 -0.000138 0.019302 0.000000 0.000000 0.000000
# 4 0.000000 0.000000 0.000000 4.864257 0.000000 0.000000
# 5 0.000000 0.000000 0.000000 0.000000 0.092057 0.000000
# 6 0.000000 0.000000 0.000000 0.000000 0.000000 0.025983
#
#
# Mechanical properties :
#
#
# Convention : Reuss Voigt Hill
#
# Bulk Modulus (GPa) = 21.00978 24.91469 22.96224
# Shear Modulus (GPa) = 0.99291 26.37178 13.68234
#
# Velocity S-wave (km/s) = 0.67265 3.46659 2.49697
# Velocity P-wave (km/s) = 3.19016 5.23224 4.33321
#
# Compressibility (1/GPa) = 0.04759687
#
# Stress axis : x y z
#
# Youngs Moduli (GPa) = 76.11276 98.63545 51.80850
#
# Poissons Ratio (x) = 0.15054 -0.21620
# Poissons Ratio (y) = 0.11616 0.00714
# Poissons Ratio (z) = -0.31763 0.01359
#
# Static dielectric constant tensor:
#      x y z
#    x 1.752030 0.000000 0.000000 
#    y 0.000000 1.796100 0.000000 
#    z 0.000000 0.000000 1.847120 
# 
# From -- ./inp_files/5812.got.cif
#   From: 2010.05.17/outbox.cif.g08.bks.cpg/sg58_3_cif.got.tgz:5812.got - 2010.06.03 14:20:14.
