data_PCOD9443820
_publ_section_title
;
Structure prediction by ZEFSAII (Michael W. Deem and Ramdas Pophale) SiO2 
 PCOD9443820
Probable space group: P N N M
;
_chemical_formula_sum "Si O2"
_cell_formula_units_Z 58
_cell_length_a 27.485633
_cell_length_b 10.080059
_cell_length_c 10.958866
_cell_angle_alpha 90.000000
_cell_angle_beta 90.000000
_cell_angle_gamma 90.000000
_cell_volume 3036.228371
_symmetry_space_group_name_H-M "P N N M"
_symmetry_group_IT_number 58
_symmetry_cell_setting 'orthorhombic'
loop_
_space_group_symop_operation_xyz
x,y,z
-x,-y,z
1/2+x,1/2-y,1/2-z
1/2-x,1/2+y,1/2-z
-x,-y,-z
x,y,-z
1/2-x,1/2+y,1/2+z
1/2+x,1/2-y,1/2+z
loop_
_atom_site_type_symbol
_atom_site_label
_atom_site_fract_x
_atom_site_fract_y
_atom_site_fract_z
Si Si1 0.500000 0.500000 0.500000
Si Si2 0.556156 0.637642 0.294338
Si Si3 0.401613 0.598389 0.140420
Si Si4 0.196855 0.940490 0.362255
Si Si5 0.689881 0.024528 0.363958
Si Si6 0.627337 0.111430 0.856932
Si Si7 0.541955 0.901796 0.143149
Si Si8 0.663152 0.720435 0.366972
O O1 0.516575 0.605748 0.394229
O O2 0.567428 0.503256 0.219426
O O3 0.543605 0.762014 0.209984
O O4 0.607571 0.674112 0.357169
O O5 0.344989 0.551595 0.151583
O O6 0.402969 0.754048 0.168957
O O7 0.415970 0.581576 0.000000
O O8 0.189736 0.883424 0.500000
O O9 0.189059 0.838894 0.251969
O O10 0.251908 0.990766 0.355335
O O11 0.679596 0.083769 0.500000
O O12 0.667120 0.878341 0.362580
O O13 0.668430 0.100272 0.246944
O O14 0.592309 0.983729 0.847158
O O15 0.643822 0.120472 0.000000
O O16 0.500000 0.000000 0.190243
O O17 0.532475 0.877970 0.000000
O O18 0.683013 0.676745 0.500000
#
# Coordination Sequence:
#
# PCOD9443820 Si02
#       8
#     2   8   8   8   8   8   8   8
#     4  12  28  40  64  92 128 160 230 266 292 404
#     4  11  22  43  63  88 125 165 205 258 319 371
#     4   9  20  39  64  89 120 161 205 255 316 367
#     4   9  20  36  57  86 120 159 208 251 299 369
#     4  10  21  37  57  87 123 163 202 251 310 378
#     4  10  21  38  61  91 122 156 205 262 306 369
#     4  10  22  41  66  96 124 154 205 261 317 384
#     4  10  20  38  62  83 120 162 203 249 315 375
#
# _framework density 19.102646
#
# number of rings (size 3 to 8) (size 9 to 14) (size 15 to 20)
#    0.000    2.069    2.069    0.414    3.862    1.655 
#    1.241    1.034    0.000    0.000    0.000    0.000 
#    0.000    0.000    0.000    0.000    0.000    0.000 
#
# Total GULP energy -322872.368441 kJ/mol
# GULP energy per Si atom -5566.764973 kJ/mol
# Density = 1.905917 g / cm^3
# Si number density = 19.102646 Si / 1000 Ang^3
#
#
#
# Elastic Constant Matrix: (Units=GPa)
#
#
# Indices 1 2 3 4 5 6 
#
# 1 28.1946 11.3360 30.4609 0.0000 0.0000 0.0000
# 2 11.3360 100.2969 66.8673 0.0000 0.0000 0.0000
# 3 30.4609 66.8673 126.2663 0.0000 0.0000 0.0000
# 4 0.0000 0.0000 0.0000 8.4671 0.0000 0.0000
# 5 0.0000 0.0000 0.0000 0.0000 15.0583 0.0000
# 6 0.0000 0.0000 0.0000 0.0000 0.0000 12.0721
#
#
#
# Elastic Compliance Matrix: (Units=1/GPa)
#
#
# Indices 1 2 3 4 5 6 
#
# 1 0.048800 0.003607 -0.013683 0.000000 0.000000 0.000000
# 2 0.003607 0.015678 -0.009173 0.000000 0.000000 0.000000
# 3 -0.013683 -0.009173 0.016078 0.000000 0.000000 0.000000
# 4 0.000000 0.000000 0.000000 0.118104 0.000000 0.000000
# 5 0.000000 0.000000 0.000000 0.000000 0.066409 0.000000
# 6 0.000000 0.000000 0.000000 0.000000 0.000000 0.082835
#
#
# Mechanical properties :
#
#
# Convention : Reuss Voigt Hill
#
# Bulk Modulus (GPa) = 23.77618 52.45402 38.11510
# Shear Modulus (GPa) = 12.48680 16.85907 14.67293
#
# Velocity S-wave (km/s) = 2.55947 2.97400 2.77449
# Velocity P-wave (km/s) = 4.60522 6.26989 5.50089
#
# Compressibility (1/GPa) = 0.04205890
#
# Stress axis : x y z
#
# Youngs Moduli (GPa) = 20.49167 63.78261 62.19546
#
# Poissons Ratio (x) = -0.23004 0.85100
# Poissons Ratio (y) = -0.07390 0.57051
# Poissons Ratio (z) = 0.28038 0.58507
#
# Static dielectric constant tensor:
#      x y z
#    x 1.685460 0.000000 0.000000 
#    y 0.000000 1.640330 0.000000 
#    z 0.000000 0.000000 1.686280 
# 
# From -- ./inp_files/10430.got.cif
#   From: 2010.05.17/outbox.cif.g08.bks.cpg/sg58_6_cif.got.tgz:10430.got - 2010.06.03 14:20:14.
