data_PCOD9443611
_publ_section_title
;
Structure prediction by ZEFSAII (Michael W. Deem and Ramdas Pophale) SiO2 
 PCOD9443611
Probable space group: P N N M
;
_chemical_formula_sum "Si O2"
_cell_formula_units_Z 56
_cell_length_a 12.224722
_cell_length_b 14.788082
_cell_length_c 14.235418
_cell_angle_alpha 90.000000
_cell_angle_beta 90.000000
_cell_angle_gamma 90.000000
_cell_volume 2573.481590
_symmetry_space_group_name_H-M "P N N M"
_symmetry_group_IT_number 58
_symmetry_cell_setting 'orthorhombic'
loop_
_space_group_symop_operation_xyz
x,y,z
-x,-y,z
1/2+x,1/2-y,1/2-z
1/2-x,1/2+y,1/2-z
-x,-y,-z
x,y,-z
1/2-x,1/2+y,1/2+z
1/2+x,1/2-y,1/2+z
loop_
_atom_site_type_symbol
_atom_site_label
_atom_site_fract_x
_atom_site_fract_y
_atom_site_fract_z
Si Si1 0.306968 0.656915 0.389140
Si Si2 0.554872 0.863785 0.305167
Si Si3 0.720732 0.549186 0.609879
Si Si4 0.653595 0.033471 0.389264
Si Si5 0.652530 0.671201 0.109390
Si Si6 0.462467 0.895972 0.105008
Si Si7 0.459675 0.334808 0.294323
O O1 0.335844 0.664882 0.500000
O O2 0.257716 0.557194 0.374881
O O3 0.225136 0.739262 0.369487
O O4 0.416514 0.660505 0.328435
O O5 0.445395 0.900777 0.357024
O O6 0.524220 0.859499 0.195400
O O7 0.584003 0.762137 0.332690
O O8 0.641758 0.941025 0.331025
O O9 0.694845 0.559188 0.500000
O O10 0.833158 0.602797 0.627220
O O11 0.618044 0.587064 0.665891
O O12 0.640960 0.014229 0.500000
O O13 0.765547 0.086936 0.375013
O O14 0.554599 0.663340 0.182372
O O15 0.621931 0.672979 0.000000
O O16 0.500000 0.000000 0.099014
O O17 0.482463 0.857004 0.000000
#
# Coordination Sequence:
#
# PCOD9443611 Si02
#       7
#     8   8   8   8   8   8   8
#     4  10  22  42  64  90 125 164 206 256 317 375
#     4  11  21  34  58  92 119 153 200 249 304 356
#     4  10  23  41  63  92 125 163 206 256 315 372
#     4  10  20  37  58  82 119 158 197 245 293 355
#     4  10  23  41  61  88 123 165 210 248 302 373
#     4  10  21  37  60  88 125 162 201 257 315 364
#     4  12  24  35  64  93 124 158 205 260 306 366
#
# _framework density 21.760404999999999
#
# number of rings (size 3 to 8) (size 9 to 14) (size 15 to 20)
#    0.000    1.571    2.857    2.571    2.000    3.429 
#    0.000    0.000    0.000    1.714    0.000    0.000 
#    0.000    0.000    0.000    0.000    0.000    0.000 
#
# Total GULP energy -313180.557287 kJ/mol
# GULP energy per Si atom -5592.509952 kJ/mol
# Density = 2.171088 g / cm^3
# Si number density = 21.760405 Si / 1000 Ang^3
#
#
#
# Elastic Constant Matrix: (Units=GPa)
#
#
# Indices 1 2 3 4 5 6 
#
# 1 66.3094 1.7365 65.7354 0.0000 0.0000 0.0000
# 2 1.7365 60.7639 20.5138 0.0000 0.0000 0.0000
# 3 65.7354 20.5138 125.5015 0.0000 0.0000 0.0000
# 4 0.0000 0.0000 0.0000 16.4044 0.0000 0.0000
# 5 0.0000 0.0000 0.0000 0.0000 32.1860 0.0000
# 6 0.0000 0.0000 0.0000 0.0000 0.0000 21.3269
#
#
#
# Elastic Compliance Matrix: (Units=1/GPa)
#
#
# Indices 1 2 3 4 5 6 
#
# 1 0.032825 0.005151 -0.018035 0.000000 0.000000 0.000000
# 2 0.005151 0.018226 -0.005677 0.000000 0.000000 0.000000
# 3 -0.018035 -0.005677 0.018342 0.000000 0.000000 0.000000
# 4 0.000000 0.000000 0.000000 0.060959 0.000000 0.000000
# 5 0.000000 0.000000 0.000000 0.000000 0.031069 0.000000
# 6 0.000000 0.000000 0.000000 0.000000 0.000000 0.046889
#
#
# Mechanical properties :
#
#
# Convention : Reuss Voigt Hill
#
# Bulk Modulus (GPa) = 30.98769 47.61624 39.30196
# Shear Modulus (GPa) = 19.51669 24.95605 22.23637
#
# Velocity S-wave (km/s) = 2.99806 3.39020 3.20014
# Velocity P-wave (km/s) = 5.12404 6.10362 5.63516
#
# Compressibility (1/GPa) = 0.03227088
#
# Stress axis : x y z
#
# Youngs Moduli (GPa) = 30.46489 54.86519 54.51885
#
# Poissons Ratio (x) = -0.28258 0.98324
# Poissons Ratio (y) = -0.15691 0.30950
# Poissons Ratio (z) = 0.54943 0.31147
#
# Static dielectric constant tensor:
#      x y z
#    x 1.776550 0.000000 0.000000 
#    y 0.000000 1.821050 0.000000 
#    z 0.000000 0.000000 1.811080 
# 
# From -- ./inp_files/21279.got.cif
#   From: 2010.05.17/outbox.cif.g08.bks.cpg/sg58_11_cif.got.tgz:21279.got - 2010.06.03 14:20:14.
