data_PCOD9443909
_publ_section_title
;
Structure prediction by ZEFSAII (Michael W. Deem and Ramdas Pophale) SiO2 
 PCOD9443909
Probable space group: P N N M
;
_chemical_formula_sum "Si O2"
_cell_formula_units_Z 36
_cell_length_a 22.369554
_cell_length_b 9.368111
_cell_length_c 7.634213
_cell_angle_alpha 90.000000
_cell_angle_beta 90.000000
_cell_angle_gamma 90.000000
_cell_volume 1599.829225
_symmetry_space_group_name_H-M "P N N M"
_symmetry_group_IT_number 58
_symmetry_cell_setting 'orthorhombic'
loop_
_space_group_symop_operation_xyz
x,y,z
-x,-y,z
1/2+x,1/2-y,1/2-z
1/2-x,1/2+y,1/2-z
-x,-y,-z
x,y,-z
1/2-x,1/2+y,1/2+z
1/2+x,1/2-y,1/2+z
loop_
_atom_site_type_symbol
_atom_site_label
_atom_site_fract_x
_atom_site_fract_y
_atom_site_fract_z
Si Si1 0.137429 0.697053 0.198283
Si Si2 0.840028 0.573176 0.000000
Si Si3 0.229559 0.748540 0.500000
Si Si4 0.504414 0.835015 0.713014
Si Si5 0.562670 0.432460 0.199550
Si Si6 0.149593 0.101114 0.000000
O O1 0.187984 0.741527 0.331151
O O2 0.070287 0.723485 0.261675
O O3 0.146594 0.754522 0.000000
O O4 0.141874 0.525450 0.162965
O O5 0.867892 0.729221 0.000000
O O6 0.769864 0.609092 0.000000
O O7 0.278729 0.618800 0.500000
O O8 0.502388 0.828976 0.500000
O O9 0.454216 0.735096 0.794151
O O10 0.500000 0.000000 0.763856
O O11 0.500000 0.500000 0.264992
O O12 0.617812 0.460873 0.327932
O O13 0.573880 0.476297 0.000000
#
# Coordination Sequence:
#
# PCOD9443909 Si02
#       6
#     8   4   4   8   8   4
#     4   9  20  41  58  92 123 154 214 263 307 375
#     4   8  20  42  60  87 122 157 211 263 299 382
#     4  10  22  41  60  85 121 169 206 254 321 374
#     4  10  20  38  68  93 125 166 205 264 323 377
#     4  11  24  41  61  98 132 165 214 262 320 385
#     4  10  21  43  61  85 124 175 207 254 313 381
#
# _framework density 22.502402
#
# number of rings (size 3 to 8) (size 9 to 14) (size 15 to 20)
#    1.333    0.889    1.111    1.667    1.556    1.333 
#   12.000    0.000    0.000    0.000    0.000    0.000 
#    0.000    0.000    0.000    0.000    0.000    0.000 
#
# Total GULP energy -201014.732362 kJ/mol
# GULP energy per Si atom -5583.742566 kJ/mol
# Density = 2.245119 g / cm^3
# Si number density = 22.502402 Si / 1000 Ang^3
#
#
#
# Elastic Constant Matrix: (Units=GPa)
#
#
# Indices 1 2 3 4 5 6 
#
# 1 143.7717 -0.2646 64.8226 0.0000 0.0000 0.0000
# 2 -0.2646 62.8094 9.8929 0.0000 0.0000 0.0000
# 3 64.8226 9.8929 108.4530 0.0000 0.0000 0.0000
# 4 0.0000 0.0000 0.0000 18.4919 0.0000 0.0000
# 5 0.0000 0.0000 0.0000 0.0000 11.1440 0.0000
# 6 0.0000 0.0000 0.0000 0.0000 0.0000 43.5891
#
#
#
# Elastic Compliance Matrix: (Units=1/GPa)
#
#
# Indices 1 2 3 4 5 6 
#
# 1 0.009578 0.000956 -0.005812 0.000000 0.000000 0.000000
# 2 0.000956 0.016249 -0.002053 0.000000 0.000000 0.000000
# 3 -0.005812 -0.002053 0.012882 0.000000 0.000000 0.000000
# 4 0.000000 0.000000 0.000000 0.054078 0.000000 0.000000
# 5 0.000000 0.000000 0.000000 0.000000 0.089734 0.000000
# 6 0.000000 0.000000 0.000000 0.000000 0.000000 0.022942
#
#
# Mechanical properties :
#
#
# Convention : Reuss Voigt Hill
#
# Bulk Modulus (GPa) = 40.17843 51.54843 45.86343
# Shear Modulus (GPa) = 21.97068 30.68390 26.32729
#
# Velocity S-wave (km/s) = 3.12808 3.69668 3.42420
# Velocity P-wave (km/s) = 5.56242 6.41703 6.00495
#
# Compressibility (1/GPa) = 0.02488898
#
# Stress axis : x y z
#
# Youngs Moduli (GPa) = 104.41067 61.54363 77.63028
#
# Poissons Ratio (x) = -0.05882 0.45116
# Poissons Ratio (y) = -0.09979 0.15941
# Poissons Ratio (z) = 0.60680 0.12637
#
# Static dielectric constant tensor:
#      x y z
#    x 1.837150 0.000000 0.000000 
#    y 0.000000 1.930710 0.000000 
#    z 0.000000 0.000000 1.792710 
# 
# From -- ./inp_files/8768.got.cif
#   From: 2010.05.17/outbox.cif.g08.bks.cpg/sg58_5_cif.got.tgz:8768.got - 2010.06.03 14:20:14.
