data_PCOD9443671
_publ_section_title
;
Structure prediction by ZEFSAII (Michael W. Deem and Ramdas Pophale) SiO2 
 PCOD9443671
Probable space group: P N N M
;
_chemical_formula_sum "Si O2"
_cell_formula_units_Z 64
_cell_length_a 8.220692
_cell_length_b 24.142371
_cell_length_c 16.258774
_cell_angle_alpha 90.000000
_cell_angle_beta 90.000000
_cell_angle_gamma 90.000000
_cell_volume 3226.830037
_symmetry_space_group_name_H-M "P N N M"
_symmetry_group_IT_number 58
_symmetry_cell_setting 'orthorhombic'
loop_
_space_group_symop_operation_xyz
x,y,z
-x,-y,z
1/2+x,1/2-y,1/2-z
1/2-x,1/2+y,1/2-z
-x,-y,-z
x,y,-z
1/2-x,1/2+y,1/2+z
1/2+x,1/2-y,1/2+z
loop_
_atom_site_type_symbol
_atom_site_label
_atom_site_fract_x
_atom_site_fract_y
_atom_site_fract_z
Si Si1 0.250847 0.363820 0.404253
Si Si2 0.574123 0.790604 0.120151
Si Si3 0.259630 0.620688 0.909995
Si Si4 0.954558 0.312234 0.195996
Si Si5 0.708592 0.099538 0.276666
Si Si6 0.696542 0.503723 0.097309
Si Si7 0.566380 0.287401 0.592843
Si Si8 0.112587 0.835752 0.587499
O O1 0.262760 0.385274 0.500000
O O2 0.242350 0.402695 0.321800
O O3 0.413153 0.326951 0.388751
O O4 0.085001 0.326680 0.401906
O O5 0.579284 0.785533 0.217587
O O6 0.753376 0.814023 0.097480
O O7 0.566217 0.728551 0.086814
O O8 0.231270 0.557274 0.885411
O O9 0.452077 0.627274 0.916825
O O10 0.203195 0.671158 0.854256
O O11 0.183562 0.628481 0.000000
O O12 0.033428 0.372222 0.212963
O O13 0.060254 0.267761 0.147004
O O14 0.736832 0.046196 0.334173
O O15 0.812013 0.146075 0.326044
O O16 0.500000 0.500000 0.104753
O O17 0.730832 0.517151 0.000000
O O18 0.541565 0.268773 0.500000
O O19 0.205146 0.846214 0.500000
#
# Coordination Sequence:
#
# PCOD9443671 Si02
#       8
#     8   8   8   8   8   8   8   8
#     4  10  23  41  58  85 120 154 201 252 301 353
#     4  11  23  36  57  86 121 163 196 240 290 348
#     4  10  22  37  57  82 116 155 189 244 297 346
#     4  11  24  35  52  86 122 155 197 240 287 359
#     4  11  22  36  58  84 113 152 193 248 302 346
#     4  10  20  37  60  88 115 150 200 246 301 366
#     4  11  22  36  57  82 116 161 201 237 287 353
#     4  11  20  33  56  84 115 152 192 233 289 351
#
# _framework density 19.833705999999999
#
# number of rings (size 3 to 8) (size 9 to 14) (size 15 to 20)
#    0.000    1.375    2.500    3.375    5.250    4.000 
#    0.000    1.250    0.000    0.375    0.000    8.750 
#    0.000    0.000    0.000    0.000    0.000    0.000 
#
# Total GULP energy -356410.708283 kJ/mol
# GULP energy per Si atom -5568.917317 kJ/mol
# Density = 1.978856 g / cm^3
# Si number density = 19.833706 Si / 1000 Ang^3
#
#
#
# Elastic Constant Matrix: (Units=GPa)
#
#
# Indices 1 2 3 4 5 6 
#
# 1 68.6195 14.1547 11.2394 0.0000 0.0000 0.0000
# 2 14.1547 50.3034 34.5414 0.0000 0.0000 0.0000
# 3 11.2394 34.5414 138.1036 0.0000 0.0000 0.0000
# 4 0.0000 0.0000 0.0000-1874.1783 0.0000 0.0000
# 5 0.0000 0.0000 0.0000 0.0000 23.3394 0.0000
# 6 0.0000 0.0000 0.0000 0.0000 0.0000 19.7064
#
#
#
# Elastic Compliance Matrix: (Units=1/GPa)
#
#
# Indices 1 2 3 4 5 6 
#
# 1 0.015476 -0.004214 -0.000206 0.000000 0.000000 0.000000
# 2 -0.004214 0.025149 -0.005947 0.000000 0.000000 0.000000
# 3 -0.000206 -0.005947 0.008745 0.000000 0.000000 0.000000
# 4 0.000000 0.000000 0.000000 -0.000534 0.000000 0.000000
# 5 0.000000 0.000000 0.000000 0.000000 0.042846 0.000000
# 6 0.000000 0.000000 0.000000 0.000000 0.000000 0.050745
#
#
# Mechanical properties :
#
#
# Convention : Reuss Voigt Hill
#
# Bulk Modulus (GPa) = 34.91955 41.87748 38.39851
# Shear Modulus (GPa) = 28.95110 -353.08708 -162.06799
#
# Velocity S-wave (km/s) = 3.82474 -13.35703 -9.04935
# Velocity P-wave (km/s) = 6.09501 14.72142 9.47552
#
# Compressibility (1/GPa) = 0.02863726
#
# Stress axis : x y z
#
# Youngs Moduli (GPa) = 64.61635 39.76364 114.34963
#
# Poissons Ratio (x) = 0.16754 0.02351
# Poissons Ratio (y) = 0.27226 0.68004
# Poissons Ratio (z) = 0.01329 0.23648
#
# Static dielectric constant tensor:
#      x y z
#    x 1.768660 0.000000 0.000000 
#    y 0.000000 1.693140 0.000000 
#    z 0.000000 0.000000 1.742190 
# 
# From -- ./inp_files/20311.got.cif
#   From: 2010.05.17/outbox.cif.g08.bks.cpg/sg58_11_cif.got.tgz:20311.got - 2010.06.03 14:20:14.
