data_PCOD9443590
_publ_section_title
;
Structure prediction by ZEFSAII (Michael W. Deem and Ramdas Pophale) SiO2 
 PCOD9443590
Probable space group: P N N M
;
_chemical_formula_sum "Si O2"
_cell_formula_units_Z 32
_cell_length_a 27.275430
_cell_length_b 5.269717
_cell_length_c 12.540688
_cell_angle_alpha 90.000000
_cell_angle_beta 90.000000
_cell_angle_gamma 90.000000
_cell_volume 1802.520705
_symmetry_space_group_name_H-M "P N N M"
_symmetry_group_IT_number 58
_symmetry_cell_setting 'orthorhombic'
loop_
_space_group_symop_operation_xyz
x,y,z
-x,-y,z
1/2+x,1/2-y,1/2-z
1/2-x,1/2+y,1/2-z
-x,-y,-z
x,y,-z
1/2-x,1/2+y,1/2+z
1/2+x,1/2-y,1/2+z
loop_
_atom_site_type_symbol
_atom_site_label
_atom_site_fract_x
_atom_site_fract_y
_atom_site_fract_z
Si Si1 0.698515 0.928943 0.379674
Si Si2 0.030248 0.749617 0.371295
Si Si3 0.801924 0.713796 0.328296
Si Si4 0.857804 0.223085 0.307050
O O1 0.685971 0.996057 0.500000
O O2 0.706393 0.165836 0.299047
O O3 0.749387 0.774480 0.376735
O O4 0.657529 0.767645 0.316529
O O5 0.034800 0.748370 0.500000
O O6 0.084809 0.753071 0.325204
O O7 0.000000 0.500000 0.339821
O O8 0.000000 0.000000 0.340798
O O9 0.828344 0.454472 0.363428
O O10 0.837020 0.953699 0.344188
#
# Coordination Sequence:
#
# PCOD9443590 Si02
#       4
#     8   8   8   8
#     4  10  21  37  57  80 119 153 185 228 278 330
#     4  10  21  37  59  84 110 144 185 237 295 338
#     4  10  20  37  51  86 113 148 189 220 271 334
#     4  10  20  37  55  81 113 146 188 227 282 335
#
# _framework density 17.752915999999999
#
# number of rings (size 3 to 8) (size 9 to 14) (size 15 to 20)
#    1.500    0.500    2.500    1.500    0.000    3.000 
#    0.000    0.000    0.000    1.500    0.000    0.000 
#    0.000    0.000    0.000    0.000    0.000    0.000 
#
# Total GULP energy -178302.508000 kJ/mol
# GULP energy per Si atom -5571.953375 kJ/mol
# Density = 1.771251 g / cm^3
# Si number density = 17.752916 Si / 1000 Ang^3
#
#
#
# Elastic Constant Matrix: (Units=GPa)
#
#
# Indices 1 2 3 4 5 6 
#
# 1 156.0679 59.2395 20.6791 0.0000 0.0000 0.0000
# 2 59.2395 131.9472 14.8129 0.0000 0.0000 0.0000
# 3 20.6791 14.8129 52.0040 0.0000 0.0000 0.0000
# 4 0.0000 0.0000 0.0000 77.7319 0.0000 0.0000
# 5 0.0000 0.0000 0.0000 0.0000 90.1609 0.0000
# 6 0.0000 0.0000 0.0000 0.0000 0.0000 28.8293
#
#
#
# Elastic Compliance Matrix: (Units=1/GPa)
#
#
# Indices 1 2 3 4 5 6 
#
# 1 0.007964 -0.003326 -0.002219 0.000000 0.000000 0.000000
# 2 -0.003326 0.009219 -0.001303 0.000000 0.000000 0.000000
# 3 -0.002219 -0.001303 0.020483 0.000000 0.000000 0.000000
# 4 0.000000 0.000000 0.000000 0.012865 0.000000 0.000000
# 5 0.000000 0.000000 0.000000 0.000000 0.011091 0.000000
# 6 0.000000 0.000000 0.000000 0.000000 0.000000 0.034687
#
#
# Mechanical properties :
#
#
# Convention : Reuss Voigt Hill
#
# Bulk Modulus (GPa) = 41.72256 58.83135 50.27696
# Shear Modulus (GPa) = 42.37435 55.69690 49.03563
#
# Velocity S-wave (km/s) = 4.89089 5.60727 5.26129
# Velocity P-wave (km/s) = 7.44629 8.66792 8.08023
#
# Compressibility (1/GPa) = 0.02396785
#
# Stress axis : x y z
#
# Youngs Moduli (GPa) = 125.56211 108.47696 48.82096
#
# Poissons Ratio (x) = 0.36085 0.10835
# Poissons Ratio (y) = 0.41768 0.06362
# Poissons Ratio (z) = 0.27867 0.14135
#
# Static dielectric constant tensor:
#      x y z
#    x 1.566430 0.000000 0.000000 
#    y 0.000000 1.636080 0.000000 
#    z 0.000000 0.000000 1.624450 
# 
# From -- ./inp_files/17273.got.cif
#   From: 2010.05.17/outbox.cif.g08.bks.cpg/sg58_9_cif.got.tgz:17273.got - 2010.06.03 14:20:14.
