data_PCOD9443714
_publ_section_title
;
Structure prediction by ZEFSAII (Michael W. Deem and Ramdas Pophale) SiO2 
 PCOD9443714
Probable space group: P N N M
;
_chemical_formula_sum "Si O2"
_cell_formula_units_Z 56
_cell_length_a 14.676188
_cell_length_b 21.169938
_cell_length_c 7.661364
_cell_angle_alpha 90.000000
_cell_angle_beta 90.000000
_cell_angle_gamma 90.000000
_cell_volume 2380.339750
_symmetry_space_group_name_H-M "P N N M"
_symmetry_group_IT_number 58
_symmetry_cell_setting 'orthorhombic'
loop_
_space_group_symop_operation_xyz
x,y,z
-x,-y,z
1/2+x,1/2-y,1/2-z
1/2-x,1/2+y,1/2-z
-x,-y,-z
x,y,-z
1/2-x,1/2+y,1/2+z
1/2+x,1/2-y,1/2+z
loop_
_atom_site_type_symbol
_atom_site_label
_atom_site_fract_x
_atom_site_fract_y
_atom_site_fract_z
Si Si1 0.120194 0.862998 0.801519
Si Si2 0.600039 0.176643 0.700688
Si Si3 0.092182 0.466052 0.785131
Si Si4 0.404651 0.221348 0.199757
Si Si5 0.072936 0.088060 0.296665
Si Si6 0.212755 0.987681 0.704611
Si Si7 0.205617 0.202045 0.213631
O O1 0.111551 0.796639 0.704742
O O2 0.189149 0.914036 0.724048
O O3 0.020913 0.895271 0.795178
O O4 0.145763 0.849569 0.000000
O O5 0.629010 0.169068 0.500000
O O6 0.596635 0.106514 0.776235
O O7 0.497467 0.204123 0.704382
O O8 0.666587 0.230191 0.775228
O O9 0.185783 0.499245 0.726893
O O10 0.000000 0.500000 0.728762
O O11 0.091538 0.465966 0.000000
O O12 0.310192 0.192402 0.268093
O O13 0.417438 0.201276 0.000000
O O14 0.049284 0.076079 0.500000
O O15 0.139343 0.148090 0.282147
O O16 0.131007 0.029804 0.221387
O O17 0.214295 0.003694 0.500000
O O18 0.202802 0.201173 0.000000
#
# Coordination Sequence:
#
# PCOD9443714 Si02
#       7
#     8   8   8   8   8   8   8
#     4  12  24  40  62  90 123 163 206 251 309 367
#     4  10  20  37  62  89 119 158 201 247 299 360
#     4   9  19  37  63  91 122 160 204 251 301 360
#     4  11  23  39  62  90 122 161 201 248 306 361
#     4  11  23  38  62  93 123 156 202 256 306 367
#     4  10  22  40  62  90 122 161 207 254 306 362
#     4  10  22  39  59  87 124 164 202 248 308 367
#
# _framework density 23.526053000000001
#
# number of rings (size 3 to 8) (size 9 to 14) (size 15 to 20)
#    0.000    1.571    1.429    3.429    2.000    6.286 
#    0.000    2.143    0.000    0.857    0.000    0.000 
#    0.000    0.000    0.000    0.000    0.000    0.000 
#
# Total GULP energy -313266.999868 kJ/mol
# GULP energy per Si atom -5594.053569 kJ/mol
# Density = 2.347251 g / cm^3
# Si number density = 23.526053 Si / 1000 Ang^3
#
#
#
# Elastic Constant Matrix: (Units=GPa)
#
#
# Indices 1 2 3 4 5 6 
#
# 1 107.3860 -4.5402 -5.2225 0.0000 0.0000 0.0000
# 2 -4.5402 57.7767 -8.9867 0.0000 0.0000 0.0000
# 3 -5.2225 -8.9867 52.7840 0.0000 0.0000 0.0000
# 4 0.0000 0.0000 0.0000 -26.3989 0.0000 0.0000
# 5 0.0000 0.0000 0.0000 0.0000 16.4568 0.0000
# 6 0.0000 0.0000 0.0000 0.0000 0.0000 14.9018
#
#
#
# Elastic Compliance Matrix: (Units=1/GPa)
#
#
# Indices 1 2 3 4 5 6 
#
# 1 0.009403 0.000908 0.001085 0.000000 0.000000 0.000000
# 2 0.000908 0.017866 0.003132 0.000000 0.000000 0.000000
# 3 0.001085 0.003132 0.019586 0.000000 0.000000 0.000000
# 4 0.000000 0.000000 0.000000 -0.037880 0.000000 0.000000
# 5 0.000000 0.000000 0.000000 0.000000 0.060765 0.000000
# 6 0.000000 0.000000 0.000000 0.000000 0.000000 0.067106
#
#
# Mechanical properties :
#
#
# Convention : Reuss Voigt Hill
#
# Bulk Modulus (GPa) = 17.51195 20.04978 18.78087
# Shear Modulus (GPa) = 34.33301 16.77167 25.55234
#
# Velocity S-wave (km/s) = 3.82430 2.67291 3.29922
# Velocity P-wave (km/s) = 5.19232 4.25051 4.74484
#
# Compressibility (1/GPa) = 0.05710387
#
# Stress axis : x y z
#
# Youngs Moduli (GPa) = 106.34520 55.97089 51.05779
#
# Poissons Ratio (x) = -0.05080 -0.05539
# Poissons Ratio (y) = -0.09653 -0.15989
# Poissons Ratio (z) = -0.11537 -0.17528
#
# Static dielectric constant tensor:
#      x y z
#    x 1.875510 0.000000 0.000000 
#    y 0.000000 1.875370 0.000000 
#    z 0.000000 0.000000 1.880540 
# 
# From -- ./inp_files/6317.got.cif
#   From: 2010.05.17/outbox.cif.g08.bks.cpg/sg58_4_cif.got.tgz:6317.got - 2010.06.03 14:20:14.
