data_PCOD9443924
_publ_section_title
;
Structure prediction by ZEFSAII (Michael W. Deem and Ramdas Pophale) SiO2 
 PCOD9443924
Probable space group: P N N M
;
_chemical_formula_sum "Si O2"
_cell_formula_units_Z 64
_cell_length_a 25.185333
_cell_length_b 14.915845
_cell_length_c 8.942599
_cell_angle_alpha 90.000000
_cell_angle_beta 90.000000
_cell_angle_gamma 90.000000
_cell_volume 3359.381420
_symmetry_space_group_name_H-M "P N N M"
_symmetry_group_IT_number 58
_symmetry_cell_setting 'orthorhombic'
loop_
_space_group_symop_operation_xyz
x,y,z
-x,-y,z
1/2+x,1/2-y,1/2-z
1/2-x,1/2+y,1/2-z
-x,-y,-z
x,y,-z
1/2-x,1/2+y,1/2+z
1/2+x,1/2-y,1/2+z
loop_
_atom_site_type_symbol
_atom_site_label
_atom_site_fract_x
_atom_site_fract_y
_atom_site_fract_z
Si Si1 0.060262 0.744546 0.321581
Si Si2 0.849981 0.124593 0.678189
Si Si3 0.261145 0.836023 0.821898
Si Si4 0.552781 0.948031 0.680148
Si Si5 0.169292 0.484546 0.180672
Si Si6 0.236464 0.122736 0.321705
Si Si7 0.022507 0.097913 0.320309
Si Si8 0.627678 0.443092 0.677405
O O1 0.057398 0.729667 0.500000
O O2 0.118330 0.784755 0.286841
O O3 0.050362 0.653295 0.236659
O O4 0.018364 0.822803 0.284406
O O5 0.850516 0.111520 0.500000
O O6 0.791029 0.126757 0.740815
O O7 0.879418 0.042267 0.755423
O O8 0.309764 0.893099 0.755481
O O9 0.260481 0.729281 0.794429
O O10 0.258014 0.850291 0.000000
O O11 0.552839 0.948826 0.500000
O O12 0.500000 0.000000 0.731966
O O13 0.609372 0.990547 0.727355
O O14 0.211171 0.564727 0.219176
O O15 0.170439 0.475023 0.000000
O O16 0.228444 0.109556 0.500000
O O17 0.184799 0.088572 0.235506
O O18 0.029308 0.095607 0.500000
O O19 0.079059 0.113484 0.243365
O O20 0.000000 0.000000 0.275310
O O21 0.626371 0.444113 0.500000
#
# Coordination Sequence:
#
# PCOD9443924 Si02
#       8
#     8   8   8   8   8   8   8   8
#     4  10  22  39  64  92 117 160 211 251 300 365
#     4  11  21  38  61  87 122 162 200 246 311 369
#     4  11  23  38  61  94 123 157 206 257 302 357
#     4  10  23  43  65  90 123 161 202 255 312 359
#     4  10  21  40  64  87 120 168 205 242 307 374
#     4  10  22  40  60  85 124 167 202 244 308 369
#     4  10  20  39  61  84 123 165 198 239 302 372
#     4  12  24  36  57  90 123 157 203 254 299 353
#
# _framework density 19.051126
#
# number of rings (size 3 to 8) (size 9 to 14) (size 15 to 20)
#    0.000    1.500    2.500    2.625    0.000    5.500 
#    0.000    2.500    0.000    0.000    0.000    0.000 
#    0.000    0.000    0.000    0.000    0.000    0.000 
#
# Total GULP energy -357506.737711 kJ/mol
# GULP energy per Si atom -5586.042777 kJ/mol
# Density = 1.900776 g / cm^3
# Si number density = 19.051126 Si / 1000 Ang^3
#
#
#
# Elastic Constant Matrix: (Units=GPa)
#
#
# Indices 1 2 3 4 5 6 
#
# 1 146.1446 45.1959 41.2894 0.0000 0.0000 0.0000
# 2 45.1959 66.6180 33.6754 0.0000 0.0000 0.0000
# 3 41.2894 33.6754 27.8206 0.0000 0.0000 0.0000
# 4 0.0000 0.0000 0.0000 31.1588 0.0000 0.0000
# 5 0.0000 0.0000 0.0000 0.0000 -7.0625 0.0000
# 6 0.0000 0.0000 0.0000 0.0000 0.0000 25.5721
#
#
#
# Elastic Compliance Matrix: (Units=1/GPa)
#
#
# Indices 1 2 3 4 5 6 
#
# 1 0.011907 0.002203 -0.020338 0.000000 0.000000 0.000000
# 2 0.002203 0.039084 -0.050578 0.000000 0.000000 0.000000
# 3 -0.020338 -0.050578 0.127351 0.000000 0.000000 0.000000
# 4 0.000000 0.000000 0.000000 0.032094 0.000000 0.000000
# 5 0.000000 0.000000 0.000000 0.000000 -0.141592 0.000000
# 6 0.000000 0.000000 0.000000 0.000000 0.000000 0.039105
#
#
# Mechanical properties :
#
#
# Convention : Reuss Voigt Hill
#
# Bulk Modulus (GPa) = 24.44071 53.43383 38.93727
# Shear Modulus (GPa) = 19.30396 17.96183 18.63290
#
# Velocity S-wave (km/s) = 3.18665 3.07387 3.13077
# Velocity P-wave (km/s) = 5.13775 6.38018 5.79238
#
# Compressibility (1/GPa) = 0.04091534
#
# Stress axis : x y z
#
# Youngs Moduli (GPa) = 83.98104 25.58616 7.85230
#
# Poissons Ratio (x) = -0.05636 0.15970
# Poissons Ratio (y) = -0.18498 0.39715
# Poissons Ratio (z) = 1.70804 1.29409
#
# Static dielectric constant tensor:
#      x y z
#    x 1.638170 0.000000 0.000000 
#    y 0.000000 1.675390 0.000000 
#    z 0.000000 0.000000 1.628550 
# 
# From -- ./inp_files/9990.got.cif
#   From: 2010.05.17/outbox.cif.g08.bks.cpg/sg58_5_cif.got.tgz:9990.got - 2010.06.03 14:20:14.
