data_PCOD9443563
_publ_section_title
;
Structure prediction by ZEFSAII (Michael W. Deem and Ramdas Pophale) SiO2 
 PCOD9443563
Probable space group: P N N M
;
_chemical_formula_sum "Si O2"
_cell_formula_units_Z 64
_cell_length_a 15.620855
_cell_length_b 12.085302
_cell_length_c 13.947114
_cell_angle_alpha 90.000000
_cell_angle_beta 90.000000
_cell_angle_gamma 90.000000
_cell_volume 2632.974538
_symmetry_space_group_name_H-M "P N N M"
_symmetry_group_IT_number 58
_symmetry_cell_setting 'orthorhombic'
loop_
_space_group_symop_operation_xyz
x,y,z
-x,-y,z
1/2+x,1/2-y,1/2-z
1/2-x,1/2+y,1/2-z
-x,-y,-z
x,y,-z
1/2-x,1/2+y,1/2+z
1/2+x,1/2-y,1/2+z
loop_
_atom_site_type_symbol
_atom_site_label
_atom_site_fract_x
_atom_site_fract_y
_atom_site_fract_z
Si Si1 0.407365 0.136905 0.895193
Si Si2 0.961896 0.791491 0.106258
Si Si3 0.755062 0.025592 0.109054
Si Si4 0.086422 0.617281 0.813936
Si Si5 0.267560 0.713670 0.116252
Si Si6 0.893199 0.931655 0.741364
Si Si7 0.157941 0.400707 0.112050
Si Si8 0.353093 0.390839 0.108777
O O1 0.452346 0.128149 0.792759
O O2 0.370661 0.261128 0.892627
O O3 0.330462 0.048623 0.889216
O O4 0.450923 0.123098 0.000000
O O5 0.965017 0.875855 0.192803
O O6 0.872813 0.725025 0.119252
O O7 0.030700 0.693766 0.116700
O O8 0.967396 0.839848 0.000000
O O9 0.733229 0.153751 0.129407
O O10 0.823559 0.974646 0.180919
O O11 0.789271 0.021221 0.000000
O O12 0.182691 0.665443 0.831253
O O13 0.098031 0.488437 0.836359
O O14 0.348067 0.656162 0.168679
O O15 0.265297 0.691738 0.000000
O O16 0.911992 0.037298 0.676001
O O17 0.255768 0.410509 0.142012
O O18 0.153535 0.429946 0.000000
O O19 0.360540 0.430923 0.000000
#
# Coordination Sequence:
#
# PCOD9443563 Si02
#       8
#     8   8   8   8   8   8   8   8
#     4  10  21  38  62  91 124 164 211 260 310 369
#     4  11  26  42  60  92 132 172 209 255 316 384
#     4  10  21  37  58  89 124 156 201 258 310 361
#     4  12  22  39  64  90 131 171 214 253 315 381
#     4  11  23  38  62  95 126 160 206 260 313 369
#     4  12  22  36  63  90 123 162 207 255 312 364
#     4  10  20  36  62  93 126 164 209 264 316 370
#     4  10  20  37  64  97 123 153 209 269 313 360
#
# _framework density 24.307110000000002
#
# number of rings (size 3 to 8) (size 9 to 14) (size 15 to 20)
#    0.000    1.250    2.500    3.750    3.500    3.000 
#    0.000    3.750    0.000    7.500    0.000    0.000 
#    0.000    0.000    0.000    0.000    0.000    0.000 
#
# Total GULP energy -358238.119979 kJ/mol
# GULP energy per Si atom -5597.470625 kJ/mol
# Density = 2.425179 g / cm^3
# Si number density = 24.307110 Si / 1000 Ang^3
#
#
#
# Elastic Constant Matrix: (Units=GPa)
#
#
# Indices 1 2 3 4 5 6 
#
# 1 44.5496 18.9395 25.0869 0.0000 0.0000 0.0000
# 2 18.9395 124.0251 39.9352 0.0000 0.0000 0.0000
# 3 25.0869 39.9352 151.7598 0.0000 0.0000 0.0000
# 4 0.0000 0.0000 0.0000 44.0509 0.0000 0.0000
# 5 0.0000 0.0000 0.0000 0.0000 26.0098 0.0000
# 6 0.0000 0.0000 0.0000 0.0000 0.0000 25.5102
#
#
#
# Elastic Compliance Matrix: (Units=1/GPa)
#
#
# Indices 1 2 3 4 5 6 
#
# 1 0.025601 -0.002782 -0.003500 0.000000 0.000000 0.000000
# 2 -0.002782 0.009112 -0.001938 0.000000 0.000000 0.000000
# 3 -0.003500 -0.001938 0.007678 0.000000 0.000000 0.000000
# 4 0.000000 0.000000 0.000000 0.022701 0.000000 0.000000
# 5 0.000000 0.000000 0.000000 0.000000 0.038447 0.000000
# 6 0.000000 0.000000 0.000000 0.000000 0.000000 0.039200
#
#
# Mechanical properties :
#
#
# Convention : Reuss Voigt Hill
#
# Bulk Modulus (GPa) = 38.53545 54.25085 46.39315
# Shear Modulus (GPa) = 29.79236 34.87238 32.33237
#
# Velocity S-wave (km/s) = 3.50475 3.79180 3.65109
# Velocity P-wave (km/s) = 5.68029 6.44497 6.07467
#
# Compressibility (1/GPa) = 0.02595013
#
# Stress axis : x y z
#
# Youngs Moduli (GPa) = 39.06161 109.74855 130.24551
#
# Poissons Ratio (x) = 0.30537 0.45583
# Poissons Ratio (y) = 0.10869 0.25239
# Poissons Ratio (z) = 0.13671 0.21267
#
# Static dielectric constant tensor:
#      x y z
#    x 1.970030 0.000000 0.000000 
#    y 0.000000 1.924000 0.000000 
#    z 0.000000 0.000000 1.945230 
# 
# From -- ./inp_files/22972.got.cif
#   From: 2010.05.17/outbox.cif.g08.bks.cpg/sg58_12_cif.got.tgz:22972.got - 2010.06.03 14:20:14.
