data_PCOD9443014
_publ_section_title
;
Structure prediction by ZEFSAII (Michael W. Deem and Ramdas Pophale) SiO2 
 PCOD9443014
Probable space group: P N N M
;
_chemical_formula_sum "Si O2"
_cell_formula_units_Z 48
_cell_length_a 12.160981
_cell_length_b 24.072478
_cell_length_c 7.541181
_cell_angle_alpha 90.000000
_cell_angle_beta 90.000000
_cell_angle_gamma 90.000000
_cell_volume 2207.642637
_symmetry_space_group_name_H-M "P N N M"
_symmetry_group_IT_number 58
_symmetry_cell_setting 'orthorhombic'
loop_
_space_group_symop_operation_xyz
x,y,z
-x,-y,z
1/2+x,1/2-y,1/2-z
1/2-x,1/2+y,1/2-z
-x,-y,-z
x,y,-z
1/2-x,1/2+y,1/2+z
1/2+x,1/2-y,1/2+z
loop_
_atom_site_type_symbol
_atom_site_label
_atom_site_fract_x
_atom_site_fract_y
_atom_site_fract_z
Si Si1 0.490535 0.063081 0.791226
Si Si2 0.559867 0.555875 0.785025
Si Si3 0.641924 0.723266 0.796551
Si Si4 0.774562 0.614947 0.214204
Si Si5 0.818356 0.346294 0.281978
Si Si6 0.928952 0.836502 0.200284
O O1 0.604980 0.096870 0.774052
O O2 0.394001 0.102934 0.718443
O O3 0.500000 0.000000 0.717414
O O4 0.467093 0.056322 0.000000
O O5 0.500000 0.500000 0.731508
O O6 0.686452 0.566985 0.736063
O O7 0.491430 0.605507 0.703037
O O8 0.553838 0.560414 0.000000
O O9 0.720521 0.673773 0.721996
O O10 0.644803 0.785034 0.720657
O O11 0.515803 0.703400 0.793741
O O12 0.678038 0.728506 0.000000
O O13 0.776999 0.617746 0.000000
O O14 0.823013 0.348191 0.500000
O O15 0.691351 0.347986 0.226216
O O16 0.916017 0.815224 0.000000
#
# Coordination Sequence:
#
# PCOD9443014 Si02
#       6
#     8   8   8   8   8   8
#     4  10  22  38  56  79 111 150 186 220 272 337
#     4   9  19  36  57  79 108 146 182 219 271 328
#     4   9  19  38  59  78 109 147 180 223 282 333
#     4   9  19  35  56  80 106 139 179 227 272 317
#     4   9  20  37  56  79 111 148 178 222 280 330
#     4  10  20  34  55  83 110 136 179 230 276 324
#
# _framework density 21.742649
#
# number of rings (size 3 to 8) (size 9 to 14) (size 15 to 20)
#    0.000    2.667    0.000    1.500    4.667    3.333 
#    0.000    3.333    0.000    0.000    0.000    0.000 
#    0.000    0.000    0.000    0.000    0.000    0.000 
#
# Total GULP energy -267600.508479 kJ/mol
# GULP energy per Si atom -5575.010593 kJ/mol
# Density = 2.169316 g / cm^3
# Si number density = 21.742649 Si / 1000 Ang^3
#
#
#
# Elastic Constant Matrix: (Units=GPa)
#
#
# Indices 1 2 3 4 5 6 
#
# 1 143.6184 51.7421 -10.7439 0.0000 0.0000 0.0000
# 2 51.7421 86.6393 -0.6251 0.0000 0.0000 0.0000
# 3 -10.7439 -0.6251 41.8342 0.0000 0.0000 0.0000
# 4 0.0000 0.0000 0.0000 3.0608 0.0000 0.0000
# 5 0.0000 0.0000 0.0000 0.0000 13.7199 0.0000
# 6 0.0000 0.0000 0.0000 0.0000 0.0000 11.4162
#
#
#
# Elastic Compliance Matrix: (Units=1/GPa)
#
#
# Indices 1 2 3 4 5 6 
#
# 1 0.009079 -0.005406 0.002251 0.000000 0.000000 0.000000
# 2 -0.005406 0.014762 -0.001168 0.000000 0.000000 0.000000
# 3 0.002251 -0.001168 0.024465 0.000000 0.000000 0.000000
# 4 0.000000 0.000000 0.000000 0.326713 0.000000 0.000000
# 5 0.000000 0.000000 0.000000 0.000000 0.072887 0.000000
# 6 0.000000 0.000000 0.000000 0.000000 0.000000 0.087595
#
#
# Mechanical properties :
#
#
# Convention : Reuss Voigt Hill
#
# Bulk Modulus (GPa) = 25.21424 39.20424 32.20924
# Shear Modulus (GPa) = 8.97078 21.08728 15.02903
#
# Velocity S-wave (km/s) = 2.03343 3.11763 2.63197
# Velocity P-wave (km/s) = 4.13944 5.57043 4.90738
#
# Compressibility (1/GPa) = 0.03966014
#
# Stress axis : x y z
#
# Youngs Moduli (GPa) = 110.14620 67.74113 40.87555
#
# Poissons Ratio (x) = 0.36619 -0.09201
# Poissons Ratio (y) = 0.59542 0.04773
# Poissons Ratio (z) = -0.24792 0.07910
#
# Static dielectric constant tensor:
#      x y z
#    x 1.799660 0.000000 0.000000 
#    y 0.000000 1.811180 0.000000 
#    z 0.000000 0.000000 1.826800 
# 
# From -- ./inp_files/4172.got.cif
#   From: 2010.05.17/outbox.cif.g08.bks.cpg/sg58_3_cif.got.tgz:4172.got - 2010.06.03 14:20:14.
