data_PCOD9443020
_publ_section_title
;
Structure prediction by ZEFSAII (Michael W. Deem and Ramdas Pophale) SiO2 
 PCOD9443020
Probable space group: P N N M
;
_chemical_formula_sum "Si O2"
_cell_formula_units_Z 64
_cell_length_a 33.297113
_cell_length_b 10.992817
_cell_length_c 7.546524
_cell_angle_alpha 90.000000
_cell_angle_beta 90.000000
_cell_angle_gamma 90.000000
_cell_volume 2762.247160
_symmetry_space_group_name_H-M "P N N M"
_symmetry_group_IT_number 58
_symmetry_cell_setting 'orthorhombic'
loop_
_space_group_symop_operation_xyz
x,y,z
-x,-y,z
1/2+x,1/2-y,1/2-z
1/2-x,1/2+y,1/2-z
-x,-y,-z
x,y,-z
1/2-x,1/2+y,1/2+z
1/2+x,1/2-y,1/2+z
loop_
_atom_site_type_symbol
_atom_site_label
_atom_site_fract_x
_atom_site_fract_y
_atom_site_fract_z
Si Si1 0.668205 0.748348 0.708037
Si Si2 0.618484 0.358185 0.284725
Si Si3 0.413523 0.157317 0.714399
Si Si4 0.700196 0.479786 0.709883
Si Si5 0.030450 0.104913 0.710329
Si Si6 0.497824 0.862082 0.201039
Si Si7 0.871882 0.590699 0.206187
Si Si8 0.288774 0.013508 0.198856
O O1 0.668857 0.784847 0.500000
O O2 0.621530 0.747930 0.758964
O O3 0.688554 0.620107 0.725872
O O4 0.691768 0.853375 0.806218
O O5 0.620256 0.359691 0.500000
O O6 0.661283 0.409291 0.220105
O O7 0.577347 0.426007 0.236358
O O8 0.616102 0.219683 0.216913
O O9 0.418827 0.156372 0.500000
O O10 0.455991 0.179466 0.799491
O O11 0.395445 0.026933 0.775206
O O12 0.703236 0.446512 0.500000
O O13 0.745109 0.469835 0.784914
O O14 0.022518 0.115041 0.500000
O O15 0.024061 0.243628 0.783169
O O16 0.000000 0.000000 0.778659
O O17 0.500000 0.000000 0.281313
O O18 0.482252 0.879130 0.000000
O O19 0.823987 0.568329 0.218788
O O20 0.882380 0.594735 0.000000
O O21 0.282610 0.965056 0.000000
#
# Coordination Sequence:
#
# PCOD9443020 Si02
#       8
#     8   8   8   8   8   8   8   8
#     4   9  19  37  55  75 110 147 178 222 278 323
#     4  10  21  38  61  84 108 146 193 231 272 331
#     4   9  18  32  54  81 107 138 176 220 269 319
#     4   9  20  36  55  80 112 144 181 231 276 321
#     4  10  23  41  57  80 118 152 181 230 293 346
#     4  10  21  36  56  80 107 142 181 225 277 330
#     4   9  19  36  57  83 117 150 180 227 283 328
#     4  10  20  34  55  84 111 144 188 230 273 326
#
# _framework density 23.169543000000001
#
# number of rings (size 3 to 8) (size 9 to 14) (size 15 to 20)
#    0.000    2.500    0.000    1.875    3.500    3.500 
#    0.000    2.500    0.000    0.000    0.000    0.000 
#    0.000    0.000    0.000    0.000    0.000    0.000 
#
# Total GULP energy -357077.603029 kJ/mol
# GULP energy per Si atom -5579.337547 kJ/mol
# Density = 2.311681 g / cm^3
# Si number density = 23.169543 Si / 1000 Ang^3
#
#
#
# Elastic Constant Matrix: (Units=GPa)
#
#
# Indices 1 2 3 4 5 6 
#
# 1 154.0329 18.7502 -8.3479 0.0000 0.0000 0.0000
# 2 18.7502 34.3326 13.2442 0.0000 0.0000 0.0000
# 3 -8.3479 13.2442 46.9919 0.0000 0.0000 0.0000
# 4 0.0000 0.0000 0.0000 3.0273 0.0000 0.0000
# 5 0.0000 0.0000 0.0000 0.0000 18.9011 0.0000
# 6 0.0000 0.0000 0.0000 0.0000 0.0000 5.6034
#
#
#
# Elastic Compliance Matrix: (Units=1/GPa)
#
#
# Indices 1 2 3 4 5 6 
#
# 1 0.007247 -0.004998 0.002696 0.000000 0.000000 0.000000
# 2 -0.004998 0.036126 -0.011070 0.000000 0.000000 0.000000
# 3 0.002696 -0.011070 0.024879 0.000000 0.000000 0.000000
# 4 0.000000 0.000000 0.000000 0.330323 0.000000 0.000000
# 5 0.000000 0.000000 0.000000 0.000000 0.052907 0.000000
# 6 0.000000 0.000000 0.000000 0.000000 0.000000 0.178463
#
#
# Mechanical properties :
#
#
# Convention : Reuss Voigt Hill
#
# Bulk Modulus (GPa) = 24.09098 31.40558 27.74828
# Shear Modulus (GPa) = 7.45685 19.62042 13.53863
#
# Velocity S-wave (km/s) = 1.79593 2.91317 2.41991
# Velocity P-wave (km/s) = 3.83676 4.98994 4.45086
#
# Compressibility (1/GPa) = 0.04150931
#
# Stress axis : x y z
#
# Youngs Moduli (GPa) = 137.99638 27.68057 40.19447
#
# Poissons Ratio (x) = 0.13833 -0.10836
# Poissons Ratio (y) = 0.68964 0.44494
# Poissons Ratio (z) = -0.37201 0.30641
#
# Static dielectric constant tensor:
#      x y z
#    x 1.722150 0.000000 0.000000 
#    y 0.000000 1.880350 0.000000 
#    z 0.000000 0.000000 1.911350 
# 
# From -- ./inp_files/11088.got.cif
#   From: 2010.05.17/outbox.cif.g08.bks.cpg/sg58_6_cif.got.tgz:11088.got - 2010.06.03 14:20:14.
