data_PCOD9443196
_publ_section_title
;
Structure prediction by ZEFSAII (Michael W. Deem and Ramdas Pophale) SiO2 
 PCOD9443196
Probable space group: P N N M
;
_chemical_formula_sum "Si O2"
_cell_formula_units_Z 58
_cell_length_a 15.045086
_cell_length_b 23.871120
_cell_length_c 7.371187
_cell_angle_alpha 90.000000
_cell_angle_beta 90.000000
_cell_angle_gamma 90.000000
_cell_volume 2647.310606
_symmetry_space_group_name_H-M "P N N M"
_symmetry_group_IT_number 58
_symmetry_cell_setting 'orthorhombic'
loop_
_space_group_symop_operation_xyz
x,y,z
-x,-y,z
1/2+x,1/2-y,1/2-z
1/2-x,1/2+y,1/2-z
-x,-y,-z
x,y,-z
1/2-x,1/2+y,1/2+z
1/2+x,1/2-y,1/2+z
loop_
_atom_site_type_symbol
_atom_site_label
_atom_site_fract_x
_atom_site_fract_y
_atom_site_fract_z
Si Si1 0.849003 0.339691 0.280753
Si Si2 0.831639 0.893934 0.290471
Si Si3 0.000000 0.000000 0.000000
Si Si4 0.951410 0.664735 0.714796
Si Si5 0.133285 0.980808 0.280435
Si Si6 0.650830 0.712943 0.779627
Si Si7 0.945191 0.790035 0.720945
Si Si8 0.271399 0.888050 0.716253
O O1 0.847279 0.341348 0.500000
O O2 0.772803 0.381007 0.216715
O O3 0.826324 0.276070 0.222505
O O4 0.950025 0.350452 0.218004
O O5 0.859304 0.897978 0.500000
O O6 0.883148 0.840262 0.211800
O O7 0.851911 0.955174 0.214720
O O8 0.950318 0.037361 0.161822
O O9 0.962282 0.671845 0.500000
O O10 0.922844 0.726660 0.783642
O O11 0.874613 0.619799 0.742462
O O12 0.119728 0.977463 0.500000
O O13 0.218966 0.943767 0.231013
O O14 0.548494 0.700806 0.731207
O O15 0.717821 0.665931 0.712220
O O16 0.653141 0.713011 0.000000
O O17 0.938696 0.789975 0.500000
O O18 0.264300 0.886058 0.500000
#
# Coordination Sequence:
#
# PCOD9443196 Si02
#       8
#     8   8   2   8   8   8   8   8
#     4   9  18  33  54  80 110 146 191 239 290 350
#     4  10  20  35  56  80 113 150 190 239 290 346
#     4  12  26  44  68  86 122 160 198 244 292 336
#     4   9  18  33  54  80 110 146 191 239 290 350
#     4  10  25  43  62  91 120 156 200 240 292 352
#     4   8  15  29  51  79 110 147 185 228 291 352
#     4   8  15  29  51  79 110 147 185 228 291 352
#     4  10  20  35  56  80 113 150 190 239 290 346
#
# _framework density 21.909026000000001
#
# number of rings (size 3 to 8) (size 9 to 14) (size 15 to 20)
#    0.000    2.759    0.000    2.690    3.862    0.552 
#    0.000    0.690    0.000    5.793    0.000    0.000 
#    0.000    0.000    0.000    0.000    0.000    0.000 
#
# Total GULP energy -323239.506645 kJ/mol
# GULP energy per Si atom -5573.094942 kJ/mol
# Density = 2.185916 g / cm^3
# Si number density = 21.909026 Si / 1000 Ang^3
#
#
#
# Elastic Constant Matrix: (Units=GPa)
#
#
# Indices 1 2 3 4 5 6 
#
# 1 83.2467 47.4900 -6.6932 0.0000 0.0000 0.0000
# 2 47.4900 62.5245 2.3636 0.0000 0.0000 0.0000
# 3 -6.6932 2.3636 87.6356 0.0000 0.0000 0.0000
# 4 0.0000 0.0000 0.0000 -7.1578 0.0000 0.0000
# 5 0.0000 0.0000 0.0000 0.0000 -487.5278 0.0000
# 6 0.0000 0.0000 0.0000 0.0000 0.0000 27.4893
#
#
#
# Elastic Compliance Matrix: (Units=1/GPa)
#
#
# Indices 1 2 3 4 5 6 
#
# 1 0.021574 -0.016465 0.002092 0.000000 0.000000 0.000000
# 2 -0.016465 0.028576 -0.002028 0.000000 0.000000 0.000000
# 3 0.002092 -0.002028 0.011625 0.000000 0.000000 0.000000
# 4 0.000000 0.000000 0.000000 -0.139707 0.000000 0.000000
# 5 0.000000 0.000000 0.000000 0.000000 -0.002051 0.000000
# 6 0.000000 0.000000 0.000000 0.000000 0.000000 0.036378
#
#
# Mechanical properties :
#
#
# Convention : Reuss Voigt Hill
#
# Bulk Modulus (GPa) = 34.51602 35.52531 35.02066
# Shear Modulus (GPa) = -4369.83247 -80.75620 -2225.29434
#
# Velocity S-wave (km/s) = -44.70867 -6.07781 -31.90458
# Velocity P-wave (km/s) = 51.47198 5.74482 36.62218
#
# Compressibility (1/GPa) = 0.02897206
#
# Stress axis : x y z
#
# Youngs Moduli (GPa) = 46.35300 34.99395 86.01886
#
# Poissons Ratio (x) = 0.57618 -0.17993
# Poissons Ratio (y) = 0.76321 0.17447
# Poissons Ratio (z) = -0.09696 0.07098
#
# Static dielectric constant tensor:
#      x y z
#    x 1.841640 0.000000 0.000000 
#    y 0.000000 1.809270 0.000000 
#    z 0.000000 0.000000 1.628840 
# 
# From -- ./inp_files/6663.got.cif
#   From: 2010.05.17/outbox.cif.g08.bks.cpg/sg58_4_cif.got.tgz:6663.got - 2010.06.03 14:20:14.
