data_PCOD9443987
_publ_section_title
;
Structure prediction by ZEFSAII (Michael W. Deem and Ramdas Pophale) SiO2 
 PCOD9443987
Probable space group: P N N M
;
_chemical_formula_sum "Si O2"
_cell_formula_units_Z 48
_cell_length_a 8.393964
_cell_length_b 9.670133
_cell_length_c 27.636954
_cell_angle_alpha 90.000000
_cell_angle_beta 90.000000
_cell_angle_gamma 90.000000
_cell_volume 2243.312236
_symmetry_space_group_name_H-M "P N N M"
_symmetry_group_IT_number 58
_symmetry_cell_setting 'orthorhombic'
loop_
_space_group_symop_operation_xyz
x,y,z
-x,-y,z
1/2+x,1/2-y,1/2-z
1/2-x,1/2+y,1/2-z
-x,-y,-z
x,y,-z
1/2-x,1/2+y,1/2+z
1/2+x,1/2-y,1/2+z
loop_
_atom_site_type_symbol
_atom_site_label
_atom_site_fract_x
_atom_site_fract_y
_atom_site_fract_z
Si Si1 0.000000 0.500000 0.830126
Si Si2 0.500000 0.500000 0.852351
Si Si3 0.562733 0.153928 0.500000
Si Si4 0.227857 0.319045 0.102911
Si Si5 0.783938 0.853412 0.274814
Si Si6 0.318529 0.947127 0.200913
Si Si7 0.338959 0.408260 0.500000
Si Si8 0.307199 0.500817 0.396678
O O1 0.094659 0.392066 0.863740
O O2 0.119341 0.589497 0.797396
O O3 0.617635 0.590030 0.885281
O O4 0.589173 0.397499 0.815240
O O5 0.666192 0.177790 0.452092
O O6 0.409557 0.254599 0.500000
O O7 0.500000 0.000000 0.500000
O O8 0.249938 0.157024 0.113280
O O9 0.796273 0.690590 0.267472
O O10 0.793306 0.935807 0.224621
O O11 0.500000 0.000000 0.198911
O O12 0.260192 0.911373 0.147126
O O13 0.500000 0.500000 0.500000
O O14 0.255706 0.446485 0.449568
O O15 0.500000 0.500000 0.395630
#
# Coordination Sequence:
#
# PCOD9443987 Si02
#       8
#     4   4   4   8   8   8   4   8
#     4  10  22  41  64  92 134 173 226 274 330 404
#     4  10  26  41  64  94 144 175 228 282 354 408
#     4  12  22  37  68 100 135 169 231 287 343 417
#     4  11  21  40  64  97 130 179 220 282 343 407
#     4  11  26  44  66  95 137 180 228 286 336 420
#     4  12  28  43  68 100 138 178 231 281 351 418
#     4  10  20  40  63 101 125 168 225 284 330 411
#     4  11  22  40  71  95 129 175 232 278 341 404
#
# _framework density 21.396934000000002
#
# number of rings (size 3 to 8) (size 9 to 14) (size 15 to 20)
#    0.000    1.000    5.000    2.000    8.167    0.333 
#    0.000    0.417    0.000    1.000    0.000    0.000 
#    0.000    0.000    0.000    0.000    0.000    0.000 
#
# Total GULP energy -268463.853771 kJ/mol
# GULP energy per Si atom -5592.996954 kJ/mol
# Density = 2.134823 g / cm^3
# Si number density = 21.396934 Si / 1000 Ang^3
#
#
#
# Elastic Constant Matrix: (Units=GPa)
#
#
# Indices 1 2 3 4 5 6 
#
# 1 44.8727 4.9514 15.7237 0.0000 0.0000 0.0000
# 2 4.9514 119.6318 13.7234 0.0000 0.0000 0.0000
# 3 15.7237 13.7234 121.8084 0.0000 0.0000 0.0000
# 4 0.0000 0.0000 0.0000 17.6902 0.0000 0.0000
# 5 0.0000 0.0000 0.0000 0.0000 15.1609 0.0000
# 6 0.0000 0.0000 0.0000 0.0000 0.0000 16.1551
#
#
#
# Elastic Compliance Matrix: (Units=1/GPa)
#
#
# Indices 1 2 3 4 5 6 
#
# 1 0.023388 -0.000630 -0.002948 0.000000 0.000000 0.000000
# 2 -0.000630 0.008485 -0.000875 0.000000 0.000000 0.000000
# 3 -0.002948 -0.000875 0.008689 0.000000 0.000000 0.000000
# 4 0.000000 0.000000 0.000000 0.056528 0.000000 0.000000
# 5 0.000000 0.000000 0.000000 0.000000 0.065959 0.000000
# 6 0.000000 0.000000 0.000000 0.000000 0.000000 0.061900
#
#
# Mechanical properties :
#
#
# Convention : Reuss Voigt Hill
#
# Bulk Modulus (GPa) = 31.58884 39.45666 35.52275
# Shear Modulus (GPa) = 20.45768 26.59553 23.52660
#
# Velocity S-wave (km/s) = 3.09545 3.52939 3.31952
# Velocity P-wave (km/s) = 5.25081 5.92361 5.59733
#
# Compressibility (1/GPa) = 0.03165675
#
# Stress axis : x y z
#
# Youngs Moduli (GPa) = 42.75734 117.84966 115.09186
#
# Poissons Ratio (x) = 0.07422 0.33930
# Poissons Ratio (y) = 0.02693 0.10067
# Poissons Ratio (z) = 0.12605 0.10308
#
# Static dielectric constant tensor:
#      x y z
#    x 1.766520 0.000000 0.000000 
#    y 0.000000 1.789900 0.000000 
#    z 0.000000 0.000000 1.818200 
# 
# From -- ./inp_files/34662.got.cif
#   From: 2010.05.17/outbox.cif.g08.bks.cpg/sg58_18_cif.got.tgz:34662.got - 2010.06.03 14:20:14.
