data_PCOD9443736
_publ_section_title
;
Structure prediction by ZEFSAII (Michael W. Deem and Ramdas Pophale) SiO2 
 PCOD9443736
Probable space group: P N N M
;
_chemical_formula_sum "Si O2"
_cell_formula_units_Z 64
_cell_length_a 31.277492
_cell_length_b 12.055921
_cell_length_c 7.973040
_cell_angle_alpha 90.000000
_cell_angle_beta 90.000000
_cell_angle_gamma 90.000000
_cell_volume 3006.465732
_symmetry_space_group_name_H-M "P N N M"
_symmetry_group_IT_number 58
_symmetry_cell_setting 'orthorhombic'
loop_
_space_group_symop_operation_xyz
x,y,z
-x,-y,z
1/2+x,1/2-y,1/2-z
1/2-x,1/2+y,1/2-z
-x,-y,-z
x,y,-z
1/2-x,1/2+y,1/2+z
1/2+x,1/2-y,1/2+z
loop_
_atom_site_type_symbol
_atom_site_label
_atom_site_fract_x
_atom_site_fract_y
_atom_site_fract_z
Si Si1 0.919632 0.770744 0.297527
Si Si2 0.549168 0.509989 0.794979
Si Si3 0.688766 0.498308 0.306756
Si Si4 0.674519 0.252763 0.804837
Si Si5 0.369741 0.067187 0.301001
Si Si6 0.782461 0.545921 0.805986
Si Si7 0.955927 0.550148 0.200911
Si Si8 0.879948 0.179721 0.300313
O O1 0.918982 0.772314 0.500000
O O2 0.928271 0.895739 0.241674
O O3 0.873216 0.730819 0.238943
O O4 0.953355 0.680452 0.238790
O O5 0.500000 0.500000 0.741268
O O6 0.577214 0.615228 0.739586
O O7 0.549264 0.512775 0.000000
O O8 0.677155 0.481419 0.500000
O O9 0.680992 0.383559 0.210966
O O10 0.738833 0.523907 0.290039
O O11 0.659567 0.597548 0.237242
O O12 0.707011 0.176293 0.705506
O O13 0.677420 0.221398 0.000000
O O14 0.368866 0.044131 0.500000
O O15 0.373112 0.198890 0.274963
O O16 0.324682 0.017323 0.237056
O O17 0.412803 0.009006 0.231703
O O18 0.775957 0.512957 0.000000
O O19 0.000000 0.500000 0.268136
O O20 0.955804 0.534425 0.000000
O O21 0.883391 0.193188 0.500000
#
# Coordination Sequence:
#
# PCOD9443736 Si02
#       8
#     8   8   8   8   8   8   8   8
#     4  10  20  37  63  90 121 157 204 258 303 359
#     4   9  19  37  60  89 123 159 199 251 311 363
#     4  12  26  43  65  92 125 165 207 253 309 370
#     4  11  22  41  66  93 125 159 205 260 311 365
#     4  10  23  42  61  87 125 165 204 250 308 370
#     4  11  24  43  66  91 123 163 208 257 309 367
#     4  10  22  40  61  88 126 165 203 252 307 364
#     4  11  23  41  64  90 124 163 206 257 310 366
#
# _framework density 21.287455999999999
#
# number of rings (size 3 to 8) (size 9 to 14) (size 15 to 20)
#    0.000    1.500    2.500    2.250    3.500    2.250 
#    0.000    0.000    0.000    1.875    0.000    0.000 
#    0.000    0.000    0.000    0.000    0.000    0.000 
#
# Total GULP energy -357635.543179 kJ/mol
# GULP energy per Si atom -5588.055362 kJ/mol
# Density = 2.123900 g / cm^3
# Si number density = 21.287456 Si / 1000 Ang^3
#
#
#
# Elastic Constant Matrix: (Units=GPa)
#
#
# Indices 1 2 3 4 5 6 
#
# 1 93.1819 14.6766 -1.7620 0.0000 0.0000 0.0000
# 2 14.6766 88.4030 -17.1638 0.0000 0.0000 0.0000
# 3 -1.7620 -17.1638 23.2637 0.0000 0.0000 0.0000
# 4 0.0000 0.0000 0.0000 24.3401 0.0000 0.0000
# 5 0.0000 0.0000 0.0000 0.0000 3.8812 0.0000
# 6 0.0000 0.0000 0.0000 0.0000 0.0000 29.5117
#
#
#
# Elastic Compliance Matrix: (Units=1/GPa)
#
#
# Indices 1 2 3 4 5 6 
#
# 1 0.011027 -0.001948 -0.000602 0.000000 0.000000 0.000000
# 2 -0.001948 0.013547 0.009847 0.000000 0.000000 0.000000
# 3 -0.000602 0.009847 0.050205 0.000000 0.000000 0.000000
# 4 0.000000 0.000000 0.000000 0.041084 0.000000 0.000000
# 5 0.000000 0.000000 0.000000 0.000000 0.257650 0.000000
# 6 0.000000 0.000000 0.000000 0.000000 0.000000 0.033885
#
#
# Mechanical properties :
#
#
# Convention : Reuss Voigt Hill
#
# Bulk Modulus (GPa) = 11.18870 21.81669 16.50270
# Shear Modulus (GPa) = 11.83169 25.48645 18.65907
#
# Velocity S-wave (km/s) = 2.36011 3.46389 2.96383
# Velocity P-wave (km/s) = 3.56290 5.12532 4.41379
#
# Compressibility (1/GPa) = 0.08937589
#
# Stress axis : x y z
#
# Youngs Moduli (GPa) = 90.68591 73.81666 19.91822
#
# Poissons Ratio (x) = 0.14376 0.01198
# Poissons Ratio (y) = 0.17661 -0.19614
# Poissons Ratio (z) = 0.05456 -0.72690
#
# Static dielectric constant tensor:
#      x y z
#    x 1.792890 0.000000 0.000000 
#    y 0.000000 1.735210 0.000000 
#    z 0.000000 0.000000 1.756510 
# 
# From -- ./inp_files/10972.got.cif
#   From: 2010.05.17/outbox.cif.g08.bks.cpg/sg58_6_cif.got.tgz:10972.got - 2010.06.03 14:20:14.
