data_PCOD9443991
_publ_section_title
;
Structure prediction by ZEFSAII (Michael W. Deem and Ramdas Pophale) SiO2 
 PCOD9443991
Probable space group: P N N M
;
_chemical_formula_sum "Si O2"
_cell_formula_units_Z 48
_cell_length_a 9.822745
_cell_length_b 9.266649
_cell_length_c 26.237765
_cell_angle_alpha 90.000000
_cell_angle_beta 90.000000
_cell_angle_gamma 90.000000
_cell_volume 2388.264488
_symmetry_space_group_name_H-M "P N N M"
_symmetry_group_IT_number 58
_symmetry_cell_setting 'orthorhombic'
loop_
_space_group_symop_operation_xyz
x,y,z
-x,-y,z
1/2+x,1/2-y,1/2-z
1/2-x,1/2+y,1/2-z
-x,-y,-z
x,y,-z
1/2-x,1/2+y,1/2+z
1/2+x,1/2-y,1/2+z
loop_
_atom_site_type_symbol
_atom_site_label
_atom_site_fract_x
_atom_site_fract_y
_atom_site_fract_z
Si Si1 0.362515 0.915164 0.207023
Si Si2 0.317514 0.749367 0.559778
Si Si3 0.651268 0.007410 0.089440
Si Si4 0.125497 0.779304 0.055877
Si Si5 0.851790 0.927500 0.724869
Si Si6 0.152583 0.522078 0.131909
O O1 0.360500 0.747797 0.225009
O O2 0.500000 0.000000 0.222636
O O3 0.358263 0.924082 0.145636
O O4 0.234817 0.004681 0.228830
O O5 0.281902 0.764393 0.500000
O O6 0.209768 0.653272 0.589731
O O7 0.467734 0.677190 0.561864
O O8 0.328432 0.899482 0.589305
O O9 0.500000 0.000000 0.067269
O O10 0.762843 0.096728 0.058395
O O11 0.155836 0.670934 0.101382
O O12 0.132974 0.707189 0.000000
O O13 0.765909 0.975245 0.675119
O O14 0.000000 0.000000 0.724105
O O15 0.000000 0.500000 0.153656
#
# Coordination Sequence:
#
# PCOD9443991 Si02
#       6
#     8   8   8   8   8   8
#     4  11  26  47  67  97 132 170 217 267 327 395
#     4  10  22  38  63  94 127 172 218 266 316 377
#     4  11  24  40  62  91 131 167 211 263 324 381
#     4  10  20  40  63  90 126 167 215 266 314 378
#     4  12  26  44  72  98 129 170 214 271 330 390
#     4  10  22  40  65  94 129 166 215 263 323 382
#
# _framework density 20.098277
#
# number of rings (size 3 to 8) (size 9 to 14) (size 15 to 20)
#    0.000    1.333    1.667    3.000    7.000    6.000 
#    0.000    0.000    0.000    3.000    0.000    0.000 
#    0.000    0.000    0.000    0.000    0.000    0.000 
#
# Total GULP energy -268079.658095 kJ/mol
# GULP energy per Si atom -5584.992877 kJ/mol
# Density = 2.005253 g / cm^3
# Si number density = 20.098277 Si / 1000 Ang^3
#
#
#
# Elastic Constant Matrix: (Units=GPa)
#
#
# Indices 1 2 3 4 5 6 
#
# 1 141.4128 50.2781 21.5539 0.0000 0.0000 0.0000
# 2 50.2781 108.4585 7.9829 0.0000 0.0000 0.0000
# 3 21.5539 7.9829 41.8157 0.0000 0.0000 0.0000
# 4 0.0000 0.0000 0.0000 19.4908 0.0000 0.0000
# 5 0.0000 0.0000 0.0000 0.0000 56.6653 0.0000
# 6 0.0000 0.0000 0.0000 0.0000 0.0000 33.4269
#
#
#
# Elastic Compliance Matrix: (Units=1/GPa)
#
#
# Indices 1 2 3 4 5 6 
#
# 1 0.009060 -0.003911 -0.003923 0.000000 0.000000 0.000000
# 2 -0.003911 0.011040 -0.000092 0.000000 0.000000 0.000000
# 3 -0.003923 -0.000092 0.025954 0.000000 0.000000 0.000000
# 4 0.000000 0.000000 0.000000 0.051306 0.000000 0.000000
# 5 0.000000 0.000000 0.000000 0.000000 0.017647 0.000000
# 6 0.000000 0.000000 0.000000 0.000000 0.000000 0.029916
#
#
# Mechanical properties :
#
#
# Convention : Reuss Voigt Hill
#
# Bulk Modulus (GPa) = 33.11037 50.14634 41.62835
# Shear Modulus (GPa) = 29.26652 36.04139 32.65396
#
# Velocity S-wave (km/s) = 3.82012 4.23928 4.03515
# Velocity P-wave (km/s) = 5.99731 6.99762 6.51669
#
# Compressibility (1/GPa) = 0.03020202
#
# Stress axis : x y z
#
# Youngs Moduli (GPa) = 110.37424 90.57991 38.52938
#
# Poissons Ratio (x) = 0.35428 0.15116
# Poissons Ratio (y) = 0.43170 0.00353
# Poissons Ratio (z) = 0.43304 0.00829
#
# Static dielectric constant tensor:
#      x y z
#    x 1.701380 0.000000 0.000000 
#    y 0.000000 1.773220 0.000000 
#    z 0.000000 0.000000 1.692950 
# 
# From -- ./inp_files/34567.got.cif
#   From: 2010.05.17/outbox.cif.g08.bks.cpg/sg58_18_cif.got.tgz:34567.got - 2010.06.03 14:20:14.
