data_PCOD9443672
_publ_section_title
;
Structure prediction by ZEFSAII (Michael W. Deem and Ramdas Pophale) SiO2 
 PCOD9443672
Probable space group: P N N M
;
_chemical_formula_sum "Si O2"
_cell_formula_units_Z 48
_cell_length_a 27.748178
_cell_length_b 7.870432
_cell_length_c 10.384266
_cell_angle_alpha 90.000000
_cell_angle_beta 90.000000
_cell_angle_gamma 90.000000
_cell_volume 2267.821389
_symmetry_space_group_name_H-M "P N N M"
_symmetry_group_IT_number 58
_symmetry_cell_setting 'orthorhombic'
loop_
_space_group_symop_operation_xyz
x,y,z
-x,-y,z
1/2+x,1/2-y,1/2-z
1/2-x,1/2+y,1/2-z
-x,-y,-z
x,y,-z
1/2-x,1/2+y,1/2+z
1/2+x,1/2-y,1/2+z
loop_
_atom_site_type_symbol
_atom_site_label
_atom_site_fract_x
_atom_site_fract_y
_atom_site_fract_z
Si Si1 0.449634 0.239968 0.500000
Si Si2 0.558934 0.175015 0.500000
Si Si3 0.195424 0.335852 0.642476
Si Si4 0.614891 0.740181 0.260683
Si Si5 0.424036 0.388712 0.000000
Si Si6 0.092998 0.359631 0.277590
Si Si7 0.290146 0.121597 0.646134
Si Si8 0.526340 0.243480 0.000000
O O1 0.506772 0.263484 0.500000
O O2 0.422428 0.307891 0.373646
O O3 0.444966 0.032531 0.500000
O O4 0.584341 0.212900 0.364850
O O5 0.198221 0.417030 0.500000
O O6 0.140615 0.276028 0.661514
O O7 0.236568 0.195137 0.648127
O O8 0.205939 0.468360 0.754956
O O9 0.605988 0.640767 0.129461
O O10 0.669628 0.740047 0.312105
O O11 0.604176 0.939687 0.232455
O O12 0.468960 0.256354 0.000000
O O13 0.449872 0.569773 0.000000
O O14 0.047434 0.339457 0.370668
O O15 0.302495 0.068633 0.500000
#
# Coordination Sequence:
#
# PCOD9443672 Si02
#       8
#     4   4   8   8   4   8   8   4
#     4   9  16  32  56  85 116 138 183 237 286 333
#     4   9  18  30  56  89 110 142 185 231 288 341
#     4  10  22  39  60  88 117 155 192 237 291 345
#     4  10  20  37  60  89 111 153 192 244 286 340
#     4  11  25  37  58  83 120 158 199 233 296 349
#     4  10  20  37  61  85 117 148 192 243 288 338
#     4  10  22  40  61  88 120 152 191 240 291 344
#     4  11  23  41  54  83 122 158 193 245 288 349
#
# _framework density 21.165687999999999
#
# number of rings (size 3 to 8) (size 9 to 14) (size 15 to 20)
#    0.000    2.000    1.667    1.500    7.000    4.667 
#    0.000    0.833    0.000    3.000    0.000    0.000 
#    0.000    0.000    0.000    0.000    0.000    0.000 
#
# Total GULP energy -268173.357538 kJ/mol
# GULP energy per Si atom -5586.944949 kJ/mol
# Density = 2.111751 g / cm^3
# Si number density = 21.165688 Si / 1000 Ang^3
#
#
#
# Elastic Constant Matrix: (Units=GPa)
#
#
# Indices 1 2 3 4 5 6 
#
# 1 51.1130 5.7805 17.5639 0.0000 0.0000 0.0000
# 2 5.7805 19.9549 18.1026 0.0000 0.0000 0.0000
# 3 17.5639 18.1026 160.2079 0.0000 0.0000 0.0000
# 4 0.0000 0.0000 0.0000 1.2190 0.0000 0.0000
# 5 0.0000 0.0000 0.0000 0.0000 35.5908 0.0000
# 6 0.0000 0.0000 0.0000 0.0000 0.0000 20.9549
#
#
#
# Elastic Compliance Matrix: (Units=1/GPa)
#
#
# Indices 1 2 3 4 5 6 
#
# 1 0.020668 -0.004381 -0.001771 0.000000 0.000000 0.000000
# 2 -0.004381 0.056765 -0.005934 0.000000 0.000000 0.000000
# 3 -0.001771 -0.005934 0.007107 0.000000 0.000000 0.000000
# 4 0.000000 0.000000 0.000000 0.820351 0.000000 0.000000
# 5 0.000000 0.000000 0.000000 0.000000 0.028097 0.000000
# 6 0.000000 0.000000 0.000000 0.000000 0.000000 0.047721
#
#
# Mechanical properties :
#
#
# Convention : Reuss Voigt Hill
#
# Bulk Modulus (GPa) = 16.56477 34.90776 25.73627
# Shear Modulus (GPa) = 4.87803 24.20821 14.54312
#
# Velocity S-wave (km/s) = 1.51977 3.38560 2.62412
# Velocity P-wave (km/s) = 3.30497 5.64017 4.62246
#
# Compressibility (1/GPa) = 0.06036910
#
# Stress axis : x y z
#
# Youngs Moduli (GPa) = 48.38286 17.61649 140.71557
#
# Poissons Ratio (x) = 0.07717 0.24920
# Poissons Ratio (y) = 0.21195 0.83499
# Poissons Ratio (z) = 0.08568 0.10453
#
# Static dielectric constant tensor:
#      x y z
#    x 1.774880 0.000000 0.000000 
#    y 0.000000 1.777340 0.000000 
#    z 0.000000 0.000000 1.742200 
# 
# From -- ./inp_files/3109.got.cif
#   From: 2010.05.17/outbox.cif.g08.bks.cpg/sg58_2_cif.got.tgz:3109.got - 2010.06.03 14:20:14.
