data_PCOD9443384
_publ_section_title
;
Structure prediction by ZEFSAII (Michael W. Deem and Ramdas Pophale) SiO2 
 PCOD9443384
Probable space group: P N N M
;
_chemical_formula_sum "Si O2"
_cell_formula_units_Z 64
_cell_length_a 12.146636
_cell_length_b 31.974081
_cell_length_c 7.603989
_cell_angle_alpha 90.000000
_cell_angle_beta 90.000000
_cell_angle_gamma 90.000000
_cell_volume 2953.218415
_symmetry_space_group_name_H-M "P N N M"
_symmetry_group_IT_number 58
_symmetry_cell_setting 'orthorhombic'
loop_
_space_group_symop_operation_xyz
x,y,z
-x,-y,z
1/2+x,1/2-y,1/2-z
1/2-x,1/2+y,1/2-z
-x,-y,-z
x,y,-z
1/2-x,1/2+y,1/2+z
1/2+x,1/2-y,1/2+z
loop_
_atom_site_type_symbol
_atom_site_label
_atom_site_fract_x
_atom_site_fract_y
_atom_site_fract_z
Si Si1 0.527853 0.429340 0.791576
Si Si2 0.708145 0.709494 0.706344
Si Si3 0.836754 0.628333 0.283990
Si Si4 0.245518 0.697275 0.787865
Si Si5 0.789528 0.045156 0.212118
Si Si6 0.087839 0.620297 0.710411
Si Si7 0.516033 0.334278 0.787247
Si Si8 0.729863 0.957051 0.203657
O O1 0.418591 0.455984 0.757995
O O2 0.501181 0.382205 0.729614
O O3 0.641900 0.443928 0.708631
O O4 0.547931 0.428239 0.000000
O O5 0.735963 0.712343 0.500000
O O6 0.783508 0.671893 0.778413
O O7 0.722837 0.756004 0.780097
O O8 0.583080 0.694302 0.723637
O O9 0.834411 0.628660 0.500000
O O10 0.764639 0.588462 0.226522
O O11 0.962698 0.623266 0.225968
O O12 0.154585 0.662851 0.742487
O O13 0.364985 0.681561 0.727650
O O14 0.248454 0.698725 0.000000
O O15 0.728020 0.003765 0.280673
O O16 0.782771 0.044752 0.000000
O O17 0.081788 0.615477 0.500000
O O18 0.156479 0.580393 0.781069
O O19 0.513707 0.333706 0.000000
O O20 0.696051 0.961037 0.000000
#
# Coordination Sequence:
#
# PCOD9443384 Si02
#       8
#     8   8   8   8   8   8   8   8
#     4  11  21  35  56  82 112 147 183 223 275 331
#     4  10  21  37  59  83 109 143 183 224 271 326
#     4   9  19  36  57  80 107 142 180 225 274 319
#     4  10  22  39  57  82 114 146 180 224 277 326
#     4  10  20  36  57  80 111 145 180 228 280 325
#     4  10  21  37  58  82 109 144 187 227 269 328
#     4  10  21  37  58  82 112 146 180 224 274 322
#     4  10  21  35  55  84 111 142 184 229 275 326
#
# _framework density 21.671271999999998
#
# number of rings (size 3 to 8) (size 9 to 14) (size 15 to 20)
#    0.000    2.000    2.500    0.750    1.750    4.000 
#    0.000    3.750    0.000    0.000    0.000    2.625 
#    0.000    0.000    0.000    0.000    0.000    0.000 
#
# Total GULP energy -357572.712932 kJ/mol
# GULP energy per Si atom -5587.073640 kJ/mol
# Density = 2.162195 g / cm^3
# Si number density = 21.671272 Si / 1000 Ang^3
#
#
#
# Elastic Constant Matrix: (Units=GPa)
#
#
# Indices 1 2 3 4 5 6 
#
# 1 106.4655 19.2536 -13.0574 0.0000 0.0000 0.0000
# 2 19.2536 100.2903 -4.7397 0.0000 0.0000 0.0000
# 3 -13.0574 -4.7397 46.8757 0.0000 0.0000 0.0000
# 4 0.0000 0.0000 0.0000 18.1168 0.0000 0.0000
# 5 0.0000 0.0000 0.0000 0.0000 -49.2491 0.0000
# 6 0.0000 0.0000 0.0000 0.0000 0.0000 8.4538
#
#
#
# Elastic Compliance Matrix: (Units=1/GPa)
#
#
# Indices 1 2 3 4 5 6 
#
# 1 0.010040 -0.001804 0.002614 0.000000 0.000000 0.000000
# 2 -0.001804 0.010343 0.000543 0.000000 0.000000 0.000000
# 3 0.002614 0.000543 0.022116 0.000000 0.000000 0.000000
# 4 0.000000 0.000000 0.000000 0.055197 0.000000 0.000000
# 5 0.000000 0.000000 0.000000 0.000000 -0.020305 0.000000
# 6 0.000000 0.000000 0.000000 0.000000 0.000000 0.118289
#
#
# Mechanical properties :
#
#
# Convention : Reuss Voigt Hill
#
# Bulk Modulus (GPa) = 22.12093 28.50494 25.31294
# Shear Modulus (GPa) = 24.03361 12.27598 18.15480
#
# Velocity S-wave (km/s) = 3.33379 2.38263 2.89751
# Velocity P-wave (km/s) = 5.00485 4.55534 4.78538
#
# Compressibility (1/GPa) = 0.04520605
#
# Stress axis : x y z
#
# Youngs Moduli (GPa) = 99.60612 96.68345 45.21587
#
# Poissons Ratio (x) = 0.17440 -0.11820
# Poissons Ratio (y) = 0.17967 -0.02457
# Poissons Ratio (z) = -0.26039 -0.05253
#
# Static dielectric constant tensor:
#      x y z
#    x 1.734090 0.000000 0.000000 
#    y 0.000000 1.799500 0.000000 
#    z 0.000000 0.000000 1.831990 
# 
# From -- ./inp_files/4658.got.cif
#   From: 2010.05.17/outbox.cif.g08.bks.cpg/sg58_3_cif.got.tgz:4658.got - 2010.06.03 14:20:14.
