data_PCOD9443307
_publ_section_title
;
Structure prediction by ZEFSAII (Michael W. Deem and Ramdas Pophale) SiO2 
 PCOD9443307
Probable space group: P N N M
;
_chemical_formula_sum "Si O2"
_cell_formula_units_Z 44
_cell_length_a 7.874089
_cell_length_b 29.781826
_cell_length_c 7.540519
_cell_angle_alpha 90.000000
_cell_angle_beta 90.000000
_cell_angle_gamma 90.000000
_cell_volume 1768.287512
_symmetry_space_group_name_H-M "P N N M"
_symmetry_group_IT_number 58
_symmetry_cell_setting 'orthorhombic'
loop_
_space_group_symop_operation_xyz
x,y,z
-x,-y,z
1/2+x,1/2-y,1/2-z
1/2-x,1/2+y,1/2-z
-x,-y,-z
x,y,-z
1/2-x,1/2+y,1/2+z
1/2+x,1/2-y,1/2+z
loop_
_atom_site_type_symbol
_atom_site_label
_atom_site_fract_x
_atom_site_fract_y
_atom_site_fract_z
Si Si1 0.340507 0.912315 0.293151
Si Si2 0.304479 0.504469 0.783915
Si Si3 0.040152 0.847566 0.204503
Si Si4 0.196578 0.605123 0.786783
Si Si5 0.318354 0.256960 0.303669
Si Si6 0.479684 0.217183 0.000000
O O1 0.381525 0.919606 0.500000
O O2 0.301721 0.961682 0.218202
O O3 0.170249 0.883642 0.283119
O O4 0.505118 0.886515 0.219179
O O5 0.500000 0.500000 0.726024
O O6 0.231689 0.552978 0.739096
O O7 0.305325 0.502344 0.000000
O O8 0.074982 0.798506 0.281456
O O9 0.852571 0.866399 0.217882
O O10 0.089224 0.843100 0.000000
O O11 0.206459 0.610343 0.000000
O O12 0.381778 0.242764 0.500000
O O13 0.132139 0.276982 0.346551
O O14 0.334457 0.219023 0.157620
#
# Coordination Sequence:
#
# PCOD9443307 Si02
#       6
#     8   8   8   8   8   4
#     4  10  20  35  58  88 120 165 219 271 318 372
#     4   9  15  29  55  83 116 164 216 275 316 361
#     4  11  23  42  58  87 131 165 202 257 327 387
#     4  10  20  35  58  88 120 164 221 270 317 373
#     4   9  24  44  69 103 133 177 214 278 328 417
#     4  10  22  46  74 100 140 172 226 266 342 408
#
# _framework density 24.882832000000001
#
# number of rings (size 3 to 8) (size 9 to 14) (size 15 to 20)
#    0.545    1.636    1.818    1.091    3.818    2.909 
#    3.273    1.818    0.000    2.182    0.000    0.000 
#    0.000    0.000    0.000    0.000    0.000    0.000 
#
# Total GULP energy -245011.880871 kJ/mol
# GULP energy per Si atom -5568.451838 kJ/mol
# Density = 2.482620 g / cm^3
# Si number density = 24.882832 Si / 1000 Ang^3
#
#
#
# Elastic Constant Matrix: (Units=GPa)
#
#
# Indices 1 2 3 4 5 6 
#
# 1 127.4275 35.0933 4.3711 0.0000 0.0000 0.0000
# 2 35.0933 76.4653 -6.5668 0.0000 0.0000 0.0000
# 3 4.3711 -6.5668 94.2928 0.0000 0.0000 0.0000
# 4 0.0000 0.0000 0.0000 -4.4439 0.0000 0.0000
# 5 0.0000 0.0000 0.0000 0.0000 -393.6488 0.0000
# 6 0.0000 0.0000 0.0000 0.0000 0.0000 39.0114
#
#
#
# Elastic Compliance Matrix: (Units=1/GPa)
#
#
# Indices 1 2 3 4 5 6 
#
# 1 0.009030 -0.004205 -0.000711 0.000000 0.000000 0.000000
# 2 -0.004205 0.015115 0.001248 0.000000 0.000000 0.000000
# 3 -0.000711 0.001248 0.010725 0.000000 0.000000 0.000000
# 4 0.000000 0.000000 0.000000 -0.225028 0.000000 0.000000
# 5 0.000000 0.000000 0.000000 0.000000 -0.002540 0.000000
# 6 0.000000 0.000000 0.000000 0.000000 0.000000 0.025634
#
#
# Mechanical properties :
#
#
# Convention : Reuss Voigt Hill
#
# Bulk Modulus (GPa) = 36.32180 40.44232 38.38206
# Shear Modulus (GPa) = -33.21187 -54.13039 -43.67113
#
# Velocity S-wave (km/s) = -3.65736 -4.66919 -4.19390
# Velocity P-wave (km/s) = 1.79059 3.57492 2.82721
#
# Compressibility (1/GPa) = 0.02753167
#
# Stress axis : x y z
#
# Youngs Moduli (GPa) = 110.73971 66.15927 93.23897
#
# Poissons Ratio (x) = 0.27823 0.06634
# Poissons Ratio (y) = 0.46571 -0.11633
# Poissons Ratio (z) = 0.07879 -0.08254
#
# Static dielectric constant tensor:
#      x y z
#    x 1.987470 0.000000 0.000000 
#    y 0.000000 2.091190 0.000000 
#    z 0.000000 0.000000 1.869750 
# 
# From -- ./inp_files/2812.got.cif
#   From: 2010.05.17/outbox.cif.g08.bks.cpg/sg58_2_cif.got.tgz:2812.got - 2010.06.03 14:20:14.
