data_PCOD9443261
_publ_section_title
;
Structure prediction by ZEFSAII (Michael W. Deem and Ramdas Pophale) SiO2 
 PCOD9443261
Probable space group: P N N M
;
_chemical_formula_sum "Si O2"
_cell_formula_units_Z 56
_cell_length_a 21.536232
_cell_length_b 15.209416
_cell_length_c 7.725481
_cell_angle_alpha 90.000000
_cell_angle_beta 90.000000
_cell_angle_gamma 90.000000
_cell_volume 2530.508430
_symmetry_space_group_name_H-M "P N N M"
_symmetry_group_IT_number 58
_symmetry_cell_setting 'orthorhombic'
loop_
_space_group_symop_operation_xyz
x,y,z
-x,-y,z
1/2+x,1/2-y,1/2-z
1/2-x,1/2+y,1/2-z
-x,-y,-z
x,y,-z
1/2-x,1/2+y,1/2+z
1/2+x,1/2-y,1/2+z
loop_
_atom_site_type_symbol
_atom_site_label
_atom_site_fract_x
_atom_site_fract_y
_atom_site_fract_z
Si Si1 0.078248 0.085347 0.788410
Si Si2 0.435046 0.390879 0.708801
Si Si3 0.084757 0.697293 0.702966
Si Si4 0.532316 0.093364 0.791900
Si Si5 0.815362 0.788065 0.798296
Si Si6 0.674740 0.098523 0.701197
Si Si7 0.204253 0.591502 0.200958
O O1 0.127245 0.156513 0.723272
O O2 0.007645 0.106870 0.737651
O O3 0.092822 0.984779 0.735028
O O4 0.079531 0.085357 0.000000
O O5 0.433402 0.388727 0.500000
O O6 0.405297 0.300866 0.772945
O O7 0.087039 0.675830 0.500000
O O8 0.137557 0.638516 0.788539
O O9 0.016235 0.668348 0.765368
O O10 0.599950 0.098565 0.710705
O O11 0.500000 0.000000 0.753479
O O12 0.540692 0.098911 0.000000
O O13 0.804729 0.691564 0.720358
O O14 0.754793 0.847731 0.790363
O O15 0.831271 0.772858 0.000000
O O16 0.693993 0.096223 0.500000
O O17 0.698747 0.006643 0.777098
O O18 0.222263 0.586575 0.000000
#
# Coordination Sequence:
#
# PCOD9443261 Si02
#       7
#     8   8   8   8   8   8   8
#     4   8  16  33  58  85 113 147 186 226 275 332
#     4   9  17  33  58  86 115 147 185 228 271 329
#     4  11  22  36  55  83 116 150 185 229 284 339
#     4  10  20  35  57  85 117 150 184 227 285 346
#     4  10  21  39  60  82 111 150 191 233 282 335
#     4  10  22  39  61  87 114 145 189 239 286 335
#     4  11  24  40  56  80 111 146 188 233 278 332
#
# _framework density 22.129940999999999
#
# number of rings (size 3 to 8) (size 9 to 14) (size 15 to 20)
#    0.000    2.143    1.429    2.571    0.000    4.857 
#    0.000    5.714    0.000    0.000    0.000    0.000 
#    0.000    0.000    0.000    0.000    0.000    0.000 
#
# Total GULP energy -312820.842644 kJ/mol
# GULP energy per Si atom -5586.086476 kJ/mol
# Density = 2.207957 g / cm^3
# Si number density = 22.129941 Si / 1000 Ang^3
#
#
#
# Elastic Constant Matrix: (Units=GPa)
#
#
# Indices 1 2 3 4 5 6 
#
# 1 40.5157 41.8848 -7.9006 0.0000 0.0000 0.0000
# 2 41.8848 195.1749 3.8207 0.0000 0.0000 0.0000
# 3 -7.9006 3.8207 37.9126 0.0000 0.0000 0.0000
# 4 0.0000 0.0000 0.0000 13.5520 0.0000 0.0000
# 5 0.0000 0.0000 0.0000 0.0000 505.6137 0.0000
# 6 0.0000 0.0000 0.0000 0.0000 0.0000 23.9123
#
#
#
# Elastic Compliance Matrix: (Units=1/GPa)
#
#
# Indices 1 2 3 4 5 6 
#
# 1 0.033878 -0.007423 0.007808 0.000000 0.000000 0.000000
# 2 -0.007423 0.006760 -0.002228 0.000000 0.000000 0.000000
# 3 0.007808 -0.002228 0.028228 0.000000 0.000000 0.000000
# 4 0.000000 0.000000 0.000000 0.073790 0.000000 0.000000
# 5 0.000000 0.000000 0.000000 0.000000 0.001978 0.000000
# 6 0.000000 0.000000 0.000000 0.000000 0.000000 0.041819
#
#
# Mechanical properties :
#
#
# Convention : Reuss Voigt Hill
#
# Bulk Modulus (GPa) = 15.34213 38.80144 27.07179
# Shear Modulus (GPa) = 23.59967 124.33549 73.96758
#
# Velocity S-wave (km/s) = 3.26914 7.50375 5.78764
# Velocity P-wave (km/s) = 4.60408 9.62531 7.54467
#
# Compressibility (1/GPa) = 0.06517998
#
# Stress axis : x y z
#
# Youngs Moduli (GPa) = 29.51735 147.92334 35.42568
#
# Poissons Ratio (x) = 1.09806 -0.27660
# Poissons Ratio (y) = 0.21911 0.07894
# Poissons Ratio (z) = -0.23047 0.32960
#
# Static dielectric constant tensor:
#      x y z
#    x 1.769450 0.000000 0.000000 
#    y 0.000000 1.849040 0.000000 
#    z 0.000000 0.000000 1.811050 
# 
# From -- ./inp_files/8966.got.cif
#   From: 2010.05.17/outbox.cif.g08.bks.cpg/sg58_5_cif.got.tgz:8966.got - 2010.06.03 14:20:14.
