data_PCOD9443530
_publ_section_title
;
Structure prediction by ZEFSAII (Michael W. Deem and Ramdas Pophale) SiO2 
 PCOD9443530
Probable space group: P N N M
;
_chemical_formula_sum "Si O2"
_cell_formula_units_Z 48
_cell_length_a 9.216456
_cell_length_b 28.559263
_cell_length_c 10.101609
_cell_angle_alpha 90.000000
_cell_angle_beta 90.000000
_cell_angle_gamma 90.000000
_cell_volume 2658.896941
_symmetry_space_group_name_H-M "P N N M"
_symmetry_group_IT_number 58
_symmetry_cell_setting 'orthorhombic'
loop_
_space_group_symop_operation_xyz
x,y,z
-x,-y,z
1/2+x,1/2-y,1/2-z
1/2-x,1/2+y,1/2-z
-x,-y,-z
x,y,-z
1/2-x,1/2+y,1/2+z
1/2+x,1/2-y,1/2+z
loop_
_atom_site_type_symbol
_atom_site_label
_atom_site_fract_x
_atom_site_fract_y
_atom_site_fract_z
Si Si1 0.613204 0.290560 0.344456
Si Si2 0.419082 0.450544 0.500000
Si Si3 0.384214 0.206746 0.343708
Si Si4 0.074599 0.105211 0.770955
Si Si5 0.926033 0.949042 0.500000
Si Si6 0.427204 0.948346 0.000000
Si Si7 0.916994 0.451920 0.000000
Si Si8 0.920851 0.394887 0.737038
O O1 0.657344 0.297145 0.500000
O O2 0.498894 0.248578 0.340774
O O3 0.745255 0.279970 0.244967
O O4 0.548457 0.339598 0.291052
O O5 0.500000 0.500000 0.500000
O O6 0.477304 0.422479 0.626004
O O7 0.245862 0.454690 0.500000
O O8 0.348618 0.196887 0.500000
O O9 0.442573 0.159524 0.273494
O O10 0.043420 0.082838 0.628197
O O11 0.248603 0.099366 0.796437
O O12 0.754993 0.959359 0.500000
O O13 0.000000 0.000000 0.500000
O O14 0.482704 0.917993 0.124202
O O15 0.500000 0.000000 0.000000
O O16 0.952681 0.422886 0.129822
O O17 0.000000 0.500000 0.000000
#
# Coordination Sequence:
#
# PCOD9443530 Si02
#       8
#     8   4   8   8   4   4   4   8
#     4  10  22  40  64  93 125 162 207 251 307 367
#     4  12  24  40  61  86 123 161 204 257 309 362
#     4  10  22  41  64  93 127 163 204 253 307 367
#     4  10  21  40  63  87 120 164 200 250 308 363
#     4  10  22  38  59  90 117 155 202 245 299 364
#     4  12  26  40  61  92 123 161 210 255 303 370
#     4  10  20  36  61  84 117 155 196 245 303 356
#     4  10  21  40  62  89 120 162 203 250 308 362
#
# _framework density 18.052598
#
# number of rings (size 3 to 8) (size 9 to 14) (size 15 to 20)
#    0.000    1.667    1.667    2.500    7.000    6.000 
#    0.000    0.000    0.000    0.000    0.000    0.000 
#    0.000    0.000    0.000    0.000    0.000    0.000 
#
# Total GULP energy -267893.557757 kJ/mol
# GULP energy per Si atom -5581.115787 kJ/mol
# Density = 1.801151 g / cm^3
# Si number density = 18.052598 Si / 1000 Ang^3
#
#
#
# Elastic Constant Matrix: (Units=GPa)
#
#
# Indices 1 2 3 4 5 6 
#
# 1 80.8447 80.7812 82.9356 0.0000 0.0000 0.0000
# 2 80.7812 135.8025 80.3506 0.0000 0.0000 0.0000
# 3 82.9356 80.3506 164.1161 0.0000 0.0000 0.0000
# 4 0.0000 0.0000 0.0000 12.4804 0.0000 0.0000
# 5 0.0000 0.0000 0.0000 0.0000 -14.1658 0.0000
# 6 0.0000 0.0000 0.0000 0.0000 0.0000 33.5582
#
#
#
# Elastic Compliance Matrix: (Units=1/GPa)
#
#
# Indices 1 2 3 4 5 6 
#
# 1 0.045045 -0.018761 -0.013578 0.000000 0.000000 0.000000
# 2 -0.018761 0.018180 0.000580 0.000000 0.000000 0.000000
# 3 -0.013578 0.000580 0.012671 0.000000 0.000000 0.000000
# 4 0.000000 0.000000 0.000000 0.080125 0.000000 0.000000
# 5 0.000000 0.000000 0.000000 0.000000 -0.070593 0.000000
# 6 0.000000 0.000000 0.000000 0.000000 0.000000 0.029799
#
#
# Mechanical properties :
#
#
# Convention : Reuss Voigt Hill
#
# Bulk Modulus (GPa) = 80.78941 96.54422 88.66682
# Shear Modulus (GPa) = 27.34158 15.48764 21.41461
#
# Velocity S-wave (km/s) = 3.89595 2.93220 3.44791
# Velocity P-wave (km/s) = 8.06767 8.06593 8.06680
#
# Compressibility (1/GPa) = 0.01237786
#
# Stress axis : x y z
#
# Youngs Moduli (GPa) = 22.20025 55.00432 78.92024
#
# Poissons Ratio (x) = 1.03192 1.07157
# Poissons Ratio (y) = 0.41649 -0.04575
# Poissons Ratio (z) = 0.30143 -0.03188
#
# Static dielectric constant tensor:
#      x y z
#    x 1.602150 0.000000 0.000000 
#    y 0.000000 1.613280 0.000000 
#    z 0.000000 0.000000 1.624410 
# 
# From -- ./inp_files/3104.got.cif
#   From: 2010.05.17/outbox.cif.g08.bks.cpg/sg58_2_cif.got.tgz:3104.got - 2010.06.03 14:20:14.
