data_PCOD9443866
_publ_section_title
;
Structure prediction by ZEFSAII (Michael W. Deem and Ramdas Pophale) SiO2 
 PCOD9443866
Probable space group: P N N M
;
_chemical_formula_sum "Si O2"
_cell_formula_units_Z 64
_cell_length_a 7.770503
_cell_length_b 20.390689
_cell_length_c 18.570569
_cell_angle_alpha 90.000000
_cell_angle_beta 90.000000
_cell_angle_gamma 90.000000
_cell_volume 2942.430705
_symmetry_space_group_name_H-M "P N N M"
_symmetry_group_IT_number 58
_symmetry_cell_setting 'orthorhombic'
loop_
_space_group_symop_operation_xyz
x,y,z
-x,-y,z
1/2+x,1/2-y,1/2-z
1/2-x,1/2+y,1/2-z
-x,-y,-z
x,y,-z
1/2-x,1/2+y,1/2+z
1/2+x,1/2-y,1/2+z
loop_
_atom_site_type_symbol
_atom_site_label
_atom_site_fract_x
_atom_site_fract_y
_atom_site_fract_z
Si Si1 0.646116 0.361412 0.580684
Si Si2 0.676453 0.624184 0.913947
Si Si3 0.011531 0.280916 0.085229
Si Si4 0.048831 0.321966 0.579537
Si Si5 0.347448 0.692042 0.847069
Si Si6 0.302269 0.481839 0.799115
Si Si7 0.100575 0.430910 0.330479
Si Si8 0.738650 0.889812 0.226655
O O1 0.605673 0.387680 0.500000
O O2 0.532167 0.297170 0.596470
O O3 0.658629 0.406444 0.652388
O O4 0.843870 0.335036 0.575771
O O5 0.812198 0.681599 0.895405
O O6 0.488113 0.645677 0.885713
O O7 0.734094 0.559716 0.870068
O O8 0.673092 0.615049 0.000000
O O9 0.846795 0.311373 0.123585
O O10 0.990178 0.290192 0.000000
O O11 0.102315 0.298336 0.500000
O O12 0.093424 0.265119 0.635035
O O13 0.143706 0.390468 0.598390
O O14 0.332246 0.670422 0.764331
O O15 0.500000 0.500000 0.798267
O O16 0.246369 0.442095 0.728003
O O17 0.219772 0.552620 0.785693
O O18 0.000000 0.500000 0.344027
O O19 0.958438 0.382335 0.295901
#
# Coordination Sequence:
#
# PCOD9443866 Si02
#       8
#     8   8   8   8   8   8   8   8
#     4   9  19  38  62  88 123 161 202 255 317 378
#     4  11  23  41  63  90 127 167 208 257 313 374
#     4  10  21  38  61  91 130 167 200 252 317 377
#     4  10  20  38  63  95 129 163 210 262 314 378
#     4  12  22  37  62  94 131 163 203 259 316 378
#     4  11  22  41  60  84 117 163 210 264 304 367
#     4   9  21  41  64  87 125 167 213 265 314 377
#     4  10  22  39  60  89 120 164 209 259 317 369
#
# _framework density 21.750726
#
# number of rings (size 3 to 8) (size 9 to 14) (size 15 to 20)
#    0.000    1.750    2.500    1.875    0.000    4.500 
#    0.000    1.875    0.000    5.625    0.000    0.000 
#    0.000    0.000    0.000    0.000    0.000    0.000 
#
# Total GULP energy -356817.179075 kJ/mol
# GULP energy per Si atom -5575.268423 kJ/mol
# Density = 2.170122 g / cm^3
# Si number density = 21.750726 Si / 1000 Ang^3
#
#
#
# Elastic Constant Matrix: (Units=GPa)
#
#
# Indices 1 2 3 4 5 6 
#
# 1 42.9503 -3.3377 11.7602 0.0000 0.0000 0.0000
# 2 -3.3377 75.8761 47.2534 0.0000 0.0000 0.0000
# 3 11.7602 47.2534 58.8588 0.0000 0.0000 0.0000
# 4 0.0000 0.0000 0.0000 29.2985 0.0000 0.0000
# 5 0.0000 0.0000 0.0000 0.0000 22.1404 0.0000
# 6 0.0000 0.0000 0.0000 0.0000 0.0000 31.9127
#
#
#
# Elastic Compliance Matrix: (Units=1/GPa)
#
#
# Indices 1 2 3 4 5 6 
#
# 1 0.027551 0.009280 -0.012955 0.000000 0.000000 0.000000
# 2 0.009280 0.029483 -0.025524 0.000000 0.000000 0.000000
# 3 -0.012955 -0.025524 0.040070 0.000000 0.000000 0.000000
# 4 0.000000 0.000000 0.000000 0.034131 0.000000 0.000000
# 5 0.000000 0.000000 0.000000 0.000000 0.045166 0.000000
# 6 0.000000 0.000000 0.000000 0.000000 0.000000 0.031335
#
#
# Mechanical properties :
#
#
# Convention : Reuss Voigt Hill
#
# Bulk Modulus (GPa) = 25.83600 32.11523 28.97562
# Shear Modulus (GPa) = 17.91877 24.80427 21.36152
#
# Velocity S-wave (km/s) = 2.87335 3.38063 3.13726
# Velocity P-wave (km/s) = 4.78667 5.48045 5.14527
#
# Compressibility (1/GPa) = 0.03870568
#
# Stress axis : x y z
#
# Youngs Moduli (GPa) = 36.29631 33.91765 24.95660
#
# Poissons Ratio (x) = -0.31475 0.32331
# Poissons Ratio (y) = -0.33682 0.63699
# Poissons Ratio (z) = 0.47021 0.86571
#
# Static dielectric constant tensor:
#      x y z
#    x 1.906440 0.000000 0.000000 
#    y 0.000000 1.890550 0.000000 
#    z 0.000000 0.000000 1.882710 
# 
# From -- ./inp_files/25643.got.cif
#   From: 2010.05.17/outbox.cif.g08.bks.cpg/sg58_13_cif.got.tgz:25643.got - 2010.06.03 14:20:14.
