data_PCOD9443047
_publ_section_title
;
Structure prediction by ZEFSAII (Michael W. Deem and Ramdas Pophale) SiO2 
 PCOD9443047
Probable space group: P N N M
;
_chemical_formula_sum "Si O2"
_cell_formula_units_Z 64
_cell_length_a 16.213660
_cell_length_b 20.104322
_cell_length_c 10.039732
_cell_angle_alpha 90.000000
_cell_angle_beta 90.000000
_cell_angle_gamma 90.000000
_cell_volume 3272.597642
_symmetry_space_group_name_H-M "P N N M"
_symmetry_group_IT_number 58
_symmetry_cell_setting 'orthorhombic'
loop_
_space_group_symop_operation_xyz
x,y,z
-x,-y,z
1/2+x,1/2-y,1/2-z
1/2-x,1/2+y,1/2-z
-x,-y,-z
x,y,-z
1/2-x,1/2+y,1/2+z
1/2+x,1/2-y,1/2+z
loop_
_atom_site_type_symbol
_atom_site_label
_atom_site_fract_x
_atom_site_fract_y
_atom_site_fract_z
Si Si1 0.314108 0.100630 0.650900
Si Si2 0.926592 0.053464 0.151716
Si Si3 0.840683 0.592020 0.353791
Si Si4 0.927775 0.455791 0.349992
Si Si5 0.929926 0.210384 0.841312
Si Si6 0.436638 0.784938 0.841560
Si Si7 0.747345 0.261218 0.159888
Si Si8 0.278075 0.458567 0.848064
O O1 0.343028 0.113605 0.500000
O O2 0.389734 0.097103 0.752212
O O3 0.256853 0.161197 0.694371
O O4 0.266711 0.030485 0.648500
O O5 0.948552 0.131356 0.172856
O O6 0.859652 0.035110 0.261327
O O7 0.892651 0.049372 0.000000
O O8 0.000000 0.000000 0.160051
O O9 0.807895 0.613882 0.500000
O O10 0.860163 0.514355 0.365676
O O11 0.923100 0.635221 0.330841
O O12 0.778323 0.594304 0.231681
O O13 0.948516 0.433541 0.500000
O O14 0.000000 0.500000 0.288257
O O15 0.834042 0.225690 0.801571
O O16 0.993471 0.252293 0.750072
O O17 0.938311 0.226410 0.000000
O O18 0.343636 0.762524 0.798542
O O19 0.449486 0.769583 0.000000
O O20 0.745552 0.256811 0.000000
O O21 0.292963 0.438209 0.000000
#
# Coordination Sequence:
#
# PCOD9443047 Si02
#       8
#     8   8   8   8   8   8   8   8
#     4   9  19  34  52  78 108 144 184 223 278 340
#     4  10  22  39  59  81 111 150 190 233 292 358
#     4   9  18  34  54  77 107 149 187 221 276 342
#     4   9  18  31  49  75 109 141 177 223 268 318
#     4  10  22  40  60  86 116 151 195 239 286 348
#     4  10  21  37  61  86 113 153 195 235 286 346
#     4   9  19  37  58  79 113 155 187 225 286 351
#     4  10  20  34  56  84 111 141 189 243 286 332
#
# _framework density 19.556331
#
# number of rings (size 3 to 8) (size 9 to 14) (size 15 to 20)
#    0.000    2.500    0.000    1.125    3.500    4.000 
#    0.000    1.250    0.000    0.000    0.000    0.000 
#    0.000    0.000    0.000    0.000    0.000    0.000 
#
# Total GULP energy -356409.349079 kJ/mol
# GULP energy per Si atom -5568.896079 kJ/mol
# Density = 1.951182 g / cm^3
# Si number density = 19.556331 Si / 1000 Ang^3
#
#
#
# Elastic Constant Matrix: (Units=GPa)
#
#
# Indices 1 2 3 4 5 6 
#
# 1 90.6595 20.3461 49.3635 0.0000 0.0000 0.0000
# 2 20.3461 70.8121 29.8077 0.0000 0.0000 0.0000
# 3 49.3635 29.8077 95.2305 0.0000 0.0000 0.0000
# 4 0.0000 0.0000 0.0000 12.9059 0.0000 0.0000
# 5 0.0000 0.0000 0.0000 0.0000 37.0807 0.0000
# 6 0.0000 0.0000 0.0000 0.0000 0.0000 30.9762
#
#
#
# Elastic Compliance Matrix: (Units=1/GPa)
#
#
# Indices 1 2 3 4 5 6 
#
# 1 0.015460 -0.001231 -0.007629 0.000000 0.000000 0.000000
# 2 -0.001231 0.016363 -0.004484 0.000000 0.000000 0.000000
# 3 -0.007629 -0.004484 0.015859 0.000000 0.000000 0.000000
# 4 0.000000 0.000000 0.000000 0.077484 0.000000 0.000000
# 5 0.000000 0.000000 0.000000 0.000000 0.026968 0.000000
# 6 0.000000 0.000000 0.000000 0.000000 0.000000 0.032283
#
#
# Mechanical properties :
#
#
# Convention : Reuss Voigt Hill
#
# Bulk Modulus (GPa) = 47.62956 50.63741 49.13348
# Shear Modulus (GPa) = 22.92506 26.67154 24.79830
#
# Velocity S-wave (km/s) = 3.42754 3.69702 3.56482
# Velocity P-wave (km/s) = 6.33024 6.64629 6.49019
#
# Compressibility (1/GPa) = 0.02099537
#
# Stress axis : x y z
#
# Youngs Moduli (GPa) = 64.68174 61.11395 63.05712
#
# Poissons Ratio (x) = 0.07523 0.48104
# Poissons Ratio (y) = 0.07962 0.28272
# Poissons Ratio (z) = 0.49344 0.27401
#
# Static dielectric constant tensor:
#      x y z
#    x 1.713650 0.000000 0.000000 
#    y 0.000000 1.743240 0.000000 
#    z 0.000000 0.000000 1.687970 
# 
# From -- ./inp_files/8418.got.cif
#   From: 2010.05.17/outbox.cif.g08.bks.cpg/sg58_5_cif.got.tgz:8418.got - 2010.06.03 14:20:14.
