data_PCOD9443884
_publ_section_title
;
Structure prediction by ZEFSAII (Michael W. Deem and Ramdas Pophale) SiO2 
 PCOD9443884
Probable space group: P N N M
;
_chemical_formula_sum "Si O2"
_cell_formula_units_Z 40
_cell_length_a 18.657585
_cell_length_b 8.318287
_cell_length_c 11.103014
_cell_angle_alpha 90.000000
_cell_angle_beta 90.000000
_cell_angle_gamma 90.000000
_cell_volume 1723.178299
_symmetry_space_group_name_H-M "P N N M"
_symmetry_group_IT_number 58
_symmetry_cell_setting 'orthorhombic'
loop_
_space_group_symop_operation_xyz
x,y,z
-x,-y,z
1/2+x,1/2-y,1/2-z
1/2-x,1/2+y,1/2-z
-x,-y,-z
x,y,-z
1/2-x,1/2+y,1/2+z
1/2+x,1/2-y,1/2+z
loop_
_atom_site_type_symbol
_atom_site_label
_atom_site_fract_x
_atom_site_fract_y
_atom_site_fract_z
Si Si1 0.588770 0.153419 0.772699
Si Si2 0.205948 0.476944 0.132890
Si Si3 0.086101 0.994221 0.267314
Si Si4 0.937738 0.328753 0.631978
Si Si5 0.206331 0.862267 0.867310
O O1 0.611336 0.331626 0.815030
O O2 0.502582 0.164660 0.772553
O O3 0.629439 0.110974 0.650688
O O4 0.604155 0.995032 0.852968
O O5 0.197058 0.669599 0.139477
O O6 0.249640 0.418858 0.250098
O O7 0.235525 0.438284 0.000000
O O8 0.101758 0.839006 0.350086
O O9 0.130056 0.951378 0.148234
O O10 0.000000 0.000000 0.254830
O O11 0.971875 0.324725 0.500000
O O12 0.236740 0.899454 0.000000
#
# Coordination Sequence:
#
# PCOD9443884 Si02
#       5
#     8   8   8   8   8
#     4  10  20  38  64  94 132 173 222 275 339 398
#     4  11  25  46  71 100 138 183 232 287 348 416
#     4  10  22  40  66  97 136 177 226 282 342 405
#     4  10  21  38  62  97 139 181 230 281 332 401
#     4  11  25  46  70 100 137 181 233 285 348 417
#
# _framework density 23.212917999999998
#
# number of rings (size 3 to 8) (size 9 to 14) (size 15 to 20)
#    0.000    1.600    2.000    2.400    0.000   10.400 
#    0.000    7.000    0.000    0.000    0.000    0.000 
#    0.000    0.000    0.000    0.000    0.000    0.000 
#
# Total GULP energy -222841.057331 kJ/mol
# GULP energy per Si atom -5571.026433 kJ/mol
# Density = 2.316008 g / cm^3
# Si number density = 23.212918 Si / 1000 Ang^3
#
#
#
# Elastic Constant Matrix: (Units=GPa)
#
#
# Indices 1 2 3 4 5 6 
#
# 1 71.1055 20.3749 41.9487 0.0000 0.0000 0.0000
# 2 20.3749 224.3115 60.3308 0.0000 0.0000 0.0000
# 3 41.9487 60.3308 135.3635 0.0000 0.0000 0.0000
# 4 0.0000 0.0000 0.0000 15.8204 0.0000 0.0000
# 5 0.0000 0.0000 0.0000 0.0000 20.0257 0.0000
# 6 0.0000 0.0000 0.0000 0.0000 0.0000 29.3670
#
#
#
# Elastic Compliance Matrix: (Units=1/GPa)
#
#
# Indices 1 2 3 4 5 6 
#
# 1 0.017214 -0.000146 -0.005269 0.000000 0.000000 0.000000
# 2 -0.000146 0.005067 -0.002213 0.000000 0.000000 0.000000
# 3 -0.005269 -0.002213 0.010007 0.000000 0.000000 0.000000
# 4 0.000000 0.000000 0.000000 0.063210 0.000000 0.000000
# 5 0.000000 0.000000 0.000000 0.000000 0.049936 0.000000
# 6 0.000000 0.000000 0.000000 0.000000 0.000000 0.034052
#
#
# Mechanical properties :
#
#
# Convention : Reuss Voigt Hill
#
# Bulk Modulus (GPa) = 58.71851 75.12104 66.91978
# Shear Modulus (GPa) = 24.94778 33.58435 29.26607
#
# Velocity S-wave (km/s) = 3.28187 3.80780 3.55458
# Velocity P-wave (km/s) = 6.30170 7.19475 6.76299
#
# Compressibility (1/GPa) = 0.01703040
#
# Stress axis : x y z
#
# Youngs Moduli (GPa) = 58.09141 197.37392 99.93303
#
# Poissons Ratio (x) = 0.02889 0.52659
# Poissons Ratio (y) = 0.00850 0.22113
# Poissons Ratio (z) = 0.30611 0.43674
#
# Static dielectric constant tensor:
#      x y z
#    x 1.960950 0.000000 0.000000 
#    y 0.000000 1.921870 0.000000 
#    z 0.000000 0.000000 1.843440 
# 
# From -- ./inp_files/9599.got.cif
#   From: 2010.05.17/outbox.cif.g08.bks.cpg/sg58_5_cif.got.tgz:9599.got - 2010.06.03 14:20:14.
