data_PCOD9443139
_publ_section_title
;
Structure prediction by ZEFSAII (Michael W. Deem and Ramdas Pophale) SiO2 
 PCOD9443139
Probable space group: P N N M
;
_chemical_formula_sum "Si O2"
_cell_formula_units_Z 28
_cell_length_a 5.148339
_cell_length_b 9.066893
_cell_length_c 30.723941
_cell_angle_alpha 90.000000
_cell_angle_beta 90.000000
_cell_angle_gamma 90.000000
_cell_volume 1434.176325
_symmetry_space_group_name_H-M "P N N M"
_symmetry_group_IT_number 58
_symmetry_cell_setting 'orthorhombic'
loop_
_space_group_symop_operation_xyz
x,y,z
-x,-y,z
1/2+x,1/2-y,1/2-z
1/2-x,1/2+y,1/2-z
-x,-y,-z
x,y,-z
1/2-x,1/2+y,1/2+z
1/2+x,1/2-y,1/2+z
loop_
_atom_site_type_symbol
_atom_site_label
_atom_site_fract_x
_atom_site_fract_y
_atom_site_fract_z
Si Si1 0.250909 0.606306 0.500000
Si Si2 0.748604 0.896088 0.274881
Si Si3 0.251372 0.606671 0.405701
Si Si4 0.068827 0.672852 0.682577
O O1 0.500000 0.500000 0.500000
O O2 0.260505 0.685141 0.452979
O O3 0.000000 0.500000 0.500000
O O4 0.723669 0.815771 0.227976
O O5 0.815852 0.773433 0.310814
O O6 0.500000 0.000000 0.282461
O O7 0.000000 0.000000 0.273280
O O8 0.500000 0.500000 0.400635
O O9 0.215237 0.703852 0.362430
O O10 0.000000 0.500000 0.407736
O O11 0.000000 0.500000 0.681507
#
# Coordination Sequence:
#
# PCOD9443139 Si02
#       4
#     4   8   8   8
#     4   8  14  26  42  68 102 126 154 210 271 312
#     4  11  23  36  51  75 108 141 177 223 270 315
#     4   9  17  28  47  73 100 130 167 213 265 316
#     4  10  20  35  54  75 101 139 179 217 261 321
#
# _framework density 19.523401
#
# number of rings (size 3 to 8) (size 9 to 14) (size 15 to 20)
#    0.000    2.286    0.000    4.286    0.000    6.857 
#    0.000    0.000    0.000    0.000    0.000    2.000 
#    0.000    0.000    0.000    3.714    0.000    6.714 
#
# Total GULP energy -156019.936526 kJ/mol
# GULP energy per Si atom -5572.140590 kJ/mol
# Density = 1.947897 g / cm^3
# Si number density = 19.523401 Si / 1000 Ang^3
#
#
#
# Elastic Constant Matrix: (Units=GPa)
#
#
# Indices 1 2 3 4 5 6 
#
# 1 143.2308 31.4344 36.3038 0.0000 0.0000 0.0000
# 2 31.4344 66.9366 35.9621 0.0000 0.0000 0.0000
# 3 36.3038 35.9621 193.3220 0.0000 0.0000 0.0000
# 4 0.0000 0.0000 0.0000 9.9074 0.0000 0.0000
# 5 0.0000 0.0000 0.0000 0.0000 27.1237 0.0000
# 6 0.0000 0.0000 0.0000 0.0000 0.0000 26.3470
#
#
#
# Elastic Compliance Matrix: (Units=1/GPa)
#
#
# Indices 1 2 3 4 5 6 
#
# 1 0.007918 -0.003244 -0.000883 0.000000 0.000000 0.000000
# 2 -0.003244 0.017927 -0.002726 0.000000 0.000000 0.000000
# 3 -0.000883 -0.002726 0.005846 0.000000 0.000000 0.000000
# 4 0.000000 0.000000 0.000000 0.100935 0.000000 0.000000
# 5 0.000000 0.000000 0.000000 0.000000 0.036868 0.000000
# 6 0.000000 0.000000 0.000000 0.000000 0.000000 0.037955
#
#
# Mechanical properties :
#
#
# Convention : Reuss Voigt Hill
#
# Bulk Modulus (GPa) = 55.60231 67.87666 61.73948
# Shear Modulus (GPa) = 22.01202 32.66156 27.33679
#
# Velocity S-wave (km/s) = 3.36142 4.09460 3.74599
# Velocity P-wave (km/s) = 6.60357 7.56285 7.09943
#
# Compressibility (1/GPa) = 0.01798487
#
# Stress axis : x y z
#
# Youngs Moduli (GPa) = 126.30234 55.78132 171.06689
#
# Poissons Ratio (x) = 0.18093 0.15113
# Poissons Ratio (y) = 0.40967 0.46628
# Poissons Ratio (z) = 0.11158 0.15205
#
# Static dielectric constant tensor:
#      x y z
#    x 1.733510 0.000000 0.000000 
#    y 0.000000 1.675080 0.000000 
#    z 0.000000 0.000000 1.810890 
# 
# From -- ./inp_files/32564.got.cif
#   From: 2010.05.17/outbox.cif.g08.bks.cpg/sg58_17_cif.got.tgz:32564.got - 2010.06.03 14:20:14.
