data_PCOD9443948
_publ_section_title
;
Structure prediction by ZEFSAII (Michael W. Deem and Ramdas Pophale) SiO2 
 PCOD9443948
Probable space group: P N N M
;
_chemical_formula_sum "Si O2"
_cell_formula_units_Z 48
_cell_length_a 10.052986
_cell_length_b 17.220864
_cell_length_c 14.323893
_cell_angle_alpha 90.000000
_cell_angle_beta 90.000000
_cell_angle_gamma 90.000000
_cell_volume 2479.768180
_symmetry_space_group_name_H-M "P N N M"
_symmetry_group_IT_number 58
_symmetry_cell_setting 'orthorhombic'
loop_
_space_group_symop_operation_xyz
x,y,z
-x,-y,z
1/2+x,1/2-y,1/2-z
1/2-x,1/2+y,1/2-z
-x,-y,-z
x,y,-z
1/2-x,1/2+y,1/2+z
1/2+x,1/2-y,1/2+z
loop_
_atom_site_type_symbol
_atom_site_label
_atom_site_fract_x
_atom_site_fract_y
_atom_site_fract_z
Si Si1 0.161597 0.177161 0.727985
Si Si2 0.601673 0.434459 0.391877
Si Si3 0.091983 0.422827 0.110607
Si Si4 0.899799 0.438393 0.607663
Si Si5 0.951978 0.303094 0.251570
Si Si6 0.654660 0.479527 0.110788
O O1 0.116058 0.141390 0.828273
O O2 0.042818 0.235571 0.707106
O O3 0.303110 0.221174 0.720941
O O4 0.179715 0.100538 0.664857
O O5 0.500000 0.500000 0.357800
O O6 0.569619 0.415944 0.500000
O O7 0.750119 0.469139 0.388980
O O8 0.031661 0.353044 0.172875
O O9 0.239879 0.453344 0.138694
O O10 0.000000 0.500000 0.119450
O O11 0.093757 0.401517 0.000000
O O12 0.933901 0.424043 0.500000
O O13 0.000000 0.500000 0.648974
O O14 0.915592 0.361848 0.666125
O O15 0.500000 0.500000 0.125421
O O16 0.675911 0.467621 0.000000
#
# Coordination Sequence:
#
# PCOD9443948 Si02
#       6
#     8   8   8   8   8   8
#     4  11  24  38  55  86 121 156 189 237 291 349
#     4   9  19  37  59  82 108 143 188 234 277 329
#     4  10  20  39  65  87 111 151 201 245 288 343
#     4   9  19  36  58  82 108 144 187 229 278 336
#     4  11  24  37  56  84 120 155 192 236 294 346
#     4  10  22  40  64  91 116 150 198 249 295 347
#
# _framework density 19.356648
#
# number of rings (size 3 to 8) (size 9 to 14) (size 15 to 20)
#    0.000    2.000    1.667    1.000    4.667    2.667 
#    0.000    0.000    0.000    0.000    0.000    0.000 
#    0.000    0.000    0.000    0.000    0.000    0.000 
#
# Total GULP energy -267600.994574 kJ/mol
# GULP energy per Si atom -5575.020720 kJ/mol
# Density = 1.931259 g / cm^3
# Si number density = 19.356648 Si / 1000 Ang^3
#
#
#
# Elastic Constant Matrix: (Units=GPa)
#
#
# Indices 1 2 3 4 5 6 
#
# 1 112.6141 28.0544 15.2141 0.0000 0.0000 0.0000
# 2 28.0544 28.2382 6.3094 0.0000 0.0000 0.0000
# 3 15.2141 6.3094 58.3168 0.0000 0.0000 0.0000
# 4 0.0000 0.0000 0.0000 53.8916 0.0000 0.0000
# 5 0.0000 0.0000 0.0000 0.0000 27.3989 0.0000
# 6 0.0000 0.0000 0.0000 0.0000 0.0000 39.6915
#
#
#
# Elastic Compliance Matrix: (Units=1/GPa)
#
#
# Indices 1 2 3 4 5 6 
#
# 1 0.012000 -0.011500 -0.001886 0.000000 0.000000 0.000000
# 2 -0.011500 0.047312 -0.002119 0.000000 0.000000 0.000000
# 3 -0.001886 -0.002119 0.017869 0.000000 0.000000 0.000000
# 4 0.000000 0.000000 0.000000 0.018556 0.000000 0.000000
# 5 0.000000 0.000000 0.000000 0.000000 0.036498 0.000000
# 6 0.000000 0.000000 0.000000 0.000000 0.000000 0.025194
#
#
# Mechanical properties :
#
#
# Convention : Reuss Voigt Hill
#
# Bulk Modulus (GPa) = 21.65889 33.14721 27.40305
# Shear Modulus (GPa) = 24.53049 34.16915 29.34982
#
# Velocity S-wave (km/s) = 3.56376 4.20603 3.89815
# Velocity P-wave (km/s) = 5.30543 6.38352 5.86928
#
# Compressibility (1/GPa) = 0.04617041
#
# Stress axis : x y z
#
# Youngs Moduli (GPa) = 83.33600 21.13650 55.96266
#
# Poissons Ratio (x) = 0.24307 0.10556
# Poissons Ratio (y) = 0.95837 0.11856
# Poissons Ratio (z) = 0.15720 0.04478
#
# Static dielectric constant tensor:
#      x y z
#    x 1.769320 0.000000 0.000000 
#    y 0.000000 1.721280 0.000000 
#    z 0.000000 0.000000 1.712460 
# 
# From -- ./inp_files/19829.got.cif
#   From: 2010.05.17/outbox.cif.g08.bks.cpg/sg58_10_cif.got.tgz:19829.got - 2010.06.03 14:20:14.
