data_PCOD9443330
_publ_section_title
;
Structure prediction by ZEFSAII (Michael W. Deem and Ramdas Pophale) SiO2 
 PCOD9443330
Probable space group: P N N M
;
_chemical_formula_sum "Si O2"
_cell_formula_units_Z 64
_cell_length_a 28.991419
_cell_length_b 11.476344
_cell_length_c 9.170650
_cell_angle_alpha 90.000000
_cell_angle_beta 90.000000
_cell_angle_gamma 90.000000
_cell_volume 3051.217377
_symmetry_space_group_name_H-M "P N N M"
_symmetry_group_IT_number 58
_symmetry_cell_setting 'orthorhombic'
loop_
_space_group_symop_operation_xyz
x,y,z
-x,-y,z
1/2+x,1/2-y,1/2-z
1/2-x,1/2+y,1/2-z
-x,-y,-z
x,y,-z
1/2-x,1/2+y,1/2+z
1/2+x,1/2-y,1/2+z
loop_
_atom_site_type_symbol
_atom_site_label
_atom_site_fract_x
_atom_site_fract_y
_atom_site_fract_z
Si Si1 0.065179 0.042123 0.336049
Si Si2 0.327662 0.052979 0.829776
Si Si3 0.940271 0.188719 0.833761
Si Si4 0.774434 0.982703 0.828684
Si Si5 0.605675 0.110418 0.673820
Si Si6 0.830353 0.219114 0.833655
Si Si7 0.658262 0.321929 0.169776
Si Si8 0.981689 0.703452 0.669276
O O1 0.057185 0.996425 0.500000
O O2 0.118665 0.078366 0.322115
O O3 0.038824 0.164465 0.321536
O O4 0.051708 0.942064 0.225022
O O5 0.317950 0.185440 0.785395
O O6 0.278991 0.990125 0.798713
O O7 0.368623 0.004133 0.731058
O O8 0.339022 0.039872 0.000000
O O9 0.885447 0.204350 0.827238
O O10 0.968083 0.282375 0.738595
O O11 0.956163 0.198944 0.000000
O O12 0.804680 0.098014 0.806696
O O13 0.795662 0.878487 0.733554
O O14 0.777812 0.950361 0.000000
O O15 0.603536 0.115481 0.500000
O O16 0.637357 0.215411 0.738150
O O17 0.554904 0.126076 0.742705
O O18 0.818551 0.256927 0.000000
O O19 0.662845 0.287400 0.000000
O O20 0.982803 0.669646 0.500000
#
# Coordination Sequence:
#
# PCOD9443330 Si02
#       8
#     8   8   8   8   8   8   8   8
#     4   9  18  32  51  81 121 161 197 244 302 359
#     4  11  25  43  65  92 122 161 211 259 310 370
#     4  11  21  34  57  87 121 163 207 253 308 368
#     4  10  22  41  63  91 125 161 203 253 310 372
#     4  11  23  41  64  89 123 163 207 255 311 370
#     4  10  23  43  63  89 127 166 206 256 312 367
#     4  10  20  35  59  90 124 161 202 249 303 362
#     4  10  21  37  58  87 124 162 205 256 309 367
#
# _framework density 20.975235999999999
#
# number of rings (size 3 to 8) (size 9 to 14) (size 15 to 20)
#    0.000    1.750    1.250    3.750    1.750    6.500 
#    0.000    0.625    0.000    3.750    0.000    0.000 
#    0.000    0.000    0.000    0.000    0.000    0.000 
#
# Total GULP energy -357730.491461 kJ/mol
# GULP energy per Si atom -5589.538929 kJ/mol
# Density = 2.092750 g / cm^3
# Si number density = 20.975236 Si / 1000 Ang^3
#
#
#
# Elastic Constant Matrix: (Units=GPa)
#
#
# Indices 1 2 3 4 5 6 
#
# 1 43.9057 -6.4129 17.3073 0.0000 0.0000 0.0000
# 2 -6.4129 13.8606 10.1296 0.0000 0.0000 0.0000
# 3 17.3073 10.1296 96.4712 0.0000 0.0000 0.0000
# 4 0.0000 0.0000 0.0000 25.2030 0.0000 0.0000
# 5 0.0000 0.0000 0.0000 0.0000 43.9414 0.0000
# 6 0.0000 0.0000 0.0000 0.0000 0.0000 13.0955
#
#
#
# Elastic Compliance Matrix: (Units=1/GPa)
#
#
# Indices 1 2 3 4 5 6 
#
# 1 0.028163 0.018113 -0.006954 0.000000 0.000000 0.000000
# 2 0.018113 0.089792 -0.012678 0.000000 0.000000 0.000000
# 3 -0.006954 -0.012678 0.012945 0.000000 0.000000 0.000000
# 4 0.000000 0.000000 0.000000 0.039678 0.000000 0.000000
# 5 0.000000 0.000000 0.000000 0.000000 0.022758 0.000000
# 6 0.000000 0.000000 0.000000 0.000000 0.000000 0.076362
#
#
# Mechanical properties :
#
#
# Convention : Reuss Voigt Hill
#
# Bulk Modulus (GPa) = 7.82099 21.80950 14.81525
# Shear Modulus (GPa) = 15.85505 25.32889 20.59197
#
# Velocity S-wave (km/s) = 2.75234 3.47877 3.13665
# Velocity P-wave (km/s) = 3.71984 5.15326 4.49407
#
# Compressibility (1/GPa) = 0.12786105
#
# Stress axis : x y z
#
# Youngs Moduli (GPa) = 35.50756 11.13679 77.25217
#
# Poissons Ratio (x) = -0.20172 0.53724
# Poissons Ratio (y) = -0.64314 0.97939
# Poissons Ratio (z) = 0.24693 0.14119
#
# Static dielectric constant tensor:
#      x y z
#    x 1.778420 0.000000 0.000000 
#    y 0.000000 1.742510 0.000000 
#    z 0.000000 0.000000 1.719420 
# 
# From -- ./inp_files/10985.got.cif
#   From: 2010.05.17/outbox.cif.g08.bks.cpg/sg58_6_cif.got.tgz:10985.got - 2010.06.03 14:20:14.
