data_PCOD9443700
_publ_section_title
;
Structure prediction by ZEFSAII (Michael W. Deem and Ramdas Pophale) SiO2 
 PCOD9443700
Probable space group: P N N M
;
_chemical_formula_sum "Si O2"
_cell_formula_units_Z 56
_cell_length_a 15.804256
_cell_length_b 21.204067
_cell_length_c 9.202642
_cell_angle_alpha 90.000000
_cell_angle_beta 90.000000
_cell_angle_gamma 90.000000
_cell_volume 3083.938801
_symmetry_space_group_name_H-M "P N N M"
_symmetry_group_IT_number 58
_symmetry_cell_setting 'orthorhombic'
loop_
_space_group_symop_operation_xyz
x,y,z
-x,-y,z
1/2+x,1/2-y,1/2-z
1/2-x,1/2+y,1/2-z
-x,-y,-z
x,y,-z
1/2-x,1/2+y,1/2+z
1/2+x,1/2-y,1/2+z
loop_
_atom_site_type_symbol
_atom_site_label
_atom_site_fract_x
_atom_site_fract_y
_atom_site_fract_z
Si Si1 0.808321 0.327219 0.325008
Si Si2 0.370031 0.475646 0.168069
Si Si3 0.291882 0.024586 0.172563
Si Si4 0.930988 0.554346 0.837955
Si Si5 0.019797 0.102796 0.666683
Si Si6 0.997737 0.676000 0.673050
Si Si7 0.361793 0.713369 0.825002
O O1 0.798177 0.323184 0.500000
O O2 0.801690 0.401759 0.281679
O O3 0.730317 0.290539 0.249611
O O4 0.904751 0.305197 0.289786
O O5 0.294998 0.495290 0.271249
O O6 0.427473 0.538336 0.161401
O O7 0.428285 0.418090 0.224579
O O8 0.343738 0.462902 0.000000
O O9 0.360424 0.978310 0.240756
O O10 0.298045 0.024240 0.000000
O O11 0.972483 0.614244 0.761602
O O12 0.000000 0.500000 0.851522
O O13 0.899601 0.570631 0.000000
O O14 0.003908 0.123632 0.500000
O O15 0.080649 0.155127 0.732674
O O16 0.998923 0.662372 0.500000
O O17 0.923350 0.726908 0.698687
O O18 0.349098 0.706731 0.000000
#
# Coordination Sequence:
#
# PCOD9443700 Si02
#       7
#     8   8   8   8   8   8   8
#     4  10  21  37  58  84 115 154 193 234 290 346
#     4   9  16  30  52  79 112 147 188 236 280 329
#     4  11  21  34  56  83 114 151 187 231 289 351
#     4  11  23  38  60  87 111 141 187 245 297 343
#     4   8  15  29  52  80 109 145 188 234 281 329
#     4  10  22  41  61  83 116 157 193 235 296 354
#     4  10  20  37  62  85 112 154 200 239 280 346
#
# _framework density 18.158595999999999
#
# number of rings (size 3 to 8) (size 9 to 14) (size 15 to 20)
#    0.000    2.143    2.857    1.714    0.000    2.286 
#    2.571    2.143    0.000    0.000    0.000    0.000 
#    0.000    0.000    0.000    0.000    0.000    0.000 
#
# Total GULP energy -311830.266830 kJ/mol
# GULP energy per Si atom -5568.397622 kJ/mol
# Density = 1.811727 g / cm^3
# Si number density = 18.158596 Si / 1000 Ang^3
#
#
#
# Elastic Constant Matrix: (Units=GPa)
#
#
# Indices 1 2 3 4 5 6 
#
# 1 133.8490 49.1742 54.4085 0.0000 0.0000 0.0000
# 2 49.1742 64.8981 37.1548 0.0000 0.0000 0.0000
# 3 54.4085 37.1548 51.2401 0.0000 0.0000 0.0000
# 4 0.0000 0.0000 0.0000 41.6180 0.0000 0.0000
# 5 0.0000 0.0000 0.0000 0.0000 33.6659 0.0000
# 6 0.0000 0.0000 0.0000 0.0000 0.0000 29.2671
#
#
#
# Elastic Compliance Matrix: (Units=1/GPa)
#
#
# Indices 1 2 3 4 5 6 
#
# 1 0.013590 -0.003481 -0.011906 0.000000 0.000000 0.000000
# 2 -0.003481 0.027237 -0.016054 0.000000 0.000000 0.000000
# 3 -0.011906 -0.016054 0.043799 0.000000 0.000000 0.000000
# 4 0.000000 0.000000 0.000000 0.024028 0.000000 0.000000
# 5 0.000000 0.000000 0.000000 0.000000 0.029704 0.000000
# 6 0.000000 0.000000 0.000000 0.000000 0.000000 0.034168
#
#
# Mechanical properties :
#
#
# Convention : Reuss Voigt Hill
#
# Bulk Modulus (GPa) = 45.98886 59.05134 52.52010
# Shear Modulus (GPa) = 20.60534 28.19352 24.39943
#
# Velocity S-wave (km/s) = 3.37225 3.94461 3.66961
# Velocity P-wave (km/s) = 6.36741 7.30322 6.85131
#
# Compressibility (1/GPa) = 0.02174440
#
# Stress axis : x y z
#
# Youngs Moduli (GPa) = 73.58607 36.71431 22.83148
#
# Poissons Ratio (x) = 0.12779 0.27183
# Poissons Ratio (y) = 0.25613 0.36654
# Poissons Ratio (z) = 0.87611 0.58942
#
# Static dielectric constant tensor:
#      x y z
#    x 1.654750 0.000000 0.000000 
#    y 0.000000 1.621280 0.000000 
#    z 0.000000 0.000000 1.622540 
# 
# From -- ./inp_files/6466.got.cif
#   From: 2010.05.17/outbox.cif.g08.bks.cpg/sg58_4_cif.got.tgz:6466.got - 2010.06.03 14:20:14.
