data_PCOD9443146
_publ_section_title
;
Structure prediction by ZEFSAII (Michael W. Deem and Ramdas Pophale) SiO2 
 PCOD9443146
Probable space group: P N N M
;
_chemical_formula_sum "Si O2"
_cell_formula_units_Z 40
_cell_length_a 10.476479
_cell_length_b 23.741879
_cell_length_c 8.645775
_cell_angle_alpha 90.000000
_cell_angle_beta 90.000000
_cell_angle_gamma 90.000000
_cell_volume 2150.474827
_symmetry_space_group_name_H-M "P N N M"
_symmetry_group_IT_number 58
_symmetry_cell_setting 'orthorhombic'
loop_
_space_group_symop_operation_xyz
x,y,z
-x,-y,z
1/2+x,1/2-y,1/2-z
1/2-x,1/2+y,1/2-z
-x,-y,-z
x,y,-z
1/2-x,1/2+y,1/2+z
1/2+x,1/2-y,1/2+z
loop_
_atom_site_type_symbol
_atom_site_label
_atom_site_fract_x
_atom_site_fract_y
_atom_site_fract_z
Si Si1 0.807474 0.245979 0.681590
Si Si2 0.805305 0.860225 0.184258
Si Si3 0.961832 0.062461 0.811166
Si Si4 0.952864 0.343620 0.817899
Si Si5 0.779109 0.629892 0.683401
O O1 0.813006 0.232430 0.500000
O O2 0.928581 0.283596 0.732797
O O3 0.694959 0.292536 0.706879
O O4 0.784055 0.190376 0.778369
O O5 0.929803 0.892945 0.237814
O O6 0.673813 0.877982 0.267518
O O7 0.790213 0.869346 0.000000
O O8 0.822365 0.083234 0.762298
O O9 0.961095 0.063020 0.000000
O O10 0.000000 0.000000 0.761068
O O11 0.084135 0.370830 0.764529
O O12 0.953088 0.334364 0.000000
O O13 0.797334 0.624636 0.500000
#
# Coordination Sequence:
#
# PCOD9443146 Si02
#       5
#     8   8   8   8   8
#     4   9  19  33  53  82 115 145 179 229 288 342
#     4   8  17  34  56  82 112 143 183 234 282 337
#     4   9  19  37  60  84 111 147 192 239 285 333
#     4  10  20  35  54  79 112 150 187 227 280 335
#     4  11  21  33  55  86 115 147 188 234 285 345
#
# _framework density 18.600542000000001
#
# number of rings (size 3 to 8) (size 9 to 14) (size 15 to 20)
#    1.200    1.400    0.000    2.400    2.800    0.000 
#    0.000    3.000    0.000   11.400    0.000    0.000 
#    0.000    0.000    0.000    0.000    0.000    0.000 
#
# Total GULP energy -222712.578801 kJ/mol
# GULP energy per Si atom -5567.814470 kJ/mol
# Density = 1.855821 g / cm^3
# Si number density = 18.600542 Si / 1000 Ang^3
#
#
#
# Elastic Constant Matrix: (Units=GPa)
#
#
# Indices 1 2 3 4 5 6 
#
# 1 70.3618 -10.6496 -0.9164 0.0000 0.0000 0.0000
# 2 -10.6496 17.5174 -2.9812 0.0000 0.0000 0.0000
# 3 -0.9164 -2.9812 20.6119 0.0000 0.0000 0.0000
# 4 0.0000 0.0000 0.0000 13.7182 0.0000 0.0000
# 5 0.0000 0.0000 0.0000 0.0000 135.0472 0.0000
# 6 0.0000 0.0000 0.0000 0.0000 0.0000 -10.6071
#
#
#
# Elastic Compliance Matrix: (Units=1/GPa)
#
#
# Indices 1 2 3 4 5 6 
#
# 1 0.015744 0.009935 0.002137 0.000000 0.000000 0.000000
# 2 0.009935 0.064796 0.009814 0.000000 0.000000 0.000000
# 3 0.002137 0.009814 0.050030 0.000000 0.000000 0.000000
# 4 0.000000 0.000000 0.000000 0.072896 0.000000 0.000000
# 5 0.000000 0.000000 0.000000 0.000000 0.007405 0.000000
# 6 0.000000 0.000000 0.000000 0.000000 0.000000 -0.094276
#
#
# Mechanical properties :
#
#
# Convention : Reuss Voigt Hill
#
# Bulk Modulus (GPa) = 5.73587 8.82183 7.27885
# Shear Modulus (GPa) = 38.18621 35.83421 37.01021
#
# Velocity S-wave (km/s) = 4.53588 4.39397 4.46549
# Velocity P-wave (km/s) = 5.52473 5.52229 5.52351
#
# Compressibility (1/GPa) = 0.17434140
#
# Stress axis : x y z
#
# Youngs Moduli (GPa) = 63.51692 15.43295 19.98802
#
# Poissons Ratio (x) = -0.15333 -0.04271
# Poissons Ratio (y) = -0.63105 -0.19615
# Poissons Ratio (z) = -0.13573 -0.15145
#
# Static dielectric constant tensor:
#      x y z
#    x 1.672790 0.000000 0.000000 
#    y 0.000000 1.652950 0.000000 
#    z 0.000000 0.000000 1.616090 
# 
# From -- ./inp_files/2632.got.cif
#   From: 2010.05.17/outbox.cif.g08.bks.cpg/sg58_2_cif.got.tgz:2632.got - 2010.06.03 14:20:14.
