data_PCOD9443232
_publ_section_title
;
Structure prediction by ZEFSAII (Michael W. Deem and Ramdas Pophale) SiO2 
 PCOD9443232
Probable space group: P N N M
;
_chemical_formula_sum "Si O2"
_cell_formula_units_Z 64
_cell_length_a 26.549070
_cell_length_b 5.367543
_cell_length_c 21.999242
_cell_angle_alpha 90.000000
_cell_angle_beta 90.000000
_cell_angle_gamma 90.000000
_cell_volume 3134.964029
_symmetry_space_group_name_H-M "P N N M"
_symmetry_group_IT_number 58
_symmetry_cell_setting 'orthorhombic'
loop_
_space_group_symop_operation_xyz
x,y,z
-x,-y,z
1/2+x,1/2-y,1/2-z
1/2-x,1/2+y,1/2-z
-x,-y,-z
x,y,-z
1/2-x,1/2+y,1/2+z
1/2+x,1/2-y,1/2+z
loop_
_atom_site_type_symbol
_atom_site_label
_atom_site_fract_x
_atom_site_fract_y
_atom_site_fract_z
Si Si1 0.470295 0.752694 0.659028
Si Si2 0.214927 0.528616 0.934631
Si Si3 0.684999 0.783359 0.931643
Si Si4 0.866244 0.991157 0.338760
Si Si5 0.968580 0.749852 0.694223
Si Si6 0.831528 0.222397 0.222104
Si Si7 0.233799 0.332090 0.337486
Si Si8 0.641995 0.225798 0.650179
O O1 0.500000 0.500000 0.644351
O O2 0.462720 0.757278 0.732463
O O3 0.415508 0.774864 0.630585
O O4 0.500000 0.000000 0.642473
O O5 0.270019 0.411488 0.940017
O O6 0.224471 0.741225 0.886009
O O7 0.178428 0.324540 0.906189
O O8 0.197586 0.619128 0.000000
O O9 0.638063 0.634068 0.903015
O O10 0.706871 0.947608 0.875521
O O11 0.676614 0.895591 0.000000
O O12 0.913162 0.804470 0.333070
O O13 0.813338 0.848550 0.328113
O O14 0.863374 0.191016 0.284135
O O15 0.000000 0.500000 0.676790
O O16 0.000000 0.000000 0.679654
O O17 0.770318 0.175635 0.222003
O O18 0.845097 0.494712 0.195624
O O19 0.850001 0.987848 0.182727
#
# Coordination Sequence:
#
# PCOD9443232 Si02
#       8
#     8   8   8   8   8   8   8   8
#     4  10  20  35  57  81 115 158 200 249 303 364
#     4   9  19  37  57  84 118 164 213 248 290 356
#     4  10  21  38  60  86 119 163 209 242 292 365
#     4  11  25  37  62  88 125 162 194 256 309 365
#     4  10  23  39  60  87 116 153 202 249 301 365
#     4  11  24  36  58  92 130 159 197 240 311 378
#     4  10  22  36  57  88 127 165 199 247 302 366
#     4  11  21  38  59  88 124 161 201 254 303 363
#
# _framework density 20.414906999999999
#
# number of rings (size 3 to 8) (size 9 to 14) (size 15 to 20)
#    0.000    1.750    2.500    1.125    8.750    0.500 
#    0.000    0.000    0.000    1.500    0.000    0.000 
#    0.000    0.000    0.000    0.000    0.000    0.000 
#
# Total GULP energy -356522.271134 kJ/mol
# GULP energy per Si atom -5570.660486 kJ/mol
# Density = 2.036844 g / cm^3
# Si number density = 20.414907 Si / 1000 Ang^3
#
#
#
# Elastic Constant Matrix: (Units=GPa)
#
#
# Indices 1 2 3 4 5 6 
#
# 1 76.0376 8.9662 25.4588 0.0000 0.0000 0.0000
# 2 8.9662 75.8149 16.3581 0.0000 0.0000 0.0000
# 3 25.4588 16.3581 41.4107 0.0000 0.0000 0.0000
# 4 0.0000 0.0000 0.0000 23.2319 0.0000 0.0000
# 5 0.0000 0.0000 0.0000 0.0000 -19.4537 0.0000
# 6 0.0000 0.0000 0.0000 0.0000 0.0000 31.0160
#
#
#
# Elastic Compliance Matrix: (Units=1/GPa)
#
#
# Indices 1 2 3 4 5 6 
#
# 1 0.016565 0.000260 -0.010287 0.000000 0.000000 0.000000
# 2 0.000260 0.014423 -0.005858 0.000000 0.000000 0.000000
# 3 -0.010287 -0.005858 0.032786 0.000000 0.000000 0.000000
# 4 0.000000 0.000000 0.000000 0.043044 0.000000 0.000000
# 5 0.000000 0.000000 0.000000 0.000000 -0.051404 0.000000
# 6 0.000000 0.000000 0.000000 0.000000 0.000000 0.032241
#
#
# Mechanical properties :
#
#
# Convention : Reuss Voigt Hill
#
# Bulk Modulus (GPa) = 31.24353 32.75882 32.00118
# Shear Modulus (GPa) = 38.43420 16.45752 27.44586
#
# Velocity S-wave (km/s) = 4.34366 2.84236 3.67059
# Velocity P-wave (km/s) = 6.36349 5.18202 5.80291
#
# Compressibility (1/GPa) = 0.03200663
#
# Stress axis : x y z
#
# Youngs Moduli (GPa) = 60.36868 69.33340 30.50045
#
# Poissons Ratio (x) = -0.01806 0.31375
# Poissons Ratio (y) = -0.01572 0.17866
# Poissons Ratio (z) = 0.62100 0.40612
#
# Static dielectric constant tensor:
#      x y z
#    x 1.706020 0.000000 0.000000 
#    y 0.000000 1.750040 0.000000 
#    z 0.000000 0.000000 1.855070 
# 
# From -- ./inp_files/32470.got.cif
#   From: 2010.05.17/outbox.cif.g08.bks.cpg/sg58_17_cif.got.tgz:32470.got - 2010.06.03 14:20:14.
