data_PCOD9443649
_publ_section_title
;
Structure prediction by ZEFSAII (Michael W. Deem and Ramdas Pophale) SiO2 
 PCOD9443649
Probable space group: P N N M
;
_chemical_formula_sum "Si O2"
_cell_formula_units_Z 56
_cell_length_a 20.544388
_cell_length_b 12.692046
_cell_length_c 11.214913
_cell_angle_alpha 90.000000
_cell_angle_beta 90.000000
_cell_angle_gamma 90.000000
_cell_volume 2924.292126
_symmetry_space_group_name_H-M "P N N M"
_symmetry_group_IT_number 58
_symmetry_cell_setting 'orthorhombic'
loop_
_space_group_symop_operation_xyz
x,y,z
-x,-y,z
1/2+x,1/2-y,1/2-z
1/2-x,1/2+y,1/2-z
-x,-y,-z
x,y,-z
1/2-x,1/2+y,1/2+z
1/2+x,1/2-y,1/2+z
loop_
_atom_site_type_symbol
_atom_site_label
_atom_site_fract_x
_atom_site_fract_y
_atom_site_fract_z
Si Si1 0.030490 0.891053 0.360739
Si Si2 0.069547 0.612450 0.867376
Si Si3 0.638642 0.081522 0.263118
Si Si4 0.233788 0.996980 0.135879
Si Si5 0.846346 0.196985 0.782361
Si Si6 0.281200 0.729048 0.640903
Si Si7 0.518575 0.163453 0.864096
O O1 0.046020 0.908042 0.500000
O O2 0.095598 0.853271 0.295271
O O3 0.982059 0.790717 0.354097
O O4 0.000000 0.000000 0.313827
O O5 0.103690 0.499550 0.851655
O O6 0.121891 0.707025 0.855090
O O7 0.024767 0.625442 0.748868
O O8 0.038949 0.619865 0.000000
O O9 0.703040 0.025193 0.214441
O O10 0.663481 0.189734 0.320145
O O11 0.588435 0.111965 0.158713
O O12 0.185298 0.898944 0.145480
O O13 0.202368 0.108207 0.171515
O O14 0.255917 0.007519 0.000000
O O15 0.787178 0.242038 0.703119
O O16 0.272651 0.738628 0.500000
O O17 0.495033 0.139088 0.000000
#
# Coordination Sequence:
#
# PCOD9443649 Si02
#       7
#     8   8   8   8   8   8   8
#     4   9  19  36  59  85 115 151 194 246 297 349
#     4  11  23  40  61  89 124 160 197 243 300 358
#     4  11  22  37  60  88 120 155 196 246 295 354
#     4  10  21  37  59  83 115 155 196 245 291 344
#     4  10  20  37  60  83 115 157 198 240 293 356
#     4  10  21  37  58  86 117 155 199 244 296 352
#     4  10  23  40  62  91 120 156 202 248 298 358
#
# _framework density 19.149933999999998
#
# number of rings (size 3 to 8) (size 9 to 14) (size 15 to 20)
#    0.000    1.857    1.429    2.143    2.000    4.000 
#    0.000    0.000    0.000    2.143    0.000    0.000 
#    0.000    0.000    0.000    0.000    0.000    0.000 
#
# Total GULP energy -312304.613384 kJ/mol
# GULP energy per Si atom -5576.868096 kJ/mol
# Density = 1.910635 g / cm^3
# Si number density = 19.149934 Si / 1000 Ang^3
#
#
#
# Elastic Constant Matrix: (Units=GPa)
#
#
# Indices 1 2 3 4 5 6 
#
# 1 44.8931 35.2075 26.1873 0.0000 0.0000 0.0000
# 2 35.2075 127.5435 40.0722 0.0000 0.0000 0.0000
# 3 26.1873 40.0722 104.7574 0.0000 0.0000 0.0000
# 4 0.0000 0.0000 0.0000 37.6835 0.0000 0.0000
# 5 0.0000 0.0000 0.0000 0.0000 19.7794 0.0000
# 6 0.0000 0.0000 0.0000 0.0000 0.0000 27.8657
#
#
#
# Elastic Compliance Matrix: (Units=1/GPa)
#
#
# Indices 1 2 3 4 5 6 
#
# 1 0.030589 -0.006867 -0.005020 0.000000 0.000000 0.000000
# 2 -0.006867 0.010453 -0.002282 0.000000 0.000000 0.000000
# 3 -0.005020 -0.002282 0.011674 0.000000 0.000000 0.000000
# 4 0.000000 0.000000 0.000000 0.026537 0.000000 0.000000
# 5 0.000000 0.000000 0.000000 0.000000 0.050558 0.000000
# 6 0.000000 0.000000 0.000000 0.000000 0.000000 0.035886
#
#
# Mechanical properties :
#
#
# Convention : Reuss Voigt Hill
#
# Bulk Modulus (GPa) = 41.02033 53.34756 47.18395
# Shear Modulus (GPa) = 24.73303 28.78087 26.75695
#
# Velocity S-wave (km/s) = 3.59771 3.88096 3.74202
# Velocity P-wave (km/s) = 6.22295 6.92826 6.58505
#
# Compressibility (1/GPa) = 0.02437815
#
# Stress axis : x y z
#
# Youngs Moduli (GPa) = 32.69201 95.66730 85.66302
#
# Poissons Ratio (x) = 0.65691 0.43002
# Poissons Ratio (y) = 0.22448 0.19548
# Poissons Ratio (z) = 0.16411 0.21831
#
# Static dielectric constant tensor:
#      x y z
#    x 1.652310 0.000000 0.000000 
#    y 0.000000 1.689150 0.000000 
#    z 0.000000 0.000000 1.659700 
# 
# From -- ./inp_files/17030.got.cif
#   From: 2010.05.17/outbox.cif.g08.bks.cpg/sg58_9_cif.got.tgz:17030.got - 2010.06.03 14:20:14.
