data_PCOD9443730
_publ_section_title
;
Structure prediction by ZEFSAII (Michael W. Deem and Ramdas Pophale) SiO2 
 PCOD9443730
Probable space group: P N N M
;
_chemical_formula_sum "Si O2"
_cell_formula_units_Z 44
_cell_length_a 27.322181
_cell_length_b 7.329481
_cell_length_c 8.430964
_cell_angle_alpha 90.000000
_cell_angle_beta 90.000000
_cell_angle_gamma 90.000000
_cell_volume 1688.362985
_symmetry_space_group_name_H-M "P N N M"
_symmetry_group_IT_number 58
_symmetry_cell_setting 'orthorhombic'
loop_
_space_group_symop_operation_xyz
x,y,z
-x,-y,z
1/2+x,1/2-y,1/2-z
1/2-x,1/2+y,1/2-z
-x,-y,-z
x,y,-z
1/2-x,1/2+y,1/2+z
1/2+x,1/2-y,1/2+z
loop_
_atom_site_type_symbol
_atom_site_label
_atom_site_fract_x
_atom_site_fract_y
_atom_site_fract_z
Si Si1 0.820588 0.593726 0.500000
Si Si2 0.955234 0.361372 0.173902
Si Si3 0.178346 0.929623 0.171335
Si Si4 0.097781 0.684879 0.500000
Si Si5 0.436029 0.544145 0.324412
Si Si6 0.268920 0.820665 0.326488
Si Si7 0.089883 0.124873 0.500000
O O1 0.850880 0.410732 0.500000
O O2 0.790409 0.601856 0.337488
O O3 0.859751 0.762654 0.500000
O O4 0.926691 0.385421 0.337382
O O5 0.967258 0.143489 0.176560
O O6 0.000000 0.500000 0.174250
O O7 0.930026 0.387236 0.000000
O O8 0.120749 0.968508 0.188146
O O9 0.210590 0.822400 0.297939
O O10 0.204469 0.126242 0.167642
O O11 0.184410 0.838804 0.000000
O O12 0.095948 0.904292 0.500000
O O13 0.438867 0.631181 0.500000
O O14 0.439097 0.661332 0.163816
O O15 0.278085 0.908137 0.500000
#
# Coordination Sequence:
#
# PCOD9443730 Si02
#       7
#     4   8   8   4   8   8   4
#     4  12  24  43  61  93 124 166 213 258 306 382
#     4   9  18  36  63  95 127 162 205 258 318 377
#     4  10  21  38  56  82 114 154 205 250 312 372
#     4  10  23  38  64  98 122 164 210 257 307 380
#     4   9  18  33  57  85 113 156 201 244 303 375
#     4  11  25  40  58  83 120 160 205 264 308 362
#     4  10  20  37  63  81 120 164 196 251 313 352
#
# _framework density 26.060748
#
# number of rings (size 3 to 8) (size 9 to 14) (size 15 to 20)
#    0.000    2.000    2.727    0.273    2.545    3.636 
#    0.000    3.636    0.000    8.727    0.000   11.455 
#    0.000    0.000    0.000    0.000    0.000    0.000 
#
# Total GULP energy -245963.856052 kJ/mol
# GULP energy per Si atom -5590.087638 kJ/mol
# Density = 2.600143 g / cm^3
# Si number density = 26.060748 Si / 1000 Ang^3
#
#
#
# Elastic Constant Matrix: (Units=GPa)
#
#
# Indices 1 2 3 4 5 6 
#
# 1 65.8211 26.9913 67.4606 0.0000 0.0000 0.0000
# 2 26.9913 82.6548 24.8277 0.0000 0.0000 0.0000
# 3 67.4606 24.8277 315.6934 0.0000 0.0000 0.0000
# 4 0.0000 0.0000 0.0000 62.4422 0.0000 0.0000
# 5 0.0000 0.0000 0.0000 0.0000 12.7604 0.0000
# 6 0.0000 0.0000 0.0000 0.0000 0.0000 43.0721
#
#
#
# Elastic Compliance Matrix: (Units=1/GPa)
#
#
# Indices 1 2 3 4 5 6 
#
# 1 0.021940 -0.005896 -0.004225 0.000000 0.000000 0.000000
# 2 -0.005896 0.013975 0.000161 0.000000 0.000000 0.000000
# 3 -0.004225 0.000161 0.004058 0.000000 0.000000 0.000000
# 4 0.000000 0.000000 0.000000 0.016015 0.000000 0.000000
# 5 0.000000 0.000000 0.000000 0.000000 0.078368 0.000000
# 6 0.000000 0.000000 0.000000 0.000000 0.000000 0.023217
#
#
# Mechanical properties :
#
#
# Convention : Reuss Voigt Hill
#
# Bulk Modulus (GPa) = 49.86490 78.08093 63.97292
# Shear Modulus (GPa) = 27.14780 46.64760 36.89770
#
# Velocity S-wave (km/s) = 3.23106 4.23538 3.76684
# Velocity P-wave (km/s) = 5.75285 7.34466 6.59694
#
# Compressibility (1/GPa) = 0.02005419
#
# Stress axis : x y z
#
# Youngs Moduli (GPa) = 45.57816 71.55381 246.44017
#
# Poissons Ratio (x) = 0.42186 1.04115
# Poissons Ratio (y) = 0.26871 -0.03962
# Poissons Ratio (z) = 0.19256 -0.01150
#
# Static dielectric constant tensor:
#      x y z
#    x 2.133230 0.000000 0.000000 
#    y 0.000000 2.003750 0.000000 
#    z 0.000000 0.000000 2.128110 
# 
# From -- ./inp_files/10710.got.cif
#   From: 2010.05.17/outbox.cif.g08.bks.cpg/sg58_6_cif.got.tgz:10710.got - 2010.06.03 14:20:14.
