data_PCOD9443350
_publ_section_title
;
Structure prediction by ZEFSAII (Michael W. Deem and Ramdas Pophale) SiO2 
 PCOD9443350
Probable space group: P N N M
;
_chemical_formula_sum "Si O2"
_cell_formula_units_Z 52
_cell_length_a 8.427776
_cell_length_b 17.033420
_cell_length_c 17.104519
_cell_angle_alpha 90.000000
_cell_angle_beta 90.000000
_cell_angle_gamma 90.000000
_cell_volume 2455.419525
_symmetry_space_group_name_H-M "P N N M"
_symmetry_group_IT_number 58
_symmetry_cell_setting 'orthorhombic'
loop_
_space_group_symop_operation_xyz
x,y,z
-x,-y,z
1/2+x,1/2-y,1/2-z
1/2-x,1/2+y,1/2-z
-x,-y,-z
x,y,-z
1/2-x,1/2+y,1/2+z
1/2+x,1/2-y,1/2+z
loop_
_atom_site_type_symbol
_atom_site_label
_atom_site_fract_x
_atom_site_fract_y
_atom_site_fract_z
Si Si1 0.000000 0.000000 0.849037
Si Si2 0.863643 0.211324 0.587433
Si Si3 0.367419 0.345427 0.589364
Si Si4 0.097610 0.242078 0.801449
Si Si5 0.523997 0.148830 0.843607
Si Si6 0.238929 0.577299 0.746876
Si Si7 0.380806 0.574298 0.090077
O O1 0.025866 0.923103 0.900630
O O2 0.850671 0.987792 0.792084
O O3 0.805277 0.195118 0.500000
O O4 0.723025 0.206582 0.649670
O O5 0.922536 0.301397 0.593863
O O6 0.008814 0.151550 0.601903
O O7 0.363481 0.318897 0.500000
O O8 0.447200 0.280799 0.645329
O O9 0.192453 0.368118 0.618304
O O10 0.048846 0.288809 0.725712
O O11 0.179402 0.160924 0.774985
O O12 0.425527 0.081457 0.800051
O O13 0.251055 0.570131 0.840693
O O14 0.500000 0.500000 0.097383
O O15 0.321379 0.575796 0.000000
#
# Coordination Sequence:
#
# PCOD9443350 Si02
#       7
#     4   8   8   8   8   8   8
#     4  10  23  40  63  86 120 164 208 248 307 368
#     4  10  20  36  57  86 120 154 196 252 304 354
#     4  11  23  41  62  89 123 162 205 254 308 363
#     4  10  21  36  59  87 119 156 203 248 302 363
#     4  11  22  36  59  91 119 158 204 254 296 370
#     4  10  20  37  59  86 120 162 202 250 303 363
#     4  10  20  35  61  92 122 161 205 249 304 369
#
# _framework density 21.177643
#
# number of rings (size 3 to 8) (size 9 to 14) (size 15 to 20)
#    0.000    1.692    2.308    3.000    2.154    0.615 
#    0.000    3.846    0.000    0.000    0.000    4.308 
#    0.000    0.000    0.000    0.000    0.000    0.000 
#
# Total GULP energy -290395.512225 kJ/mol
# GULP energy per Si atom -5584.529081 kJ/mol
# Density = 2.112944 g / cm^3
# Si number density = 21.177643 Si / 1000 Ang^3
#
#
#
# Elastic Constant Matrix: (Units=GPa)
#
#
# Indices 1 2 3 4 5 6 
#
# 1 42.9470 -12.4769 14.5974 0.0000 0.0000 0.0000
# 2 -12.4769 38.3142 3.1864 0.0000 0.0000 0.0000
# 3 14.5974 3.1864 121.6002 0.0000 0.0000 0.0000
# 4 0.0000 0.0000 0.0000 20.8940 0.0000 0.0000
# 5 0.0000 0.0000 0.0000 0.0000 26.1874 0.0000
# 6 0.0000 0.0000 0.0000 0.0000 0.0000 25.8645
#
#
#
# Elastic Compliance Matrix: (Units=1/GPa)
#
#
# Indices 1 2 3 4 5 6 
#
# 1 0.027123 0.009123 -0.003495 0.000000 0.000000 0.000000
# 2 0.009123 0.029226 -0.001861 0.000000 0.000000 0.000000
# 3 -0.003495 -0.001861 0.008692 0.000000 0.000000 0.000000
# 4 0.000000 0.000000 0.000000 0.047861 0.000000 0.000000
# 5 0.000000 0.000000 0.000000 0.000000 0.038186 0.000000
# 6 0.000000 0.000000 0.000000 0.000000 0.000000 0.038663
#
#
# Mechanical properties :
#
#
# Convention : Reuss Voigt Hill
#
# Bulk Modulus (GPa) = 13.77890 23.71947 18.74918
# Shear Modulus (GPa) = 24.22386 27.75946 25.99166
#
# Velocity S-wave (km/s) = 3.38574 3.62441 3.50711
# Velocity P-wave (km/s) = 4.66956 5.36094 5.02715
#
# Compressibility (1/GPa) = 0.07257475
#
# Stress axis : x y z
#
# Youngs Moduli (GPa) = 36.86923 34.21653 115.04839
#
# Poissons Ratio (x) = -0.31216 0.40210
# Poissons Ratio (y) = -0.33636 0.21411
# Poissons Ratio (z) = 0.12886 0.06368
#
# Static dielectric constant tensor:
#      x y z
#    x 1.794790 0.000000 0.000000 
#    y 0.000000 1.777070 0.000000 
#    z 0.000000 0.000000 1.741220 
# 
# From -- ./inp_files/25484.got.cif
#   From: 2010.05.17/outbox.cif.g08.bks.cpg/sg58_13_cif.got.tgz:25484.got - 2010.06.03 14:20:14.
