data_PCOD9443537
_publ_section_title
;
Structure prediction by ZEFSAII (Michael W. Deem and Ramdas Pophale) SiO2 
 PCOD9443537
Probable space group: P N N M
;
_chemical_formula_sum "Si O2"
_cell_formula_units_Z 64
_cell_length_a 16.481501
_cell_length_b 16.991921
_cell_length_c 12.520570
_cell_angle_alpha 90.000000
_cell_angle_beta 90.000000
_cell_angle_gamma 90.000000
_cell_volume 3506.415214
_symmetry_space_group_name_H-M "P N N M"
_symmetry_group_IT_number 58
_symmetry_cell_setting 'orthorhombic'
loop_
_space_group_symop_operation_xyz
x,y,z
-x,-y,z
1/2+x,1/2-y,1/2-z
1/2-x,1/2+y,1/2-z
-x,-y,-z
x,y,-z
1/2-x,1/2+y,1/2+z
1/2+x,1/2-y,1/2+z
loop_
_atom_site_type_symbol
_atom_site_label
_atom_site_fract_x
_atom_site_fract_y
_atom_site_fract_z
Si Si1 0.659835 0.109058 0.802668
Si Si2 0.690244 0.398888 0.771871
Si Si3 0.658581 0.933059 0.878530
Si Si4 0.735831 0.751320 0.377946
Si Si5 0.406018 0.310730 0.239241
Si Si6 0.531075 0.410005 0.374626
Si Si7 0.002704 0.675169 0.625672
Si Si8 0.285865 0.432498 0.873814
O O1 0.719870 0.167361 0.865449
O O2 0.573519 0.151547 0.802177
O O3 0.703782 0.090581 0.690331
O O4 0.648833 0.026080 0.861348
O O5 0.769829 0.405369 0.697929
O O6 0.703272 0.319766 0.839561
O O7 0.611288 0.398761 0.696958
O O8 0.691017 0.477943 0.843169
O O9 0.574280 0.888511 0.859534
O O10 0.682749 0.916520 0.000000
O O11 0.712212 0.765051 0.500000
O O12 0.657970 0.744640 0.301351
O O13 0.461326 0.354922 0.325801
O O14 0.460862 0.258261 0.161699
O O15 0.354796 0.374599 0.172509
O O16 0.500000 0.500000 0.366076
O O17 0.546120 0.393697 0.500000
O O18 0.979491 0.675511 0.500000
O O19 0.277033 0.423667 0.000000
#
# Coordination Sequence:
#
# PCOD9443537 Si02
#       8
#     8   8   8   8   8   8   8   8
#     4  10  22  37  60  87 116 150 198 247 300 359
#     4  11  21  40  61  90 121 158 205 249 295 369
#     4  10  20  36  61  88 118 153 196 248 301 355
#     4  11  22  38  60  86 120 161 201 247 302 360
#     4  11  22  41  59  90 125 160 200 251 298 366
#     4  11  23  40  63  92 124 158 202 255 307 358
#     4  11  21  37  61  89 123 155 195 251 305 356
#     4  10  22  41  63  86 119 164 202 246 300 359
#
# _framework density 18.25226
#
# number of rings (size 3 to 8) (size 9 to 14) (size 15 to 20)
#    0.000    1.375    2.500    3.750    0.000    1.000 
#    0.000    6.875    0.000    1.500    0.000    0.000 
#    0.000    0.000    0.000    0.000    0.000    0.000 
#
# Total GULP energy -357455.573032 kJ/mol
# GULP energy per Si atom -5585.243329 kJ/mol
# Density = 1.821072 g / cm^3
# Si number density = 18.252260 Si / 1000 Ang^3
#
#
#
# Elastic Constant Matrix: (Units=GPa)
#
#
# Indices 1 2 3 4 5 6 
#
# 1 67.6956 27.9990 40.7952 0.0000 0.0000 0.0000
# 2 27.9990 93.5120 35.2495 0.0000 0.0000 0.0000
# 3 40.7952 35.2495 109.7032 0.0000 0.0000 0.0000
# 4 0.0000 0.0000 0.0000 16.4139 0.0000 0.0000
# 5 0.0000 0.0000 0.0000 0.0000 15.7778 0.0000
# 6 0.0000 0.0000 0.0000 0.0000 0.0000 30.4234
#
#
#
# Elastic Compliance Matrix: (Units=1/GPa)
#
#
# Indices 1 2 3 4 5 6 
#
# 1 0.020069 -0.003636 -0.006295 0.000000 0.000000 0.000000
# 2 -0.003636 0.012826 -0.002769 0.000000 0.000000 0.000000
# 3 -0.006295 -0.002769 0.012346 0.000000 0.000000 0.000000
# 4 0.000000 0.000000 0.000000 0.060924 0.000000 0.000000
# 5 0.000000 0.000000 0.000000 0.000000 0.063380 0.000000
# 6 0.000000 0.000000 0.000000 0.000000 0.000000 0.032869
#
#
# Mechanical properties :
#
#
# Convention : Reuss Voigt Hill
#
# Bulk Modulus (GPa) = 50.39933 53.22203 51.81068
# Shear Modulus (GPa) = 21.32836 23.64750 22.48793
#
# Velocity S-wave (km/s) = 3.42209 3.60334 3.51388
# Velocity P-wave (km/s) = 6.57927 6.82162 6.70154
#
# Compressibility (1/GPa) = 0.01984154
#
# Stress axis : x y z
#
# Youngs Moduli (GPa) = 49.82714 77.96427 80.99726
#
# Poissons Ratio (x) = 0.28350 0.50986
# Poissons Ratio (y) = 0.18118 0.22429
# Poissons Ratio (z) = 0.31365 0.21589
#
# Static dielectric constant tensor:
#      x y z
#    x 1.614020 0.000000 0.000000 
#    y 0.000000 1.629360 0.000000 
#    z 0.000000 0.000000 1.600310 
# 
# From -- ./inp_files/15909.got.cif
#   From: 2010.05.17/outbox.cif.g08.bks.cpg/sg58_8_cif.got.tgz:15909.got - 2010.06.03 14:20:14.
