data_PCOD9443822
_publ_section_title
;
Structure prediction by ZEFSAII (Michael W. Deem and Ramdas Pophale) SiO2 
 PCOD9443822
Probable space group: P N N M
;
_chemical_formula_sum "Si O2"
_cell_formula_units_Z 56
_cell_length_a 21.961924
_cell_length_b 14.664875
_cell_length_c 7.577054
_cell_angle_alpha 90.000000
_cell_angle_beta 90.000000
_cell_angle_gamma 90.000000
_cell_volume 2440.333221
_symmetry_space_group_name_H-M "P N N M"
_symmetry_group_IT_number 58
_symmetry_cell_setting 'orthorhombic'
loop_
_space_group_symop_operation_xyz
x,y,z
-x,-y,z
1/2+x,1/2-y,1/2-z
1/2-x,1/2+y,1/2-z
-x,-y,-z
x,y,-z
1/2-x,1/2+y,1/2+z
1/2+x,1/2-y,1/2+z
loop_
_atom_site_type_symbol
_atom_site_label
_atom_site_fract_x
_atom_site_fract_y
_atom_site_fract_z
Si Si1 0.176930 0.902066 0.295605
Si Si2 0.737651 0.407780 0.714253
Si Si3 0.876826 0.389108 0.704060
Si Si4 0.487954 0.227727 0.297941
Si Si5 0.790845 0.708766 0.784693
Si Si6 0.092156 0.407959 0.214382
Si Si7 0.956808 0.076992 0.702962
O O1 0.168707 0.873556 0.500000
O O2 0.207500 0.001506 0.288025
O O3 0.226739 0.832431 0.220314
O O4 0.109953 0.909305 0.214253
O O5 0.737306 0.415551 0.500000
O O6 0.807977 0.398172 0.772171
O O7 0.703778 0.314404 0.764622
O O8 0.872447 0.361592 0.500000
O O9 0.921022 0.316345 0.791984
O O10 0.906378 0.489146 0.718782
O O11 0.505563 0.245464 0.500000
O O12 0.534818 0.152310 0.227258
O O13 0.488294 0.324677 0.204630
O O14 0.846538 0.644818 0.729862
O O15 0.790105 0.705693 0.000000
O O16 0.090877 0.413683 0.000000
O O17 0.945612 0.047610 0.500000
O O18 0.000000 0.000000 0.784044
#
# Coordination Sequence:
#
# PCOD9443822 Si02
#       7
#     8   8   8   8   8   8   8
#     4  10  20  38  62  85 114 157 194 232 291 350
#     4  10  21  36  59  88 116 151 194 242 291 346
#     4  11  22  38  60  89 123 157 194 241 300 356
#     4  11  24  39  60  88 117 156 203 247 292 348
#     4   9  18  35  58  81 113 153 191 235 290 343
#     4  10  21  38  59  85 117 154 199 246 294 349
#     4  10  23  42  62  87 122 159 197 242 297 358
#
# _framework density 22.947686000000001
#
# number of rings (size 3 to 8) (size 9 to 14) (size 15 to 20)
#    0.000    1.857    1.429    2.143    2.000    6.571 
#    0.000    1.429    0.000    0.000    0.000    0.000 
#    0.000    0.000    0.000    0.000    0.000    0.000 
#
# Total GULP energy -313145.618468 kJ/mol
# GULP energy per Si atom -5591.886044 kJ/mol
# Density = 2.289546 g / cm^3
# Si number density = 22.947686 Si / 1000 Ang^3
#
#
#
# Elastic Constant Matrix: (Units=GPa)
#
#
# Indices 1 2 3 4 5 6 
#
# 1 67.8556 10.8143 2.4642 0.0000 0.0000 0.0000
# 2 10.8143 113.4096 -10.5521 0.0000 0.0000 0.0000
# 3 2.4642 -10.5521 54.0134 0.0000 0.0000 0.0000
# 4 0.0000 0.0000 0.0000 12.1691 0.0000 0.0000
# 5 0.0000 0.0000 0.0000 0.0000 7.6652 0.0000
# 6 0.0000 0.0000 0.0000 0.0000 0.0000 26.4208
#
#
#
# Elastic Compliance Matrix: (Units=1/GPa)
#
#
# Indices 1 2 3 4 5 6 
#
# 1 0.015016 -0.001523 -0.000983 0.000000 0.000000 0.000000
# 2 -0.001523 0.009135 0.001854 0.000000 0.000000 0.000000
# 3 -0.000983 0.001854 0.018921 0.000000 0.000000 0.000000
# 4 0.000000 0.000000 0.000000 0.082175 0.000000 0.000000
# 5 0.000000 0.000000 0.000000 0.000000 0.130459 0.000000
# 6 0.000000 0.000000 0.000000 0.000000 0.000000 0.037849
#
#
# Mechanical properties :
#
#
# Convention : Reuss Voigt Hill
#
# Bulk Modulus (GPa) = 23.94143 26.74792 25.34468
# Shear Modulus (GPa) = 16.19266 24.75451 20.47358
#
# Velocity S-wave (km/s) = 2.65926 3.28798 2.99019
# Velocity P-wave (km/s) = 4.45921 5.10840 4.79480
#
# Compressibility (1/GPa) = 0.04176860
#
# Stress axis : x y z
#
# Youngs Moduli (GPa) = 66.59731 109.46463 52.85136
#
# Poissons Ratio (x) = 0.16674 0.05193
# Poissons Ratio (y) = 0.10145 -0.09800
# Poissons Ratio (z) = 0.06544 -0.20297
#
# Static dielectric constant tensor:
#      x y z
#    x 1.861480 0.000000 0.000000 
#    y 0.000000 1.797920 0.000000 
#    z 0.000000 0.000000 1.881900 
# 
# From -- ./inp_files/6393.got.cif
#   From: 2010.05.17/outbox.cif.g08.bks.cpg/sg58_4_cif.got.tgz:6393.got - 2010.06.03 14:20:14.
