data_PCOD9443190
_publ_section_title
;
Structure prediction by ZEFSAII (Michael W. Deem and Ramdas Pophale) SiO2 
 PCOD9443190
Probable space group: P N N M
;
_chemical_formula_sum "Si O2"
_cell_formula_units_Z 48
_cell_length_a 9.146032
_cell_length_b 31.979239
_cell_length_c 7.591497
_cell_angle_alpha 90.000000
_cell_angle_beta 90.000000
_cell_angle_gamma 90.000000
_cell_volume 2220.384904
_symmetry_space_group_name_H-M "P N N M"
_symmetry_group_IT_number 58
_symmetry_cell_setting 'orthorhombic'
loop_
_space_group_symop_operation_xyz
x,y,z
-x,-y,z
1/2+x,1/2-y,1/2-z
1/2-x,1/2+y,1/2-z
-x,-y,-z
x,y,-z
1/2-x,1/2+y,1/2+z
1/2+x,1/2-y,1/2+z
loop_
_atom_site_type_symbol
_atom_site_label
_atom_site_fract_x
_atom_site_fract_y
_atom_site_fract_z
Si Si1 0.074782 0.543489 0.284505
Si Si2 0.058984 0.877605 0.292463
Si Si3 0.404583 0.537531 0.295555
Si Si4 0.408867 0.706917 0.789259
Si Si5 0.065575 0.709164 0.287806
Si Si6 0.099001 0.374280 0.286644
O O1 0.073636 0.544960 0.500000
O O2 0.242338 0.544100 0.221842
O O3 0.000000 0.500000 0.232454
O O4 0.984515 0.584028 0.225541
O O5 0.027508 0.880501 0.500000
O O6 0.232256 0.874509 0.266835
O O7 0.994265 0.919645 0.210792
O O8 0.980922 0.835852 0.220979
O O9 0.500000 0.500000 0.215347
O O10 0.379584 0.525769 0.500000
O O11 0.236567 0.708306 0.755127
O O12 0.488684 0.748574 0.720804
O O13 0.430983 0.706661 0.000000
O O14 0.052818 0.709133 0.500000
O O15 0.983360 0.667507 0.224107
O O16 0.095154 0.374250 0.500000
#
# Coordination Sequence:
#
# PCOD9443190 Si02
#       6
#     8   8   8   8   8   8
#     4   9  17  31  53  81 108 133 170 222 273 320
#     4  11  23  37  54  79 113 148 181 222 276 336
#     4  10  20  36  60  85 109 142 183 227 274 322
#     4  10  22  38  55  80 113 146 181 226 280 331
#     4  10  21  37  58  83 109 143 190 236 275 325
#     4  10  20  35  56  80 106 140 185 231 272 321
#
# _framework density 21.617871999999998
#
# number of rings (size 3 to 8) (size 9 to 14) (size 15 to 20)
#    0.000    2.000    0.000    3.500    0.000    7.000 
#    0.000    0.833    0.000    2.000    0.000    0.000 
#    0.000    0.000    0.000    0.000    0.000    0.000 
#
# Total GULP energy -268353.475716 kJ/mol
# GULP energy per Si atom -5590.697411 kJ/mol
# Density = 2.156867 g / cm^3
# Si number density = 21.617872 Si / 1000 Ang^3
#
#
#
# Elastic Constant Matrix: (Units=GPa)
#
#
# Indices 1 2 3 4 5 6 
#
# 1 194.8022 105.3463 -21.7997 0.0000 0.0000 0.0000
# 2 105.3463 204.2086 -9.7101 0.0000 0.0000 0.0000
# 3 -21.7997 -9.7101 44.1862 0.0000 0.0000 0.0000
# 4 0.0000 0.0000 0.0000 -28.5713 0.0000 0.0000
# 5 0.0000 0.0000 0.0000 0.0000 26.5894 0.0000
# 6 0.0000 0.0000 0.0000 0.0000 0.0000 46.9071
#
#
#
# Elastic Compliance Matrix: (Units=1/GPa)
#
#
# Indices 1 2 3 4 5 6 
#
# 1 0.007462 -0.003713 0.002866 0.000000 0.000000 0.000000
# 2 -0.003713 0.006796 -0.000338 0.000000 0.000000 0.000000
# 3 0.002866 -0.000338 0.023971 0.000000 0.000000 0.000000
# 4 0.000000 0.000000 0.000000 -0.035000 0.000000 0.000000
# 5 0.000000 0.000000 0.000000 0.000000 0.037609 0.000000
# 6 0.000000 0.000000 0.000000 0.000000 0.000000 0.021319
#
#
# Mechanical properties :
#
#
# Convention : Reuss Voigt Hill
#
# Bulk Modulus (GPa) = 27.88851 65.65222 46.77037
# Shear Modulus (GPa) = 65.37507 33.60909 49.49208
#
# Velocity S-wave (km/s) = 5.50517 3.94723 4.78996
# Velocity P-wave (km/s) = 7.30328 7.15608 7.23005
#
# Compressibility (1/GPa) = 0.03585706
#
# Stress axis : x y z
#
# Youngs Moduli (GPa) = 134.00897 147.13535 41.71733
#
# Poissons Ratio (x) = 0.54636 -0.11954
# Poissons Ratio (y) = 0.49762 0.01412
# Poissons Ratio (z) = -0.38401 0.04980
#
# Static dielectric constant tensor:
#      x y z
#    x 1.720670 0.000000 0.000000 
#    y 0.000000 1.759400 0.000000 
#    z 0.000000 0.000000 1.811820 
# 
# From -- ./inp_files/2886.got.cif
#   From: 2010.05.17/outbox.cif.g08.bks.cpg/sg58_2_cif.got.tgz:2886.got - 2010.06.03 14:20:14.
