data_PCOD9443120
_publ_section_title
;
Structure prediction by ZEFSAII (Michael W. Deem and Ramdas Pophale) SiO2 
 PCOD9443120
Probable space group: P N N M
;
_chemical_formula_sum "Si O2"
_cell_formula_units_Z 64
_cell_length_a 13.468817
_cell_length_b 9.636445
_cell_length_c 31.860112
_cell_angle_alpha 90.000000
_cell_angle_beta 90.000000
_cell_angle_gamma 90.000000
_cell_volume 4135.172180
_symmetry_space_group_name_H-M "P N N M"
_symmetry_group_IT_number 58
_symmetry_cell_setting 'orthorhombic'
loop_
_space_group_symop_operation_xyz
x,y,z
-x,-y,z
1/2+x,1/2-y,1/2-z
1/2-x,1/2+y,1/2-z
-x,-y,-z
x,y,-z
1/2-x,1/2+y,1/2+z
1/2+x,1/2-y,1/2+z
loop_
_atom_site_type_symbol
_atom_site_label
_atom_site_fract_x
_atom_site_fract_y
_atom_site_fract_z
Si Si1 0.617027 0.665417 0.726363
Si Si2 0.603958 0.082277 0.954025
Si Si3 0.383450 0.966838 0.863505
Si Si4 0.390000 0.668880 0.277952
Si Si5 0.188767 0.216952 0.312390
Si Si6 0.897186 0.913999 0.546067
Si Si7 0.310547 0.227147 0.183110
Si Si8 0.880751 0.024267 0.365787
O O1 0.626902 0.497952 0.725263
O O2 0.504638 0.696112 0.712432
O O3 0.699490 0.735120 0.696863
O O4 0.637301 0.723385 0.773514
O O5 0.585760 0.248296 0.949133
O O6 0.500000 0.000000 0.955659
O O7 0.655332 0.028528 0.911507
O O8 0.652377 0.061984 0.000000
O O9 0.334768 0.071038 0.830462
O O10 0.500000 0.000000 0.864593
O O11 0.363766 0.814431 0.846121
O O12 0.367374 0.727336 0.231752
O O13 0.307318 0.733250 0.308457
O O14 0.175841 0.063830 0.330416
O O15 0.848961 0.934112 0.500000
O O16 0.847834 0.973015 0.588197
O O17 0.000000 0.000000 0.544605
O O18 0.353268 0.319193 0.145260
O O19 0.000000 0.000000 0.361847
#
# Coordination Sequence:
#
# PCOD9443120 Si02
#       8
#     8   8   8   8   8   8   8   8
#     4  10  20  35  52  68  96 129 160 205 249 285
#     4   9  18  30  44  66  99 131 160 200 241 283
#     4  11  20  30  46  72  98 127 165 201 231 284
#     4  10  20  35  51  69  96 128 160 205 253 281
#     4  11  20  33  49  71  93 127 167 197 237 288
#     4   9  18  30  45  67  95 132 166 192 237 294
#     4  11  22  33  49  73  95 128 168 201 238 289
#     4  11  20  32  50  70 100 135 159 199 239 286
#
# _framework density 15.476985000000001
#
# number of rings (size 3 to 8) (size 9 to 14) (size 15 to 20)
#    0.000    1.750    3.750    2.250    5.250    0.000 
#    0.000    1.875    0.000    0.000    0.000    0.000 
#    0.000    6.000    0.000    0.000    0.000    0.000 
#
# Total GULP energy -356438.531113 kJ/mol
# GULP energy per Si atom -5569.352049 kJ/mol
# Density = 1.544176 g / cm^3
# Si number density = 15.476985 Si / 1000 Ang^3
#
#
#
# Elastic Constant Matrix: (Units=GPa)
#
#
# Indices 1 2 3 4 5 6 
#
# 1 76.8661 5.2964 21.9250 0.0000 0.0000 0.0000
# 2 5.2964 23.5174 -6.6669 0.0000 0.0000 0.0000
# 3 21.9250 -6.6669 71.1158 0.0000 0.0000 0.0000
# 4 0.0000 0.0000 0.0000 20.6779 0.0000 0.0000
# 5 0.0000 0.0000 0.0000 0.0000 9.8736 0.0000
# 6 0.0000 0.0000 0.0000 0.0000 0.0000 23.0866
#
#
#
# Elastic Compliance Matrix: (Units=1/GPa)
#
#
# Indices 1 2 3 4 5 6 
#
# 1 0.014761 -0.004741 -0.004995 0.000000 0.000000 0.000000
# 2 -0.004741 0.045205 0.005699 0.000000 0.000000 0.000000
# 3 -0.004995 0.005699 0.016136 0.000000 0.000000 0.000000
# 4 0.000000 0.000000 0.000000 0.048361 0.000000 0.000000
# 5 0.000000 0.000000 0.000000 0.000000 0.101280 0.000000
# 6 0.000000 0.000000 0.000000 0.000000 0.000000 0.043315
#
#
# Mechanical properties :
#
#
# Convention : Reuss Voigt Hill
#
# Bulk Modulus (GPa) = 14.69957 23.62314 19.16135
# Shear Modulus (GPa) = 16.67737 20.79061 18.73399
#
# Velocity S-wave (km/s) = 3.28618 3.66912 3.48292
# Velocity P-wave (km/s) = 4.89050 5.76597 5.34618
#
# Compressibility (1/GPa) = 0.06802922
#
# Stress axis : x y z
#
# Youngs Moduli (GPa) = 67.74552 22.12145 61.97351
#
# Poissons Ratio (x) = 0.10487 0.30957
# Poissons Ratio (y) = 0.32115 -0.35321
# Poissons Ratio (z) = 0.33841 -0.12608
#
# Static dielectric constant tensor:
#      x y z
#    x 1.493200 0.000000 0.000000 
#    y 0.000000 1.517770 0.000000 
#    z 0.000000 0.000000 1.545260 
# 
# From -- ./inp_files/35103.got.cif
#   From: 2010.05.17/outbox.cif.g08.bks.cpg/sg58_18_cif.got.tgz:35103.got - 2010.06.03 14:20:14.
