data_PCOD9443446
_publ_section_title
;
Structure prediction by ZEFSAII (Michael W. Deem and Ramdas Pophale) SiO2 
 PCOD9443446
Probable space group: P N N M
;
_chemical_formula_sum "Si O2"
_cell_formula_units_Z 36
_cell_length_a 10.913010
_cell_length_b 22.148574
_cell_length_c 7.854095
_cell_angle_alpha 90.000000
_cell_angle_beta 90.000000
_cell_angle_gamma 90.000000
_cell_volume 1898.394528
_symmetry_space_group_name_H-M "P N N M"
_symmetry_group_IT_number 58
_symmetry_cell_setting 'orthorhombic'
loop_
_space_group_symop_operation_xyz
x,y,z
-x,-y,z
1/2+x,1/2-y,1/2-z
1/2-x,1/2+y,1/2-z
-x,-y,-z
x,y,-z
1/2-x,1/2+y,1/2+z
1/2+x,1/2-y,1/2+z
loop_
_atom_site_type_symbol
_atom_site_label
_atom_site_fract_x
_atom_site_fract_y
_atom_site_fract_z
Si Si1 0.138317 0.176099 0.305929
Si Si2 0.320988 0.468584 0.000000
Si Si3 0.168116 0.314758 0.700153
Si Si4 0.796380 0.404535 0.000000
Si Si5 0.909571 0.105888 0.811203
Si Si6 0.429314 0.893066 0.500000
O O1 0.085666 0.179812 0.500000
O O2 0.165009 0.244176 0.251880
O O3 0.261131 0.137412 0.338377
O O4 0.039079 0.139443 0.201360
O O5 0.296164 0.539444 0.000000
O O6 0.390543 0.443615 0.834500
O O7 0.185579 0.438261 0.000000
O O8 0.133534 0.320635 0.500000
O O9 0.303780 0.343536 0.715578
O O10 0.085673 0.351788 0.831981
O O11 0.937104 0.422294 0.000000
O O12 0.892405 0.080003 0.000000
#
# Coordination Sequence:
#
# PCOD9443446 Si02
#       6
#     8   4   8   4   8   4
#     4   9  20  34  53  83 114 149 178 233 294 323
#     4  10  20  42  59  81 114 154 198 234 277 345
#     4   9  20  35  54  85 117 142 187 234 285 348
#     4  10  22  38  59  83 120 149 194 240 276 330
#     4  10  20  36  59  81 111 153 190 231 289 339
#     4  10  21  36  64  84 106 166 187 231 295 327
#
# _framework density 18.963393
#
# number of rings (size 3 to 8) (size 9 to 14) (size 15 to 20)
#    0.667    1.778    1.111    0.333    4.667    1.778 
#    0.000    4.444    0.000    5.333    0.000    0.000 
#    0.000    0.000    0.000    0.000    0.000    0.000 
#
# Total GULP energy -200609.922097 kJ/mol
# GULP energy per Si atom -5572.497836 kJ/mol
# Density = 1.892023 g / cm^3
# Si number density = 18.963393 Si / 1000 Ang^3
#
#
#
# Elastic Constant Matrix: (Units=GPa)
#
#
# Indices 1 2 3 4 5 6 
#
# 1 65.1460 -2.7087 19.9417 0.0000 0.0000 0.0000
# 2 -2.7087 63.7412 12.2669 0.0000 0.0000 0.0000
# 3 19.9417 12.2669 65.8598 0.0000 0.0000 0.0000
# 4 0.0000 0.0000 0.0000 8.1305 0.0000 0.0000
# 5 0.0000 0.0000 0.0000 0.0000 50.4539 0.0000
# 6 0.0000 0.0000 0.0000 0.0000 0.0000 17.2353
#
#
#
# Elastic Compliance Matrix: (Units=1/GPa)
#
#
# Indices 1 2 3 4 5 6 
#
# 1 0.017113 0.001789 -0.005515 0.000000 0.000000 0.000000
# 2 0.001789 0.016459 -0.003607 0.000000 0.000000 0.000000
# 3 -0.005515 -0.003607 0.017525 0.000000 0.000000 0.000000
# 4 0.000000 0.000000 0.000000 0.122993 0.000000 0.000000
# 5 0.000000 0.000000 0.000000 0.000000 0.019820 0.000000
# 6 0.000000 0.000000 0.000000 0.000000 0.000000 0.058021
#
#
# Mechanical properties :
#
#
# Convention : Reuss Voigt Hill
#
# Bulk Modulus (GPa) = 27.44979 28.19407 27.82193
# Shear Modulus (GPa) = 17.93783 26.18040 22.05912
#
# Velocity S-wave (km/s) = 3.07892 3.71964 3.41434
# Velocity P-wave (km/s) = 5.21020 5.77473 5.49972
#
# Compressibility (1/GPa) = 0.03643015
#
# Stress axis : x y z
#
# Youngs Moduli (GPa) = 58.43652 60.75837 57.06001
#
# Poissons Ratio (x) = -0.10867 0.31467
# Poissons Ratio (y) = -0.10451 0.20582
# Poissons Ratio (z) = 0.32226 0.21916
#
# Static dielectric constant tensor:
#      x y z
#    x 1.647300 0.000000 0.000000 
#    y 0.000000 1.643070 0.000000 
#    z 0.000000 0.000000 1.681520 
# 
# From -- ./inp_files/4091.got.cif
#   From: 2010.05.17/outbox.cif.g08.bks.cpg/sg58_3_cif.got.tgz:4091.got - 2010.06.03 14:20:14.
