data_PCOD9443411
_publ_section_title
;
Structure prediction by ZEFSAII (Michael W. Deem and Ramdas Pophale) SiO2 
 PCOD9443411
Probable space group: P N N M
;
_chemical_formula_sum "Si O2"
_cell_formula_units_Z 64
_cell_length_a 29.807418
_cell_length_b 12.636040
_cell_length_c 7.750951
_cell_angle_alpha 90.000000
_cell_angle_beta 90.000000
_cell_angle_gamma 90.000000
_cell_volume 2919.378070
_symmetry_space_group_name_H-M "P N N M"
_symmetry_group_IT_number 58
_symmetry_cell_setting 'orthorhombic'
loop_
_space_group_symop_operation_xyz
x,y,z
-x,-y,z
1/2+x,1/2-y,1/2-z
1/2-x,1/2+y,1/2-z
-x,-y,-z
x,y,-z
1/2-x,1/2+y,1/2+z
1/2+x,1/2-y,1/2+z
loop_
_atom_site_type_symbol
_atom_site_label
_atom_site_fract_x
_atom_site_fract_y
_atom_site_fract_z
Si Si1 0.372474 0.675927 0.297275
Si Si2 0.531349 0.730245 0.204196
Si Si3 0.184658 0.621373 0.288822
Si Si4 0.327867 0.362665 0.798182
Si Si5 0.075460 0.970964 0.299133
Si Si6 0.412099 0.071075 0.792181
Si Si7 0.060340 0.341564 0.205923
Si Si8 0.717356 0.429030 0.300124
O O1 0.364580 0.692426 0.500000
O O2 0.409133 0.581419 0.282192
O O3 0.395165 0.781702 0.225931
O O4 0.324982 0.635641 0.221615
O O5 0.538351 0.610641 0.272702
O O6 0.564810 0.821109 0.274299
O O7 0.482439 0.779062 0.224642
O O8 0.541123 0.719756 0.000000
O O9 0.184471 0.615367 0.500000
O O10 0.178556 0.743713 0.238851
O O11 0.139403 0.562651 0.231075
O O12 0.233110 0.583956 0.224685
O O13 0.379346 0.399599 0.786646
O O14 0.297990 0.449676 0.705590
O O15 0.315680 0.366598 0.000000
O O16 0.065717 0.995818 0.500000
O O17 0.438856 0.965151 0.748319
O O18 0.411812 0.079674 0.000000
O O19 0.059288 0.331101 0.000000
O O20 0.720961 0.395875 0.500000
#
# Coordination Sequence:
#
# PCOD9443411 Si02
#       8
#     8   8   8   8   8   8   8   8
#     4   9  20  37  52  72 109 149 177 211 265 323
#     4  10  20  36  58  82 106 136 178 227 275 318
#     4   9  17  32  56  80 102 134 175 216 264 319
#     4   9  16  31  53  76 102 134 171 217 266 310
#     4   9  17  32  57  82 102 129 177 230 266 308
#     4  10  20  37  58  79 105 138 178 223 270 318
#     4  11  24  38  52  76 113 149 180 215 262 322
#     4   9  18  33  53  77 104 138 175 211 261 320
#
# _framework density 21.922478000000002
#
# number of rings (size 3 to 8) (size 9 to 14) (size 15 to 20)
#    0.000    2.500    1.250    0.750    0.000    5.000 
#    0.000    5.625    0.000    0.000    0.000    0.000 
#    0.000    0.000    0.000    0.000    0.000    0.000 
#
# Total GULP energy -357035.566085 kJ/mol
# GULP energy per Si atom -5578.680720 kJ/mol
# Density = 2.187258 g / cm^3
# Si number density = 21.922478 Si / 1000 Ang^3
#
#
#
# Elastic Constant Matrix: (Units=GPa)
#
#
# Indices 1 2 3 4 5 6 
#
# 1 72.8697 4.5480 -1.7796 0.0000 0.0000 0.0000
# 2 4.5480 32.8796 -4.6037 0.0000 0.0000 0.0000
# 3 -1.7796 -4.6037 25.6632 0.0000 0.0000 0.0000
# 4 0.0000 0.0000 0.0000 21.4676 0.0000 0.0000
# 5 0.0000 0.0000 0.0000 0.0000 12.7203 0.0000
# 6 0.0000 0.0000 0.0000 0.0000 0.0000 26.3119
#
#
#
# Elastic Compliance Matrix: (Units=1/GPa)
#
#
# Indices 1 2 3 4 5 6 
#
# 1 0.013853 -0.001828 0.000633 0.000000 0.000000 0.000000
# 2 -0.001828 0.031439 0.005513 0.000000 0.000000 0.000000
# 3 0.000633 0.005513 0.039999 0.000000 0.000000 0.000000
# 4 0.000000 0.000000 0.000000 0.046582 0.000000 0.000000
# 5 0.000000 0.000000 0.000000 0.000000 0.078614 0.000000
# 6 0.000000 0.000000 0.000000 0.000000 0.000000 0.038006
#
#
# Mechanical properties :
#
#
# Convention : Reuss Voigt Hill
#
# Bulk Modulus (GPa) = 10.64656 14.19355 12.42005
# Shear Modulus (GPa) = 18.43897 20.98315 19.71106
#
# Velocity S-wave (km/s) = 2.90332 3.09714 3.00180
# Velocity P-wave (km/s) = 4.01323 4.39070 4.20620
#
# Compressibility (1/GPa) = 0.09392709
#
# Stress axis : x y z
#
# Youngs Moduli (GPa) = 72.18843 31.80789 25.00052
#
# Poissons Ratio (x) = 0.05813 -0.01582
# Poissons Ratio (y) = 0.13193 -0.13783
# Poissons Ratio (z) = -0.04568 -0.17536
#
# Static dielectric constant tensor:
#      x y z
#    x 1.836900 0.000000 0.000000 
#    y 0.000000 1.786300 0.000000 
#    z 0.000000 0.000000 1.826430 
# 
# From -- ./inp_files/11033.got.cif
#   From: 2010.05.17/outbox.cif.g08.bks.cpg/sg58_6_cif.got.tgz:11033.got - 2010.06.03 14:20:14.
