data_PCOD9443377
_publ_section_title
;
Structure prediction by ZEFSAII (Michael W. Deem and Ramdas Pophale) SiO2 
 PCOD9443377
Probable space group: P N N M
;
_chemical_formula_sum "Si O2"
_cell_formula_units_Z 64
_cell_length_a 15.122131
_cell_length_b 25.819204
_cell_length_c 8.332685
_cell_angle_alpha 90.000000
_cell_angle_beta 90.000000
_cell_angle_gamma 90.000000
_cell_volume 3253.425074
_symmetry_space_group_name_H-M "P N N M"
_symmetry_group_IT_number 58
_symmetry_cell_setting 'orthorhombic'
loop_
_space_group_symop_operation_xyz
x,y,z
-x,-y,z
1/2+x,1/2-y,1/2-z
1/2-x,1/2+y,1/2-z
-x,-y,-z
x,y,-z
1/2-x,1/2+y,1/2+z
1/2+x,1/2-y,1/2+z
loop_
_atom_site_type_symbol
_atom_site_label
_atom_site_fract_x
_atom_site_fract_y
_atom_site_fract_z
Si Si1 0.531762 0.172235 0.305532
Si Si2 0.975544 0.891853 0.805807
Si Si3 0.644513 0.874395 0.311413
Si Si4 0.758099 0.273948 0.689689
Si Si5 0.559891 0.282600 0.810856
Si Si6 0.203905 0.053194 0.807401
Si Si7 0.265380 0.840800 0.693527
Si Si8 0.842996 0.060311 0.193308
O O1 0.530144 0.175068 0.500000
O O2 0.456046 0.132507 0.252442
O O3 0.512456 0.229504 0.238368
O O4 0.631495 0.158070 0.255685
O O5 0.990371 0.834791 0.736000
O O6 0.880729 0.913520 0.750162
O O7 0.055354 0.929654 0.758781
O O8 0.974224 0.888305 0.000000
O O9 0.642300 0.884609 0.500000
O O10 0.690215 0.818814 0.280053
O O11 0.705891 0.917910 0.234434
O O12 0.777287 0.278122 0.500000
O O13 0.653289 0.282972 0.716750
O O14 0.774090 0.214891 0.745389
O O15 0.577625 0.282105 0.000000
O O16 0.194351 0.994464 0.746675
O O17 0.196954 0.051734 0.000000
O O18 0.264194 0.840260 0.500000
O O19 0.213299 0.890358 0.753363
O O20 0.841723 0.058651 0.000000
#
# Coordination Sequence:
#
# PCOD9443377 Si02
#       8
#     8   8   8   8   8   8   8   8
#     4   9  21  40  58  80 116 156 192 233 290 349
#     4  10  20  36  57  81 115 156 190 229 286 346
#     4  11  22  36  59  88 114 147 195 243 285 340
#     4  10  20  36  56  80 116 156 187 226 289 350
#     4  11  21  33  54  86 118 148 190 234 280 336
#     4  10  21  39  60  82 115 155 193 235 288 347
#     4   9  20  39  59  80 112 152 190 235 291 341
#     4  10  22  38  59  85 111 150 200 240 283 343
#
# _framework density 19.671576000000002
#
# number of rings (size 3 to 8) (size 9 to 14) (size 15 to 20)
#    0.000    2.000    1.250    3.000    1.750    6.000 
#    0.000    0.625    0.000    6.000    0.000    0.000 
#    0.000    0.000    0.000    0.000    0.000    0.000 
#
# Total GULP energy -357413.140886 kJ/mol
# GULP energy per Si atom -5584.580326 kJ/mol
# Density = 1.962680 g / cm^3
# Si number density = 19.671576 Si / 1000 Ang^3
#
#
#
# Elastic Constant Matrix: (Units=GPa)
#
#
# Indices 1 2 3 4 5 6 
#
# 1 17.8932 3.5299 -0.4069 0.0000 0.0000 0.0000
# 2 3.5299 76.8127 8.0801 0.0000 0.0000 0.0000
# 3 -0.4069 8.0801 8.5819 0.0000 0.0000 0.0000
# 4 0.0000 0.0000 0.0000 30.9819 0.0000 0.0000
# 5 0.0000 0.0000 0.0000 0.0000 24.2762 0.0000
# 6 0.0000 0.0000 0.0000 0.0000 0.0000 25.6654
#
#
#
# Elastic Compliance Matrix: (Units=1/GPa)
#
#
# Indices 1 2 3 4 5 6 
#
# 1 0.056649 -0.003203 0.005702 0.000000 0.000000 0.000000
# 2 -0.003203 0.014631 -0.013927 0.000000 0.000000 0.000000
# 3 0.005702 -0.013927 0.129907 0.000000 0.000000 0.000000
# 4 0.000000 0.000000 0.000000 0.032277 0.000000 0.000000
# 5 0.000000 0.000000 0.000000 0.000000 0.041193 0.000000
# 6 0.000000 0.000000 0.000000 0.000000 0.000000 0.038963
#
#
# Mechanical properties :
#
#
# Convention : Reuss Voigt Hill
#
# Bulk Modulus (GPa) = 5.60761 13.96600 9.78680
# Shear Modulus (GPa) = 12.62883 22.32367 17.47625
#
# Velocity S-wave (km/s) = 2.53649 3.37236 2.98384
# Velocity P-wave (km/s) = 3.38159 4.72004 4.10572
#
# Compressibility (1/GPa) = 0.17832921
#
# Stress axis : x y z
#
# Youngs Moduli (GPa) = 17.65262 68.34843 7.69782
#
# Poissons Ratio (x) = 0.21892 -0.04389
# Poissons Ratio (y) = 0.05654 0.10721
# Poissons Ratio (z) = -0.10065 0.95190
#
# Static dielectric constant tensor:
#      x y z
#    x 1.707710 0.000000 0.000000 
#    y 0.000000 1.684500 0.000000 
#    z 0.000000 0.000000 1.675310 
# 
# From -- ./inp_files/6817.got.cif
#   From: 2010.05.17/outbox.cif.g08.bks.cpg/sg58_4_cif.got.tgz:6817.got - 2010.06.03 14:20:14.
