data_PCOD9443382
_publ_section_title
;
Structure prediction by ZEFSAII (Michael W. Deem and Ramdas Pophale) SiO2 
 PCOD9443382
Probable space group: P N N M
;
_chemical_formula_sum "Si O2"
_cell_formula_units_Z 64
_cell_length_a 15.075806
_cell_length_b 25.052522
_cell_length_c 7.936549
_cell_angle_alpha 90.000000
_cell_angle_beta 90.000000
_cell_angle_gamma 90.000000
_cell_volume 2997.531076
_symmetry_space_group_name_H-M "P N N M"
_symmetry_group_IT_number 58
_symmetry_cell_setting 'orthorhombic'
loop_
_space_group_symop_operation_xyz
x,y,z
-x,-y,z
1/2+x,1/2-y,1/2-z
1/2-x,1/2+y,1/2-z
-x,-y,-z
x,y,-z
1/2-x,1/2+y,1/2+z
1/2+x,1/2-y,1/2+z
loop_
_atom_site_type_symbol
_atom_site_label
_atom_site_fract_x
_atom_site_fract_y
_atom_site_fract_z
Si Si1 0.060211 0.450773 0.198175
Si Si2 0.749432 0.405794 0.194941
Si Si3 0.259203 0.475059 0.301948
Si Si4 0.049064 0.945967 0.206702
Si Si5 0.637225 0.751709 0.203759
Si Si6 0.998435 0.831202 0.201216
Si Si7 0.680039 0.293363 0.695037
Si Si8 0.931856 0.365925 0.698155
O O1 0.164297 0.460492 0.224752
O O2 0.000000 0.500000 0.267704
O O3 0.024371 0.395365 0.273542
O O4 0.043219 0.448026 0.000000
O O5 0.723694 0.462146 0.272207
O O6 0.711070 0.355146 0.293625
O O7 0.855886 0.399750 0.208266
O O8 0.723068 0.402783 0.000000
O O9 0.251277 0.464945 0.500000
O O10 0.348033 0.446118 0.238699
O O11 0.001841 0.891768 0.264749
O O12 0.048851 0.946218 0.000000
O O13 0.000000 0.000000 0.261036
O O14 0.589503 0.699148 0.266409
O O15 0.737527 0.760591 0.268712
O O16 0.580890 0.804626 0.253449
O O17 0.639525 0.750639 0.000000
O O18 0.917619 0.795688 0.272910
O O19 0.984452 0.834388 0.000000
O O20 0.672918 0.276700 0.500000
O O21 0.910566 0.367848 0.500000
#
# Coordination Sequence:
#
# PCOD9443382 Si02
#       8
#     8   8   8   8   8   8   8   8
#     4  11  22  35  53  82 119 154 194 245 294 345
#     4  11  20  31  52  83 115 145 189 240 283 331
#     4  11  21  34  55  81 115 157 193 230 290 354
#     4   9  19  37  61  88 115 147 193 245 289 344
#     4   9  20  38  58  84 116 145 185 238 289 345
#     4  10  20  38  64  89 114 149 196 243 291 348
#     4   9  19  37  60  83 109 148 194 234 283 346
#     4  10  20  36  57  79 109 153 198 237 283 344
#
# _framework density 21.350905000000001
#
# number of rings (size 3 to 8) (size 9 to 14) (size 15 to 20)
#    0.000    2.000    1.250    3.750    0.000    5.500 
#    2.250    1.250    0.000    2.625    0.000    0.000 
#    0.000    0.000    0.000    0.000    0.000    0.000 
#
# Total GULP energy -357291.146848 kJ/mol
# GULP energy per Si atom -5582.674169 kJ/mol
# Density = 2.130231 g / cm^3
# Si number density = 21.350905 Si / 1000 Ang^3
#
#
#
# Elastic Constant Matrix: (Units=GPa)
#
#
# Indices 1 2 3 4 5 6 
#
# 1 118.9712 38.8804 -2.3486 0.0000 0.0000 0.0000
# 2 38.8804 74.8580 -2.0927 0.0000 0.0000 0.0000
# 3 -2.3486 -2.0927 30.5815 0.0000 0.0000 0.0000
# 4 0.0000 0.0000 0.0000 -1.3672 0.0000 0.0000
# 5 0.0000 0.0000 0.0000 0.0000 14.2219 0.0000
# 6 0.0000 0.0000 0.0000 0.0000 0.0000 25.5714
#
#
#
# Elastic Compliance Matrix: (Units=1/GPa)
#
#
# Indices 1 2 3 4 5 6 
#
# 1 0.010129 -0.005249 0.000419 0.000000 0.000000 0.000000
# 2 -0.005249 0.016105 0.000699 0.000000 0.000000 0.000000
# 3 0.000419 0.000699 0.032780 0.000000 0.000000 0.000000
# 4 0.000000 0.000000 0.000000 -0.731407 0.000000 0.000000
# 5 0.000000 0.000000 0.000000 0.000000 0.070314 0.000000
# 6 0.000000 0.000000 0.000000 0.000000 0.000000 0.039106
#
#
# Mechanical properties :
#
#
# Convention : Reuss Voigt Hill
#
# Bulk Modulus (GPa) = 19.70446 32.58763 26.14605
# Shear Modulus (GPa) = -9.29724 20.34998 5.52637
#
# Velocity S-wave (km/s) = -2.08901 3.09061 1.61058
# Velocity P-wave (km/s) = 1.85211 5.29451 3.96624
#
# Compressibility (1/GPa) = 0.05074992
#
# Stress axis : x y z
#
# Youngs Moduli (GPa) = 98.72502 62.09419 30.50687
#
# Poissons Ratio (x) = 0.32595 -0.01277
# Poissons Ratio (y) = 0.51823 -0.02132
# Poissons Ratio (z) = -0.04134 -0.04340
#
# Static dielectric constant tensor:
#      x y z
#    x 1.820760 0.000000 0.000000 
#    y 0.000000 1.753860 0.000000 
#    z 0.000000 0.000000 1.763330 
# 
# From -- ./inp_files/6958.got.cif
#   From: 2010.05.17/outbox.cif.g08.bks.cpg/sg58_4_cif.got.tgz:6958.got - 2010.06.03 14:20:14.
