data_PCOD9443518
_publ_section_title
;
Structure prediction by ZEFSAII (Michael W. Deem and Ramdas Pophale) SiO2 
 PCOD9443518
Probable space group: P N N M
;
_chemical_formula_sum "Si O2"
_cell_formula_units_Z 64
_cell_length_a 11.508002
_cell_length_b 18.223227
_cell_length_c 14.554802
_cell_angle_alpha 90.000000
_cell_angle_beta 90.000000
_cell_angle_gamma 90.000000
_cell_volume 3052.330213
_symmetry_space_group_name_H-M "P N N M"
_symmetry_group_IT_number 58
_symmetry_cell_setting 'orthorhombic'
loop_
_space_group_symop_operation_xyz
x,y,z
-x,-y,z
1/2+x,1/2-y,1/2-z
1/2-x,1/2+y,1/2-z
-x,-y,-z
x,y,-z
1/2-x,1/2+y,1/2+z
1/2+x,1/2-y,1/2+z
loop_
_atom_site_type_symbol
_atom_site_label
_atom_site_fract_x
_atom_site_fract_y
_atom_site_fract_z
Si Si1 0.739592 0.833641 0.287461
Si Si2 0.252921 0.918233 0.194738
Si Si3 0.166038 0.235692 0.103255
Si Si4 0.393216 0.296927 0.391365
Si Si5 0.775998 0.102978 0.601705
Si Si6 0.041367 0.333756 0.395432
Si Si7 0.967473 0.834213 0.394222
Si Si8 0.610675 0.949703 0.187097
O O1 0.768619 0.802982 0.186419
O O2 0.682142 0.768851 0.347111
O O3 0.860963 0.858350 0.331952
O O4 0.653776 0.901182 0.271965
O O5 0.141601 0.873163 0.159242
O O6 0.252658 0.935704 0.302936
O O7 0.356977 0.861908 0.170506
O O8 0.289601 0.995650 0.150341
O O9 0.204043 0.320802 0.104233
O O10 0.028669 0.223451 0.118186
O O11 0.195420 0.208586 0.000000
O O12 0.367817 0.303552 0.500000
O O13 0.757092 0.069398 0.500000
O O14 0.912473 0.122685 0.610420
O O15 0.084339 0.334192 0.500000
O O16 0.006511 0.251138 0.371082
O O17 0.937971 0.391353 0.385560
O O18 0.928318 0.836440 0.500000
O O19 0.500000 0.000000 0.211311
#
# Coordination Sequence:
#
# PCOD9443518 Si02
#       8
#     8   8   8   8   8   8   8   8
#     4  12  22  38  67  90 128 170 214 272 317 384
#     4  11  21  38  59  88 129 168 213 260 324 390
#     4  10  22  37  59  95 128 160 208 267 324 376
#     4  11  23  38  64  98 129 165 215 276 334 386
#     4  10  20  36  60  88 123 164 210 263 318 376
#     4  10  20  36  61  94 129 163 210 271 330 387
#     4  10  20  36  64 100 122 153 217 281 327 370
#     4  10  26  40  59  93 135 177 216 258 325 399
#
# _framework density 20.967587999999999
#
# number of rings (size 3 to 8) (size 9 to 14) (size 15 to 20)
#    0.000    1.500    2.500    2.250    5.250    4.250 
#    0.000    3.750    0.000    7.875    0.000    0.000 
#    0.000    0.000    0.000    0.000    0.000    0.000 
#
# Total GULP energy -357387.246483 kJ/mol
# GULP energy per Si atom -5584.175726 kJ/mol
# Density = 2.091986 g / cm^3
# Si number density = 20.967588 Si / 1000 Ang^3
#
#
#
# Elastic Constant Matrix: (Units=GPa)
#
#
# Indices 1 2 3 4 5 6 
#
# 1 63.8892 10.8759 30.5384 0.0000 0.0000 0.0000
# 2 10.8759 25.5009 -1.3438 0.0000 0.0000 0.0000
# 3 30.5384 -1.3438 100.3385 0.0000 0.0000 0.0000
# 4 0.0000 0.0000 0.0000 7.9353 0.0000 0.0000
# 5 0.0000 0.0000 0.0000 0.0000 35.2434 0.0000
# 6 0.0000 0.0000 0.0000 0.0000 0.0000 27.7749
#
#
#
# Elastic Compliance Matrix: (Units=1/GPa)
#
#
# Indices 1 2 3 4 5 6 
#
# 1 0.020162 -0.008929 -0.006256 0.000000 0.000000 0.000000
# 2 -0.008929 0.043196 0.003296 0.000000 0.000000 0.000000
# 3 -0.006256 0.003296 0.011914 0.000000 0.000000 0.000000
# 4 0.000000 0.000000 0.000000 0.126019 0.000000 0.000000
# 5 0.000000 0.000000 0.000000 0.000000 0.028374 0.000000
# 6 0.000000 0.000000 0.000000 0.000000 0.000000 0.036004
#
#
# Mechanical properties :
#
#
# Convention : Reuss Voigt Hill
#
# Bulk Modulus (GPa) = 19.41927 29.98551 24.70239
# Shear Modulus (GPa) = 16.30722 24.16792 20.23757
#
# Velocity S-wave (km/s) = 2.79182 3.39873 3.11011
# Velocity P-wave (km/s) = 4.43554 5.45286 4.97030
#
# Compressibility (1/GPa) = 0.05149524
#
# Stress axis : x y z
#
# Youngs Moduli (GPa) = 49.59726 23.15028 83.93157
#
# Poissons Ratio (x) = 0.20670 0.52508
# Poissons Ratio (y) = 0.44284 -0.27664
# Poissons Ratio (z) = 0.31028 -0.07630
#
# Static dielectric constant tensor:
#      x y z
#    x 1.775140 0.000000 0.000000 
#    y 0.000000 1.758700 0.000000 
#    z 0.000000 0.000000 1.770210 
# 
# From -- ./inp_files/21485.got.cif
#   From: 2010.05.17/outbox.cif.g08.bks.cpg/sg58_11_cif.got.tgz:21485.got - 2010.06.03 14:20:14.
