data_PCOD9443801
_publ_section_title
;
Structure prediction by ZEFSAII (Michael W. Deem and Ramdas Pophale) SiO2 
 PCOD9443801
Probable space group: P N N M
;
_chemical_formula_sum "Si O2"
_cell_formula_units_Z 56
_cell_length_a 21.852555
_cell_length_b 15.293690
_cell_length_c 8.313688
_cell_angle_alpha 90.000000
_cell_angle_beta 90.000000
_cell_angle_gamma 90.000000
_cell_volume 2778.486090
_symmetry_space_group_name_H-M "P N N M"
_symmetry_group_IT_number 58
_symmetry_cell_setting 'orthorhombic'
loop_
_space_group_symop_operation_xyz
x,y,z
-x,-y,z
1/2+x,1/2-y,1/2-z
1/2-x,1/2+y,1/2-z
-x,-y,-z
x,y,-z
1/2-x,1/2+y,1/2+z
1/2+x,1/2-y,1/2+z
loop_
_atom_site_type_symbol
_atom_site_label
_atom_site_fract_x
_atom_site_fract_y
_atom_site_fract_z
Si Si1 0.900538 0.284102 0.192813
Si Si2 0.235148 0.768249 0.804104
Si Si3 0.512071 0.636909 0.185000
Si Si4 0.568372 0.978673 0.194300
Si Si5 0.784144 0.918721 0.691424
Si Si6 0.088160 0.018299 0.816320
Si Si7 0.308990 0.939409 0.194993
O O1 0.835365 0.243301 0.249105
O O2 0.955693 0.224511 0.256273
O O3 0.909539 0.383457 0.248678
O O4 0.900156 0.282026 0.000000
O O5 0.270929 0.680439 0.757763
O O6 0.271942 0.853730 0.749760
O O7 0.233628 0.771065 0.000000
O O8 0.454040 0.602886 0.285041
O O9 0.561465 0.558855 0.206546
O O10 0.493732 0.644596 0.000000
O O11 0.500000 0.000000 0.253163
O O12 0.619862 0.050037 0.240874
O O13 0.566476 0.976781 0.000000
O O14 0.794250 0.919998 0.500000
O O15 0.842639 0.959370 0.777447
O O16 0.725995 0.977105 0.735301
O O17 0.081521 0.988751 0.000000
O O18 0.305706 0.941726 0.000000
#
# Coordination Sequence:
#
# PCOD9443801 Si02
#       7
#     8   8   8   8   8   8   8
#     4  11  21  38  61  87 121 162 206 254 313 378
#     4   9  20  36  58  85 116 157 203 250 308 368
#     4  11  22  38  60  88 119 158 203 250 299 362
#     4  10  22  39  60  87 120 161 211 263 316 374
#     4  11  21  37  59  87 119 156 199 251 304 363
#     4  11  22  38  58  87 123 160 198 247 307 366
#     4  10  20  38  61  85 117 159 206 259 316 371
#
# _framework density 20.154859999999999
#
# number of rings (size 3 to 8) (size 9 to 14) (size 15 to 20)
#    0.000    1.571    1.429    5.143    0.000    2.571 
#    0.000    5.000    0.000    0.000    0.000    0.000 
#    0.000    0.000    0.000    0.000    0.000    0.000 
#
# Total GULP energy -312909.903630 kJ/mol
# GULP energy per Si atom -5587.676851 kJ/mol
# Density = 2.010899 g / cm^3
# Si number density = 20.154860 Si / 1000 Ang^3
#
#
#
# Elastic Constant Matrix: (Units=GPa)
#
#
# Indices 1 2 3 4 5 6 
#
# 1 97.0992 24.9798 8.2681 0.0000 0.0000 0.0000
# 2 24.9798 94.6882 2.5976 0.0000 0.0000 0.0000
# 3 8.2681 2.5976 26.3235 0.0000 0.0000 0.0000
# 4 0.0000 0.0000 0.0000 25.8088 0.0000 0.0000
# 5 0.0000 0.0000 0.0000 0.0000 6.1636 0.0000
# 6 0.0000 0.0000 0.0000 0.0000 0.0000 81.1448
#
#
#
# Elastic Compliance Matrix: (Units=1/GPa)
#
#
# Indices 1 2 3 4 5 6 
#
# 1 0.011323 -0.002897 -0.003270 0.000000 0.000000 0.000000
# 2 -0.002897 0.011331 -0.000208 0.000000 0.000000 0.000000
# 3 -0.003270 -0.000208 0.039037 0.000000 0.000000 0.000000
# 4 0.000000 0.000000 0.000000 0.038746 0.000000 0.000000
# 5 0.000000 0.000000 0.000000 0.000000 0.162243 0.000000
# 6 0.000000 0.000000 0.000000 0.000000 0.000000 0.012324
#
#
# Mechanical properties :
#
#
# Convention : Reuss Voigt Hill
#
# Bulk Modulus (GPa) = 20.43383 32.20021 26.31702
# Shear Modulus (GPa) = 16.44372 34.77447 25.60909
#
# Velocity S-wave (km/s) = 2.85944 4.15826 3.56844
# Velocity P-wave (km/s) = 4.58937 6.25027 5.48307
#
# Compressibility (1/GPa) = 0.04893846
#
# Stress axis : x y z
#
# Youngs Moduli (GPa) = 88.31895 88.25322 25.61698
#
# Poissons Ratio (x) = 0.25570 0.08378
# Poissons Ratio (y) = 0.25589 0.00533
# Poissons Ratio (z) = 0.28884 0.01837
#
# Static dielectric constant tensor:
#      x y z
#    x 1.715210 0.000000 0.000000 
#    y 0.000000 1.692180 0.000000 
#    z 0.000000 0.000000 1.695650 
# 
# From -- ./inp_files/9021.got.cif
#   From: 2010.05.17/outbox.cif.g08.bks.cpg/sg58_5_cif.got.tgz:9021.got - 2010.06.03 14:20:14.
