data_PCOD9443414
_publ_section_title
;
Structure prediction by ZEFSAII (Michael W. Deem and Ramdas Pophale) SiO2 
 PCOD9443414
Probable space group: P N N M
;
_chemical_formula_sum "Si O2"
_cell_formula_units_Z 48
_cell_length_a 15.026017
_cell_length_b 9.090364
_cell_length_c 18.658866
_cell_angle_alpha 90.000000
_cell_angle_beta 90.000000
_cell_angle_gamma 90.000000
_cell_volume 2548.651153
_symmetry_space_group_name_H-M "P N N M"
_symmetry_group_IT_number 58
_symmetry_cell_setting 'orthorhombic'
loop_
_space_group_symop_operation_xyz
x,y,z
-x,-y,z
1/2+x,1/2-y,1/2-z
1/2-x,1/2+y,1/2-z
-x,-y,-z
x,y,-z
1/2-x,1/2+y,1/2+z
1/2+x,1/2-y,1/2+z
loop_
_atom_site_type_symbol
_atom_site_label
_atom_site_fract_x
_atom_site_fract_y
_atom_site_fract_z
Si Si1 0.474866 0.828609 0.814191
Si Si2 0.329858 0.209105 0.186089
Si Si3 0.209804 0.040306 0.916359
Si Si4 0.244227 0.019662 0.300123
Si Si5 0.579633 0.384400 0.701450
Si Si6 0.307058 0.742034 0.914351
O O1 0.568778 0.745177 0.827257
O O2 0.447038 0.771956 0.735180
O O3 0.396828 0.788377 0.870729
O O4 0.500000 0.000000 0.818610
O O5 0.293833 0.123366 0.117532
O O6 0.321743 0.098878 0.254384
O O7 0.262115 0.344390 0.197804
O O8 0.123571 0.102651 0.876295
O O9 0.232882 0.869131 0.901813
O O10 0.203469 0.061903 0.000000
O O11 0.157817 0.060340 0.253334
O O12 0.230231 0.094753 0.377030
O O13 0.500000 0.500000 0.705455
O O14 0.322466 0.730644 0.000000
#
# Coordination Sequence:
#
# PCOD9443414 Si02
#       6
#     8   8   8   8   8   8
#     4  11  22  36  59  89 116 151 194 244 291 340
#     4  11  21  36  61  86 116 153 194 244 290 340
#     4  10  22  38  57  84 116 153 193 232 287 350
#     4  10  21  36  59  85 113 152 196 241 289 347
#     4  10  20  36  58  82 111 147 195 243 282 340
#     4  10  22  39  58  85 121 155 190 236 295 356
#
# _framework density 18.833492
#
# number of rings (size 3 to 8) (size 9 to 14) (size 15 to 20)
#    0.000    1.667    3.333    2.000    4.667    2.000 
#    0.000    0.833    0.000    0.500    0.000    0.000 
#    0.000    0.000    0.000    0.000    0.000    0.000 
#
# Total GULP energy -267592.331583 kJ/mol
# GULP energy per Si atom -5574.840241 kJ/mol
# Density = 1.879063 g / cm^3
# Si number density = 18.833492 Si / 1000 Ang^3
#
#
#
# Elastic Constant Matrix: (Units=GPa)
#
#
# Indices 1 2 3 4 5 6 
#
# 1 39.1710 -12.5831 17.1440 0.0000 0.0000 0.0000
# 2 -12.5831 72.2489 34.5228 0.0000 0.0000 0.0000
# 3 17.1440 34.5228 107.8762 0.0000 0.0000 0.0000
# 4 0.0000 0.0000 0.0000 23.7683 0.0000 0.0000
# 5 0.0000 0.0000 0.0000 0.0000 14.2346 0.0000
# 6 0.0000 0.0000 0.0000 0.0000 0.0000 21.9986
#
#
#
# Elastic Compliance Matrix: (Units=1/GPa)
#
#
# Indices 1 2 3 4 5 6 
#
# 1 0.032143 0.009490 -0.008145 0.000000 0.000000 0.000000
# 2 0.009490 0.019142 -0.007634 0.000000 0.000000 0.000000
# 3 -0.008145 -0.007634 0.013007 0.000000 0.000000 0.000000
# 4 0.000000 0.000000 0.000000 0.042073 0.000000 0.000000
# 5 0.000000 0.000000 0.000000 0.000000 0.070252 0.000000
# 6 0.000000 0.000000 0.000000 0.000000 0.000000 0.045457
#
#
# Mechanical properties :
#
#
# Convention : Reuss Voigt Hill
#
# Bulk Modulus (GPa) = 19.33733 33.05148 26.19440
# Shear Modulus (GPa) = 19.84999 24.01446 21.93223
#
# Velocity S-wave (km/s) = 3.25002 3.57472 3.41623
# Velocity P-wave (km/s) = 4.93693 5.88435 5.43134
#
# Compressibility (1/GPa) = 0.05171345
#
# Stress axis : x y z
#
# Youngs Moduli (GPa) = 31.11139 52.24219 76.87941
#
# Poissons Ratio (x) = -0.49578 0.62620
# Poissons Ratio (y) = -0.29525 0.58689
# Poissons Ratio (z) = 0.25341 0.39881
#
# Static dielectric constant tensor:
#      x y z
#    x 1.705310 0.000000 0.000000 
#    y 0.000000 1.707900 0.000000 
#    z 0.000000 0.000000 1.647630 
# 
# From -- ./inp_files/26791.got.cif
#   From: 2010.05.17/outbox.cif.g08.bks.cpg/sg58_14_cif.got.tgz:26791.got - 2010.06.03 14:20:14.
