data_PCOD9443465
_publ_section_title
;
Structure prediction by ZEFSAII (Michael W. Deem and Ramdas Pophale) SiO2 
 PCOD9443465
Probable space group: P N N M
;
_chemical_formula_sum "Si O2"
_cell_formula_units_Z 56
_cell_length_a 19.601680
_cell_length_b 14.138277
_cell_length_c 9.209062
_cell_angle_alpha 90.000000
_cell_angle_beta 90.000000
_cell_angle_gamma 90.000000
_cell_volume 2552.144018
_symmetry_space_group_name_H-M "P N N M"
_symmetry_group_IT_number 58
_symmetry_cell_setting 'orthorhombic'
loop_
_space_group_symop_operation_xyz
x,y,z
-x,-y,z
1/2+x,1/2-y,1/2-z
1/2-x,1/2+y,1/2-z
-x,-y,-z
x,y,-z
1/2-x,1/2+y,1/2+z
1/2+x,1/2-y,1/2+z
loop_
_atom_site_type_symbol
_atom_site_label
_atom_site_fract_x
_atom_site_fract_y
_atom_site_fract_z
Si Si1 0.139844 0.216248 0.665635
Si Si2 0.293444 0.430114 0.172899
Si Si3 0.928080 0.045501 0.829605
Si Si4 0.346228 0.944199 0.167999
Si Si5 0.578280 0.903691 0.671246
Si Si6 0.210030 0.729588 0.171527
Si Si7 0.993315 0.767720 0.169681
O O1 0.127270 0.187875 0.500000
O O2 0.143569 0.331219 0.673873
O O3 0.216040 0.184521 0.706310
O O4 0.074726 0.191504 0.760100
O O5 0.361965 0.477436 0.235838
O O6 0.223384 0.465326 0.244898
O O7 0.298000 0.320789 0.226868
O O8 0.290207 0.437595 0.000000
O O9 0.945404 0.157215 0.818789
O O10 0.916300 0.022891 0.000000
O O11 0.000000 0.000000 0.785230
O O12 0.407508 0.001488 0.241570
O O13 0.338969 0.971501 0.000000
O O14 0.567391 0.923154 0.500000
O O15 0.647945 0.842331 0.683704
O O16 0.519651 0.832941 0.727169
O O17 0.213668 0.760377 0.000000
O O18 0.979396 0.755051 0.000000
#
# Coordination Sequence:
#
# PCOD9443465 Si02
#       7
#     8   8   8   8   8   8   8
#     4   9  20  37  57  80 112 154 192 237 287 342
#     4  11  21  35  58  85 113 146 190 241 290 340
#     4  10  21  39  61  84 116 158 195 232 291 357
#     4  10  22  39  58  82 114 153 196 241 293 346
#     4  10  20  36  59  85 114 149 195 243 293 347
#     4   9  18  37  60  80 111 153 193 236 291 348
#     4  10  21  37  58  84 116 153 189 237 292 348
#
# _framework density 21.942335
#
# number of rings (size 3 to 8) (size 9 to 14) (size 15 to 20)
#    0.000    2.143    1.429    2.571    0.000    6.571 
#    0.000    5.714    0.000    0.000    0.000    0.000 
#    0.000    0.000    0.000    0.000    0.000    0.000 
#
# Total GULP energy -313001.510335 kJ/mol
# GULP energy per Si atom -5589.312685 kJ/mol
# Density = 2.189239 g / cm^3
# Si number density = 21.942335 Si / 1000 Ang^3
#
#
#
# Elastic Constant Matrix: (Units=GPa)
#
#
# Indices 1 2 3 4 5 6 
#
# 1 99.1285 2.2625 31.5340 0.0000 0.0000 0.0000
# 2 2.2625 46.1418 7.5275 0.0000 0.0000 0.0000
# 3 31.5340 7.5275 63.8536 0.0000 0.0000 0.0000
# 4 0.0000 0.0000 0.0000 4.7494 0.0000 0.0000
# 5 0.0000 0.0000 0.0000 0.0000 18.6270 0.0000
# 6 0.0000 0.0000 0.0000 0.0000 0.0000 40.2009
#
#
#
# Elastic Compliance Matrix: (Units=1/GPa)
#
#
# Indices 1 2 3 4 5 6 
#
# 1 0.011975 0.000385 -0.005959 0.000000 0.000000 0.000000
# 2 0.000385 0.022110 -0.002797 0.000000 0.000000 0.000000
# 3 -0.005959 -0.002797 0.018933 0.000000 0.000000 0.000000
# 4 0.000000 0.000000 0.000000 0.210553 0.000000 0.000000
# 5 0.000000 0.000000 0.000000 0.000000 0.053685 0.000000
# 6 0.000000 0.000000 0.000000 0.000000 0.000000 0.024875
#
#
# Mechanical properties :
#
#
# Convention : Reuss Voigt Hill
#
# Bulk Modulus (GPa) = 27.56607 32.41911 29.99259
# Shear Modulus (GPa) = 13.47837 23.90211 18.69024
#
# Velocity S-wave (km/s) = 2.48112 3.30406 2.92171
# Velocity P-wave (km/s) = 4.56050 5.41872 5.00803
#
# Compressibility (1/GPa) = 0.03627648
#
# Stress axis : x y z
#
# Youngs Moduli (GPa) = 83.50868 45.22906 52.81671
#
# Poissons Ratio (x) = -0.01741 0.31474
# Poissons Ratio (y) = -0.03215 0.14771
# Poissons Ratio (z) = 0.49764 0.12649
#
# Static dielectric constant tensor:
#      x y z
#    x 1.806870 0.000000 0.000000 
#    y 0.000000 1.877230 0.000000 
#    z 0.000000 0.000000 1.735270 
# 
# From -- ./inp_files/8986.got.cif
#   From: 2010.05.17/outbox.cif.g08.bks.cpg/sg58_5_cif.got.tgz:8986.got - 2010.06.03 14:20:14.
