data_PCOD9443979
_publ_section_title
;
Structure prediction by ZEFSAII (Michael W. Deem and Ramdas Pophale) SiO2 
 PCOD9443979
Probable space group: P N N M
;
_chemical_formula_sum "Si O2"
_cell_formula_units_Z 42
_cell_length_a 10.336542
_cell_length_b 15.357843
_cell_length_c 12.944967
_cell_angle_alpha 90.000000
_cell_angle_beta 90.000000
_cell_angle_gamma 90.000000
_cell_volume 2054.974537
_symmetry_space_group_name_H-M "P N N M"
_symmetry_group_IT_number 58
_symmetry_cell_setting 'orthorhombic'
loop_
_space_group_symop_operation_xyz
x,y,z
-x,-y,z
1/2+x,1/2-y,1/2-z
1/2-x,1/2+y,1/2-z
-x,-y,-z
x,y,-z
1/2-x,1/2+y,1/2+z
1/2+x,1/2-y,1/2+z
loop_
_atom_site_type_symbol
_atom_site_label
_atom_site_fract_x
_atom_site_fract_y
_atom_site_fract_z
Si Si1 0.500000 0.500000 0.000000
Si Si2 0.120705 0.305581 0.380533
Si Si3 0.071976 0.829073 0.115029
Si Si4 0.521661 0.135499 0.330383
Si Si5 0.788187 0.493759 0.883614
Si Si6 0.436838 0.609272 0.812739
O O1 0.480859 0.425995 0.092220
O O2 0.079700 0.317197 0.500000
O O3 0.272936 0.327326 0.374080
O O4 0.039095 0.357612 0.293863
O O5 0.110420 0.204794 0.346812
O O6 0.014073 0.731088 0.128890
O O7 0.011447 0.883954 0.206634
O O8 0.039641 0.859577 0.000000
O O9 0.408993 0.071862 0.370508
O O10 0.653820 0.089572 0.369481
O O11 0.685264 0.455110 0.805065
O O12 0.727857 0.482440 0.000000
#
# Coordination Sequence:
#
# PCOD9443979 Si02
#       6
#     2   8   8   8   8   8
#     4  12  24  40  62  94 128 158 202 256 310 358
#     4  10  20  40  61  84 121 162 195 249 307 367
#     4  10  21  40  63  88 121 163 206 248 304 372
#     4  10  21  34  63  89 112 156 209 247 302 363
#     4  11  20  38  60  88 122 156 199 258 307 354
#     4  11  23  38  61  89 124 158 202 251 305 356
#
# _framework density 20.438210000000002
#
# number of rings (size 3 to 8) (size 9 to 14) (size 15 to 20)
#    0.000    1.524    3.810    2.286    2.667    0.000 
#    0.000    4.286    0.000    0.000    0.000    0.000 
#    0.000    0.000    0.000    0.000    0.000    0.000 
#
# Total GULP energy -234056.577156 kJ/mol
# GULP energy per Si atom -5572.775647 kJ/mol
# Density = 2.039169 g / cm^3
# Si number density = 20.438210 Si / 1000 Ang^3
#
#
#
# Elastic Constant Matrix: (Units=GPa)
#
#
# Indices 1 2 3 4 5 6 
#
# 1 41.8335 16.6170 46.1230 0.0000 0.0000 0.0000
# 2 16.6170 34.4182 7.7611 0.0000 0.0000 0.0000
# 3 46.1230 7.7611 171.2029 0.0000 0.0000 0.0000
# 4 0.0000 0.0000 0.0000 28.8530 0.0000 0.0000
# 5 0.0000 0.0000 0.0000 0.0000 38.8193 0.0000
# 6 0.0000 0.0000 0.0000 0.0000 0.0000 38.8146
#
#
#
# Elastic Compliance Matrix: (Units=1/GPa)
#
#
# Indices 1 2 3 4 5 6 
#
# 1 0.043078 -0.018369 -0.010773 0.000000 0.000000 0.000000
# 2 -0.018369 0.037187 0.003263 0.000000 0.000000 0.000000
# 3 -0.010773 0.003263 0.008595 0.000000 0.000000 0.000000
# 4 0.000000 0.000000 0.000000 0.034658 0.000000 0.000000
# 5 0.000000 0.000000 0.000000 0.000000 0.025760 0.000000
# 6 0.000000 0.000000 0.000000 0.000000 0.000000 0.025764
#
#
# Mechanical properties :
#
#
# Convention : Reuss Voigt Hill
#
# Bulk Modulus (GPa) = 26.95192 43.16186 35.05689
# Shear Modulus (GPa) = 20.90584 33.09426 27.00005
#
# Velocity S-wave (km/s) = 3.20172 4.02834 3.63858
# Velocity P-wave (km/s) = 5.18495 6.54223 5.90273
#
# Compressibility (1/GPa) = 0.03710311
#
# Stress axis : x y z
#
# Youngs Moduli (GPa) = 23.21370 26.89113 116.34204
#
# Poissons Ratio (x) = 0.49396 1.25332
# Poissons Ratio (y) = 0.42641 -0.37960
# Poissons Ratio (z) = 0.25008 -0.08774
#
# Static dielectric constant tensor:
#      x y z
#    x 1.745290 0.000000 0.000000 
#    y 0.000000 1.733360 0.000000 
#    z 0.000000 0.000000 1.712160 
# 
# From -- ./inp_files/14308.got.cif
#   From: 2010.05.17/outbox.cif.g08.bks.cpg/sg58_8_cif.got.tgz:14308.got - 2010.06.03 14:20:14.
