data_PCOD9443688
_publ_section_title
;
Structure prediction by ZEFSAII (Michael W. Deem and Ramdas Pophale) SiO2 
 PCOD9443688
Probable space group: P N N M
;
_chemical_formula_sum "Si O2"
_cell_formula_units_Z 48
_cell_length_a 9.590153
_cell_length_b 28.397480
_cell_length_c 8.784796
_cell_angle_alpha 90.000000
_cell_angle_beta 90.000000
_cell_angle_gamma 90.000000
_cell_volume 2392.417767
_symmetry_space_group_name_H-M "P N N M"
_symmetry_group_IT_number 58
_symmetry_cell_setting 'orthorhombic'
loop_
_space_group_symop_operation_xyz
x,y,z
-x,-y,z
1/2+x,1/2-y,1/2-z
1/2-x,1/2+y,1/2-z
-x,-y,-z
x,y,-z
1/2-x,1/2+y,1/2+z
1/2+x,1/2-y,1/2+z
loop_
_atom_site_type_symbol
_atom_site_label
_atom_site_fract_x
_atom_site_fract_y
_atom_site_fract_z
Si Si1 0.341820 0.016131 0.321784
Si Si2 0.504710 0.196550 0.682202
Si Si3 0.173283 0.618436 0.681277
Si Si4 0.678616 0.720516 0.817933
Si Si5 0.015546 0.140576 0.180599
Si Si6 0.904789 0.046493 0.322410
O O1 0.306487 0.025167 0.500000
O O2 0.318820 0.064260 0.232192
O O3 0.500000 0.000000 0.311371
O O4 0.245020 0.972852 0.272024
O O5 0.502703 0.196953 0.500000
O O6 0.453868 0.145824 0.740865
O O7 0.393007 0.233843 0.745250
O O8 0.661558 0.210752 0.731372
O O9 0.159264 0.621333 0.500000
O O10 0.321186 0.642495 0.723936
O O11 0.580815 0.677189 0.768877
O O12 0.679236 0.725817 0.000000
O O13 0.963229 0.088371 0.221757
O O14 0.005106 0.149415 0.000000
O O15 0.899697 0.061952 0.500000
O O16 0.000000 0.000000 0.314713
#
# Coordination Sequence:
#
# PCOD9443688 Si02
#       6
#     8   8   8   8   8   8
#     4  10  22  39  60  87 123 164 208 257 307 361
#     4  11  25  44  67  94 125 159 201 251 305 364
#     4  11  24  41  62  91 126 165 208 253 305 364
#     4  11  25  44  67  95 125 159 201 250 305 366
#     4  11  24  40  62  92 127 164 206 254 305 362
#     4  10  20  37  61  88 120 163 210 253 303 361
#
# _framework density 20.063386000000001
#
# number of rings (size 3 to 8) (size 9 to 14) (size 15 to 20)
#    0.000    1.333    1.667    3.000    2.333   10.000 
#    0.000    0.000    0.000    0.000    0.000    0.000 
#    0.000    0.000    0.000    0.000    0.000    0.000 
#
# Total GULP energy -268394.433194 kJ/mol
# GULP energy per Si atom -5591.550692 kJ/mol
# Density = 2.001772 g / cm^3
# Si number density = 20.063386 Si / 1000 Ang^3
#
#
#
# Elastic Constant Matrix: (Units=GPa)
#
#
# Indices 1 2 3 4 5 6 
#
# 1 98.3352 10.8218 32.0532 0.0000 0.0000 0.0000
# 2 10.8218 50.7620 11.0145 0.0000 0.0000 0.0000
# 3 32.0532 11.0145 39.8811 0.0000 0.0000 0.0000
# 4 0.0000 0.0000 0.0000 5.1754 0.0000 0.0000
# 5 0.0000 0.0000 0.0000 0.0000 36.9452 0.0000
# 6 0.0000 0.0000 0.0000 0.0000 0.0000 36.5231
#
#
#
# Elastic Compliance Matrix: (Units=1/GPa)
#
#
# Indices 1 2 3 4 5 6 
#
# 1 0.013795 -0.000569 -0.010930 0.000000 0.000000 0.000000
# 2 -0.000569 0.020979 -0.005337 0.000000 0.000000 0.000000
# 3 -0.010930 -0.005337 0.035333 0.000000 0.000000 0.000000
# 4 0.000000 0.000000 0.000000 0.193222 0.000000 0.000000
# 5 0.000000 0.000000 0.000000 0.000000 0.027067 0.000000
# 6 0.000000 0.000000 0.000000 0.000000 0.000000 0.027380
#
#
# Mechanical properties :
#
#
# Convention : Reuss Voigt Hill
#
# Bulk Modulus (GPa) = 27.44583 32.97302 30.20942
# Shear Modulus (GPa) = 13.75170 24.73466 19.24318
#
# Velocity S-wave (km/s) = 2.62088 3.51497 3.10032
# Velocity P-wave (km/s) = 4.78204 5.73964 5.28258
#
# Compressibility (1/GPa) = 0.03643541
#
# Stress axis : x y z
#
# Youngs Moduli (GPa) = 72.49221 47.66652 28.30231
#
# Poissons Ratio (x) = 0.02713 0.30934
# Poissons Ratio (y) = 0.04127 0.15104
# Poissons Ratio (z) = 0.79232 0.25437
#
# Static dielectric constant tensor:
#      x y z
#    x 1.738830 0.000000 0.000000 
#    y 0.000000 1.693550 0.000000 
#    z 0.000000 0.000000 1.680220 
# 
# From -- ./inp_files/2852.got.cif
#   From: 2010.05.17/outbox.cif.g08.bks.cpg/sg58_2_cif.got.tgz:2852.got - 2010.06.03 14:20:14.
