data_PCOD9443283
_publ_section_title
;
Structure prediction by ZEFSAII (Michael W. Deem and Ramdas Pophale) SiO2 
 PCOD9443283
Probable space group: P N N M
;
_chemical_formula_sum "Si O2"
_cell_formula_units_Z 64
_cell_length_a 19.719936
_cell_length_b 16.860578
_cell_length_c 7.434692
_cell_angle_alpha 90.000000
_cell_angle_beta 90.000000
_cell_angle_gamma 90.000000
_cell_volume 2471.957168
_symmetry_space_group_name_H-M "P N N M"
_symmetry_group_IT_number 58
_symmetry_cell_setting 'orthorhombic'
loop_
_space_group_symop_operation_xyz
x,y,z
-x,-y,z
1/2+x,1/2-y,1/2-z
1/2-x,1/2+y,1/2-z
-x,-y,-z
x,y,-z
1/2-x,1/2+y,1/2+z
1/2+x,1/2-y,1/2+z
loop_
_atom_site_type_symbol
_atom_site_label
_atom_site_fract_x
_atom_site_fract_y
_atom_site_fract_z
Si Si1 0.047079 0.824433 0.719182
Si Si2 0.703140 0.681242 0.781348
Si Si3 0.831344 0.424620 0.699759
Si Si4 0.800058 0.008225 0.290027
Si Si5 0.394373 0.912012 0.706479
Si Si6 0.577945 0.414082 0.792095
Si Si7 0.664251 0.258578 0.718219
Si Si8 0.965503 0.350912 0.281886
O O1 0.047975 0.829426 0.500000
O O2 0.125023 0.819800 0.776460
O O3 0.016904 0.738873 0.768471
O O4 0.995612 0.891951 0.784504
O O5 0.726763 0.592895 0.724112
O O6 0.757080 0.747428 0.723615
O O7 0.703420 0.686720 0.000000
O O8 0.819557 0.392683 0.500000
O O9 0.757663 0.442088 0.776247
O O10 0.866767 0.511198 0.694755
O O11 0.890057 0.371431 0.784900
O O12 0.813288 0.020867 0.500000
O O13 0.871051 0.978555 0.209856
O O14 0.370747 0.920588 0.500000
O O15 0.369116 0.825941 0.770679
O O16 0.475553 0.907504 0.714423
O O17 0.622510 0.332936 0.790373
O O18 0.566306 0.436656 0.000000
O O19 0.661574 0.264519 0.500000
O O20 0.964034 0.356602 0.500000
#
# Coordination Sequence:
#
# PCOD9443283 Si02
#       8
#     8   8   8   8   8   8   8   8
#     4   9  18  34  57  83 109 142 186 235 279 325
#     4   9  18  35  58  81 110 145 186 233 277 329
#     4  11  23  36  55  83 115 152 190 232 280 334
#     4  10  21  38  57  83 116 147 186 234 285 337
#     4  11  21  36  58  83 113 152 187 229 283 339
#     4  10  21  36  58  85 113 145 182 235 287 328
#     4  10  20  35  58  82 109 148 186 223 277 337
#     4  10  21  36  54  81 115 147 186 232 277 334
#
# _framework density 25.890415000000001
#
# number of rings (size 3 to 8) (size 9 to 14) (size 15 to 20)
#    0.000    2.000    2.500    1.125    1.750    4.000 
#    0.000    2.500    0.000    2.250    0.000    1.750 
#    0.000    0.000    0.000    0.000    0.000    0.000 
#
# Total GULP energy -357871.616656 kJ/mol
# GULP energy per Si atom -5591.744010 kJ/mol
# Density = 2.583149 g / cm^3
# Si number density = 25.890415 Si / 1000 Ang^3
#
#
#
# Elastic Constant Matrix: (Units=GPa)
#
#
# Indices 1 2 3 4 5 6 
#
# 1 150.0076 14.5741 -9.9701 0.0000 0.0000 0.0000
# 2 14.5741 57.4999 -4.1988 0.0000 0.0000 0.0000
# 3 -9.9701 -4.1988 80.1876 0.0000 0.0000 0.0000
# 4 0.0000 0.0000 0.0000 5.3833 0.0000 0.0000
# 5 0.0000 0.0000 0.0000 0.0000 4.1765 0.0000
# 6 0.0000 0.0000 0.0000 0.0000 0.0000 53.3861
#
#
#
# Elastic Compliance Matrix: (Units=1/GPa)
#
#
# Indices 1 2 3 4 5 6 
#
# 1 0.006881 -0.001688 0.000767 0.000000 0.000000 0.000000
# 2 -0.001688 0.017872 0.000726 0.000000 0.000000 0.000000
# 3 0.000767 0.000726 0.012604 0.000000 0.000000 0.000000
# 4 0.000000 0.000000 0.000000 0.185759 0.000000 0.000000
# 5 0.000000 0.000000 0.000000 0.000000 0.239434 0.000000
# 6 0.000000 0.000000 0.000000 0.000000 0.000000 0.018731
#
#
# Mechanical properties :
#
#
# Convention : Reuss Voigt Hill
#
# Bulk Modulus (GPa) = 27.05061 32.05613 29.55337
# Shear Modulus (GPa) = 10.12156 31.74185 20.93171
#
# Velocity S-wave (km/s) = 1.97936 3.50524 2.84645
# Velocity P-wave (km/s) = 3.96165 5.36569 4.71621
#
# Compressibility (1/GPa) = 0.03696774
#
# Stress axis : x y z
#
# Youngs Moduli (GPa) = 145.32071 55.95270 79.33888
#
# Poissons Ratio (x) = 0.09446 -0.06087
# Poissons Ratio (y) = 0.24532 -0.05760
# Poissons Ratio (z) = -0.11149 -0.04062
#
# Static dielectric constant tensor:
#      x y z
#    x 2.054570 0.000000 0.000000 
#    y 0.000000 2.027420 0.000000 
#    z 0.000000 0.000000 2.019440 
# 
# From -- ./inp_files/8376.got.cif
#   From: 2010.05.17/outbox.cif.g08.bks.cpg/sg58_5_cif.got.tgz:8376.got - 2010.06.03 14:20:14.
