data_PCOD9443989
_publ_section_title
;
Structure prediction by ZEFSAII (Michael W. Deem and Ramdas Pophale) SiO2 
 PCOD9443989
Probable space group: P N N M
;
_chemical_formula_sum "Si O2"
_cell_formula_units_Z 40
_cell_length_a 9.608779
_cell_length_b 8.821939
_cell_length_c 23.782771
_cell_angle_alpha 90.000000
_cell_angle_beta 90.000000
_cell_angle_gamma 90.000000
_cell_volume 2016.019411
_symmetry_space_group_name_H-M "P N N M"
_symmetry_group_IT_number 58
_symmetry_cell_setting 'orthorhombic'
loop_
_space_group_symop_operation_xyz
x,y,z
-x,-y,z
1/2+x,1/2-y,1/2-z
1/2-x,1/2+y,1/2-z
-x,-y,-z
x,y,-z
1/2-x,1/2+y,1/2+z
1/2+x,1/2-y,1/2+z
loop_
_atom_site_type_symbol
_atom_site_label
_atom_site_fract_x
_atom_site_fract_y
_atom_site_fract_z
Si Si1 0.151573 0.069730 0.000000
Si Si2 0.894863 0.385812 0.722677
Si Si3 0.644940 0.556552 0.902997
Si Si4 0.356128 0.076816 0.098499
Si Si5 0.348757 0.935191 0.500000
Si Si6 0.392260 0.613071 0.215629
O O1 0.236682 0.025349 0.056043
O O2 0.146213 0.252538 0.000000
O O3 0.000000 0.000000 0.000000
O O4 0.842745 0.462095 0.664451
O O5 0.752852 0.344515 0.754686
O O6 0.000000 0.500000 0.754679
O O7 0.003009 0.252832 0.706717
O O8 0.500000 0.500000 0.928333
O O9 0.641505 0.739467 0.901664
O O10 0.768234 0.512733 0.944248
O O11 0.649600 0.475171 0.841973
O O12 0.500000 0.000000 0.079495
O O13 0.500000 0.000000 0.500000
O O14 0.500000 0.500000 0.247883
#
# Coordination Sequence:
#
# PCOD9443989 Si02
#       6
#     4   8   8   8   4   8
#     4  10  23  42  62  90 132 160 201 256 308 362
#     4  11  23  39  63  93 123 163 214 253 311 376
#     4  10  20  40  63  89 122 160 204 251 302 368
#     4  10  21  40  65  91 119 162 209 246 300 375
#     4  10  23  40  60  96 126 160 203 252 314 368
#     4  11  22  42  62  91 125 164 206 261 314 367
#
# _framework density 19.841079000000001
#
# number of rings (size 3 to 8) (size 9 to 14) (size 15 to 20)
#    0.000    1.600    4.000    1.800    0.000    3.200 
#    3.600    0.000    0.000    0.000    0.000    0.000 
#    0.000    0.000    0.000    0.000    0.000    0.000 
#
# Total GULP energy -222785.926776 kJ/mol
# GULP energy per Si atom -5569.648169 kJ/mol
# Density = 1.979592 g / cm^3
# Si number density = 19.841079 Si / 1000 Ang^3
#
#
#
# Elastic Constant Matrix: (Units=GPa)
#
#
# Indices 1 2 3 4 5 6 
#
# 1 201.0943 33.2324 91.2183 0.0000 0.0000 0.0000
# 2 33.2324 43.3474 25.7922 0.0000 0.0000 0.0000
# 3 91.2183 25.7922 89.9780 0.0000 0.0000 0.0000
# 4 0.0000 0.0000 0.0000 18.4890 0.0000 0.0000
# 5 0.0000 0.0000 0.0000 0.0000 20.1979 0.0000
# 6 0.0000 0.0000 0.0000 0.0000 0.0000 38.8034
#
#
#
# Elastic Compliance Matrix: (Units=1/GPa)
#
#
# Indices 1 2 3 4 5 6 
#
# 1 0.009326 -0.001838 -0.008928 0.000000 0.000000 0.000000
# 2 -0.001838 0.028175 -0.006213 0.000000 0.000000 0.000000
# 3 -0.008928 -0.006213 0.021946 0.000000 0.000000 0.000000
# 4 0.000000 0.000000 0.000000 0.054086 0.000000 0.000000
# 5 0.000000 0.000000 0.000000 0.000000 0.049510 0.000000
# 6 0.000000 0.000000 0.000000 0.000000 0.000000 0.025771
#
#
# Mechanical properties :
#
#
# Convention : Reuss Voigt Hill
#
# Bulk Modulus (GPa) = 39.23213 70.54507 54.88860
# Shear Modulus (GPa) = 21.61971 27.77650 24.69811
#
# Velocity S-wave (km/s) = 3.30456 3.74565 3.53200
# Velocity P-wave (km/s) = 5.86312 7.37148 6.66014
#
# Compressibility (1/GPa) = 0.02548931
#
# Stress axis : x y z
#
# Youngs Moduli (GPa) = 107.22248 35.49192 45.56609
#
# Poissons Ratio (x) = 0.06523 0.40682
# Poissons Ratio (y) = 0.19705 0.28312
# Poissons Ratio (z) = 0.95730 0.22053
#
# Static dielectric constant tensor:
#      x y z
#    x 1.686990 0.000000 0.000000 
#    y 0.000000 2.189670 0.000000 
#    z 0.000000 0.000000 1.718130 
# 
# From -- ./inp_files/33193.got.cif
#   From: 2010.05.17/outbox.cif.g08.bks.cpg/sg58_17_cif.got.tgz:33193.got - 2010.06.03 14:20:14.
