data_PCOD9443647
_publ_section_title
;
Structure prediction by ZEFSAII (Michael W. Deem and Ramdas Pophale) SiO2 
 PCOD9443647
Probable space group: P N N M
;
_chemical_formula_sum "Si O2"
_cell_formula_units_Z 48
_cell_length_a 8.331986
_cell_length_b 29.362293
_cell_length_c 7.710174
_cell_angle_alpha 90.000000
_cell_angle_beta 90.000000
_cell_angle_gamma 90.000000
_cell_volume 1886.264880
_symmetry_space_group_name_H-M "P N N M"
_symmetry_group_IT_number 58
_symmetry_cell_setting 'orthorhombic'
loop_
_space_group_symop_operation_xyz
x,y,z
-x,-y,z
1/2+x,1/2-y,1/2-z
1/2-x,1/2+y,1/2-z
-x,-y,-z
x,y,-z
1/2-x,1/2+y,1/2+z
1/2+x,1/2-y,1/2+z
loop_
_atom_site_type_symbol
_atom_site_label
_atom_site_fract_x
_atom_site_fract_y
_atom_site_fract_z
Si Si1 0.280821 0.818319 0.295616
Si Si2 0.759786 0.348447 0.298777
Si Si3 0.049770 0.231061 0.789554
Si Si4 0.253327 0.986336 0.201420
Si Si5 0.442991 0.569646 0.799814
Si Si6 0.444916 0.904125 0.202167
O O1 0.299702 0.825505 0.500000
O O2 0.416419 0.782552 0.231696
O O3 0.301106 0.867368 0.210308
O O4 0.114065 0.792450 0.266413
O O5 0.799492 0.340139 0.500000
O O6 0.694891 0.301298 0.224065
O O7 0.613097 0.384066 0.287451
O O8 0.907812 0.375970 0.217109
O O9 0.054079 0.231013 0.000000
O O10 0.390444 0.952855 0.274084
O O11 0.092691 0.955346 0.212578
O O12 0.203612 0.033296 0.290047
O O13 0.286359 0.996458 0.000000
O O14 0.483464 0.578244 0.000000
O O15 0.483232 0.912642 0.000000
#
# Coordination Sequence:
#
# PCOD9443647 Si02
#       6
#     8   8   8   8   8   8
#     4  11  23  38  60  88 116 147 186 234 282 328
#     4  10  21  39  59  80 111 151 192 229 272 334
#     4  10  22  39  59  83 113 150 187 225 274 332
#     4  10  20  37  60  83 109 148 193 231 276 339
#     4  11  22  36  56  84 115 146 184 235 289 333
#     4  10  22  39  60  84 113 150 190 232 278 334
#
# _framework density 25.447115
#
# number of rings (size 3 to 8) (size 9 to 14) (size 15 to 20)
#    0.000    1.667    0.000    5.500    0.000   10.000 
#    0.000    3.333    0.000    0.000    0.000    0.000 
#    0.000    0.000    0.000    0.000    0.000    0.000 
#
# Total GULP energy -268660.489149 kJ/mol
# GULP energy per Si atom -5597.093524 kJ/mol
# Density = 2.538920 g / cm^3
# Si number density = 25.447115 Si / 1000 Ang^3
#
#
#
# Elastic Constant Matrix: (Units=GPa)
#
#
# Indices 1 2 3 4 5 6 
#
# 1 74.1935 14.4632 -1.8723 0.0000 0.0000 0.0000
# 2 14.4632 126.5812 -2.2047 0.0000 0.0000 0.0000
# 3 -1.8723 -2.2047 75.5447 0.0000 0.0000 0.0000
# 4 0.0000 0.0000 0.0000 -4.2122 0.0000 0.0000
# 5 0.0000 0.0000 0.0000 0.0000 7.1730 0.0000
# 6 0.0000 0.0000 0.0000 0.0000 0.0000 48.3123
#
#
#
# Elastic Compliance Matrix: (Units=1/GPa)
#
#
# Indices 1 2 3 4 5 6 
#
# 1 0.013792 -0.001571 0.000296 0.000000 0.000000 0.000000
# 2 -0.001571 0.008083 0.000197 0.000000 0.000000 0.000000
# 3 0.000296 0.000197 0.013250 0.000000 0.000000 0.000000
# 4 0.000000 0.000000 0.000000 -0.237406 0.000000 0.000000
# 5 0.000000 0.000000 0.000000 0.000000 0.139412 0.000000
# 6 0.000000 0.000000 0.000000 0.000000 0.000000 0.020699
#
#
# Mechanical properties :
#
#
# Convention : Reuss Voigt Hill
#
# Bulk Modulus (GPa) = 30.33094 33.01020 31.67057
# Shear Modulus (GPa) = -172.26669 27.98350 -72.14159
#
# Velocity S-wave (km/s) = -8.23668 3.31973 -5.33021
# Velocity P-wave (km/s) = 8.86071 5.26254 5.04072
#
# Compressibility (1/GPa) = 0.03296964
#
# Stress axis : x y z
#
# Youngs Moduli (GPa) = 72.50614 123.71698 75.47010
#
# Poissons Ratio (x) = 0.19432 -0.02234
# Poissons Ratio (y) = 0.11389 -0.01486
# Poissons Ratio (z) = -0.02146 -0.02437
#
# Static dielectric constant tensor:
#      x y z
#    x 2.107500 0.000000 0.000000 
#    y 0.000000 1.960890 0.000000 
#    z 0.000000 0.000000 1.897250 
# 
# From -- ./inp_files/2864.got.cif
#   From: 2010.05.17/outbox.cif.g08.bks.cpg/sg58_2_cif.got.tgz:2864.got - 2010.06.03 14:20:14.
