data_PCOD9443858
_publ_section_title
;
Structure prediction by ZEFSAII (Michael W. Deem and Ramdas Pophale) SiO2 
 PCOD9443858
Probable space group: P N N M
;
_chemical_formula_sum "Si O2"
_cell_formula_units_Z 64
_cell_length_a 33.287615
_cell_length_b 10.956823
_cell_length_c 7.710254
_cell_angle_alpha 90.000000
_cell_angle_beta 90.000000
_cell_angle_gamma 90.000000
_cell_volume 2812.133999
_symmetry_space_group_name_H-M "P N N M"
_symmetry_group_IT_number 58
_symmetry_cell_setting 'orthorhombic'
loop_
_space_group_symop_operation_xyz
x,y,z
-x,-y,z
1/2+x,1/2-y,1/2-z
1/2-x,1/2+y,1/2-z
-x,-y,-z
x,y,-z
1/2-x,1/2+y,1/2+z
1/2+x,1/2-y,1/2+z
loop_
_atom_site_type_symbol
_atom_site_label
_atom_site_fract_x
_atom_site_fract_y
_atom_site_fract_z
Si Si1 0.667411 0.712724 0.204022
Si Si2 0.616359 0.357004 0.297711
Si Si3 0.412201 0.162684 0.701793
Si Si4 0.698104 0.460896 0.696419
Si Si5 0.028602 0.107987 0.704462
Si Si6 0.500326 0.863595 0.803445
Si Si7 0.866552 0.586637 0.290859
Si Si8 0.287559 0.035282 0.790184
O O1 0.621130 0.739732 0.243568
O O2 0.684917 0.600945 0.307768
O O3 0.691412 0.835907 0.245836
O O4 0.672275 0.688355 0.000000
O O5 0.617013 0.390700 0.500000
O O6 0.659540 0.395674 0.219760
O O7 0.576060 0.415746 0.221991
O O8 0.615265 0.211478 0.276846
O O9 0.421618 0.176849 0.500000
O O10 0.452989 0.171750 0.806700
O O11 0.392245 0.030118 0.732899
O O12 0.702381 0.410501 0.500000
O O13 0.742327 0.460468 0.778720
O O14 0.018831 0.118146 0.500000
O O15 0.020647 0.244592 0.778350
O O16 0.000000 0.000000 0.775055
O O17 0.500000 0.000000 0.722492
O O18 0.483583 0.879031 0.000000
O O19 0.867059 0.588320 0.500000
O O20 0.820232 0.565070 0.231501
O O21 0.284879 0.020565 0.000000
#
# Coordination Sequence:
#
# PCOD9443858 Si02
#       8
#     8   8   8   8   8   8   8   8
#     4  10  21  38  60  85 116 157 203 245 288 350
#     4  11  24  39  60  89 124 161 198 248 309 364
#     4  11  22  37  61  91 123 156 193 244 304 356
#     4  10  22  39  58  85 122 158 197 246 300 355
#     4  10  23  42  63  88 120 161 207 254 306 372
#     4  10  21  38  62  90 119 156 201 253 305 362
#     4  10  20  38  63  89 123 163 205 248 291 354
#     4   8  18  37  59  84 117 156 196 245 297 345
#
# _framework density 22.758517999999999
#
# number of rings (size 3 to 8) (size 9 to 14) (size 15 to 20)
#    0.000    2.000    0.000    3.750    3.500    3.000 
#    0.000    3.125    0.000    0.000    0.000    0.000 
#    0.000    0.000    0.000    0.000    0.000    0.000 
#
# Total GULP energy -357421.034728 kJ/mol
# GULP energy per Si atom -5584.703668 kJ/mol
# Density = 2.270672 g / cm^3
# Si number density = 22.758518 Si / 1000 Ang^3
#
#
#
# Elastic Constant Matrix: (Units=GPa)
#
#
# Indices 1 2 3 4 5 6 
#
# 1 141.5156 14.8594 2.1909 0.0000 0.0000 0.0000
# 2 14.8594 47.8151 13.1962 0.0000 0.0000 0.0000
# 3 2.1909 13.1962 48.3224 0.0000 0.0000 0.0000
# 4 0.0000 0.0000 0.0000 7.0073 0.0000 0.0000
# 5 0.0000 0.0000 0.0000 0.0000 20.6037 0.0000
# 6 0.0000 0.0000 0.0000 0.0000 0.0000 22.3172
#
#
#
# Elastic Compliance Matrix: (Units=1/GPa)
#
#
# Indices 1 2 3 4 5 6 
#
# 1 0.007309 -0.002358 0.000312 0.000000 0.000000 0.000000
# 2 -0.002358 0.023379 -0.006278 0.000000 0.000000 0.000000
# 3 0.000312 -0.006278 0.022395 0.000000 0.000000 0.000000
# 4 0.000000 0.000000 0.000000 0.142707 0.000000 0.000000
# 5 0.000000 0.000000 0.000000 0.000000 0.048535 0.000000
# 6 0.000000 0.000000 0.000000 0.000000 0.000000 0.044809
#
#
# Mechanical properties :
#
#
# Convention : Reuss Voigt Hill
#
# Bulk Modulus (GPa) = 27.44462 33.12735 30.28598
# Shear Modulus (GPa) = 15.72698 23.81275 19.76986
#
# Velocity S-wave (km/s) = 2.63161 3.23820 2.95053
# Velocity P-wave (km/s) = 4.61726 5.34499 4.99439
#
# Compressibility (1/GPa) = 0.03643701
#
# Stress axis : x y z
#
# Youngs Moduli (GPa) = 136.81611 42.77325 44.65379
#
# Poissons Ratio (x) = 0.10084 -0.01395
# Poissons Ratio (y) = 0.32257 0.28032
# Poissons Ratio (z) = -0.04275 0.26852
#
# Static dielectric constant tensor:
#      x y z
#    x 1.860100 0.000000 0.000000 
#    y 0.000000 1.844900 0.000000 
#    z 0.000000 0.000000 1.873830 
# 
# From -- ./inp_files/11089.got.cif
#   From: 2010.05.17/outbox.cif.g08.bks.cpg/sg58_6_cif.got.tgz:11089.got - 2010.06.03 14:20:14.
