data_PCOD9443025
_publ_section_title
;
Structure prediction by ZEFSAII (Michael W. Deem and Ramdas Pophale) SiO2 
 PCOD9443025
Probable space group: P N N M
;
_chemical_formula_sum "Si O2"
_cell_formula_units_Z 64
_cell_length_a 14.723814
_cell_length_b 25.270826
_cell_length_c 7.566973
_cell_angle_alpha 90.000000
_cell_angle_beta 90.000000
_cell_angle_gamma 90.000000
_cell_volume 2815.541573
_symmetry_space_group_name_H-M "P N N M"
_symmetry_group_IT_number 58
_symmetry_cell_setting 'orthorhombic'
loop_
_space_group_symop_operation_xyz
x,y,z
-x,-y,z
1/2+x,1/2-y,1/2-z
1/2-x,1/2+y,1/2-z
-x,-y,-z
x,y,-z
1/2-x,1/2+y,1/2+z
1/2+x,1/2-y,1/2+z
loop_
_atom_site_type_symbol
_atom_site_label
_atom_site_fract_x
_atom_site_fract_y
_atom_site_fract_z
Si Si1 0.532359 0.351555 0.704460
Si Si2 0.562804 0.045181 0.799081
Si Si3 0.238590 0.169376 0.715572
Si Si4 0.253413 0.905196 0.207349
Si Si5 0.066025 0.955637 0.300224
Si Si6 0.031559 0.264757 0.211825
Si Si7 0.576060 0.867836 0.710675
Si Si8 0.264746 0.787828 0.201490
O O1 0.503931 0.356355 0.500000
O O2 0.641314 0.349465 0.717832
O O3 0.490178 0.401198 0.800570
O O4 0.504127 0.293642 0.772831
O O5 0.657950 0.064735 0.717957
O O6 0.495789 0.094926 0.802398
O O7 0.500000 0.000000 0.713181
O O8 0.583720 0.026807 0.000000
O O9 0.234834 0.171430 0.500000
O O10 0.319616 0.130286 0.766674
O O11 0.257842 0.229788 0.778124
O O12 0.163324 0.940344 0.220584
O O13 0.239661 0.845252 0.280613
O O14 0.274368 0.896365 0.000000
O O15 0.085357 0.973665 0.500000
O O16 0.000000 0.000000 0.216877
O O17 0.955672 0.307953 0.239893
O O18 0.125227 0.284656 0.296512
O O19 0.048739 0.260883 0.000000
O O20 0.570494 0.878259 0.500000
O O21 0.228741 0.787170 0.000000
#
# Coordination Sequence:
#
# PCOD9443025 Si02
#       8
#     8   8   8   8   8   8   8   8
#     4  10  21  38  61  87 117 153 196 246 297 352
#     4  10  22  40  60  86 120 155 195 244 290 340
#     4   9  19  34  55  85 125 164 196 236 291 351
#     4  10  21  38  62  89 116 153 197 243 297 352
#     4  11  26  45  63  85 115 153 200 253 302 354
#     4   9  18  32  54  84 120 153 188 237 288 343
#     4  10  20  34  55  84 119 158 194 234 286 346
#     4   9  17  32  56  83 116 156 195 235 286 346
#
# _framework density 22.730972999999999
#
# number of rings (size 3 to 8) (size 9 to 14) (size 15 to 20)
#    0.000    2.250    1.250    0.750    1.750    4.250 
#    0.000    2.500    0.000    0.000    0.000    0.000 
#    0.000    0.000    0.000    0.000    0.000    0.000 
#
# Total GULP energy -357203.862877 kJ/mol
# GULP energy per Si atom -5581.310357 kJ/mol
# Density = 2.267924 g / cm^3
# Si number density = 22.730973 Si / 1000 Ang^3
#
#
#
# Elastic Constant Matrix: (Units=GPa)
#
#
# Indices 1 2 3 4 5 6 
#
# 1 108.0178 60.9912 0.8357 0.0000 0.0000 0.0000
# 2 60.9912 92.2893 3.0601 0.0000 0.0000 0.0000
# 3 0.8357 3.0601 48.9528 0.0000 0.0000 0.0000
# 4 0.0000 0.0000 0.0000 8.6386 0.0000 0.0000
# 5 0.0000 0.0000 0.0000 0.0000 -7.6063 0.0000
# 6 0.0000 0.0000 0.0000 0.0000 0.0000 25.1578
#
#
#
# Elastic Compliance Matrix: (Units=1/GPa)
#
#
# Indices 1 2 3 4 5 6 
#
# 1 0.014775 -0.009776 0.000359 0.000000 0.000000 0.000000
# 2 -0.009776 0.017327 -0.000916 0.000000 0.000000 0.000000
# 3 0.000359 -0.000916 0.020479 0.000000 0.000000 0.000000
# 4 0.000000 0.000000 0.000000 0.115760 0.000000 0.000000
# 5 0.000000 0.000000 0.000000 0.000000 -0.131470 0.000000
# 6 0.000000 0.000000 0.000000 0.000000 0.000000 0.039749
#
#
# Mechanical properties :
#
#
# Convention : Reuss Voigt Hill
#
# Bulk Modulus (GPa) = 31.33463 42.11486 36.72474
# Shear Modulus (GPa) = 46.32886 17.52956 31.92921
#
# Velocity S-wave (km/s) = 4.51947 2.78002 3.75194
# Velocity P-wave (km/s) = 6.40696 5.37330 5.91276
#
# Compressibility (1/GPa) = 0.03191357
#
# Stress axis : x y z
#
# Youngs Moduli (GPa) = 67.68183 57.71443 48.83050
#
# Poissons Ratio (x) = 0.56423 -0.01752
# Poissons Ratio (y) = 0.66167 0.04474
# Poissons Ratio (z) = -0.02429 0.05288
#
# Static dielectric constant tensor:
#      x y z
#    x 1.830710 0.000000 0.000000 
#    y 0.000000 1.854890 0.000000 
#    z 0.000000 0.000000 1.898660 
# 
# From -- ./inp_files/6969.got.cif
#   From: 2010.05.17/outbox.cif.g08.bks.cpg/sg58_4_cif.got.tgz:6969.got - 2010.06.03 14:20:14.
