data_PCOD9443079
_publ_section_title
;
Structure prediction by ZEFSAII (Michael W. Deem and Ramdas Pophale) SiO2 
 PCOD9443079
Probable space group: P N N M
;
_chemical_formula_sum "Si O2"
_cell_formula_units_Z 40
_cell_length_a 8.759223
_cell_length_b 16.702840
_cell_length_c 12.763103
_cell_angle_alpha 90.000000
_cell_angle_beta 90.000000
_cell_angle_gamma 90.000000
_cell_volume 1867.291749
_symmetry_space_group_name_H-M "P N N M"
_symmetry_group_IT_number 58
_symmetry_cell_setting 'orthorhombic'
loop_
_space_group_symop_operation_xyz
x,y,z
-x,-y,z
1/2+x,1/2-y,1/2-z
1/2-x,1/2+y,1/2-z
-x,-y,-z
x,y,-z
1/2-x,1/2+y,1/2+z
1/2+x,1/2-y,1/2+z
loop_
_atom_site_type_symbol
_atom_site_label
_atom_site_fract_x
_atom_site_fract_y
_atom_site_fract_z
Si Si1 0.668762 0.245839 0.825920
Si Si2 0.601396 0.070770 0.179671
Si Si3 0.900986 0.381508 0.886092
Si Si4 0.170234 0.796335 0.616426
Si Si5 0.324624 0.478429 0.837034
O O1 0.647631 0.155492 0.869833
O O2 0.803533 0.300199 0.872878
O O3 0.716025 0.239224 0.703340
O O4 0.503692 0.284492 0.844411
O O5 0.504441 0.098086 0.284668
O O6 0.757110 0.031020 0.220217
O O7 0.500000 0.000000 0.129330
O O8 0.777826 0.452956 0.887089
O O9 0.979711 0.380090 0.000000
O O10 0.187632 0.762061 0.500000
O O11 0.194261 0.891216 0.614218
O O12 0.500000 0.500000 0.840615
#
# Coordination Sequence:
#
# PCOD9443079 Si02
#       5
#     8   8   8   8   8
#     4  11  21  38  57  87 117 159 203 242 304 355
#     4   9  21  37  55  81 119 159 198 241 298 370
#     4  11  21  35  56  85 120 153 191 244 310 377
#     4  11  23  39  59  88 124 156 199 250 301 368
#     4  10  20  34  57  90 120 150 185 244 321 375
#
# _framework density 21.421399000000001
#
# number of rings (size 3 to 8) (size 9 to 14) (size 15 to 20)
#    0.000    1.600    4.000    1.200    0.000    7.600 
#    0.000    0.000    0.000    2.400    0.000    2.800 
#    0.000    0.000    0.000    0.000    0.000    0.000 
#
# Total GULP energy -223208.125916 kJ/mol
# GULP energy per Si atom -5580.203148 kJ/mol
# Density = 2.137264 g / cm^3
# Si number density = 21.421399 Si / 1000 Ang^3
#
#
#
# Elastic Constant Matrix: (Units=GPa)
#
#
# Indices 1 2 3 4 5 6 
#
# 1 89.6998 14.4796 28.9990 0.0000 0.0000 0.0000
# 2 14.4796 110.0931 23.1443 0.0000 0.0000 0.0000
# 3 28.9990 23.1443 87.4687 0.0000 0.0000 0.0000
# 4 0.0000 0.0000 0.0000 -16.5496 0.0000 0.0000
# 5 0.0000 0.0000 0.0000 0.0000 17.2754 0.0000
# 6 0.0000 0.0000 0.0000 0.0000 0.0000 43.7666
#
#
#
# Elastic Compliance Matrix: (Units=1/GPa)
#
#
# Indices 1 2 3 4 5 6 
#
# 1 0.012557 -0.000822 -0.003945 0.000000 0.000000 0.000000
# 2 -0.000822 0.009672 -0.002287 0.000000 0.000000 0.000000
# 3 -0.003945 -0.002287 0.013346 0.000000 0.000000 0.000000
# 4 0.000000 0.000000 0.000000 -0.060424 0.000000 0.000000
# 5 0.000000 0.000000 0.000000 0.000000 0.057886 0.000000
# 6 0.000000 0.000000 0.000000 0.000000 0.000000 0.022848
#
#
# Mechanical properties :
#
#
# Convention : Reuss Voigt Hill
#
# Bulk Modulus (GPa) = 46.58523 46.72305 46.65414
# Shear Modulus (GPa) = 64.81062 23.60773 44.20917
#
# Velocity S-wave (km/s) = 5.50643 3.32333 4.54782
# Velocity P-wave (km/s) = 7.88809 6.04854 7.02875
#
# Compressibility (1/GPa) = 0.02146603
#
# Stress axis : x y z
#
# Youngs Moduli (GPa) = 79.63998 103.39067 74.93009
#
# Poissons Ratio (x) = 0.08499 0.29563
# Poissons Ratio (y) = 0.06547 0.17134
# Poissons Ratio (z) = 0.31421 0.23642
#
# Static dielectric constant tensor:
#      x y z
#    x 1.764540 0.000000 0.000000 
#    y 0.000000 1.809520 0.000000 
#    z 0.000000 0.000000 1.808460 
# 
# From -- ./inp_files/12679.got.cif
#   From: 2010.05.17/outbox.cif.g08.bks.cpg/sg58_7_cif.got.tgz:12679.got - 2010.06.03 14:20:14.
