data_PCOD9443744
_publ_section_title
;
Structure prediction by ZEFSAII (Michael W. Deem and Ramdas Pophale) SiO2 
 PCOD9443744
Probable space group: P N N M
;
_chemical_formula_sum "Si O2"
_cell_formula_units_Z 64
_cell_length_a 23.821766
_cell_length_b 14.227047
_cell_length_c 8.645441
_cell_angle_alpha 90.000000
_cell_angle_beta 90.000000
_cell_angle_gamma 90.000000
_cell_volume 2930.055670
_symmetry_space_group_name_H-M "P N N M"
_symmetry_group_IT_number 58
_symmetry_cell_setting 'orthorhombic'
loop_
_space_group_symop_operation_xyz
x,y,z
-x,-y,z
1/2+x,1/2-y,1/2-z
1/2-x,1/2+y,1/2-z
-x,-y,-z
x,y,-z
1/2-x,1/2+y,1/2+z
1/2+x,1/2-y,1/2+z
loop_
_atom_site_type_symbol
_atom_site_label
_atom_site_fract_x
_atom_site_fract_y
_atom_site_fract_z
Si Si1 0.178689 0.369021 0.182250
Si Si2 0.442166 0.139530 0.681514
Si Si3 0.728196 0.329105 0.311494
Si Si4 0.333457 0.060933 0.182941
Si Si5 0.858508 0.987772 0.180552
Si Si6 0.541104 0.385986 0.825404
Si Si7 0.560189 0.161635 0.175718
Si Si8 0.414466 0.341316 0.181416
O O1 0.207738 0.273153 0.239477
O O2 0.195357 0.462564 0.273200
O O3 0.112333 0.358052 0.214094
O O4 0.189440 0.380426 0.000000
O O5 0.452163 0.134140 0.500000
O O6 0.392777 0.070802 0.733636
O O7 0.500638 0.122100 0.768854
O O8 0.420351 0.244074 0.727042
O O9 0.724761 0.328858 0.500000
O O10 0.791275 0.356121 0.268394
O O11 0.687413 0.413560 0.258396
O O12 0.341951 0.066994 0.000000
O O13 0.917444 0.933426 0.205194
O O14 0.866312 0.087211 0.265466
O O15 0.848184 0.004825 0.000000
O O16 0.552252 0.274369 0.825178
O O17 0.474688 0.393651 0.797202
O O18 0.554031 0.421022 0.000000
O O19 0.573099 0.130909 0.000000
O O20 0.409063 0.318686 0.000000
#
# Coordination Sequence:
#
# PCOD9443744 Si02
#       8
#     8   8   8   8   8   8   8   8
#     4  11  22  42  68  97 127 162 208 262 315 370
#     4  11  23  41  63  92 126 164 210 264 316 374
#     4   9  22  42  64  90 126 165 208 262 317 369
#     4  11  24  45  67  91 125 167 209 256 314 377
#     4  11  20  33  55  86 120 161 209 257 308 363
#     4   9  18  32  51  80 121 162 204 248 300 365
#     4  10  20  37  63  95 128 167 207 253 316 382
#     4  10  21  36  54  83 124 167 206 250 306 371
#
# _framework density 21.842589
#
# number of rings (size 3 to 8) (size 9 to 14) (size 15 to 20)
#    0.000    1.750    1.250    4.125    0.000    5.500 
#    0.000   10.000    0.000    0.000    0.000    0.000 
#    0.000    0.000    0.000    0.000    0.000    0.000 
#
# Total GULP energy -357849.527311 kJ/mol
# GULP energy per Si atom -5591.398864 kJ/mol
# Density = 2.179287 g / cm^3
# Si number density = 21.842589 Si / 1000 Ang^3
#
#
#
# Elastic Constant Matrix: (Units=GPa)
#
#
# Indices 1 2 3 4 5 6 
#
# 1 48.0581 24.9076 -5.4023 0.0000 0.0000 0.0000
# 2 24.9076 62.2085 -9.0030 0.0000 0.0000 0.0000
# 3 -5.4023 -9.0030 36.9630 0.0000 0.0000 0.0000
# 4 0.0000 0.0000 0.0000 29.5935 0.0000 0.0000
# 5 0.0000 0.0000 0.0000 0.0000 8.5108 0.0000
# 6 0.0000 0.0000 0.0000 0.0000 0.0000 31.1982
#
#
#
# Elastic Compliance Matrix: (Units=1/GPa)
#
#
# Indices 1 2 3 4 5 6 
#
# 1 0.026319 -0.010346 0.001327 0.000000 0.000000 0.000000
# 2 -0.010346 0.020729 0.003537 0.000000 0.000000 0.000000
# 3 0.001327 0.003537 0.028109 0.000000 0.000000 0.000000
# 4 0.000000 0.000000 0.000000 0.033791 0.000000 0.000000
# 5 0.000000 0.000000 0.000000 0.000000 0.117498 0.000000
# 6 0.000000 0.000000 0.000000 0.000000 0.000000 0.032053
#
#
# Mechanical properties :
#
#
# Convention : Reuss Voigt Hill
#
# Bulk Modulus (GPa) = 15.57795 18.69271 17.13533
# Shear Modulus (GPa) = 17.19022 22.97566 20.08294
#
# Velocity S-wave (km/s) = 2.80840 3.24678 3.03552
# Velocity P-wave (km/s) = 4.20281 4.75730 4.48862
#
# Compressibility (1/GPa) = 0.06419330
#
# Stress axis : x y z
#
# Youngs Moduli (GPa) = 37.99478 48.24103 35.57526
#
# Poissons Ratio (x) = 0.49910 -0.04720
# Poissons Ratio (y) = 0.39309 -0.12582
# Poissons Ratio (z) = -0.05041 -0.17062
#
# Static dielectric constant tensor:
#      x y z
#    x 1.786520 0.000000 0.000000 
#    y 0.000000 1.846480 0.000000 
#    z 0.000000 0.000000 1.735820 
# 
# From -- ./inp_files/9981.got.cif
#   From: 2010.05.17/outbox.cif.g08.bks.cpg/sg58_5_cif.got.tgz:9981.got - 2010.06.03 14:20:14.
