data_PCOD9443193
_publ_section_title
;
Structure prediction by ZEFSAII (Michael W. Deem and Ramdas Pophale) SiO2 
 PCOD9443193
Probable space group: P N N M
;
_chemical_formula_sum "Si O2"
_cell_formula_units_Z 64
_cell_length_a 22.734824
_cell_length_b 16.175849
_cell_length_c 9.563118
_cell_angle_alpha 90.000000
_cell_angle_beta 90.000000
_cell_angle_gamma 90.000000
_cell_volume 3516.885226
_symmetry_space_group_name_H-M "P N N M"
_symmetry_group_IT_number 58
_symmetry_cell_setting 'orthorhombic'
loop_
_space_group_symop_operation_xyz
x,y,z
-x,-y,z
1/2+x,1/2-y,1/2-z
1/2-x,1/2+y,1/2-z
-x,-y,-z
x,y,-z
1/2-x,1/2+y,1/2+z
1/2+x,1/2-y,1/2+z
loop_
_atom_site_type_symbol
_atom_site_label
_atom_site_fract_x
_atom_site_fract_y
_atom_site_fract_z
Si Si1 0.791506 0.909884 0.339790
Si Si2 0.952629 0.428256 0.331466
Si Si3 0.270835 0.872504 0.661350
Si Si4 0.668292 0.564178 0.335537
Si Si5 0.529206 0.587868 0.334209
Si Si6 0.853602 0.736211 0.656661
Si Si7 0.166497 0.551631 0.161132
Si Si8 0.007929 0.250796 0.334830
O O1 0.791635 0.944311 0.500000
O O2 0.831881 0.830131 0.340936
O O3 0.722989 0.890166 0.307295
O O4 0.816795 0.975491 0.231627
O O5 0.947042 0.432097 0.500000
O O6 0.889670 0.442260 0.259543
O O7 0.975053 0.335889 0.294067
O O8 0.000000 0.500000 0.291734
O O9 0.258314 0.855219 0.500000
O O10 0.211391 0.875035 0.751587
O O11 0.316630 0.810210 0.727915
O O12 0.303015 0.961636 0.671799
O O13 0.681821 0.565757 0.500000
O O14 0.599518 0.581772 0.316971
O O15 0.500000 0.500000 0.289767
O O16 0.516097 0.597610 0.500000
O O17 0.507851 0.668620 0.251159
O O18 0.841410 0.702298 0.500000
O O19 0.922805 0.731853 0.680822
O O20 0.148344 0.565265 0.000000
O O21 0.996413 0.235984 0.500000
#
# Coordination Sequence:
#
# PCOD9443193 Si02
#       8
#     8   8   8   8   8   8   8   8
#     4   9  19  35  55  80 108 137 174 224 274 326
#     4  10  21  37  56  79 110 145 182 226 271 321
#     4  10  21  36  55  80 109 140 179 229 277 328
#     4  10  20  35  56  80 107 143 184 223 274 334
#     4  10  22  39  58  82 114 151 189 231 278 330
#     4  10  20  36  57  80 109 143 180 223 275 332
#     4   9  19  35  53  76 105 137 176 219 268 323
#     4  10  22  37  56  85 114 146 190 233 277 333
#
# _framework density 18.197921000000001
#
# number of rings (size 3 to 8) (size 9 to 14) (size 15 to 20)
#    0.000    2.250    0.000    3.000    0.000    7.500 
#    0.000    3.750    0.000    0.000    0.000    0.000 
#    0.000    0.000    0.000    0.000    0.000    0.000 
#
# Total GULP energy -356975.003954 kJ/mol
# GULP energy per Si atom -5577.734437 kJ/mol
# Density = 1.815650 g / cm^3
# Si number density = 18.197921 Si / 1000 Ang^3
#
#
#
# Elastic Constant Matrix: (Units=GPa)
#
#
# Indices 1 2 3 4 5 6 
#
# 1 48.0829 4.6125 45.5745 0.0000 0.0000 0.0000
# 2 4.6125 58.4209 37.8704 0.0000 0.0000 0.0000
# 3 45.5745 37.8704 89.3341 0.0000 0.0000 0.0000
# 4 0.0000 0.0000 0.0000 32.1682 0.0000 0.0000
# 5 0.0000 0.0000 0.0000 0.0000 9.3365 0.0000
# 6 0.0000 0.0000 0.0000 0.0000 0.0000 21.8738
#
#
#
# Elastic Compliance Matrix: (Units=1/GPa)
#
#
# Indices 1 2 3 4 5 6 
#
# 1 0.050691 0.017597 -0.033320 0.000000 0.000000 0.000000
# 2 0.017597 0.029712 -0.021573 0.000000 0.000000 0.000000
# 3 -0.033320 -0.021573 0.037338 0.000000 0.000000 0.000000
# 4 0.000000 0.000000 0.000000 0.031087 0.000000 0.000000
# 5 0.000000 0.000000 0.000000 0.000000 0.107107 0.000000
# 6 0.000000 0.000000 0.000000 0.000000 0.000000 0.045717
#
#
# Mechanical properties :
#
#
# Convention : Reuss Voigt Hill
#
# Bulk Modulus (GPa) = 23.17544 41.32808 32.25176
# Shear Modulus (GPa) = 12.79995 19.86105 16.33050
#
# Velocity S-wave (km/s) = 2.65500 3.30721 2.99888
# Velocity P-wave (km/s) = 4.70760 6.11090 5.45457
#
# Compressibility (1/GPa) = 0.04314914
#
# Stress axis : x y z
#
# Youngs Moduli (GPa) = 19.72718 33.65637 26.78259
#
# Poissons Ratio (x) = -0.59226 0.89241
# Poissons Ratio (y) = -0.34714 0.57778
# Poissons Ratio (z) = 0.65732 0.72606
#
# Static dielectric constant tensor:
#      x y z
#    x 1.636900 0.000000 0.000000 
#    y 0.000000 1.644410 0.000000 
#    z 0.000000 0.000000 1.620040 
# 
# From -- ./inp_files/9949.got.cif
#   From: 2010.05.17/outbox.cif.g08.bks.cpg/sg58_5_cif.got.tgz:9949.got - 2010.06.03 14:20:14.
