data_PCOD9443131
_publ_section_title
;
Structure prediction by ZEFSAII (Michael W. Deem and Ramdas Pophale) SiO2 
 PCOD9443131
Probable space group: P N N M
;
_chemical_formula_sum "Si O2"
_cell_formula_units_Z 64
_cell_length_a 29.654689
_cell_length_b 11.921384
_cell_length_c 7.438509
_cell_angle_alpha 90.000000
_cell_angle_beta 90.000000
_cell_angle_gamma 90.000000
_cell_volume 2629.698410
_symmetry_space_group_name_H-M "P N N M"
_symmetry_group_IT_number 58
_symmetry_cell_setting 'orthorhombic'
loop_
_space_group_symop_operation_xyz
x,y,z
-x,-y,z
1/2+x,1/2-y,1/2-z
1/2-x,1/2+y,1/2-z
-x,-y,-z
x,y,-z
1/2-x,1/2+y,1/2+z
1/2+x,1/2-y,1/2+z
loop_
_atom_site_type_symbol
_atom_site_label
_atom_site_fract_x
_atom_site_fract_y
_atom_site_fract_z
Si Si1 0.575221 0.832023 0.720716
Si Si2 0.828834 0.068332 0.295001
Si Si3 0.857425 0.724795 0.716085
Si Si4 0.324608 0.185328 0.700844
Si Si5 0.508483 0.295124 0.720341
Si Si6 0.915431 0.944524 0.795938
Si Si7 0.726955 0.351164 0.780442
Si Si8 0.936476 0.577750 0.789265
O O1 0.576349 0.829803 0.500000
O O2 0.626466 0.830229 0.786445
O O3 0.542758 0.729741 0.773405
O O4 0.555413 0.952644 0.778042
O O5 0.815709 0.090152 0.500000
O O6 0.881133 0.031127 0.291327
O O7 0.799876 0.963039 0.228689
O O8 0.820437 0.180571 0.188990
O O9 0.859480 0.735059 0.500000
O O10 0.886848 0.827672 0.794733
O O11 0.805794 0.747520 0.771740
O O12 0.883878 0.612669 0.768455
O O13 0.326926 0.135399 0.500000
O O14 0.277899 0.146821 0.786890
O O15 0.510416 0.299297 0.500000
O O16 0.536801 0.403240 0.781034
O O17 0.535250 0.182947 0.782403
O O18 0.922540 0.983794 0.000000
O O19 0.729095 0.347991 0.000000
O O20 0.947322 0.574115 0.000000
#
# Coordination Sequence:
#
# PCOD9443131 Si02
#       8
#     8   8   8   8   8   8   8   8
#     4   9  17  29  47  71  99 130 163 207 254 290
#     4  10  20  36  55  74 101 132 160 197 250 298
#     4   9  16  28  46  70 102 133 162 201 249 294
#     4  10  20  35  53  73  98 128 166 205 242 289
#     4   8  14  26  47  75 101 125 160 205 249 290
#     4   9  16  29  52  77  97 122 163 207 241 286
#     4   8  17  33  51  70  94 127 161 196 238 286
#     4   9  16  27  47  74 101 129 165 206 248 298
#
# _framework density 24.337392999999999
#
# number of rings (size 3 to 8) (size 9 to 14) (size 15 to 20)
#    0.000    3.000    0.000    3.000    0.000    2.500 
#    0.000    6.250    0.000   14.250    0.000    0.000 
#    0.000    0.000    0.000    0.000    0.000    0.000 
#
# Total GULP energy -357156.774174 kJ/mol
# GULP energy per Si atom -5580.574596 kJ/mol
# Density = 2.428200 g / cm^3
# Si number density = 24.337393 Si / 1000 Ang^3
#
#
#
# Elastic Constant Matrix: (Units=GPa)
#
#
# Indices 1 2 3 4 5 6 
#
# 1 163.4098 29.5938 -4.3126 0.0000 0.0000 0.0000
# 2 29.5938 30.6034 0.5767 0.0000 0.0000 0.0000
# 3 -4.3126 0.5767 78.5797 0.0000 0.0000 0.0000
# 4 0.0000 0.0000 0.0000 2.1120 0.0000 0.0000
# 5 0.0000 0.0000 0.0000 0.0000 11.7811 0.0000
# 6 0.0000 0.0000 0.0000 0.0000 0.0000 32.6440
#
#
#
# Elastic Compliance Matrix: (Units=1/GPa)
#
#
# Indices 1 2 3 4 5 6 
#
# 1 0.007435 -0.007199 0.000461 0.000000 0.000000 0.000000
# 2 -0.007199 0.039650 -0.000686 0.000000 0.000000 0.000000
# 3 0.000461 -0.000686 0.012756 0.000000 0.000000 0.000000
# 4 0.000000 0.000000 0.000000 0.473495 0.000000 0.000000
# 5 0.000000 0.000000 0.000000 0.000000 0.084881 0.000000
# 6 0.000000 0.000000 0.000000 0.000000 0.000000 0.030634
#
#
# Mechanical properties :
#
#
# Convention : Reuss Voigt Hill
#
# Bulk Modulus (GPa) = 22.22516 36.03432 29.12974
# Shear Modulus (GPa) = 7.36704 25.75641 16.56173
#
# Velocity S-wave (km/s) = 1.74173 3.25669 2.61148
# Velocity P-wave (km/s) = 3.63273 5.38328 4.59219
#
# Compressibility (1/GPa) = 0.04499405
#
# Stress axis : x y z
#
# Youngs Moduli (GPa) = 134.49040 25.22043 78.39286
#
# Poissons Ratio (x) = 0.18156 -0.03613
# Poissons Ratio (y) = 0.96818 0.05378
# Poissons Ratio (z) = -0.06199 0.01730
#
# Static dielectric constant tensor:
#      x y z
#    x 1.992510 0.000000 0.000000 
#    y 0.000000 1.890810 0.000000 
#    z 0.000000 0.000000 2.112400 
# 
# From -- ./inp_files/11140.got.cif
#   From: 2010.05.17/outbox.cif.g08.bks.cpg/sg58_6_cif.got.tgz:11140.got - 2010.06.03 14:20:14.
