data_PCOD9443138
_publ_section_title
;
Structure prediction by ZEFSAII (Michael W. Deem and Ramdas Pophale) SiO2 
 PCOD9443138
Probable space group: P N N M
;
_chemical_formula_sum "Si O2"
_cell_formula_units_Z 56
_cell_length_a 23.638808
_cell_length_b 14.446237
_cell_length_c 7.987884
_cell_angle_alpha 90.000000
_cell_angle_beta 90.000000
_cell_angle_gamma 90.000000
_cell_volume 2727.797067
_symmetry_space_group_name_H-M "P N N M"
_symmetry_group_IT_number 58
_symmetry_cell_setting 'orthorhombic'
loop_
_space_group_symop_operation_xyz
x,y,z
-x,-y,z
1/2+x,1/2-y,1/2-z
1/2-x,1/2+y,1/2-z
-x,-y,-z
x,y,-z
1/2-x,1/2+y,1/2+z
1/2+x,1/2-y,1/2+z
loop_
_atom_site_type_symbol
_atom_site_label
_atom_site_fract_x
_atom_site_fract_y
_atom_site_fract_z
Si Si1 0.129318 0.185241 0.199161
Si Si2 0.991250 0.895001 0.297846
Si Si3 0.867744 0.414356 0.194533
Si Si4 0.101759 0.789671 0.299883
Si Si5 0.780580 0.144212 0.689504
Si Si6 0.246487 0.163967 0.309573
Si Si7 0.659280 0.106483 0.293642
O O1 0.069538 0.143814 0.248586
O O2 0.183391 0.130458 0.272895
O O3 0.135745 0.292827 0.255581
O O4 0.134395 0.183880 0.000000
O O5 0.993494 0.895551 0.500000
O O6 0.043183 0.831611 0.236515
O O7 0.000000 0.000000 0.239024
O O8 0.892448 0.320182 0.269682
O O9 0.799548 0.403121 0.203279
O O10 0.877173 0.517818 0.262315
O O11 0.884523 0.413109 0.000000
O O12 0.104122 0.802581 0.500000
O O13 0.157158 0.844838 0.231649
O O14 0.786579 0.107560 0.500000
O O15 0.760002 0.251440 0.686406
O O16 0.724643 0.098736 0.766869
O O17 0.247664 0.200425 0.500000
O O18 0.660915 0.104531 0.500000
#
# Coordination Sequence:
#
# PCOD9443138 Si02
#       7
#     8   8   8   8   8   8   8
#     4  10  20  35  54  74 101 136 171 211 254 296
#     4  10  22  39  57  75  96 128 171 215 258 305
#     4   9  17  30  51  78 106 136 169 204 245 300
#     4   9  18  33  52  74 101 132 166 208 256 299
#     4   8  14  27  47  69  97 131 164 199 242 292
#     4   9  16  27  47  74 102 131 164 203 245 290
#     4   8  15  29  50  76 103 133 168 201 240 295
#
# _framework density 20.529385999999999
#
# number of rings (size 3 to 8) (size 9 to 14) (size 15 to 20)
#    0.000    3.000    0.000    1.714    0.000    2.571 
#    0.000    8.571    0.000   11.143    0.000    0.000 
#    0.000    0.000    0.000    0.000    0.000    0.000 
#
# Total GULP energy -311809.694543 kJ/mol
# GULP energy per Si atom -5568.030260 kJ/mol
# Density = 2.048266 g / cm^3
# Si number density = 20.529386 Si / 1000 Ang^3
#
#
#
# Elastic Constant Matrix: (Units=GPa)
#
#
# Indices 1 2 3 4 5 6 
#
# 1 115.5296 17.1184 13.0631 0.0000 0.0000 0.0000
# 2 17.1184 47.7011 17.5880 0.0000 0.0000 0.0000
# 3 13.0631 17.5880 29.1418 0.0000 0.0000 0.0000
# 4 0.0000 0.0000 0.0000 14.4327 0.0000 0.0000
# 5 0.0000 0.0000 0.0000 0.0000 20.9705 0.0000
# 6 0.0000 0.0000 0.0000 0.0000 0.0000 17.7088
#
#
#
# Elastic Compliance Matrix: (Units=1/GPa)
#
#
# Indices 1 2 3 4 5 6 
#
# 1 0.009313 -0.002319 -0.002775 0.000000 0.000000 0.000000
# 2 -0.002319 0.027542 -0.015583 0.000000 0.000000 0.000000
# 3 -0.002775 -0.015583 0.044964 0.000000 0.000000 0.000000
# 4 0.000000 0.000000 0.000000 0.069287 0.000000 0.000000
# 5 0.000000 0.000000 0.000000 0.000000 0.047686 0.000000
# 6 0.000000 0.000000 0.000000 0.000000 0.000000 0.056469
#
#
# Mechanical properties :
#
#
# Convention : Reuss Voigt Hill
#
# Bulk Modulus (GPa) = 24.71288 31.99016 28.35152
# Shear Modulus (GPa) = 16.12370 20.26260 18.19315
#
# Velocity S-wave (km/s) = 2.80553 3.14507 2.98014
# Velocity P-wave (km/s) = 4.74959 5.36704 5.06773
#
# Compressibility (1/GPa) = 0.04046473
#
# Stress axis : x y z
#
# Youngs Moduli (GPa) = 107.37454 36.30868 22.24022
#
# Poissons Ratio (x) = 0.08420 0.06172
# Poissons Ratio (y) = 0.24900 0.34656
# Poissons Ratio (z) = 0.29798 0.56579
#
# Static dielectric constant tensor:
#      x y z
#    x 1.754150 0.000000 0.000000 
#    y 0.000000 1.753740 0.000000 
#    z 0.000000 0.000000 1.766500 
# 
# From -- ./inp_files/6462.got.cif
#   From: 2010.05.17/outbox.cif.g08.bks.cpg/sg58_4_cif.got.tgz:6462.got - 2010.06.03 14:20:14.
