data_PCOD9443896
_publ_section_title
;
Structure prediction by ZEFSAII (Michael W. Deem and Ramdas Pophale) SiO2 
 PCOD9443896
Probable space group: P N N M
;
_chemical_formula_sum "Si O2"
_cell_formula_units_Z 56
_cell_length_a 11.120181
_cell_length_b 19.046827
_cell_length_c 13.987628
_cell_angle_alpha 90.000000
_cell_angle_beta 90.000000
_cell_angle_gamma 90.000000
_cell_volume 2962.637851
_symmetry_space_group_name_H-M "P N N M"
_symmetry_group_IT_number 58
_symmetry_cell_setting 'orthorhombic'
loop_
_space_group_symop_operation_xyz
x,y,z
-x,-y,z
1/2+x,1/2-y,1/2-z
1/2-x,1/2+y,1/2-z
-x,-y,-z
x,y,-z
1/2-x,1/2+y,1/2+z
1/2+x,1/2-y,1/2+z
loop_
_atom_site_type_symbol
_atom_site_label
_atom_site_fract_x
_atom_site_fract_y
_atom_site_fract_z
Si Si1 0.130849 0.573791 0.390581
Si Si2 0.333485 0.694494 0.388350
Si Si3 0.764604 0.664725 0.777781
Si Si4 0.865829 0.516553 0.199824
Si Si5 0.006427 0.171241 0.716529
Si Si6 0.073927 0.311088 0.388524
Si Si7 0.380021 0.545239 0.114064
O O1 0.136035 0.545961 0.500000
O O2 0.237551 0.631121 0.379225
O O3 0.138832 0.515927 0.307716
O O4 0.009267 0.619797 0.380702
O O5 0.357288 0.704549 0.500000
O O6 0.284694 0.766322 0.341496
O O7 0.449185 0.676707 0.325013
O O8 0.848360 0.599962 0.805800
O O9 0.627530 0.642437 0.787704
O O10 0.802063 0.680826 0.668766
O O11 0.748551 0.484478 0.147822
O O12 0.000000 0.500000 0.162416
O O13 0.008998 0.247060 0.666037
O O14 0.097510 0.120798 0.661130
O O15 0.088105 0.295186 0.500000
O O16 0.500000 0.500000 0.140725
O O17 0.379635 0.550283 0.000000
#
# Coordination Sequence:
#
# PCOD9443896 Si02
#       7
#     8   8   8   8   8   8   8
#     4  10  20  38  65  92 120 160 208 255 313 378
#     4  10  22  40  64  91 122 159 205 259 317 374
#     4  11  23  37  63  92 126 164 207 261 313 379
#     4  12  24  41  63  92 132 169 212 263 319 371
#     4  11  21  39  65  91 122 159 210 265 316 370
#     4  10  21  38  61  91 121 158 206 261 315 373
#     4  11  24  41  63  89 121 166 212 255 309 379
#
# _framework density 18.902073999999999
#
# number of rings (size 3 to 8) (size 9 to 14) (size 15 to 20)
#    0.000    1.286    5.714    0.429    0.000    2.857 
#    0.000    0.000    0.000    2.571    0.000    0.000 
#    0.000    0.000    0.000    0.000    0.000    0.000 
#
# Total GULP energy -312514.939230 kJ/mol
# GULP energy per Si atom -5580.623915 kJ/mol
# Density = 1.885905 g / cm^3
# Si number density = 18.902074 Si / 1000 Ang^3
#
#
#
# Elastic Constant Matrix: (Units=GPa)
#
#
# Indices 1 2 3 4 5 6 
#
# 1 100.6058 19.9097 18.6622 0.0000 0.0000 0.0000
# 2 19.9097 39.2561 11.6117 0.0000 0.0000 0.0000
# 3 18.6622 11.6117 74.1153 0.0000 0.0000 0.0000
# 4 0.0000 0.0000 0.0000 20.7600 0.0000 0.0000
# 5 0.0000 0.0000 0.0000 0.0000 21.3178 0.0000
# 6 0.0000 0.0000 0.0000 0.0000 0.0000 26.7706
#
#
#
# Elastic Compliance Matrix: (Units=1/GPa)
#
#
# Indices 1 2 3 4 5 6 
#
# 1 0.011338 -0.005144 -0.002049 0.000000 0.000000 0.000000
# 2 -0.005144 0.029046 -0.003255 0.000000 0.000000 0.000000
# 3 -0.002049 -0.003255 0.014518 0.000000 0.000000 0.000000
# 4 0.000000 0.000000 0.000000 0.048170 0.000000 0.000000
# 5 0.000000 0.000000 0.000000 0.000000 0.046909 0.000000
# 6 0.000000 0.000000 0.000000 0.000000 0.000000 0.037354
#
#
# Mechanical properties :
#
#
# Convention : Reuss Voigt Hill
#
# Bulk Modulus (GPa) = 29.40738 34.92717 32.16727
# Shear Modulus (GPa) = 22.77207 24.68924 23.73066
#
# Velocity S-wave (km/s) = 3.47470 3.61801 3.54708
# Velocity P-wave (km/s) = 5.62935 5.99762 5.81640
#
# Compressibility (1/GPa) = 0.03400507
#
# Stress axis : x y z
#
# Youngs Moduli (GPa) = 88.19978 34.42850 68.87804
#
# Poissons Ratio (x) = 0.17711 0.14113
# Poissons Ratio (y) = 0.45372 0.22422
# Poissons Ratio (z) = 0.18072 0.11208
#
# Static dielectric constant tensor:
#      x y z
#    x 1.685490 0.000000 0.000000 
#    y 0.000000 1.671470 0.000000 
#    z 0.000000 0.000000 1.635740 
# 
# From -- ./inp_files/20146.got.cif
#   From: 2010.05.17/outbox.cif.g08.bks.cpg/sg58_11_cif.got.tgz:20146.got - 2010.06.03 14:20:14.
