data_PCOD9443900
_publ_section_title
;
Structure prediction by ZEFSAII (Michael W. Deem and Ramdas Pophale) SiO2 
 PCOD9443900
Probable space group: P N N M
;
_chemical_formula_sum "Si O2"
_cell_formula_units_Z 32
_cell_length_a 8.795993
_cell_length_b 4.854088
_cell_length_c 31.588710
_cell_angle_alpha 90.000000
_cell_angle_beta 90.000000
_cell_angle_gamma 90.000000
_cell_volume 1348.728117
_symmetry_space_group_name_H-M "P N N M"
_symmetry_group_IT_number 58
_symmetry_cell_setting 'orthorhombic'
loop_
_space_group_symop_operation_xyz
x,y,z
-x,-y,z
1/2+x,1/2-y,1/2-z
1/2-x,1/2+y,1/2-z
-x,-y,-z
x,y,-z
1/2-x,1/2+y,1/2+z
1/2+x,1/2-y,1/2+z
loop_
_atom_site_type_symbol
_atom_site_label
_atom_site_fract_x
_atom_site_fract_y
_atom_site_fract_z
Si Si1 0.151080 0.131887 0.758637
Si Si2 0.793852 0.713923 0.953203
Si Si3 0.203046 0.775990 0.899420
Si Si4 0.500000 0.000000 0.670098
Si Si5 0.000000 0.000000 0.421609
O O1 0.237146 0.374403 0.733531
O O2 0.092855 0.289511 0.800292
O O3 0.000000 0.000000 0.737864
O O4 0.845216 0.409046 0.940058
O O5 0.610112 0.686056 0.950131
O O6 0.828042 0.916303 0.914304
O O7 0.839765 0.797319 0.000000
O O8 0.381049 0.689084 0.895623
O O9 0.112729 0.673464 0.859235
#
# Coordination Sequence:
#
# PCOD9443900 Si02
#       5
#     8   8   8   4   4
#     4  12  26  51  84 117 148 192 249 308 385 470
#     4  10  20  38  65  98 141 196 263 311 346 417
#     4  10  24  38  66 101 140 197 241 301 377 424
#     4  12  28  50  79 104 162 186 238 312 383 452
#     4   8  21  38  60  94 138 184 266 292 368 408
#
# _framework density 23.726056
#
# number of rings (size 3 to 8) (size 9 to 14) (size 15 to 20)
#    1.500    0.000    2.500    1.875    3.500    1.000 
#    2.250    3.750    0.000    0.000    0.000    0.000 
#    0.000    0.000    0.000    0.000    0.000    2.750 
#
# Total GULP energy -178664.965321 kJ/mol
# GULP energy per Si atom -5583.280166 kJ/mol
# Density = 2.367205 g / cm^3
# Si number density = 23.726056 Si / 1000 Ang^3
#
#
#
# Elastic Constant Matrix: (Units=GPa)
#
#
# Indices 1 2 3 4 5 6 
#
# 1 96.2365 20.6370 39.6765 0.0000 0.0000 0.0000
# 2 20.6370 131.4550 33.7707 0.0000 0.0000 0.0000
# 3 39.6765 33.7707 89.2248 0.0000 0.0000 0.0000
# 4 0.0000 0.0000 0.0000 35.0021 0.0000 0.0000
# 5 0.0000 0.0000 0.0000 0.0000 29.6767 0.0000
# 6 0.0000 0.0000 0.0000 0.0000 0.0000 53.7945
#
#
#
# Elastic Compliance Matrix: (Units=1/GPa)
#
#
# Indices 1 2 3 4 5 6 
#
# 1 0.012767 -0.000605 -0.005448 0.000000 0.000000 0.000000
# 2 -0.000605 0.008455 -0.002931 0.000000 0.000000 0.000000
# 3 -0.005448 -0.002931 0.014740 0.000000 0.000000 0.000000
# 4 0.000000 0.000000 0.000000 0.028570 0.000000 0.000000
# 5 0.000000 0.000000 0.000000 0.000000 0.033696 0.000000
# 6 0.000000 0.000000 0.000000 0.000000 0.000000 0.018589
#
#
# Mechanical properties :
#
#
# Convention : Reuss Voigt Hill
#
# Bulk Modulus (GPa) = 55.57590 56.12050 55.84820
# Shear Modulus (GPa) = 35.51541 38.55013 37.03277
#
# Velocity S-wave (km/s) = 3.87317 4.03526 3.95504
# Velocity P-wave (km/s) = 6.59369 6.73913 6.66681
#
# Compressibility (1/GPa) = 0.01799341
#
# Stress axis : x y z
#
# Youngs Moduli (GPa) = 78.32696 118.27128 67.84294
#
# Poissons Ratio (x) = 0.07151 0.36964
# Poissons Ratio (y) = 0.04736 0.19887
# Poissons Ratio (z) = 0.42676 0.34669
#
# Static dielectric constant tensor:
#      x y z
#    x 2.014560 0.000000 0.000000 
#    y 0.000000 1.878230 0.000000 
#    z 0.000000 0.000000 1.819990 
# 
# From -- ./inp_files/34378.got.cif
#   From: 2010.05.17/outbox.cif.g08.bks.cpg/sg58_18_cif.got.tgz:34378.got - 2010.06.03 14:20:14.
