data_PCOD9443519
_publ_section_title
;
Structure prediction by ZEFSAII (Michael W. Deem and Ramdas Pophale) SiO2 
 PCOD9443519
Probable space group: P N N M
;
_chemical_formula_sum "Si O2"
_cell_formula_units_Z 48
_cell_length_a 28.697677
_cell_length_b 9.475252
_cell_length_c 8.916244
_cell_angle_alpha 90.000000
_cell_angle_beta 90.000000
_cell_angle_gamma 90.000000
_cell_volume 2424.484752
_symmetry_space_group_name_H-M "P N N M"
_symmetry_group_IT_number 58
_symmetry_cell_setting 'orthorhombic'
loop_
_space_group_symop_operation_xyz
x,y,z
-x,-y,z
1/2+x,1/2-y,1/2-z
1/2-x,1/2+y,1/2-z
-x,-y,-z
x,y,-z
1/2-x,1/2+y,1/2+z
1/2+x,1/2-y,1/2+z
loop_
_atom_site_type_symbol
_atom_site_label
_atom_site_fract_x
_atom_site_fract_y
_atom_site_fract_z
Si Si1 0.860223 0.466786 0.679351
Si Si2 0.274620 0.820603 0.179069
Si Si3 0.488463 0.335952 0.672768
Si Si4 0.618256 0.676342 0.679786
Si Si5 0.542171 0.100546 0.820164
Si Si6 0.694094 0.495617 0.820600
O O1 0.862870 0.438593 0.500000
O O2 0.817999 0.574068 0.704210
O O3 0.856649 0.318964 0.764680
O O4 0.908159 0.541748 0.729404
O O5 0.288489 0.661188 0.223916
O O6 0.231581 0.889013 0.265969
O O7 0.264401 0.818944 0.000000
O O8 0.500000 0.500000 0.675798
O O9 0.489419 0.286926 0.500000
O O10 0.435731 0.313951 0.730557
O O11 0.527542 0.252504 0.762350
O O12 0.618887 0.667023 0.500000
O O13 0.645328 0.543180 0.748227
O O14 0.500000 0.000000 0.768911
O O15 0.542799 0.100875 0.000000
O O16 0.689944 0.497569 0.000000
#
# Coordination Sequence:
#
# PCOD9443519 Si02
#       6
#     8   8   8   8   8   8
#     4  10  21  39  62  89 122 157 196 245 296 348
#     4  10  23  42  63  89 120 153 193 239 290 353
#     4  10  23  40  57  83 121 161 201 246 294 347
#     4  11  23  39  60  87 119 157 199 243 294 351
#     4  10  20  36  60  89 119 156 201 245 291 345
#     4  11  24  41  63  89 118 151 192 240 293 349
#
# _framework density 19.798020999999999
#
# number of rings (size 3 to 8) (size 9 to 14) (size 15 to 20)
#    0.000    1.667    1.667    2.000    2.333    6.667 
#    0.000    0.000    0.000    0.000    0.000    0.000 
#    0.000    0.000    0.000    0.000    0.000    0.000 
#
# Total GULP energy -268205.729172 kJ/mol
# GULP energy per Si atom -5587.619358 kJ/mol
# Density = 1.975296 g / cm^3
# Si number density = 19.798021 Si / 1000 Ang^3
#
#
#
# Elastic Constant Matrix: (Units=GPa)
#
#
# Indices 1 2 3 4 5 6 
#
# 1 57.1351 5.4961 17.5225 0.0000 0.0000 0.0000
# 2 5.4961 81.2853 20.5389 0.0000 0.0000 0.0000
# 3 17.5225 20.5389 19.5498 0.0000 0.0000 0.0000
# 4 0.0000 0.0000 0.0000 111.2063 0.0000 0.0000
# 5 0.0000 0.0000 0.0000 0.0000 36.6663 0.0000
# 6 0.0000 0.0000 0.0000 0.0000 0.0000 33.4703
#
#
#
# Elastic Compliance Matrix: (Units=1/GPa)
#
#
# Indices 1 2 3 4 5 6 
#
# 1 0.025882 0.005597 -0.029079 0.000000 0.000000 0.000000
# 2 0.005597 0.017959 -0.023885 0.000000 0.000000 0.000000
# 3 -0.029079 -0.023885 0.102307 0.000000 0.000000 0.000000
# 4 0.000000 0.000000 0.000000 0.008992 0.000000 0.000000
# 5 0.000000 0.000000 0.000000 0.000000 0.027273 0.000000
# 6 0.000000 0.000000 0.000000 0.000000 0.000000 0.029877
#
#
# Mechanical properties :
#
#
# Convention : Reuss Voigt Hill
#
# Bulk Modulus (GPa) = 19.44884 27.23169 23.34027
# Shear Modulus (GPa) = 15.42443 43.89610 29.66026
#
# Velocity S-wave (km/s) = 2.79425 4.71382 3.87478
# Velocity P-wave (km/s) = 4.50060 6.58873 5.64211
#
# Compressibility (1/GPa) = 0.05141694
#
# Stress axis : x y z
#
# Youngs Moduli (GPa) = 38.63708 55.68248 9.77446
#
# Poissons Ratio (x) = -0.31168 0.28423
# Poissons Ratio (y) = -0.21627 0.23346
# Poissons Ratio (z) = 1.12351 1.32995
#
# Static dielectric constant tensor:
#      x y z
#    x 1.702500 0.000000 0.000000 
#    y 0.000000 1.703470 0.000000 
#    z 0.000000 0.000000 1.668880 
# 
# From -- ./inp_files/2997.got.cif
#   From: 2010.05.17/outbox.cif.g08.bks.cpg/sg58_2_cif.got.tgz:2997.got - 2010.06.03 14:20:14.
