data_PCOD9443066
_publ_section_title
;
Structure prediction by ZEFSAII (Michael W. Deem and Ramdas Pophale) SiO2 
 PCOD9443066
Probable space group: P N N M
;
_chemical_formula_sum "Si O2"
_cell_formula_units_Z 64
_cell_length_a 11.801364
_cell_length_b 17.065907
_cell_length_c 13.556931
_cell_angle_alpha 90.000000
_cell_angle_beta 90.000000
_cell_angle_gamma 90.000000
_cell_volume 2730.379196
_symmetry_space_group_name_H-M "P N N M"
_symmetry_group_IT_number 58
_symmetry_cell_setting 'orthorhombic'
loop_
_space_group_symop_operation_xyz
x,y,z
-x,-y,z
1/2+x,1/2-y,1/2-z
1/2-x,1/2+y,1/2-z
-x,-y,-z
x,y,-z
1/2-x,1/2+y,1/2+z
1/2+x,1/2-y,1/2+z
loop_
_atom_site_type_symbol
_atom_site_label
_atom_site_fract_x
_atom_site_fract_y
_atom_site_fract_z
Si Si1 0.266505 0.812585 0.881726
Si Si2 0.462148 0.913695 0.120003
Si Si3 0.901694 0.257949 0.384330
Si Si4 0.870763 0.472510 0.119617
Si Si5 0.860087 0.789057 0.885118
Si Si6 0.590328 0.337798 0.181931
Si Si7 0.421777 0.200121 0.381927
Si Si8 0.127828 0.001476 0.388544
O O1 0.334951 0.889275 0.848168
O O2 0.348538 0.741505 0.852110
O O3 0.146671 0.777314 0.848334
O O4 0.259032 0.819677 0.000000
O O5 0.544874 0.841534 0.148568
O O6 0.500000 0.000000 0.151655
O O7 0.464053 0.914950 0.000000
O O8 0.927991 0.251987 0.500000
O O9 0.767872 0.261439 0.373361
O O10 0.959618 0.182341 0.336845
O O11 0.874039 0.382002 0.154868
O O12 0.754635 0.517700 0.152195
O O13 0.000000 0.500000 0.139677
O O14 0.861328 0.474977 0.000000
O O15 0.884646 0.850566 0.797674
O O16 0.946775 0.717937 0.864102
O O17 0.876614 0.814175 0.000000
O O18 0.636382 0.404473 0.111842
O O19 0.409656 0.195938 0.500000
O O20 0.117185 0.968730 0.500000
O O21 0.000000 0.000000 0.340396
#
# Coordination Sequence:
#
# PCOD9443066 Si02
#       8
#     8   8   8   8   8   8   8   8
#     4   9  16  29  55  88 114 144 191 244 290 348
#     4   8  14  27  52  84 114 146 188 240 294 347
#     4   9  19  35  56  87 121 150 189 244 307 360
#     4   9  17  30  52  82 118 159 195 233 295 372
#     4  10  23  38  56  84 118 152 193 254 306 353
#     4  11  20  33  61  81 112 152 203 243 295 363
#     4   9  17  32  54  78 112 150 194 242 294 356
#     4  10  20  34  56  88 123 156 195 250 310 366
#
# _framework density 23.439968
#
# number of rings (size 3 to 8) (size 9 to 14) (size 15 to 20)
#    0.000    2.625    1.250    1.875    1.750    1.000 
#    0.000    3.750    2.750    5.625    0.000    0.000 
#    0.000    0.000    0.000    0.000    0.000    0.000 
#
# Total GULP energy -356528.993082 kJ/mol
# GULP energy per Si atom -5570.765517 kJ/mol
# Density = 2.338662 g / cm^3
# Si number density = 23.439968 Si / 1000 Ang^3
#
#
#
# Elastic Constant Matrix: (Units=GPa)
#
#
# Indices 1 2 3 4 5 6 
#
# 1 176.8060 30.8237 22.2503 0.0000 0.0000 0.0000
# 2 30.8237 45.8696 -17.2641 0.0000 0.0000 0.0000
# 3 22.2503 -17.2641 64.7803 0.0000 0.0000 0.0000
# 4 0.0000 0.0000 0.0000 -15.4420 0.0000 0.0000
# 5 0.0000 0.0000 0.0000 0.0000 8.1201 0.0000
# 6 0.0000 0.0000 0.0000 0.0000 0.0000 21.9178
#
#
#
# Elastic Compliance Matrix: (Units=1/GPa)
#
#
# Indices 1 2 3 4 5 6 
#
# 1 0.007330 -0.006528 -0.004257 0.000000 0.000000 0.000000
# 2 -0.006528 0.030045 0.010249 0.000000 0.000000 0.000000
# 3 -0.004257 0.010249 0.019630 0.000000 0.000000 0.000000
# 4 0.000000 0.000000 0.000000 -0.064758 0.000000 0.000000
# 5 0.000000 0.000000 0.000000 0.000000 0.123151 0.000000
# 6 0.000000 0.000000 0.000000 0.000000 0.000000 0.045625
#
#
# Mechanical properties :
#
#
# Convention : Reuss Voigt Hill
#
# Bulk Modulus (GPa) = 17.87834 39.89728 28.88781
# Shear Modulus (GPa) = 27.66424 19.69559 23.67992
#
# Velocity S-wave (km/s) = 3.43916 2.90186 3.18187
# Velocity P-wave (km/s) = 4.83883 5.31843 5.08429
#
# Compressibility (1/GPa) = 0.05593360
#
# Stress axis : x y z
#
# Youngs Moduli (GPa) = 136.43144 33.28340 50.94125
#
# Poissons Ratio (x) = 0.21727 0.21687
# Poissons Ratio (y) = 0.89059 -0.52211
# Poissons Ratio (z) = 0.58082 -0.34113
#
# Static dielectric constant tensor:
#      x y z
#    x 1.957990 0.000000 0.000000 
#    y 0.000000 1.865620 0.000000 
#    z 0.000000 0.000000 1.925540 
# 
# From -- ./inp_files/21492.got.cif
#   From: 2010.05.17/outbox.cif.g08.bks.cpg/sg58_11_cif.got.tgz:21492.got - 2010.06.03 14:20:14.
