data_PCOD9443785
_publ_section_title
;
Structure prediction by ZEFSAII (Michael W. Deem and Ramdas Pophale) SiO2 
 PCOD9443785
Probable space group: P N N M
;
_chemical_formula_sum "Si O2"
_cell_formula_units_Z 58
_cell_length_a 21.508848
_cell_length_b 14.283473
_cell_length_c 7.807522
_cell_angle_alpha 90.000000
_cell_angle_beta 90.000000
_cell_angle_gamma 90.000000
_cell_volume 2398.635104
_symmetry_space_group_name_H-M "P N N M"
_symmetry_group_IT_number 58
_symmetry_cell_setting 'orthorhombic'
loop_
_space_group_symop_operation_xyz
x,y,z
-x,-y,z
1/2+x,1/2-y,1/2-z
1/2-x,1/2+y,1/2-z
-x,-y,-z
x,y,-z
1/2-x,1/2+y,1/2+z
1/2+x,1/2-y,1/2+z
loop_
_atom_site_type_symbol
_atom_site_label
_atom_site_fract_x
_atom_site_fract_y
_atom_site_fract_z
Si Si1 0.243228 0.639600 0.293959
Si Si2 0.362236 0.760002 0.699358
Si Si3 0.332514 0.481752 0.289692
Si Si4 0.634255 0.723845 0.300911
Si Si5 0.091293 0.441943 0.292951
Si Si6 0.500000 0.500000 0.500000
Si Si7 0.450805 0.609382 0.809866
Si Si8 0.041205 0.632948 0.296794
O O1 0.235849 0.637123 0.500000
O O2 0.300085 0.707905 0.245283
O O3 0.268972 0.536806 0.243541
O O4 0.183450 0.692691 0.225562
O O5 0.370887 0.738092 0.500000
O O6 0.357735 0.870430 0.726851
O O7 0.420106 0.711979 0.794456
O O8 0.338183 0.486881 0.500000
O O9 0.340079 0.374736 0.230784
O O10 0.390758 0.540811 0.218127
O O11 0.625981 0.707579 0.500000
O O12 0.569732 0.766045 0.234189
O O13 0.095123 0.440372 0.500000
O O14 0.087198 0.549171 0.236637
O O15 0.026467 0.395102 0.230484
O O16 0.494154 0.580203 0.652719
O O17 0.477281 0.598720 0.000000
O O18 0.036484 0.621124 0.500000
#
# Coordination Sequence:
#
# PCOD9443785 Si02
#       8
#     8   8   8   8   8   2   8   8
#     4   9  20  39  61  81 115 162 203 249 314 375
#     4  10  20  38  60  87 122 157 198 261 316 364
#     4   9  20  42  60  80 122 164 197 258 327 368
#     4  11  23  37  60  90 121 157 205 262 323 382
#     4   9  19  37  61  86 115 160 207 251 302 373
#     4  12  22  40  56  86 132 154 214 260 300 364
#     4  11  22  38  62  87 119 168 206 250 312 374
#     4   9  20  39  58  81 120 158 200 254 308 370
#
# _framework density 24.180419000000001
#
# number of rings (size 3 to 8) (size 9 to 14) (size 15 to 20)
#    0.000    2.207    1.379    2.690    0.000    7.172 
#    0.000    6.897    0.000    0.000    0.000    0.000 
#    0.000    0.000    0.000    0.000    0.000    0.000 
#
# Total GULP energy -323529.856594 kJ/mol
# GULP energy per Si atom -5578.100976 kJ/mol
# Density = 2.412538 g / cm^3
# Si number density = 24.180419 Si / 1000 Ang^3
#
#
#
# Elastic Constant Matrix: (Units=GPa)
#
#
# Indices 1 2 3 4 5 6 
#
# 1 29.4205 36.6791 7.5207 0.0000 0.0000 0.0000
# 2 36.6791 139.7249 0.0786 0.0000 0.0000 0.0000
# 3 7.5207 0.0786 74.6774 0.0000 0.0000 0.0000
# 4 0.0000 0.0000 0.0000 41.1940 0.0000 0.0000
# 5 0.0000 0.0000 0.0000 0.0000 18.6745 0.0000
# 6 0.0000 0.0000 0.0000 0.0000 0.0000 29.1051
#
#
#
# Elastic Compliance Matrix: (Units=1/GPa)
#
#
# Indices 1 2 3 4 5 6 
#
# 1 0.052525 -0.013785 -0.005275 0.000000 0.000000 0.000000
# 2 -0.013785 0.010775 0.001377 0.000000 0.000000 0.000000
# 3 -0.005275 0.001377 0.013921 0.000000 0.000000 0.000000
# 4 0.000000 0.000000 0.000000 0.024275 0.000000 0.000000
# 5 0.000000 0.000000 0.000000 0.000000 0.053549 0.000000
# 6 0.000000 0.000000 0.000000 0.000000 0.000000 0.034358
#
#
# Mechanical properties :
#
#
# Convention : Reuss Voigt Hill
#
# Bulk Modulus (GPa) = 23.89296 36.93109 30.41202
# Shear Modulus (GPa) = 20.94491 31.09768 26.02130
#
# Velocity S-wave (km/s) = 2.94631 3.59007 3.28400
# Velocity P-wave (km/s) = 4.63432 5.70010 5.19461
#
# Compressibility (1/GPa) = 0.04185334
#
# Stress axis : x y z
#
# Youngs Moduli (GPa) = 19.03861 92.80811 71.83520
#
# Poissons Ratio (x) = 1.27939 0.37895
# Poissons Ratio (y) = 0.26245 -0.09892
# Poissons Ratio (z) = 0.10043 -0.12779
#
# Static dielectric constant tensor:
#      x y z
#    x 1.982150 0.000000 0.000000 
#    y 0.000000 1.998550 0.000000 
#    z 0.000000 0.000000 1.890100 
# 
# From -- ./inp_files/9916.got.cif
#   From: 2010.05.17/outbox.cif.g08.bks.cpg/sg58_5_cif.got.tgz:9916.got - 2010.06.03 14:20:14.
