data_PCOD9443970
_publ_section_title
;
Structure prediction by ZEFSAII (Michael W. Deem and Ramdas Pophale) SiO2 
 PCOD9443970
Probable space group: P N N M
;
_chemical_formula_sum "Si O2"
_cell_formula_units_Z 34
_cell_length_a 20.333082
_cell_length_b 9.294355
_cell_length_c 7.481234
_cell_angle_alpha 90.000000
_cell_angle_beta 90.000000
_cell_angle_gamma 90.000000
_cell_volume 1413.825165
_symmetry_space_group_name_H-M "P N N M"
_symmetry_group_IT_number 58
_symmetry_cell_setting 'orthorhombic'
loop_
_space_group_symop_operation_xyz
x,y,z
-x,-y,z
1/2+x,1/2-y,1/2-z
1/2-x,1/2+y,1/2-z
-x,-y,-z
x,y,-z
1/2-x,1/2+y,1/2+z
1/2+x,1/2-y,1/2+z
loop_
_atom_site_type_symbol
_atom_site_label
_atom_site_fract_x
_atom_site_fract_y
_atom_site_fract_z
Si Si1 0.518446 0.848365 0.706440
Si Si2 0.000000 0.000000 0.500000
Si Si3 0.792702 0.690811 0.785297
Si Si4 0.582645 0.387874 0.284916
Si Si5 0.667447 0.861257 0.790582
O O1 0.495918 0.851707 0.500000
O O2 0.471304 0.728609 0.784035
O O3 0.596234 0.835218 0.708399
O O4 0.500000 0.000000 0.790971
O O5 0.059030 0.985612 0.341947
O O6 0.848419 0.810520 0.745333
O O7 0.723723 0.754740 0.718377
O O8 0.811281 0.529320 0.727644
O O9 0.790209 0.684169 0.000000
O O10 0.578337 0.418082 0.500000
O O11 0.660589 0.833247 0.000000
#
# Coordination Sequence:
#
# PCOD9443970 Si02
#       5
#     8   2   8   8   8
#     4  10  20  39  68  94 123 171 217 268 335 400
#     4  12  26  40  66 102 132 180 216 284 330 392
#     4  10  23  45  64  92 134 180 217 275 341 403
#     4  10  23  44  68  94 137 177 222 273 338 406
#     4  11  24  39  67 100 130 169 228 283 334 401
#
# _framework density 24.048234000000001
#
# number of rings (size 3 to 8) (size 9 to 14) (size 15 to 20)
#    0.000    1.647    2.353    1.059    3.294    4.235 
#    4.235    4.706    0.000    0.000    0.000    0.000 
#    0.000    0.000    0.000    0.000    0.000    0.000 
#
# Total GULP energy -189445.102345 kJ/mol
# GULP energy per Si atom -5571.914775 kJ/mol
# Density = 2.399350 g / cm^3
# Si number density = 24.048234 Si / 1000 Ang^3
#
#
#
# Elastic Constant Matrix: (Units=GPa)
#
#
# Indices 1 2 3 4 5 6 
#
# 1 121.6723 10.8700 -3.9259 0.0000 0.0000 0.0000
# 2 10.8700 25.4849 -4.5990 0.0000 0.0000 0.0000
# 3 -3.9259 -4.5990 95.0339 0.0000 0.0000 0.0000
# 4 0.0000 0.0000 0.0000 -12.9102 0.0000 0.0000
# 5 0.0000 0.0000 0.0000 0.0000 12.6161 0.0000
# 6 0.0000 0.0000 0.0000 0.0000 0.0000 48.4907
#
#
#
# Elastic Compliance Matrix: (Units=1/GPa)
#
#
# Indices 1 2 3 4 5 6 
#
# 1 0.008547 -0.003614 0.000178 0.000000 0.000000 0.000000
# 2 -0.003614 0.041112 0.001840 0.000000 0.000000 0.000000
# 3 0.000178 0.001840 0.010619 0.000000 0.000000 0.000000
# 4 0.000000 0.000000 0.000000 -0.077458 0.000000 0.000000
# 5 0.000000 0.000000 0.000000 0.000000 0.079264 0.000000
# 6 0.000000 0.000000 0.000000 0.000000 0.000000 0.020623
#
#
# Mechanical properties :
#
#
# Convention : Reuss Voigt Hill
#
# Bulk Modulus (GPa) = 17.51661 27.43124 22.47393
# Shear Modulus (GPa) = 47.65246 25.62905 36.64076
#
# Velocity S-wave (km/s) = 4.45627 3.26810 3.90761
# Velocity P-wave (km/s) = 5.81185 5.06677 5.45205
#
# Compressibility (1/GPa) = 0.05708867
#
# Stress axis : x y z
#
# Youngs Moduli (GPa) = 116.99496 24.32359 94.17099
#
# Poissons Ratio (x) = 0.08789 -0.01678
# Poissons Ratio (y) = 0.42276 -0.17330
# Poissons Ratio (z) = -0.02085 -0.04476
#
# Static dielectric constant tensor:
#      x y z
#    x 1.907080 0.000000 0.000000 
#    y 0.000000 2.666240 0.000000 
#    z 0.000000 0.000000 2.237600 
# 
# From -- ./inp_files/2271.got.cif
#   From: 2010.05.17/outbox.cif.g08.bks.cpg/sg58_2_cif.got.tgz:2271.got - 2010.06.03 14:20:14.
