data_PCOD9443776
_publ_section_title
;
Structure prediction by ZEFSAII (Michael W. Deem and Ramdas Pophale) SiO2 
 PCOD9443776
Probable space group: P N N M
;
_chemical_formula_sum "Si O2"
_cell_formula_units_Z 56
_cell_length_a 22.143165
_cell_length_b 15.008265
_cell_length_c 7.839623
_cell_angle_alpha 90.000000
_cell_angle_beta 90.000000
_cell_angle_gamma 90.000000
_cell_volume 2605.345739
_symmetry_space_group_name_H-M "P N N M"
_symmetry_group_IT_number 58
_symmetry_cell_setting 'orthorhombic'
loop_
_space_group_symop_operation_xyz
x,y,z
-x,-y,z
1/2+x,1/2-y,1/2-z
1/2-x,1/2+y,1/2-z
-x,-y,-z
x,y,-z
1/2-x,1/2+y,1/2+z
1/2+x,1/2-y,1/2+z
loop_
_atom_site_type_symbol
_atom_site_label
_atom_site_fract_x
_atom_site_fract_y
_atom_site_fract_z
Si Si1 0.170515 0.111294 0.803346
Si Si2 0.422801 0.914436 0.791720
Si Si3 0.535079 0.412281 0.801657
Si Si4 0.308053 0.414897 0.290108
Si Si5 0.075484 0.806211 0.799918
Si Si6 0.439338 0.113088 0.794018
Si Si7 0.808044 0.691996 0.298920
O O1 0.097732 0.106187 0.790369
O O2 0.192531 0.202230 0.720483
O O3 0.194279 0.017285 0.733080
O O4 0.188570 0.116184 0.000000
O O5 0.490370 0.888474 0.737184
O O6 0.370219 0.849747 0.728820
O O7 0.411973 0.017645 0.743348
O O8 0.424401 0.911745 0.000000
O O9 0.500000 0.500000 0.735756
O O10 0.487401 0.332190 0.787886
O O11 0.549936 0.427610 0.000000
O O12 0.309344 0.414996 0.500000
O O13 0.370484 0.368670 0.235312
O O14 0.251123 0.357392 0.230705
O O15 0.090391 0.702748 0.773460
O O16 0.067366 0.823545 0.000000
O O17 0.438229 0.116686 0.000000
O O18 0.808842 0.672072 0.500000
#
# Coordination Sequence:
#
# PCOD9443776 Si02
#       7
#     8   8   8   8   8   8   8
#     4  11  22  39  60  86 118 154 191 236 294 351
#     4   8  16  32  55  78 106 141 182 228 283 332
#     4  11  22  36  58  87 114 147 191 241 291 345
#     4   9  21  38  55  76 112 154 189 224 281 344
#     4  11  21  35  54  81 115 153 186 231 293 349
#     4   9  17  32  54  82 109 139 180 234 284 340
#     4  10  20  38  60  81 109 154 201 239 279 340
#
# _framework density 21.494268000000002
#
# number of rings (size 3 to 8) (size 9 to 14) (size 15 to 20)
#    0.000    2.143    1.429    3.000    0.000    2.857 
#    0.000    6.429    0.000    0.000    0.000    0.000 
#    0.000    0.000    0.000    0.000    0.000    0.000 
#
# Total GULP energy -312822.970712 kJ/mol
# GULP energy per Si atom -5586.124477 kJ/mol
# Density = 2.144535 g / cm^3
# Si number density = 21.494268 Si / 1000 Ang^3
#
#
#
# Elastic Constant Matrix: (Units=GPa)
#
#
# Indices 1 2 3 4 5 6 
#
# 1 64.4717 45.9186 -1.3648 0.0000 0.0000 0.0000
# 2 45.9186 146.0828 -8.6583 0.0000 0.0000 0.0000
# 3 -1.3648 -8.6583 23.9407 0.0000 0.0000 0.0000
# 4 0.0000 0.0000 0.0000 22.6392 0.0000 0.0000
# 5 0.0000 0.0000 0.0000 0.0000 -2.6636 0.0000
# 6 0.0000 0.0000 0.0000 0.0000 0.0000 29.4060
#
#
#
# Elastic Compliance Matrix: (Units=1/GPa)
#
#
# Indices 1 2 3 4 5 6 
#
# 1 0.020016 -0.006360 -0.001159 0.000000 0.000000 0.000000
# 2 -0.006360 0.009017 0.002898 0.000000 0.000000 0.000000
# 3 -0.001159 0.002898 0.042752 0.000000 0.000000 0.000000
# 4 0.000000 0.000000 0.000000 0.044171 0.000000 0.000000
# 5 0.000000 0.000000 0.000000 0.000000 -0.375430 0.000000
# 6 0.000000 0.000000 0.000000 0.000000 0.000000 0.034007
#
#
# Mechanical properties :
#
#
# Convention : Reuss Voigt Hill
#
# Bulk Modulus (GPa) = 15.98931 34.03181 25.01056
# Shear Modulus (GPa) = -25.59149 23.11630 -1.23759
#
# Velocity S-wave (km/s) = -3.45428 3.28298 -0.75962
# Velocity P-wave (km/s) = 2.90764 5.49891 3.30027
#
# Compressibility (1/GPa) = 0.06254180
#
# Stress axis : x y z
#
# Youngs Moduli (GPa) = 49.95940 110.90761 23.39077
#
# Poissons Ratio (x) = 0.70542 0.02712
# Poissons Ratio (y) = 0.31777 -0.06779
# Poissons Ratio (z) = 0.05792 -0.32144
#
# Static dielectric constant tensor:
#      x y z
#    x 1.755910 0.000000 0.000000 
#    y 0.000000 1.779850 0.000000 
#    z 0.000000 0.000000 1.789360 
# 
# From -- ./inp_files/9049.got.cif
#   From: 2010.05.17/outbox.cif.g08.bks.cpg/sg58_5_cif.got.tgz:9049.got - 2010.06.03 14:20:14.
