data_PCOD9443092
_publ_section_title
;
Structure prediction by ZEFSAII (Michael W. Deem and Ramdas Pophale) SiO2 
 PCOD9443092
Probable space group: P N N M
;
_chemical_formula_sum "Si O2"
_cell_formula_units_Z 64
_cell_length_a 11.062481
_cell_length_b 33.366919
_cell_length_c 7.808170
_cell_angle_alpha 90.000000
_cell_angle_beta 90.000000
_cell_angle_gamma 90.000000
_cell_volume 2882.158796
_symmetry_space_group_name_H-M "P N N M"
_symmetry_group_IT_number 58
_symmetry_cell_setting 'orthorhombic'
loop_
_space_group_symop_operation_xyz
x,y,z
-x,-y,z
1/2+x,1/2-y,1/2-z
1/2-x,1/2+y,1/2-z
-x,-y,-z
x,y,-z
1/2-x,1/2+y,1/2+z
1/2+x,1/2-y,1/2+z
loop_
_atom_site_type_symbol
_atom_site_label
_atom_site_fract_x
_atom_site_fract_y
_atom_site_fract_z
Si Si1 0.528345 0.291920 0.201662
Si Si2 0.605696 0.031338 0.710681
Si Si3 0.645088 0.412691 0.699936
Si Si4 0.399351 0.367293 0.699552
Si Si5 0.521877 0.199706 0.706387
Si Si6 0.136173 0.000699 0.305629
Si Si7 0.862624 0.619226 0.196922
Si Si8 0.733556 0.836395 0.293712
O O1 0.423253 0.319608 0.280445
O O2 0.535079 0.244738 0.229331
O O3 0.652550 0.310915 0.269384
O O4 0.519881 0.299410 0.000000
O O5 0.608058 0.030703 0.500000
O O6 0.742686 0.019698 0.768526
O O7 0.585496 0.077448 0.767772
O O8 0.500000 0.000000 0.762279
O O9 0.633053 0.422989 0.500000
O O10 0.521216 0.390332 0.756107
O O11 0.666786 0.452410 0.804883
O O12 0.751189 0.380769 0.723325
O O13 0.381315 0.376144 0.500000
O O14 0.282212 0.382281 0.797241
O O15 0.535326 0.202347 0.500000
O O16 0.603568 0.162775 0.772029
O O17 0.388163 0.185415 0.752629
O O18 0.122380 0.984918 0.500000
O O19 0.000000 0.000000 0.226246
O O20 0.905418 0.620561 0.000000
O O21 0.738267 0.838647 0.500000
#
# Coordination Sequence:
#
# PCOD9443092 Si02
#       8
#     8   8   8   8   8   8   8   8
#     4  10  21  37  58  85 114 149 190 235 283 335
#     4   9  19  35  58  86 117 152 193 239 290 348
#     4  10  21  36  57  85 114 149 188 235 288 337
#     4  10  21  38  59  83 117 155 191 235 288 341
#     4  10  22  37  57  85 116 149 186 233 285 340
#     4  10  20  34  58  88 114 147 193 244 289 342
#     4  10  21  37  59  87 116 150 194 237 285 344
#     4   9  20  38  58  81 111 147 187 230 278 336
#
# _framework density 22.205576000000001
#
# number of rings (size 3 to 8) (size 9 to 14) (size 15 to 20)
#    0.000    2.250    0.000    1.875    3.500    4.250 
#    0.000    0.625    0.000    0.750    0.000    0.000 
#    0.000    0.000    0.000    0.000    0.000    0.000 
#
# Total GULP energy -357122.235678 kJ/mol
# GULP energy per Si atom -5580.034932 kJ/mol
# Density = 2.215503 g / cm^3
# Si number density = 22.205576 Si / 1000 Ang^3
#
#
#
# Elastic Constant Matrix: (Units=GPa)
#
#
# Indices 1 2 3 4 5 6 
#
# 1 53.6698 9.6785 4.5373 0.0000 0.0000 0.0000
# 2 9.6785 118.5132 5.1300 0.0000 0.0000 0.0000
# 3 4.5373 5.1300 24.0146 0.0000 0.0000 0.0000
# 4 0.0000 0.0000 0.0000 15.3931 0.0000 0.0000
# 5 0.0000 0.0000 0.0000 0.0000 6.5513 0.0000
# 6 0.0000 0.0000 0.0000 0.0000 0.0000 25.0323
#
#
#
# Elastic Compliance Matrix: (Units=1/GPa)
#
#
# Indices 1 2 3 4 5 6 
#
# 1 0.019169 -0.001422 -0.003318 0.000000 0.000000 0.000000
# 2 -0.001422 0.008622 -0.001573 0.000000 0.000000 0.000000
# 3 -0.003318 -0.001573 0.042604 0.000000 0.000000 0.000000
# 4 0.000000 0.000000 0.000000 0.064964 0.000000 0.000000
# 5 0.000000 0.000000 0.000000 0.000000 0.152641 0.000000
# 6 0.000000 0.000000 0.000000 0.000000 0.000000 0.039948
#
#
# Mechanical properties :
#
#
# Convention : Reuss Voigt Hill
#
# Bulk Modulus (GPa) = 17.31021 26.09882 21.70452
# Shear Modulus (GPa) = 13.89536 21.18546 17.54041
#
# Velocity S-wave (km/s) = 2.50423 3.09214 2.81358
# Velocity P-wave (km/s) = 4.02168 4.95250 4.51116
#
# Compressibility (1/GPa) = 0.05776936
#
# Stress axis : x y z
#
# Youngs Moduli (GPa) = 52.16654 115.98109 23.47183
#
# Poissons Ratio (x) = 0.16491 0.07788
# Poissons Ratio (y) = 0.07417 0.03693
# Poissons Ratio (z) = 0.17310 0.18246
#
# Static dielectric constant tensor:
#      x y z
#    x 1.835600 0.000000 0.000000 
#    y 0.000000 1.625860 0.000000 
#    z 0.000000 0.000000 1.821760 
# 
# From -- ./inp_files/4666.got.cif
#   From: 2010.05.17/outbox.cif.g08.bks.cpg/sg58_3_cif.got.tgz:4666.got - 2010.06.03 14:20:14.
