data_PCOD9443620
_publ_section_title
;
Structure prediction by ZEFSAII (Michael W. Deem and Ramdas Pophale) SiO2 
 PCOD9443620
Probable space group: P N N M
;
_chemical_formula_sum "Si O2"
_cell_formula_units_Z 64
_cell_length_a 16.979410
_cell_length_b 21.247110
_cell_length_c 8.833654
_cell_angle_alpha 90.000000
_cell_angle_beta 90.000000
_cell_angle_gamma 90.000000
_cell_volume 3186.858981
_symmetry_space_group_name_H-M "P N N M"
_symmetry_group_IT_number 58
_symmetry_cell_setting 'orthorhombic'
loop_
_space_group_symop_operation_xyz
x,y,z
-x,-y,z
1/2+x,1/2-y,1/2-z
1/2-x,1/2+y,1/2-z
-x,-y,-z
x,y,-z
1/2-x,1/2+y,1/2+z
1/2+x,1/2-y,1/2+z
loop_
_atom_site_type_symbol
_atom_site_label
_atom_site_fract_x
_atom_site_fract_y
_atom_site_fract_z
Si Si1 0.595222 0.699592 0.819232
Si Si2 0.443181 0.158767 0.818266
Si Si3 0.277423 0.394007 0.182338
Si Si4 0.713721 0.883909 0.679221
Si Si5 0.322127 0.713438 0.327356
Si Si6 0.888722 0.650079 0.817790
Si Si7 0.839035 0.980228 0.181856
Si Si8 0.465650 0.613589 0.327643
O O1 0.571987 0.768919 0.762855
O O2 0.680710 0.672124 0.776775
O O3 0.533239 0.647003 0.766426
O O4 0.592723 0.703437 0.000000
O O5 0.372936 0.117632 0.749666
O O6 0.528964 0.137948 0.762380
O O7 0.439396 0.157584 0.000000
O O8 0.185349 0.393665 0.223384
O O9 0.324268 0.450016 0.260446
O O10 0.282377 0.400485 0.000000
O O11 0.711012 0.891360 0.500000
O O12 0.755969 0.818185 0.724775
O O13 0.768878 0.937441 0.751493
O O14 0.290914 0.720265 0.500000
O O15 0.358746 0.779505 0.279198
O O16 0.394063 0.663973 0.332323
O O17 0.899368 0.647999 0.000000
O O18 0.922324 0.949231 0.230232
O O19 0.837142 0.976701 0.000000
O O20 0.493738 0.602938 0.500000
#
# Coordination Sequence:
#
# PCOD9443620 Si02
#       8
#     8   8   8   8   8   8   8   8
#     4  10  21  36  57  86 121 154 187 232 285 341
#     4  11  22  37  58  88 122 151 188 236 289 344
#     4  10  22  39  58  82 113 154 195 237 286 338
#     4  11  22  36  59  86 112 148 194 238 285 343
#     4   9  17  33  56  82 116 152 185 229 288 342
#     4  10  20  37  59  82 116 154 190 234 291 347
#     4  10  22  41  60  81 113 153 196 242 290 337
#     4   9  18  33  56  83 113 151 189 231 282 335
#
# _framework density 20.082469
#
# number of rings (size 3 to 8) (size 9 to 14) (size 15 to 20)
#    0.000    2.000    1.250    3.375    0.000    7.000 
#    0.000    4.375    0.000    3.750    0.000    0.000 
#    0.000    0.000    0.000    0.000    0.000    0.000 
#
# Total GULP energy -357457.462440 kJ/mol
# GULP energy per Si atom -5585.272851 kJ/mol
# Density = 2.003676 g / cm^3
# Si number density = 20.082469 Si / 1000 Ang^3
#
#
#
# Elastic Constant Matrix: (Units=GPa)
#
#
# Indices 1 2 3 4 5 6 
#
# 1 83.4736 -6.3678 14.8139 0.0000 0.0000 0.0000
# 2 -6.3678 36.2538 -0.4436 0.0000 0.0000 0.0000
# 3 14.8139 -0.4436 30.2435 0.0000 0.0000 0.0000
# 4 0.0000 0.0000 0.0000 23.5530 0.0000 0.0000
# 5 0.0000 0.0000 0.0000 0.0000 32.3530 0.0000
# 6 0.0000 0.0000 0.0000 0.0000 0.0000 24.5265
#
#
#
# Elastic Compliance Matrix: (Units=1/GPa)
#
#
# Indices 1 2 3 4 5 6 
#
# 1 0.013303 0.002257 -0.006483 0.000000 0.000000 0.000000
# 2 0.002257 0.027971 -0.000695 0.000000 0.000000 0.000000
# 3 -0.006483 -0.000695 0.036230 0.000000 0.000000 0.000000
# 4 0.000000 0.000000 0.000000 0.042457 0.000000 0.000000
# 5 0.000000 0.000000 0.000000 0.000000 0.030909 0.000000
# 6 0.000000 0.000000 0.000000 0.000000 0.000000 0.040772
#
#
# Mechanical properties :
#
#
# Convention : Reuss Voigt Hill
#
# Bulk Modulus (GPa) = 14.77932 18.44179 16.61056
# Shear Modulus (GPa) = 22.31758 25.55105 23.93432
#
# Velocity S-wave (km/s) = 3.33723 3.57081 3.45599
# Velocity P-wave (km/s) = 4.71431 5.11897 4.92080
#
# Compressibility (1/GPa) = 0.06766210
#
# Stress axis : x y z
#
# Youngs Moduli (GPa) = 75.17382 35.75093 27.60129
#
# Poissons Ratio (x) = -0.08070 0.17893
# Poissons Ratio (y) = -0.16968 0.01919
# Poissons Ratio (z) = 0.48733 0.02486
#
# Static dielectric constant tensor:
#      x y z
#    x 1.716340 0.000000 0.000000 
#    y 0.000000 1.732210 0.000000 
#    z 0.000000 0.000000 1.677960 
# 
# From -- ./inp_files/8411.got.cif
#   From: 2010.05.17/outbox.cif.g08.bks.cpg/sg58_5_cif.got.tgz:8411.got - 2010.06.03 14:20:14.
