data_PCOD9443140
_publ_section_title
;
Structure prediction by ZEFSAII (Michael W. Deem and Ramdas Pophale) SiO2 
 PCOD9443140
Probable space group: P N N M
;
_chemical_formula_sum "Si O2"
_cell_formula_units_Z 64
_cell_length_a 19.353694
_cell_length_b 23.657646
_cell_length_c 8.783183
_cell_angle_alpha 90.000000
_cell_angle_beta 90.000000
_cell_angle_gamma 90.000000
_cell_volume 4021.493125
_symmetry_space_group_name_H-M "P N N M"
_symmetry_group_IT_number 58
_symmetry_cell_setting 'orthorhombic'
loop_
_space_group_symop_operation_xyz
x,y,z
-x,-y,z
1/2+x,1/2-y,1/2-z
1/2-x,1/2+y,1/2-z
-x,-y,-z
x,y,-z
1/2-x,1/2+y,1/2+z
1/2+x,1/2-y,1/2+z
loop_
_atom_site_type_symbol
_atom_site_label
_atom_site_fract_x
_atom_site_fract_y
_atom_site_fract_z
Si Si1 0.860041 0.228851 0.819489
Si Si2 0.002956 0.251917 0.319473
Si Si3 0.770034 0.341154 0.181950
Si Si4 0.721912 0.165370 0.182354
Si Si5 0.496477 0.122197 0.681558
Si Si6 0.854416 0.774222 0.181851
Si Si7 0.361600 0.062451 0.818096
Si Si8 0.143837 0.438003 0.181381
O O1 0.823689 0.289481 0.788318
O O2 0.801139 0.182638 0.785587
O O3 0.930094 0.224413 0.726310
O O4 0.875450 0.227110 0.000000
O O5 0.011679 0.253654 0.500000
O O6 0.001007 0.315817 0.254339
O O7 0.068049 0.221135 0.243342
O O8 0.697486 0.320918 0.250999
O O9 0.801100 0.396881 0.256939
O O10 0.764602 0.347133 0.000000
O O11 0.675051 0.214089 0.258288
O O12 0.698305 0.105610 0.247165
O O13 0.712152 0.167960 0.000000
O O14 0.485907 0.128064 0.500000
O O15 0.432801 0.088079 0.752158
O O16 0.567885 0.088945 0.707591
O O17 0.853071 0.774728 0.000000
O O18 0.352618 0.999207 0.756849
O O19 0.363570 0.063320 0.000000
O O20 0.153667 0.442401 0.000000
#
# Coordination Sequence:
#
# PCOD9443140 Si02
#       8
#     8   8   8   8   8   8   8   8
#     4   9  19  34  53  75 104 137 169 213 269 314
#     4  12  22  32  52  79 107 140 179 216 260 315
#     4  10  20  36  55  75 103 136 175 220 265 311
#     4  10  20  35  54  76 103 135 175 220 263 311
#     4  11  22  36  51  72 105 143 183 221 261 306
#     4  11  21  34  53  76 106 138 173 215 266 318
#     4  12  24  36  53  76 104 141 183 222 261 311
#     4  11  23  37  54  74 103 143 182 221 263 309
#
# _framework density 15.914486999999999
#
# number of rings (size 3 to 8) (size 9 to 14) (size 15 to 20)
#    0.000    1.250    2.500    6.000    0.000    5.500 
#    0.000    0.000    0.000    0.000    0.000    0.875 
#    0.000    7.000    0.000    0.000    0.000    0.000 
#
# Total GULP energy -357697.342350 kJ/mol
# GULP energy per Si atom -5589.020974 kJ/mol
# Density = 1.587827 g / cm^3
# Si number density = 15.914487 Si / 1000 Ang^3
#
#
#
# Elastic Constant Matrix: (Units=GPa)
#
#
# Indices 1 2 3 4 5 6 
#
# 1 115.3343 56.4772 73.6598 0.0000 0.0000 0.0000
# 2 56.4772 83.0165 50.8649 0.0000 0.0000 0.0000
# 3 73.6598 50.8649 114.9296 0.0000 0.0000 0.0000
# 4 0.0000 0.0000 0.0000 -15.5960 0.0000 0.0000
# 5 0.0000 0.0000 0.0000 0.0000 21.1408 0.0000
# 6 0.0000 0.0000 0.0000 0.0000 0.0000 17.8599
#
#
#
# Elastic Compliance Matrix: (Units=1/GPa)
#
#
# Indices 1 2 3 4 5 6 
#
# 1 0.017035 -0.006723 -0.007943 0.000000 0.000000 0.000000
# 2 -0.006723 0.019181 -0.004180 0.000000 0.000000 0.000000
# 3 -0.007943 -0.004180 0.015642 0.000000 0.000000 0.000000
# 4 0.000000 0.000000 0.000000 -0.064119 0.000000 0.000000
# 5 0.000000 0.000000 0.000000 0.000000 0.047302 0.000000
# 6 0.000000 0.000000 0.000000 0.000000 0.000000 0.055991
#
#
# Mechanical properties :
#
#
# Convention : Reuss Voigt Hill
#
# Bulk Modulus (GPa) = 70.59093 75.03159 72.81126
# Shear Modulus (GPa) = 37.46870 13.49952 25.48411
#
# Velocity S-wave (km/s) = 4.85746 2.91564 4.00599
# Velocity P-wave (km/s) = 8.71278 7.65400 8.20049
#
# Compressibility (1/GPa) = 0.01416613
#
# Stress axis : x y z
#
# Youngs Moduli (GPa) = 58.70211 52.13621 63.93179
#
# Poissons Ratio (x) = 0.35049 0.50780
# Poissons Ratio (y) = 0.39463 0.26725
# Poissons Ratio (z) = 0.46626 0.21794
#
# Static dielectric constant tensor:
#      x y z
#    x 1.532380 0.000000 0.000000 
#    y 0.000000 1.504200 0.000000 
#    z 0.000000 0.000000 1.526560 
# 
# From -- ./inp_files/6942.got.cif
#   From: 2010.05.17/outbox.cif.g08.bks.cpg/sg58_4_cif.got.tgz:6942.got - 2010.06.03 14:20:14.
