data_PCOD9443231
_publ_section_title
;
Structure prediction by ZEFSAII (Michael W. Deem and Ramdas Pophale) SiO2 
 PCOD9443231
Probable space group: P N N M
;
_chemical_formula_sum "Si O2"
_cell_formula_units_Z 56
_cell_length_a 22.154530
_cell_length_b 15.138465
_cell_length_c 7.656194
_cell_angle_alpha 90.000000
_cell_angle_beta 90.000000
_cell_angle_gamma 90.000000
_cell_volume 2567.777042
_symmetry_space_group_name_H-M "P N N M"
_symmetry_group_IT_number 58
_symmetry_cell_setting 'orthorhombic'
loop_
_space_group_symop_operation_xyz
x,y,z
-x,-y,z
1/2+x,1/2-y,1/2-z
1/2-x,1/2+y,1/2-z
-x,-y,-z
x,y,-z
1/2-x,1/2+y,1/2+z
1/2+x,1/2-y,1/2+z
loop_
_atom_site_type_symbol
_atom_site_label
_atom_site_fract_x
_atom_site_fract_y
_atom_site_fract_z
Si Si1 0.565974 0.527678 0.702453
Si Si2 0.645170 0.992076 0.212487
Si Si3 0.868324 0.853906 0.700862
Si Si4 0.870433 0.202442 0.201695
Si Si5 0.957544 0.360340 0.711531
Si Si6 0.406725 0.833721 0.786144
Si Si7 0.267639 0.161842 0.794731
O O1 0.500000 0.500000 0.776794
O O2 0.553980 0.552527 0.500000
O O3 0.609203 0.442690 0.709030
O O4 0.602299 0.611739 0.779585
O O5 0.582380 0.944574 0.260028
O O6 0.696409 0.924622 0.272779
O O7 0.641834 0.093105 0.271165
O O8 0.648560 0.992518 0.000000
O O9 0.887929 0.863177 0.500000
O O10 0.897019 0.765083 0.777544
O O11 0.797032 0.835874 0.706414
O O12 0.923729 0.274397 0.216926
O O13 0.811620 0.253329 0.275778
O O14 0.855123 0.185203 0.000000
O O15 0.955479 0.354102 0.500000
O O16 0.026588 0.364268 0.763931
O O17 0.404076 0.831023 0.000000
O O18 0.256502 0.149925 0.000000
#
# Coordination Sequence:
#
# PCOD9443231 Si02
#       7
#     8   8   8   8   8   8   8
#     4  10  22  40  60  82 111 151 195 237 288 346
#     4   8  15  29  52  78 102 133 173 214 256 312
#     4  11  23  36  54  81 112 144 181 231 281 328
#     4  10  20  35  57  81 108 144 184 228 275 326
#     4   9  16  29  53  82 108 135 169 211 261 321
#     4   9  17  30  50  78 107 134 168 211 263 321
#     4  10  21  38  58  79 106 143 186 228 274 330
#
# _framework density 21.808748000000001
#
# number of rings (size 3 to 8) (size 9 to 14) (size 15 to 20)
#    0.000    2.429    0.000    3.429    0.000    4.286 
#    0.000    3.571    0.000   15.429    0.000    0.000 
#    0.000    0.000    0.000    0.000    0.000    0.000 
#
# Total GULP energy -312460.960314 kJ/mol
# GULP energy per Si atom -5579.660006 kJ/mol
# Density = 2.175911 g / cm^3
# Si number density = 21.808748 Si / 1000 Ang^3
#
#
#
# Elastic Constant Matrix: (Units=GPa)
#
#
# Indices 1 2 3 4 5 6 
#
# 1 52.3078 3.0258 -5.5807 0.0000 0.0000 0.0000
# 2 3.0258 115.3226 -4.6557 0.0000 0.0000 0.0000
# 3 -5.5807 -4.6557 41.7922 0.0000 0.0000 0.0000
# 4 0.0000 0.0000 0.0000 25.2342 0.0000 0.0000
# 5 0.0000 0.0000 0.0000 0.0000 16.8829 0.0000
# 6 0.0000 0.0000 0.0000 0.0000 0.0000 8.4948
#
#
#
# Elastic Compliance Matrix: (Units=1/GPa)
#
#
# Indices 1 2 3 4 5 6 
#
# 1 0.019413 -0.000407 0.002547 0.000000 0.000000 0.000000
# 2 -0.000407 0.008719 0.000917 0.000000 0.000000 0.000000
# 3 0.002547 0.000917 0.024370 0.000000 0.000000 0.000000
# 4 0.000000 0.000000 0.000000 0.039629 0.000000 0.000000
# 5 0.000000 0.000000 0.000000 0.000000 0.059232 0.000000
# 6 0.000000 0.000000 0.000000 0.000000 0.000000 0.117719
#
#
# Mechanical properties :
#
#
# Convention : Reuss Voigt Hill
#
# Bulk Modulus (GPa) = 17.05988 21.66681 19.36335
# Shear Modulus (GPa) = 17.69877 24.56460 21.13169
#
# Velocity S-wave (km/s) = 2.85185 3.35978 3.11618
# Velocity P-wave (km/s) = 4.32245 5.00073 4.67391
#
# Compressibility (1/GPa) = 0.05861705
#
# Stress axis : x y z
#
# Youngs Moduli (GPa) = 51.51229 114.69183 41.03372
#
# Poissons Ratio (x) = 0.04662 -0.10451
# Poissons Ratio (y) = 0.02094 -0.03763
# Poissons Ratio (z) = -0.13120 -0.10518
#
# Static dielectric constant tensor:
#      x y z
#    x 1.782610 0.000000 0.000000 
#    y 0.000000 1.796830 0.000000 
#    z 0.000000 0.000000 1.820870 
# 
# From -- ./inp_files/9022.got.cif
#   From: 2010.05.17/outbox.cif.g08.bks.cpg/sg58_5_cif.got.tgz:9022.got - 2010.06.03 14:20:14.
