data_PCOD9443483
_publ_section_title
;
Structure prediction by ZEFSAII (Michael W. Deem and Ramdas Pophale) SiO2 
 PCOD9443483
Probable space group: P N N M
;
_chemical_formula_sum "Si O2"
_cell_formula_units_Z 64
_cell_length_a 12.484207
_cell_length_b 9.871231
_cell_length_c 25.293443
_cell_angle_alpha 90.000000
_cell_angle_beta 90.000000
_cell_angle_gamma 90.000000
_cell_volume 3117.024578
_symmetry_space_group_name_H-M "P N N M"
_symmetry_group_IT_number 58
_symmetry_cell_setting 'orthorhombic'
loop_
_space_group_symop_operation_xyz
x,y,z
-x,-y,z
1/2+x,1/2-y,1/2-z
1/2-x,1/2+y,1/2-z
-x,-y,-z
x,y,-z
1/2-x,1/2+y,1/2+z
1/2+x,1/2-y,1/2+z
loop_
_atom_site_type_symbol
_atom_site_label
_atom_site_fract_x
_atom_site_fract_y
_atom_site_fract_z
Si Si1 0.660925 0.548716 0.416389
Si Si2 0.609920 0.057193 0.774548
Si Si3 0.909724 0.804612 0.653294
Si Si4 0.468417 0.726788 0.558881
Si Si5 0.664950 0.486610 0.296601
Si Si6 0.143554 0.899023 0.317692
Si Si7 0.377216 0.802783 0.332225
Si Si8 0.904231 0.601783 0.561008
O O1 0.602859 0.410445 0.434487
O O2 0.590765 0.673308 0.437882
O O3 0.654429 0.558756 0.352850
O O4 0.784668 0.541826 0.432602
O O5 0.635484 0.197575 0.804288
O O6 0.595477 0.089376 0.712925
O O7 0.500000 0.000000 0.796465
O O8 0.709155 0.959501 0.785459
O O9 0.902361 0.734042 0.597051
O O10 0.034316 0.829094 0.665502
O O11 0.853449 0.949040 0.658580
O O12 0.449196 0.784366 0.500000
O O13 0.435230 0.810909 0.611180
O O14 0.635093 0.574840 0.245607
O O15 0.603640 0.345642 0.306100
O O16 0.248734 0.820900 0.336781
O O17 0.923111 0.634230 0.500000
O O18 0.000000 0.500000 0.577530
#
# Coordination Sequence:
#
# PCOD9443483 Si02
#       8
#     8   8   8   8   8   8   8   8
#     4  10  20  36  62  92 123 154 202 256 311 364
#     4  11  21  36  59  88 118 156 199 250 304 367
#     4  11  22  39  61  87 121 165 197 249 318 370
#     4  10  21  37  61  88 121 163 203 250 304 355
#     4  10  20  36  59  90 122 158 197 247 313 365
#     4  10  23  38  58  87 129 160 203 247 305 386
#     4  10  22  39  58  91 120 161 204 252 302 368
#     4  11  24  41  64  95 124 159 210 266 315 360
#
# _framework density 20.532401
#
# number of rings (size 3 to 8) (size 9 to 14) (size 15 to 20)
#    0.000    1.625    2.500    2.625    5.250    1.000 
#    4.500    1.875    0.000    0.375    0.000    0.000 
#    0.000    0.000    0.000    0.000    0.000    0.000 
#
# Total GULP energy -357356.464274 kJ/mol
# GULP energy per Si atom -5583.694754 kJ/mol
# Density = 2.048567 g / cm^3
# Si number density = 20.532401 Si / 1000 Ang^3
#
#
#
# Elastic Constant Matrix: (Units=GPa)
#
#
# Indices 1 2 3 4 5 6 
#
# 1 91.7488 9.0644 10.5558 0.0000 0.0000 0.0000
# 2 9.0644 27.1630 19.5780 0.0000 0.0000 0.0000
# 3 10.5558 19.5780 150.9753 0.0000 0.0000 0.0000
# 4 0.0000 0.0000 0.0000 21.3026 0.0000 0.0000
# 5 0.0000 0.0000 0.0000 0.0000 15.9587 0.0000
# 6 0.0000 0.0000 0.0000 0.0000 0.0000 20.4293
#
#
#
# Elastic Compliance Matrix: (Units=1/GPa)
#
#
# Indices 1 2 3 4 5 6 
#
# 1 0.011286 -0.003527 -0.000332 0.000000 0.000000 0.000000
# 2 -0.003527 0.041713 -0.005163 0.000000 0.000000 0.000000
# 3 -0.000332 -0.005163 0.007316 0.000000 0.000000 0.000000
# 4 0.000000 0.000000 0.000000 0.046943 0.000000 0.000000
# 5 0.000000 0.000000 0.000000 0.000000 0.062662 0.000000
# 6 0.000000 0.000000 0.000000 0.000000 0.000000 0.048949
#
#
# Mechanical properties :
#
#
# Convention : Reuss Voigt Hill
#
# Bulk Modulus (GPa) = 23.65620 38.69817 31.17719
# Shear Modulus (GPa) = 19.92015 26.91738 23.41876
#
# Velocity S-wave (km/s) = 3.11815 3.62466 3.38091
# Velocity P-wave (km/s) = 4.95078 6.03373 5.51888
#
# Compressibility (1/GPa) = 0.04227222
#
# Stress axis : x y z
#
# Youngs Moduli (GPa) = 88.60575 23.97347 136.68184
#
# Poissons Ratio (x) = 0.08456 0.04534
# Poissons Ratio (y) = 0.31252 0.70563
# Poissons Ratio (z) = 0.02939 0.12377
#
# Static dielectric constant tensor:
#      x y z
#    x 1.761260 0.000000 0.000000 
#    y 0.000000 1.725220 0.000000 
#    z 0.000000 0.000000 1.740290 
# 
# From -- ./inp_files/32068.got.cif
#   From: 2010.05.17/outbox.cif.g08.bks.cpg/sg58_17_cif.got.tgz:32068.got - 2010.06.03 14:20:14.
