data_PCOD9443502
_publ_section_title
;
Structure prediction by ZEFSAII (Michael W. Deem and Ramdas Pophale) SiO2 
 PCOD9443502
Probable space group: P N N M
;
_chemical_formula_sum "Si O2"
_cell_formula_units_Z 48
_cell_length_a 28.920725
_cell_length_b 9.667731
_cell_length_c 7.691093
_cell_angle_alpha 90.000000
_cell_angle_beta 90.000000
_cell_angle_gamma 90.000000
_cell_volume 2150.412603
_symmetry_space_group_name_H-M "P N N M"
_symmetry_group_IT_number 58
_symmetry_cell_setting 'orthorhombic'
loop_
_space_group_symop_operation_xyz
x,y,z
-x,-y,z
1/2+x,1/2-y,1/2-z
1/2-x,1/2+y,1/2-z
-x,-y,-z
x,y,-z
1/2-x,1/2+y,1/2+z
1/2+x,1/2-y,1/2+z
loop_
_atom_site_type_symbol
_atom_site_label
_atom_site_fract_x
_atom_site_fract_y
_atom_site_fract_z
Si Si1 0.220951 0.324130 0.790468
Si Si2 0.492426 0.350811 0.294939
Si Si3 0.305997 0.507727 0.208965
Si Si4 0.612218 0.668322 0.202932
Si Si5 0.140467 0.533187 0.789023
Si Si6 0.456351 0.907838 0.712210
O O1 0.268443 0.394880 0.727185
O O2 0.180912 0.430331 0.732245
O O3 0.209846 0.164938 0.744928
O O4 0.221882 0.327931 0.000000
O O5 0.500000 0.500000 0.215457
O O6 0.502897 0.358066 0.500000
O O7 0.438544 0.310278 0.282666
O O8 0.529086 0.242331 0.223210
O O9 0.356594 0.458360 0.273523
O O10 0.307659 0.495277 0.000000
O O11 0.641446 0.809309 0.225554
O O12 0.603765 0.645178 0.000000
O O13 0.091946 0.468305 0.728546
O O14 0.141083 0.538154 0.000000
O O15 0.454451 0.908132 0.500000
O O16 0.500000 0.000000 0.762063
#
# Coordination Sequence:
#
# PCOD9443502 Si02
#       6
#     8   8   8   8   8   8
#     4  10  22  39  63  90 112 147 197 241 280 338
#     4  10  21  36  58  83 111 149 194 241 287 330
#     4  10  23  41  58  84 121 152 183 234 293 340
#     4  11  23  38  56  81 119 158 189 228 288 353
#     4  10  20  36  60  86 112 144 193 244 282 329
#     4   9  16  31  54  81 111 140 177 236 288 319
#
# _framework density 22.321297000000001
#
# number of rings (size 3 to 8) (size 9 to 14) (size 15 to 20)
#    0.000    2.000    1.667    1.500    2.333    3.000 
#    0.000    1.667    0.000    0.000    0.000    0.000 
#    0.000    0.000    0.000    0.000    0.000    0.000 
#
# Total GULP energy -268022.522044 kJ/mol
# GULP energy per Si atom -5583.802543 kJ/mol
# Density = 2.227049 g / cm^3
# Si number density = 22.321297 Si / 1000 Ang^3
#
#
#
# Elastic Constant Matrix: (Units=GPa)
#
#
# Indices 1 2 3 4 5 6 
#
# 1 60.4018 0.1914 -10.6886 0.0000 0.0000 0.0000
# 2 0.1914 105.8674 -13.5178 0.0000 0.0000 0.0000
# 3 -10.6886 -13.5178 35.6387 0.0000 0.0000 0.0000
# 4 0.0000 0.0000 0.0000 20.5799 0.0000 0.0000
# 5 0.0000 0.0000 0.0000 0.0000 10.4160 0.0000
# 6 0.0000 0.0000 0.0000 0.0000 0.0000 42.7838
#
#
#
# Elastic Compliance Matrix: (Units=1/GPa)
#
#
# Indices 1 2 3 4 5 6 
#
# 1 0.017529 0.000672 0.005512 0.000000 0.000000 0.000000
# 2 0.000672 0.009952 0.003976 0.000000 0.000000 0.000000
# 3 0.005512 0.003976 0.031221 0.000000 0.000000 0.000000
# 4 0.000000 0.000000 0.000000 0.048591 0.000000 0.000000
# 5 0.000000 0.000000 0.000000 0.000000 0.096006 0.000000
# 6 0.000000 0.000000 0.000000 0.000000 0.000000 0.023373
#
#
# Mechanical properties :
#
#
# Convention : Reuss Voigt Hill
#
# Bulk Modulus (GPa) = 12.65441 17.09756 14.87598
# Shear Modulus (GPa) = 21.48761 29.81746 25.65254
#
# Velocity S-wave (km/s) = 3.10603 3.65887 3.39372
# Velocity P-wave (km/s) = 4.30636 5.05234 4.69419
#
# Compressibility (1/GPa) = 0.07902386
#
# Stress axis : x y z
#
# Youngs Moduli (GPa) = 57.04801 100.47921 32.02989
#
# Poissons Ratio (x) = -0.06754 -0.17655
# Poissons Ratio (y) = -0.03834 -0.12737
# Poissons Ratio (z) = -0.31446 -0.39956
#
# Static dielectric constant tensor:
#      x y z
#    x 1.823960 0.000000 0.000000 
#    y 0.000000 1.891020 0.000000 
#    z 0.000000 0.000000 1.812720 
# 
# From -- ./inp_files/2996.got.cif
#   From: 2010.05.17/outbox.cif.g08.bks.cpg/sg58_2_cif.got.tgz:2996.got - 2010.06.03 14:20:14.
