data_PCOD9443185
_publ_section_title
;
Structure prediction by ZEFSAII (Michael W. Deem and Ramdas Pophale) SiO2 
 PCOD9443185
Probable space group: P N N M
;
_chemical_formula_sum "Si O2"
_cell_formula_units_Z 48
_cell_length_a 30.282035
_cell_length_b 10.357004
_cell_length_c 7.676490
_cell_angle_alpha 90.000000
_cell_angle_beta 90.000000
_cell_angle_gamma 90.000000
_cell_volume 2407.586445
_symmetry_space_group_name_H-M "P N N M"
_symmetry_group_IT_number 58
_symmetry_cell_setting 'orthorhombic'
loop_
_space_group_symop_operation_xyz
x,y,z
-x,-y,z
1/2+x,1/2-y,1/2-z
1/2-x,1/2+y,1/2-z
-x,-y,-z
x,y,-z
1/2-x,1/2+y,1/2+z
1/2+x,1/2-y,1/2+z
loop_
_atom_site_type_symbol
_atom_site_label
_atom_site_fract_x
_atom_site_fract_y
_atom_site_fract_z
Si Si1 0.388363 0.542566 0.210620
Si Si2 0.469599 0.110657 0.200656
Si Si3 0.616063 0.756263 0.787026
Si Si4 0.018869 0.136003 0.796900
Si Si5 0.289109 0.550179 0.208842
Si Si6 0.715239 0.741013 0.790937
O O1 0.394713 0.392052 0.261971
O O2 0.428446 0.627075 0.279950
O O3 0.339045 0.580512 0.269100
O O4 0.389996 0.547991 0.000000
O O5 0.421852 0.147531 0.277168
O O6 0.497407 0.242695 0.203513
O O7 0.500000 0.000000 0.283093
O O8 0.461283 0.070835 0.000000
O O9 0.666236 0.782993 0.730456
O O10 0.615059 0.758911 0.000000
O O11 0.006584 0.145833 0.000000
O O12 0.000000 0.000000 0.727780
O O13 0.276828 0.405840 0.272896
O O14 0.253295 0.658147 0.249073
O O15 0.291861 0.541795 0.000000
O O16 0.712699 0.734333 0.000000
#
# Coordination Sequence:
#
# PCOD9443185 Si02
#       6
#     8   8   8   8   8   8
#     4   9  17  33  57  77  98 135 180 221 253 296
#     4  10  20  35  56  79 104 138 180 219 256 307
#     4   8  15  31  54  76  99 134 176 214 254 303
#     4  11  22  34  52  80 110 137 170 213 261 314
#     4   9  19  35  54  79 105 132 176 219 254 309
#     4   9  18  34  55  76 104 139 172 213 265 314
#
# _framework density 19.936979000000001
#
# number of rings (size 3 to 8) (size 9 to 14) (size 15 to 20)
#    0.000    2.667    1.667    2.500    0.000    2.333 
#    3.000    3.333    0.000    0.000    0.000    0.000 
#    0.000    0.000    0.000    0.000    0.000    0.000 
#
# Total GULP energy -267712.229577 kJ/mol
# GULP energy per Si atom -5577.338116 kJ/mol
# Density = 1.989160 g / cm^3
# Si number density = 19.936979 Si / 1000 Ang^3
#
#
#
# Elastic Constant Matrix: (Units=GPa)
#
#
# Indices 1 2 3 4 5 6 
#
# 1 136.6911 52.6809 -7.3891 0.0000 0.0000 0.0000
# 2 52.6809 66.2577 -5.8786 0.0000 0.0000 0.0000
# 3 -7.3891 -5.8786 35.9291 0.0000 0.0000 0.0000
# 4 0.0000 0.0000 0.0000 14.6380 0.0000 0.0000
# 5 0.0000 0.0000 0.0000 0.0000 53.0350 0.0000
# 6 0.0000 0.0000 0.0000 0.0000 0.0000 40.1365
#
#
#
# Elastic Compliance Matrix: (Units=1/GPa)
#
#
# Indices 1 2 3 4 5 6 
#
# 1 0.010571 -0.008333 0.000811 0.000000 0.000000 0.000000
# 2 -0.008333 0.021884 0.001867 0.000000 0.000000 0.000000
# 3 0.000811 0.001867 0.028305 0.000000 0.000000 0.000000
# 4 0.000000 0.000000 0.000000 0.068315 0.000000 0.000000
# 5 0.000000 0.000000 0.000000 0.000000 0.018855 0.000000
# 6 0.000000 0.000000 0.000000 0.000000 0.000000 0.024915
#
#
# Mechanical properties :
#
#
# Convention : Reuss Voigt Hill
#
# Bulk Modulus (GPa) = 20.22315 35.30047 27.76181
# Shear Modulus (GPa) = 24.92026 34.85954 29.88990
#
# Velocity S-wave (km/s) = 3.53930 4.18603 3.87618
# Velocity P-wave (km/s) = 5.18341 6.41157 5.82992
#
# Compressibility (1/GPa) = 0.04944827
#
# Stress axis : x y z
#
# Youngs Moduli (GPa) = 94.59671 45.69581 35.32975
#
# Poissons Ratio (x) = 0.38079 -0.02864
# Poissons Ratio (y) = 0.78829 -0.06595
# Poissons Ratio (z) = -0.07668 -0.08530
#
# Static dielectric constant tensor:
#      x y z
#    x 1.721660 0.000000 0.000000 
#    y 0.000000 1.687450 0.000000 
#    z 0.000000 0.000000 1.764780 
# 
# From -- ./inp_files/4314.got.cif
#   From: 2010.05.17/outbox.cif.g08.bks.cpg/sg58_3_cif.got.tgz:4314.got - 2010.06.03 14:20:14.
