data_PCOD9443638
_publ_section_title
;
Structure prediction by ZEFSAII (Michael W. Deem and Ramdas Pophale) SiO2 
 PCOD9443638
Probable space group: P N N M
;
_chemical_formula_sum "Si O2"
_cell_formula_units_Z 64
_cell_length_a 12.236257
_cell_length_b 31.042182
_cell_length_c 7.734450
_cell_angle_alpha 90.000000
_cell_angle_beta 90.000000
_cell_angle_gamma 90.000000
_cell_volume 2937.854391
_symmetry_space_group_name_H-M "P N N M"
_symmetry_group_IT_number 58
_symmetry_cell_setting 'orthorhombic'
loop_
_space_group_symop_operation_xyz
x,y,z
-x,-y,z
1/2+x,1/2-y,1/2-z
1/2-x,1/2+y,1/2-z
-x,-y,-z
x,y,-z
1/2-x,1/2+y,1/2+z
1/2+x,1/2-y,1/2+z
loop_
_atom_site_type_symbol
_atom_site_label
_atom_site_fract_x
_atom_site_fract_y
_atom_site_fract_z
Si Si1 0.513715 0.306128 0.787655
Si Si2 0.268651 0.323710 0.799899
Si Si3 0.545660 0.209541 0.197118
Si Si4 0.683385 0.378671 0.794222
Si Si5 0.485703 0.549244 0.291096
Si Si6 0.279626 0.418816 0.710565
Si Si7 0.932029 0.378791 0.202548
Si Si8 0.929998 0.538622 0.702097
O O1 0.392035 0.319746 0.734434
O O2 0.527490 0.256995 0.728110
O O3 0.605549 0.339948 0.726989
O O4 0.517433 0.306692 0.000000
O O5 0.175435 0.298099 0.702228
O O6 0.239723 0.373684 0.783541
O O7 0.265869 0.310231 0.000000
O O8 0.486381 0.168406 0.280237
O O9 0.506273 0.210224 0.000000
O O10 0.619162 0.423431 0.765169
O O11 0.807571 0.378487 0.727192
O O12 0.691963 0.371952 0.000000
O O13 0.500000 0.500000 0.232407
O O14 0.483634 0.548601 0.500000
O O15 0.596620 0.572993 0.234133
O O16 0.277767 0.416825 0.500000
O O17 0.192326 0.454234 0.770532
O O18 0.004599 0.416392 0.286625
O O19 0.928098 0.389668 0.000000
O O20 0.914440 0.528064 0.500000
O O21 0.000000 0.500000 0.781627
#
# Coordination Sequence:
#
# PCOD9443638 Si02
#       8
#     8   8   8   8   8   8   8   8
#     4   9  21  40  61  85 117 156 193 237 293 349
#     4  11  21  38  63  88 116 151 196 245 292 348
#     4  11  23  40  62  87 119 158 197 241 296 353
#     4  10  22  42  61  83 118 158 196 239 294 350
#     4  10  22  38  60  90 121 153 194 244 291 344
#     4  10  20  37  59  87 118 152 196 241 291 346
#     4  11  24  40  60  87 120 156 198 248 295 347
#     4  10  22  39  62  87 117 159 198 239 294 353
#
# _framework density 21.784604999999999
#
# number of rings (size 3 to 8) (size 9 to 14) (size 15 to 20)
#    0.000    1.750    2.500    1.125    3.500    1.500 
#    0.000    3.125    0.000    0.000    0.000    0.000 
#    0.000    0.000    0.000    0.000    0.000    0.000 
#
# Total GULP energy -357424.828257 kJ/mol
# GULP energy per Si atom -5584.762942 kJ/mol
# Density = 2.173502 g / cm^3
# Si number density = 21.784605 Si / 1000 Ang^3
#
#
#
# Elastic Constant Matrix: (Units=GPa)
#
#
# Indices 1 2 3 4 5 6 
#
# 1 100.3688 3.2580 -8.1224 0.0000 0.0000 0.0000
# 2 3.2580 77.7314 -17.1131 0.0000 0.0000 0.0000
# 3 -8.1224 -17.1131 30.4807 0.0000 0.0000 0.0000
# 4 0.0000 0.0000 0.0000 15.6250 0.0000 0.0000
# 5 0.0000 0.0000 0.0000 0.0000 -7.8638 0.0000
# 6 0.0000 0.0000 0.0000 0.0000 0.0000 34.9829
#
#
#
# Elastic Compliance Matrix: (Units=1/GPa)
#
#
# Indices 1 2 3 4 5 6 
#
# 1 0.010185 0.000195 0.002823 0.000000 0.000000 0.000000
# 2 0.000195 0.014683 0.008296 0.000000 0.000000 0.000000
# 3 0.002823 0.008296 0.038217 0.000000 0.000000 0.000000
# 4 0.000000 0.000000 0.000000 0.064000 0.000000 0.000000
# 5 0.000000 0.000000 0.000000 0.000000 -0.127165 0.000000
# 6 0.000000 0.000000 0.000000 0.000000 0.000000 0.028585
#
#
# Mechanical properties :
#
#
# Convention : Reuss Voigt Hill
#
# Bulk Modulus (GPa) = 11.66681 18.29178 14.97929
# Shear Modulus (GPa) = 145.13815 23.91937 84.52876
#
# Velocity S-wave (km/s) = 8.17122 3.31719 6.23589
# Velocity P-wave (km/s) = 9.71557 4.80485 7.66416
#
# Compressibility (1/GPa) = 0.08571322
#
# Stress axis : x y z
#
# Youngs Moduli (GPa) = 98.17949 68.10610 26.16604
#
# Poissons Ratio (x) = -0.01326 -0.07388
# Poissons Ratio (y) = -0.01912 -0.21706
# Poissons Ratio (z) = -0.27721 -0.56497
#
# Static dielectric constant tensor:
#      x y z
#    x 1.788670 0.000000 0.000000 
#    y 0.000000 1.795230 0.000000 
#    z 0.000000 0.000000 1.804650 
# 
# From -- ./inp_files/4689.got.cif
#   From: 2010.05.17/outbox.cif.g08.bks.cpg/sg58_3_cif.got.tgz:4689.got - 2010.06.03 14:20:14.
