data_PCOD9443826
_publ_section_title
;
Structure prediction by ZEFSAII (Michael W. Deem and Ramdas Pophale) SiO2 
 PCOD9443826
Probable space group: P N N M
;
_chemical_formula_sum "Si O2"
_cell_formula_units_Z 48
_cell_length_a 8.278778
_cell_length_b 28.884391
_cell_length_c 8.196143
_cell_angle_alpha 90.000000
_cell_angle_beta 90.000000
_cell_angle_gamma 90.000000
_cell_volume 1959.922864
_symmetry_space_group_name_H-M "P N N M"
_symmetry_group_IT_number 58
_symmetry_cell_setting 'orthorhombic'
loop_
_space_group_symop_operation_xyz
x,y,z
-x,-y,z
1/2+x,1/2-y,1/2-z
1/2-x,1/2+y,1/2-z
-x,-y,-z
x,y,-z
1/2-x,1/2+y,1/2+z
1/2+x,1/2-y,1/2+z
loop_
_atom_site_type_symbol
_atom_site_label
_atom_site_fract_x
_atom_site_fract_y
_atom_site_fract_z
Si Si1 0.071826 0.764352 0.307847
Si Si2 0.931170 0.404028 0.308797
Si Si3 0.242664 0.179823 0.691793
Si Si4 0.048566 0.934567 0.187591
Si Si5 0.249514 0.511934 0.816653
Si Si6 0.256118 0.848827 0.196896
O O1 0.051037 0.754818 0.500000
O O2 0.113266 0.716603 0.220365
O O3 0.218205 0.800084 0.277336
O O4 0.914994 0.792442 0.247863
O O5 0.952918 0.411845 0.500000
O O6 0.785083 0.367716 0.281322
O O7 0.893430 0.453268 0.229173
O O8 0.086024 0.376157 0.244489
O O9 0.223346 0.170150 0.500000
O O10 0.108156 0.883748 0.230106
O O11 0.909179 0.955518 0.298933
O O12 0.203849 0.968662 0.203787
O O13 0.992265 0.936249 0.000000
O O14 0.232114 0.495054 0.000000
O O15 0.268718 0.842590 0.000000
#
# Coordination Sequence:
#
# PCOD9443826 Si02
#       6
#     8   8   8   8   8   8
#     4  11  24  40  61  88 118 152 190 235 286 341
#     4  11  23  40  60  85 117 153 194 238 287 342
#     4  11  24  41  61  88 119 151 192 238 285 341
#     4  10  20  38  62  86 114 153 196 240 292 344
#     4  11  22  37  58  87 119 152 193 240 289 344
#     4  10  23  40  60  86 116 151 194 241 286 340
#
# _framework density 24.490760000000002
#
# number of rings (size 3 to 8) (size 9 to 14) (size 15 to 20)
#    0.000    1.333    0.000    6.500    0.000   12.667 
#    0.000    3.333    0.000    0.000    0.000    0.000 
#    0.000    0.000    0.000    0.000    0.000    0.000 
#
# Total GULP energy -268884.170720 kJ/mol
# GULP energy per Si atom -5601.753557 kJ/mol
# Density = 2.443502 g / cm^3
# Si number density = 24.490760 Si / 1000 Ang^3
#
#
#
# Elastic Constant Matrix: (Units=GPa)
#
#
# Indices 1 2 3 4 5 6 
#
# 1 70.9076 0.1725 -10.1158 0.0000 0.0000 0.0000
# 2 0.1725 110.9913 -0.4058 0.0000 0.0000 0.0000
# 3 -10.1158 -0.4058 41.3338 0.0000 0.0000 0.0000
# 4 0.0000 0.0000 0.0000 79.3536 0.0000 0.0000
# 5 0.0000 0.0000 0.0000 0.0000 32.9865 0.0000
# 6 0.0000 0.0000 0.0000 0.0000 0.0000 42.3542
#
#
#
# Elastic Compliance Matrix: (Units=1/GPa)
#
#
# Indices 1 2 3 4 5 6 
#
# 1 0.014613 -0.000010 0.003576 0.000000 0.000000 0.000000
# 2 -0.000010 0.009010 0.000086 0.000000 0.000000 0.000000
# 3 0.003576 0.000086 0.025069 0.000000 0.000000 0.000000
# 4 0.000000 0.000000 0.000000 0.012602 0.000000 0.000000
# 5 0.000000 0.000000 0.000000 0.000000 0.030315 0.000000
# 6 0.000000 0.000000 0.000000 0.000000 0.000000 0.023610
#
#
# Mechanical properties :
#
#
# Convention : Reuss Voigt Hill
#
# Bulk Modulus (GPa) = 17.85783 22.50384 20.18083
# Shear Modulus (GPa) = 39.50048 46.51097 43.00573
#
# Velocity S-wave (km/s) = 4.02042 4.36262 4.19501
# Velocity P-wave (km/s) = 5.37207 5.88092 5.63225
#
# Compressibility (1/GPa) = 0.05599784
#
# Stress axis : x y z
#
# Youngs Moduli (GPa) = 68.43182 110.98728 39.88938
#
# Poissons Ratio (x) = 0.00107 -0.14265
# Poissons Ratio (y) = 0.00066 -0.00343
# Poissons Ratio (z) = -0.24473 -0.00956
#
# Static dielectric constant tensor:
#      x y z
#    x 2.072550 0.000000 0.000000 
#    y 0.000000 1.895050 0.000000 
#    z 0.000000 0.000000 1.824220 
# 
# From -- ./inp_files/2846.got.cif
#   From: 2010.05.17/outbox.cif.g08.bks.cpg/sg58_2_cif.got.tgz:2846.got - 2010.06.03 14:20:14.
