data_PCOD9443531
_publ_section_title
;
Structure prediction by ZEFSAII (Michael W. Deem and Ramdas Pophale) SiO2 
 PCOD9443531
Probable space group: P N N M
;
_chemical_formula_sum "Si O2"
_cell_formula_units_Z 48
_cell_length_a 7.462799
_cell_length_b 17.545434
_cell_length_c 15.871594
_cell_angle_alpha 90.000000
_cell_angle_beta 90.000000
_cell_angle_gamma 90.000000
_cell_volume 2078.195526
_symmetry_space_group_name_H-M "P N N M"
_symmetry_group_IT_number 58
_symmetry_cell_setting 'orthorhombic'
loop_
_space_group_symop_operation_xyz
x,y,z
-x,-y,z
1/2+x,1/2-y,1/2-z
1/2-x,1/2+y,1/2-z
-x,-y,-z
x,y,-z
1/2-x,1/2+y,1/2+z
1/2+x,1/2-y,1/2+z
loop_
_atom_site_type_symbol
_atom_site_label
_atom_site_fract_x
_atom_site_fract_y
_atom_site_fract_z
Si Si1 0.363661 0.572573 0.296909
Si Si2 0.274453 0.922981 0.411453
Si Si3 0.809571 0.246131 0.906583
Si Si4 0.272101 0.699390 0.594605
Si Si5 0.311668 0.081906 0.370550
Si Si6 0.648782 0.687144 0.230406
O O1 0.500000 0.500000 0.302313
O O2 0.297508 0.609650 0.383832
O O3 0.204662 0.563943 0.229233
O O4 0.467151 0.646024 0.258234
O O5 0.216106 0.887669 0.500000
O O6 0.489097 0.922872 0.406383
O O7 0.226939 0.877330 0.329203
O O8 0.208424 0.009774 0.407595
O O9 0.751624 0.333839 0.895826
O O10 0.755951 0.204077 0.819878
O O11 0.028790 0.238995 0.904777
O O12 0.755699 0.218217 0.000000
O O13 0.200323 0.708382 0.500000
O O14 0.157940 0.739697 0.668916
#
# Coordination Sequence:
#
# PCOD9443531 Si02
#       6
#     8   8   8   8   8   8
#     4  11  23  40  60  91 128 161 199 255 318 353
#     4  11  22  37  61  86 115 163 204 237 296 371
#     4  10  20  36  61  85 112 155 202 244 295 360
#     4  10  21  39  63  88 117 160 210 249 294 365
#     4  11  20  37  60  85 120 153 198 244 295 369
#     4  11  21  37  62  87 121 154 198 255 301 358
#
# _framework density 23.096962000000001
#
# number of rings (size 3 to 8) (size 9 to 14) (size 15 to 20)
#    0.000    1.333    5.000    2.500    0.000    0.333 
#    0.000    5.833    0.000    0.000    0.000    2.333 
#    0.000    0.000    0.000    0.000    0.000    0.000 
#
# Total GULP energy -267481.913017 kJ/mol
# GULP energy per Si atom -5572.539855 kJ/mol
# Density = 2.304439 g / cm^3
# Si number density = 23.096962 Si / 1000 Ang^3
#
#
#
# Elastic Constant Matrix: (Units=GPa)
#
#
# Indices 1 2 3 4 5 6 
#
# 1 38.3780 1.8178 7.8133 0.0000 0.0000 0.0000
# 2 1.8178 88.8081 52.7978 0.0000 0.0000 0.0000
# 3 7.8133 52.7978 193.9963 0.0000 0.0000 0.0000
# 4 0.0000 0.0000 0.0000 13.3813 0.0000 0.0000
# 5 0.0000 0.0000 0.0000 0.0000 16.9371 0.0000
# 6 0.0000 0.0000 0.0000 0.0000 0.0000 22.2121
#
#
#
# Elastic Compliance Matrix: (Units=1/GPa)
#
#
# Indices 1 2 3 4 5 6 
#
# 1 0.026273 0.000109 -0.001088 0.000000 0.000000 0.000000
# 2 0.000109 0.013434 -0.003661 0.000000 0.000000 0.000000
# 3 -0.001088 -0.003661 0.006195 0.000000 0.000000 0.000000
# 4 0.000000 0.000000 0.000000 0.074731 0.000000 0.000000
# 5 0.000000 0.000000 0.000000 0.000000 0.059042 0.000000
# 6 0.000000 0.000000 0.000000 0.000000 0.000000 0.045020
#
#
# Mechanical properties :
#
#
# Convention : Reuss Voigt Hill
#
# Bulk Modulus (GPa) = 27.30524 49.56002 38.43263
# Shear Modulus (GPa) = 20.31017 27.75634 24.03325
#
# Velocity S-wave (km/s) = 2.96859 3.47036 3.22924
# Velocity P-wave (km/s) = 4.85775 6.12877 5.52990
#
# Compressibility (1/GPa) = 0.03662300
#
# Stress axis : x y z
#
# Youngs Moduli (GPa) = 38.06206 74.43615 161.42485
#
# Poissons Ratio (x) = -0.00811 0.17560
# Poissons Ratio (y) = -0.00415 0.59092
# Poissons Ratio (z) = 0.04140 0.27249
#
# Static dielectric constant tensor:
#      x y z
#    x 1.967690 0.000000 0.000000 
#    y 0.000000 1.942260 0.000000 
#    z 0.000000 0.000000 1.997120 
# 
# From -- ./inp_files/19852.got.cif
#   From: 2010.05.17/outbox.cif.g08.bks.cpg/sg58_10_cif.got.tgz:19852.got - 2010.06.03 14:20:14.
