data_PCOD9443981
_publ_section_title
;
Structure prediction by ZEFSAII (Michael W. Deem and Ramdas Pophale) SiO2 
 PCOD9443981
Probable space group: P N N M
;
_chemical_formula_sum "Si O2"
_cell_formula_units_Z 56
_cell_length_a 15.068164
_cell_length_b 10.060450
_cell_length_c 18.159866
_cell_angle_alpha 90.000000
_cell_angle_beta 90.000000
_cell_angle_gamma 90.000000
_cell_volume 2752.899678
_symmetry_space_group_name_H-M "P N N M"
_symmetry_group_IT_number 58
_symmetry_cell_setting 'orthorhombic'
loop_
_space_group_symop_operation_xyz
x,y,z
-x,-y,z
1/2+x,1/2-y,1/2-z
1/2-x,1/2+y,1/2-z
-x,-y,-z
x,y,-z
1/2-x,1/2+y,1/2+z
1/2+x,1/2-y,1/2+z
loop_
_atom_site_type_symbol
_atom_site_label
_atom_site_fract_x
_atom_site_fract_y
_atom_site_fract_z
Si Si1 0.126863 0.905501 0.644971
Si Si2 0.541058 0.142893 0.292298
Si Si3 0.597202 0.027356 0.917162
Si Si4 0.422994 0.386079 0.310850
Si Si5 0.182672 0.332038 0.916129
Si Si6 0.286687 0.523630 0.414710
Si Si7 0.936804 0.793949 0.362026
O O1 0.127129 0.879176 0.732565
O O2 0.216160 0.867687 0.603897
O O3 0.040278 0.822260 0.619490
O O4 0.107707 0.062305 0.636524
O O5 0.469375 0.245620 0.326101
O O6 0.618272 0.119028 0.351692
O O7 0.570501 0.223772 0.218607
O O8 0.500000 0.000000 0.274827
O O9 0.604577 0.186405 0.916003
O O10 0.500000 0.000000 0.884626
O O11 0.686980 0.973734 0.881376
O O12 0.594137 0.971786 0.000000
O O13 0.500000 0.500000 0.304287
O O14 0.352882 0.429993 0.371321
O O15 0.176192 0.172194 0.913486
O O16 0.161939 0.375298 0.000000
O O17 0.278794 0.481623 0.500000
#
# Coordination Sequence:
#
# PCOD9443981 Si02
#       7
#     8   8   8   8   8   8   8
#     4  10  21  39  63  88 125 162 212 263 320 387
#     4  11  24  42  64  96 127 168 218 273 334 377
#     4  10  21  36  56  89 127 160 206 263 317 381
#     4  11  20  44  67  89 127 166 218 273 312 381
#     4  11  24  41  62  94 132 168 215 266 330 400
#     4  10  22  39  65  96 123 169 221 263 321 389
#     4  10  20  40  61  88 121 166 213 259 319 387
#
# _framework density 20.342188
#
# number of rings (size 3 to 8) (size 9 to 14) (size 15 to 20)
#    0.000    1.571    4.286    1.286    2.000    5.714 
#    2.571    2.857    0.000    0.000    0.000    0.000 
#    0.000    0.000    0.000    0.000    0.000    0.000 
#
# Total GULP energy -312566.572555 kJ/mol
# GULP energy per Si atom -5581.545938 kJ/mol
# Density = 2.029589 g / cm^3
# Si number density = 20.342188 Si / 1000 Ang^3
#
#
#
# Elastic Constant Matrix: (Units=GPa)
#
#
# Indices 1 2 3 4 5 6 
#
# 1 51.1032 3.6456 34.7513 0.0000 0.0000 0.0000
# 2 3.6456 69.7583 1.4220 0.0000 0.0000 0.0000
# 3 34.7513 1.4220 56.4104 0.0000 0.0000 0.0000
# 4 0.0000 0.0000 0.0000 21.0952 0.0000 0.0000
# 5 0.0000 0.0000 0.0000 0.0000 22.6420 0.0000
# 6 0.0000 0.0000 0.0000 0.0000 0.0000 32.4164
#
#
#
# Elastic Compliance Matrix: (Units=1/GPa)
#
#
# Indices 1 2 3 4 5 6 
#
# 1 0.033801 -0.001343 -0.020789 0.000000 0.000000 0.000000
# 2 -0.001343 0.014396 0.000464 0.000000 0.000000 0.000000
# 3 -0.020789 0.000464 0.030523 0.000000 0.000000 0.000000
# 4 0.000000 0.000000 0.000000 0.047404 0.000000 0.000000
# 5 0.000000 0.000000 0.000000 0.000000 0.044166 0.000000
# 6 0.000000 0.000000 0.000000 0.000000 0.000000 0.030849
#
#
# Mechanical properties :
#
#
# Convention : Reuss Voigt Hill
#
# Bulk Modulus (GPa) = 28.26098 28.54551 28.40324
# Shear Modulus (GPa) = 19.51083 24.39426 21.95255
#
# Velocity S-wave (km/s) = 3.10034 3.46670 3.28863
# Velocity P-wave (km/s) = 5.17099 5.48517 5.33040
#
# Compressibility (1/GPa) = 0.03538448
#
# Stress axis : x y z
#
# Youngs Moduli (GPa) = 29.58483 69.46418 32.76265
#
# Poissons Ratio (x) = 0.09327 0.68111
# Poissons Ratio (y) = 0.03972 -0.01521
# Poissons Ratio (z) = 0.61504 -0.03225
#
# Static dielectric constant tensor:
#      x y z
#    x 1.741540 0.000000 0.000000 
#    y 0.000000 1.718990 0.000000 
#    z 0.000000 0.000000 1.743690 
# 
# From -- ./inp_files/30041.got.cif
#   From: 2010.05.17/outbox.cif.g08.bks.cpg/sg58_16_cif.got.tgz:30041.got - 2010.06.03 14:20:14.
