data_PCOD9443562
_publ_section_title
;
Structure prediction by ZEFSAII (Michael W. Deem and Ramdas Pophale) SiO2 
 PCOD9443562
Probable space group: P N N M
;
_chemical_formula_sum "Si O2"
_cell_formula_units_Z 64
_cell_length_a 9.614874
_cell_length_b 16.834105
_cell_length_c 18.336134
_cell_angle_alpha 90.000000
_cell_angle_beta 90.000000
_cell_angle_gamma 90.000000
_cell_volume 2967.846282
_symmetry_space_group_name_H-M "P N N M"
_symmetry_group_IT_number 58
_symmetry_cell_setting 'orthorhombic'
loop_
_space_group_symop_operation_xyz
x,y,z
-x,-y,z
1/2+x,1/2-y,1/2-z
1/2-x,1/2+y,1/2-z
-x,-y,-z
x,y,-z
1/2-x,1/2+y,1/2+z
1/2+x,1/2-y,1/2+z
loop_
_atom_site_type_symbol
_atom_site_label
_atom_site_fract_x
_atom_site_fract_y
_atom_site_fract_z
Si Si1 0.043496 0.872501 0.278331
Si Si2 0.714204 0.722937 0.414575
Si Si3 0.412469 0.102048 0.583730
Si Si4 0.986245 0.704324 0.316857
Si Si5 0.512593 0.409245 0.380947
Si Si6 0.604078 0.426428 0.079899
Si Si7 0.348127 0.869588 0.318980
Si Si8 0.748840 0.285261 0.414453
O O1 0.197704 0.902991 0.296296
O O2 0.044871 0.777805 0.268596
O O3 0.978263 0.910475 0.207138
O O4 0.952358 0.881393 0.350481
O O5 0.750750 0.721355 0.500000
O O6 0.630438 0.805227 0.401858
O O7 0.848691 0.721856 0.363870
O O8 0.620630 0.645701 0.398418
O O9 0.454675 0.095911 0.500000
O O10 0.266202 0.056539 0.591972
O O11 0.545330 0.082875 0.631357
O O12 0.933188 0.644500 0.255429
O O13 0.109612 0.687838 0.373979
O O14 0.500000 0.500000 0.407089
O O15 0.641318 0.358285 0.410755
O O16 0.500000 0.500000 0.075572
O O17 0.595787 0.385450 0.000000
O O18 0.309783 0.789454 0.366559
O O19 0.768473 0.262682 0.500000
#
# Coordination Sequence:
#
# PCOD9443562 Si02
#       8
#     8   8   8   8   8   8   8   8
#     4  11  22  38  63  92 124 165 209 261 317 383
#     4  11  21  39  64  92 124 160 209 260 319 387
#     4  10  20  36  62  93 125 160 204 259 315 378
#     4  11  22  38  65  93 124 157 202 264 325 376
#     4  12  25  42  64  91 125 171 217 261 318 388
#     4  10  22  39  61  91 127 165 206 255 319 388
#     4  11  22  37  63  92 127 159 206 262 324 374
#     4  11  24  40  62  96 130 162 209 271 326 385
#
# _framework density 21.564458999999999
#
# number of rings (size 3 to 8) (size 9 to 14) (size 15 to 20)
#    0.000    1.125    5.000    1.500    3.500    3.500 
#    0.000    1.250    0.000    3.750    0.000    0.000 
#    0.000    0.000    0.000    0.000    0.000    0.000 
#
# Total GULP energy -357447.835088 kJ/mol
# GULP energy per Si atom -5585.122423 kJ/mol
# Density = 2.151538 g / cm^3
# Si number density = 21.564459 Si / 1000 Ang^3
#
#
#
# Elastic Constant Matrix: (Units=GPa)
#
#
# Indices 1 2 3 4 5 6 
#
# 1 120.9039 15.1475 48.9643 0.0000 0.0000 0.0000
# 2 15.1475 73.2958 11.1288 0.0000 0.0000 0.0000
# 3 48.9643 11.1288 113.8053 0.0000 0.0000 0.0000
# 4 0.0000 0.0000 0.0000 -11.5870 0.0000 0.0000
# 5 0.0000 0.0000 0.0000 0.0000 58.0240 0.0000
# 6 0.0000 0.0000 0.0000 0.0000 0.0000 29.0389
#
#
#
# Elastic Compliance Matrix: (Units=1/GPa)
#
#
# Indices 1 2 3 4 5 6 
#
# 1 0.010168 -0.001459 -0.004232 0.000000 0.000000 0.000000
# 2 -0.001459 0.014058 -0.000747 0.000000 0.000000 0.000000
# 3 -0.004232 -0.000747 0.010681 0.000000 0.000000 0.000000
# 4 0.000000 0.000000 0.000000 -0.086303 0.000000 0.000000
# 5 0.000000 0.000000 0.000000 0.000000 0.017234 0.000000
# 6 0.000000 0.000000 0.000000 0.000000 0.000000 0.034437
#
#
# Mechanical properties :
#
#
# Convention : Reuss Voigt Hill
#
# Bulk Modulus (GPa) = 45.39039 50.94293 48.16666
# Shear Modulus (GPa) = 243.97877 30.61279 137.29578
#
# Velocity S-wave (km/s) = 10.64823 3.77184 7.98786
# Velocity P-wave (km/s) = 13.12533 6.53023 10.36625
#
# Compressibility (1/GPa) = 0.02203110
#
# Stress axis : x y z
#
# Youngs Moduli (GPa) = 98.35092 71.13261 93.62615
#
# Poissons Ratio (x) = 0.10376 0.39622
# Poissons Ratio (y) = 0.14347 0.06995
# Poissons Ratio (z) = 0.41622 0.05314
#
# Static dielectric constant tensor:
#      x y z
#    x 1.761100 0.000000 0.000000 
#    y 0.000000 1.882710 0.000000 
#    z 0.000000 0.000000 1.814640 
# 
# From -- ./inp_files/25645.got.cif
#   From: 2010.05.17/outbox.cif.g08.bks.cpg/sg58_13_cif.got.tgz:25645.got - 2010.06.03 14:20:14.
