data_PCOD9443394
_publ_section_title
;
Structure prediction by ZEFSAII (Michael W. Deem and Ramdas Pophale) SiO2 
 PCOD9443394
Probable space group: P N N M
;
_chemical_formula_sum "Si O2"
_cell_formula_units_Z 64
_cell_length_a 23.786941
_cell_length_b 16.218604
_cell_length_c 7.670482
_cell_angle_alpha 90.000000
_cell_angle_beta 90.000000
_cell_angle_gamma 90.000000
_cell_volume 2959.202741
_symmetry_space_group_name_H-M "P N N M"
_symmetry_group_IT_number 58
_symmetry_cell_setting 'orthorhombic'
loop_
_space_group_symop_operation_xyz
x,y,z
-x,-y,z
1/2+x,1/2-y,1/2-z
1/2-x,1/2+y,1/2-z
-x,-y,-z
x,y,-z
1/2-x,1/2+y,1/2+z
1/2+x,1/2-y,1/2+z
loop_
_atom_site_type_symbol
_atom_site_label
_atom_site_fract_x
_atom_site_fract_y
_atom_site_fract_z
Si Si1 0.538361 0.574033 0.800599
Si Si2 0.312983 0.691438 0.710455
Si Si3 0.865830 0.640138 0.794542
Si Si4 0.746286 0.077826 0.790377
Si Si5 0.430241 0.241234 0.707408
Si Si6 0.147972 0.021709 0.210836
Si Si7 0.802674 0.247593 0.208297
Si Si8 0.988727 0.594092 0.214236
O O1 0.500000 0.500000 0.719559
O O2 0.542209 0.667711 0.731118
O O3 0.600895 0.536594 0.789195
O O4 0.519617 0.582527 0.000000
O O5 0.313841 0.691942 0.500000
O O6 0.338876 0.776384 0.780430
O O7 0.352682 0.616437 0.765581
O O8 0.247025 0.686969 0.758377
O O9 0.817208 0.572428 0.773458
O O10 0.926299 0.617582 0.724551
O O11 0.873429 0.654449 0.000000
O O12 0.775635 0.162136 0.724128
O O13 0.789695 0.007643 0.741612
O O14 0.744020 0.081327 0.000000
O O15 0.426236 0.229291 0.500000
O O16 0.365853 0.239766 0.776812
O O17 0.467802 0.164952 0.773331
O O18 0.141952 0.015285 0.000000
O O19 0.807963 0.238537 0.000000
O O20 0.000000 0.500000 0.267519
O O21 0.989551 0.594462 0.000000
#
# Coordination Sequence:
#
# PCOD9443394 Si02
#       8
#     8   8   8   8   8   8   8   8
#     4  11  25  40  55  83 119 150 186 236 294 349
#     4   9  19  32  51  81 111 142 179 225 272 327
#     4   9  18  33  53  79 107 141 182 221 274 326
#     4   9  17  32  52  76 105 139 176 220 270 322
#     4  10  20  37  62  84 110 154 198 237 280 335
#     4  10  20  36  57  82 113 145 188 231 271 336
#     4   9  17  32  52  78 107 140 182 221 272 332
#     4   9  19  35  56  84 113 142 187 242 281 322
#
# _framework density 21.627445999999999
#
# number of rings (size 3 to 8) (size 9 to 14) (size 15 to 20)
#    0.000    2.500    1.250    0.375    1.750    3.500 
#    0.000    1.875    0.000    1.500    0.000    0.000 
#    0.000    0.000    0.000    0.000    0.000    0.000 
#
# Total GULP energy -356831.177082 kJ/mol
# GULP energy per Si atom -5575.487142 kJ/mol
# Density = 2.157822 g / cm^3
# Si number density = 21.627446 Si / 1000 Ang^3
#
#
#
# Elastic Constant Matrix: (Units=GPa)
#
#
# Indices 1 2 3 4 5 6 
#
# 1 148.1392 67.1093 3.8772 0.0000 0.0000 0.0000
# 2 67.1093 111.9878 0.5417 0.0000 0.0000 0.0000
# 3 3.8772 0.5417 33.0479 0.0000 0.0000 0.0000
# 4 0.0000 0.0000 0.0000 9.1448 0.0000 0.0000
# 5 0.0000 0.0000 0.0000 0.0000 -8.3784 0.0000
# 6 0.0000 0.0000 0.0000 0.0000 0.0000 29.2077
#
#
#
# Elastic Compliance Matrix: (Units=1/GPa)
#
#
# Indices 1 2 3 4 5 6 
#
# 1 0.009299 -0.005567 -0.001000 0.000000 0.000000 0.000000
# 2 -0.005567 0.012264 0.000452 0.000000 0.000000 0.000000
# 3 -0.001000 0.000452 0.030369 0.000000 0.000000 0.000000
# 4 0.000000 0.000000 0.000000 0.109352 0.000000 0.000000
# 5 0.000000 0.000000 0.000000 0.000000 -0.119354 0.000000
# 6 0.000000 0.000000 0.000000 0.000000 0.000000 0.034238
#
#
# Mechanical properties :
#
#
# Convention : Reuss Voigt Hill
#
# Bulk Modulus (GPa) = 25.18805 48.47017 36.82911
# Shear Modulus (GPa) = 49.19793 20.77126 34.98460
#
# Velocity S-wave (km/s) = 4.77465 3.10241 4.02631
# Velocity P-wave (km/s) = 6.48599 5.94082 6.21938
#
# Compressibility (1/GPa) = 0.03970137
#
# Stress axis : x y z
#
# Youngs Moduli (GPa) = 107.54165 81.54147 32.92838
#
# Poissons Ratio (x) = 0.45398 0.03292
# Poissons Ratio (y) = 0.59874 -0.01489
# Poissons Ratio (z) = 0.10751 -0.03687
#
# Static dielectric constant tensor:
#      x y z
#    x 1.787060 0.000000 0.000000 
#    y 0.000000 1.797870 0.000000 
#    z 0.000000 0.000000 1.817250 
# 
# From -- ./inp_files/9937.got.cif
#   From: 2010.05.17/outbox.cif.g08.bks.cpg/sg58_5_cif.got.tgz:9937.got - 2010.06.03 14:20:14.
