data_PCOD9443675
_publ_section_title
;
Structure prediction by ZEFSAII (Michael W. Deem and Ramdas Pophale) SiO2 
 PCOD9443675
Probable space group: P N N M
;
_chemical_formula_sum "Si O2"
_cell_formula_units_Z 48
_cell_length_a 20.714203
_cell_length_b 14.684659
_cell_length_c 8.924962
_cell_angle_alpha 90.000000
_cell_angle_beta 90.000000
_cell_angle_gamma 90.000000
_cell_volume 2714.803933
_symmetry_space_group_name_H-M "P N N M"
_symmetry_group_IT_number 58
_symmetry_cell_setting 'orthorhombic'
loop_
_space_group_symop_operation_xyz
x,y,z
-x,-y,z
1/2+x,1/2-y,1/2-z
1/2-x,1/2+y,1/2-z
-x,-y,-z
x,y,-z
1/2-x,1/2+y,1/2+z
1/2+x,1/2-y,1/2+z
loop_
_atom_site_type_symbol
_atom_site_label
_atom_site_fract_x
_atom_site_fract_y
_atom_site_fract_z
Si Si1 0.928784 0.809107 0.321609
Si Si2 0.933551 0.194848 0.821138
Si Si3 0.813975 0.693813 0.179010
Si Si4 0.816715 0.304402 0.679671
Si Si5 0.620271 0.494321 0.321009
Si Si6 0.272930 0.993090 0.179387
O O1 0.928992 0.805657 0.500000
O O2 0.874238 0.742468 0.256348
O O3 0.911108 0.910564 0.265364
O O4 0.998791 0.784664 0.256938
O O5 0.876876 0.259904 0.762845
O O6 0.912799 0.090646 0.786363
O O7 0.939821 0.202108 0.000000
O O8 0.748650 0.749416 0.217501
O O9 0.803980 0.591267 0.235030
O O10 0.821816 0.697565 0.000000
O O11 0.825879 0.296902 0.500000
O O12 0.805072 0.410161 0.716205
O O13 0.614026 0.477449 0.500000
O O14 0.696476 0.500896 0.286392
O O15 0.278382 0.978544 0.000000
#
# Coordination Sequence:
#
# PCOD9443675 Si02
#       6
#     8   8   8   8   8   8
#     4  12  25  39  59  87 122 161 203 246 297 356
#     4  11  23  39  61  87 122 160 199 245 299 358
#     4  11  22  39  62  89 121 157 199 246 295 350
#     4  10  21  38  61  87 121 157 196 244 293 350
#     4  10  20  37  60  89 124 159 193 241 302 356
#     4  10  20  38  61  90 123 156 196 243 295 350
#
# _framework density 17.680834999999998
#
# number of rings (size 3 to 8) (size 9 to 14) (size 15 to 20)
#    0.000    1.333    3.333    3.000    0.000    5.333 
#    0.000    0.833    0.000    5.000    0.000    0.000 
#    0.000    0.000    0.000    0.000    0.000    0.000 
#
# Total GULP energy -268361.090793 kJ/mol
# GULP energy per Si atom -5590.856058 kJ/mol
# Density = 1.764059 g / cm^3
# Si number density = 17.680835 Si / 1000 Ang^3
#
#
#
# Elastic Constant Matrix: (Units=GPa)
#
#
# Indices 1 2 3 4 5 6 
#
# 1 170.5774 84.1682 86.4209 0.0000 0.0000 0.0000
# 2 84.1682 132.9708 71.5158 0.0000 0.0000 0.0000
# 3 86.4209 71.5158 77.7540 0.0000 0.0000 0.0000
# 4 0.0000 0.0000 0.0000 33.8038 0.0000 0.0000
# 5 0.0000 0.0000 0.0000 0.0000 -65.0055 0.0000
# 6 0.0000 0.0000 0.0000 0.0000 0.0000 14.5761
#
#
#
# Elastic Compliance Matrix: (Units=1/GPa)
#
#
# Indices 1 2 3 4 5 6 
#
# 1 0.013478 -0.000939 -0.014116 0.000000 0.000000 0.000000
# 2 -0.000939 0.014948 -0.012705 0.000000 0.000000 0.000000
# 3 -0.014116 -0.012705 0.040237 0.000000 0.000000 0.000000
# 4 0.000000 0.000000 0.000000 0.029583 0.000000 0.000000
# 5 0.000000 0.000000 0.000000 0.000000 -0.015383 0.000000
# 6 0.000000 0.000000 0.000000 0.000000 0.000000 0.068605
#
#
# Mechanical properties :
#
#
# Convention : Reuss Voigt Hill
#
# Bulk Modulus (GPa) = 76.09455 96.16800 86.13127
# Shear Modulus (GPa) = 23.65541 5.95468 14.80504
#
# Velocity S-wave (km/s) = 3.66172 1.83717 2.89684
# Velocity P-wave (km/s) = 7.81082 7.68176 7.74656
#
# Compressibility (1/GPa) = 0.01314155
#
# Stress axis : x y z
#
# Youngs Moduli (GPa) = 74.19732 66.89869 24.85291
#
# Poissons Ratio (x) = 0.06281 0.35083
# Poissons Ratio (y) = 0.06966 0.31576
# Poissons Ratio (z) = 1.04739 0.84996
#
# Static dielectric constant tensor:
#      x y z
#    x 1.578010 0.000000 0.000000 
#    y 0.000000 1.577040 0.000000 
#    z 0.000000 0.000000 1.588770 
# 
# From -- ./inp_files/5740.got.cif
#   From: 2010.05.17/outbox.cif.g08.bks.cpg/sg58_3_cif.got.tgz:5740.got - 2010.06.03 14:20:14.
