data_PCOD9443774
_publ_section_title
;
Structure prediction by ZEFSAII (Michael W. Deem and Ramdas Pophale) SiO2 
 PCOD9443774
Probable space group: P N N M
;
_chemical_formula_sum "Si O2"
_cell_formula_units_Z 46
_cell_length_a 6.901004
_cell_length_b 20.977069
_cell_length_c 12.078517
_cell_angle_alpha 90.000000
_cell_angle_beta 90.000000
_cell_angle_gamma 90.000000
_cell_volume 1748.520389
_symmetry_space_group_name_H-M "P N N M"
_symmetry_group_IT_number 58
_symmetry_cell_setting 'orthorhombic'
loop_
_space_group_symop_operation_xyz
x,y,z
-x,-y,z
1/2+x,1/2-y,1/2-z
1/2-x,1/2+y,1/2-z
-x,-y,-z
x,y,-z
1/2-x,1/2+y,1/2+z
1/2+x,1/2-y,1/2+z
loop_
_atom_site_type_symbol
_atom_site_label
_atom_site_fract_x
_atom_site_fract_y
_atom_site_fract_z
Si Si1 0.160232 0.885415 0.350365
Si Si2 0.872471 0.064519 0.117886
Si Si3 0.500000 0.000000 0.186708
Si Si4 0.116611 0.578463 0.118708
Si Si5 0.940720 0.261306 0.380391
Si Si6 0.500000 0.500000 0.000000
Si Si7 0.649852 0.782649 0.621803
O O1 0.105622 0.890169 0.221629
O O2 0.388644 0.901411 0.374231
O O3 0.128207 0.812455 0.383735
O O4 0.049738 0.944446 0.405921
O O5 0.645745 0.043978 0.120769
O O6 0.922422 0.094320 0.000000
O O7 0.000000 0.000000 0.127006
O O8 0.360705 0.037738 0.272326
O O9 0.225428 0.644529 0.116945
O O10 0.162509 0.544518 0.000000
O O11 0.871273 0.290731 0.500000
O O12 0.171656 0.264242 0.386052
O O13 0.911485 0.280872 0.251288
O O14 0.543788 0.775728 0.500000
#
# Coordination Sequence:
#
# PCOD9443774 Si02
#       7
#     8   8   4   8   8   2   8
#     4  11  22  37  64  92 129 163 209 261 329 384
#     4  10  22  39  57  84 124 169 211 256 311 390
#     4  10  22  36  62  90 126 171 211 268 322 384
#     4  10  20  38  59  94 127 165 206 267 326 388
#     4  11  23  42  66  95 125 168 216 277 325 398
#     4  12  20  36  62 102 128 164 202 264 320 402
#     4  10  24  42  65  93 130 167 220 270 333 393
#
# _framework density 26.307955
#
# number of rings (size 3 to 8) (size 9 to 14) (size 15 to 20)
#    0.000    1.565    2.609    1.565    2.435    2.783 
#    6.261    6.087    0.000    0.000    0.000    0.000 
#    0.000    0.000    0.000    0.000    0.000    0.000 
#
# Total GULP energy -256223.817745 kJ/mol
# GULP energy per Si atom -5570.082994 kJ/mol
# Density = 2.624808 g / cm^3
# Si number density = 26.307955 Si / 1000 Ang^3
#
#
#
# Elastic Constant Matrix: (Units=GPa)
#
#
# Indices 1 2 3 4 5 6 
#
# 1 46.5421 -12.1415 13.6484 0.0000 0.0000 0.0000
# 2 -12.1415 65.2048 32.7831 0.0000 0.0000 0.0000
# 3 13.6484 32.7831 310.5655 0.0000 0.0000 0.0000
# 4 0.0000 0.0000 0.0000 -2.7906 0.0000 0.0000
# 5 0.0000 0.0000 0.0000 0.0000 68.7512 0.0000
# 6 0.0000 0.0000 0.0000 0.0000 0.0000 32.0696
#
#
#
# Elastic Compliance Matrix: (Units=1/GPa)
#
#
# Indices 1 2 3 4 5 6 
#
# 1 0.023280 0.005121 -0.001564 0.000000 0.000000 0.000000
# 2 0.005121 0.017322 -0.002054 0.000000 0.000000 0.000000
# 3 -0.001564 -0.002054 0.003505 0.000000 0.000000 0.000000
# 4 0.000000 0.000000 0.000000 -0.358352 0.000000 0.000000
# 5 0.000000 0.000000 0.000000 0.000000 0.014545 0.000000
# 6 0.000000 0.000000 0.000000 0.000000 0.000000 0.031182
#
#
# Mechanical properties :
#
#
# Convention : Reuss Voigt Hill
#
# Bulk Modulus (GPa) = 21.22424 54.54359 37.88391
# Shear Modulus (GPa) = -19.54510 45.47421 12.96455
#
# Velocity S-wave (km/s) = -2.72864 4.16208 2.22232
# Velocity P-wave (km/s) = 1.35727 6.62381 4.58436
#
# Compressibility (1/GPa) = 0.04711593
#
# Stress axis : x y z
#
# Youngs Moduli (GPa) = 42.95453 57.72882 285.27192
#
# Poissons Ratio (x) = -0.29564 0.44607
# Poissons Ratio (y) = -0.21998 0.58583
# Poissons Ratio (z) = 0.06717 0.11855
#
# Static dielectric constant tensor:
#      x y z
#    x 2.077860 0.000000 0.000000 
#    y 0.000000 1.955540 0.000000 
#    z 0.000000 0.000000 2.139940 
# 
# From -- ./inp_files/13087.got.cif
#   From: 2010.05.17/outbox.cif.g08.bks.cpg/sg58_7_cif.got.tgz:13087.got - 2010.06.03 14:20:14.
