data_PCOD9443309
_publ_section_title
;
Structure prediction by ZEFSAII (Michael W. Deem and Ramdas Pophale) SiO2 
 PCOD9443309
Probable space group: P N N M
;
_chemical_formula_sum "Si O2"
_cell_formula_units_Z 56
_cell_length_a 14.107368
_cell_length_b 19.900036
_cell_length_c 7.841411
_cell_angle_alpha 90.000000
_cell_angle_beta 90.000000
_cell_angle_gamma 90.000000
_cell_volume 2201.375228
_symmetry_space_group_name_H-M "P N N M"
_symmetry_group_IT_number 58
_symmetry_cell_setting 'orthorhombic'
loop_
_space_group_symop_operation_xyz
x,y,z
-x,-y,z
1/2+x,1/2-y,1/2-z
1/2-x,1/2+y,1/2-z
-x,-y,-z
x,y,-z
1/2-x,1/2+y,1/2+z
1/2+x,1/2-y,1/2+z
loop_
_atom_site_type_symbol
_atom_site_label
_atom_site_fract_x
_atom_site_fract_y
_atom_site_fract_z
Si Si1 0.061637 0.212567 0.199707
Si Si2 0.049238 0.068769 0.294831
Si Si3 0.269356 0.497083 0.790422
Si Si4 0.916894 0.646944 0.687870
Si Si5 0.710381 0.648097 0.194032
Si Si6 0.904126 0.424399 0.198183
Si Si7 0.715447 0.794863 0.792649
O O1 0.013628 0.140996 0.234975
O O2 0.031982 0.280394 0.294315
O O3 0.172555 0.202306 0.249590
O O4 0.056220 0.226619 0.000000
O O5 0.044724 0.070019 0.500000
O O6 0.157653 0.055118 0.240701
O O7 0.000000 0.000000 0.238106
O O8 0.307574 0.425198 0.729290
O O9 0.164839 0.517598 0.732190
O O10 0.267816 0.494628 0.000000
O O11 0.875896 0.641332 0.500000
O O12 0.826389 0.647636 0.810503
O O13 0.995815 0.591122 0.718051
O O14 0.683167 0.720409 0.268212
O O15 0.674032 0.647098 0.000000
O O16 0.842257 0.356116 0.214953
O O17 0.921872 0.437823 0.000000
O O18 0.707579 0.797521 0.000000
#
# Coordination Sequence:
#
# PCOD9443309 Si02
#       7
#     8   8   8   8   8   8   8
#     4  10  20  37  59  82 112 149 192 238 290 344
#     4  10  20  35  58  89 122 157 196 237 287 346
#     4   9  19  36  58  84 115 156 195 234 284 347
#     4  11  23  38  57  83 114 147 193 247 300 346
#     4   9  19  38  59  81 116 156 198 237 285 345
#     4  11  21  35  58  84 114 151 197 238 286 353
#     4   9  18  33  56  82 109 147 191 240 287 335
#
# _framework density 25.438645999999999
#
# number of rings (size 3 to 8) (size 9 to 14) (size 15 to 20)
#    0.000    2.143    1.429    3.000    0.000    4.286 
#    0.000    7.857    0.000    0.000    0.000    0.000 
#    0.000    0.000    0.000    0.000    0.000    0.000 
#
# Total GULP energy -313186.827680 kJ/mol
# GULP energy per Si atom -5592.621923 kJ/mol
# Density = 2.538075 g / cm^3
# Si number density = 25.438646 Si / 1000 Ang^3
#
#
#
# Elastic Constant Matrix: (Units=GPa)
#
#
# Indices 1 2 3 4 5 6 
#
# 1 70.1764 18.5658 2.8020 0.0000 0.0000 0.0000
# 2 18.5658 124.7276 -3.8636 0.0000 0.0000 0.0000
# 3 2.8020 -3.8636 52.9290 0.0000 0.0000 0.0000
# 4 0.0000 0.0000 0.0000 18.6264 0.0000 0.0000
# 5 0.0000 0.0000 0.0000 0.0000 15.4207 0.0000
# 6 0.0000 0.0000 0.0000 0.0000 0.0000 55.1686
#
#
#
# Elastic Compliance Matrix: (Units=1/GPa)
#
#
# Indices 1 2 3 4 5 6 
#
# 1 0.014882 -0.002245 -0.000952 0.000000 0.000000 0.000000
# 2 -0.002245 0.008374 0.000730 0.000000 0.000000 0.000000
# 3 -0.000952 0.000730 0.018997 0.000000 0.000000 0.000000
# 4 0.000000 0.000000 0.000000 0.053687 0.000000 0.000000
# 5 0.000000 0.000000 0.000000 0.000000 0.064848 0.000000
# 6 0.000000 0.000000 0.000000 0.000000 0.000000 0.018126
#
#
# Mechanical properties :
#
#
# Convention : Reuss Voigt Hill
#
# Bulk Modulus (GPa) = 26.79499 31.42681 29.11090
# Shear Modulus (GPa) = 25.47297 33.19839 29.33568
#
# Velocity S-wave (km/s) = 3.16784 3.61645 3.39955
# Velocity P-wave (km/s) = 4.89248 5.46068 5.18437
#
# Compressibility (1/GPa) = 0.03732041
#
# Stress axis : x y z
#
# Youngs Moduli (GPa) = 67.19688 119.41436 52.64016
#
# Poissons Ratio (x) = 0.26804 0.05010
# Poissons Ratio (y) = 0.15083 -0.03843
# Poissons Ratio (z) = 0.06395 -0.08719
#
# Static dielectric constant tensor:
#      x y z
#    x 2.068860 0.000000 0.000000 
#    y 0.000000 2.024290 0.000000 
#    z 0.000000 0.000000 1.917800 
# 
# From -- ./inp_files/6479.got.cif
#   From: 2010.05.17/outbox.cif.g08.bks.cpg/sg58_4_cif.got.tgz:6479.got - 2010.06.03 14:20:14.
