data_PCOD9443213
_publ_section_title
;
Structure prediction by ZEFSAII (Michael W. Deem and Ramdas Pophale) SiO2 
 PCOD9443213
Probable space group: P N N M
;
_chemical_formula_sum "Si O2"
_cell_formula_units_Z 40
_cell_length_a 18.880016
_cell_length_b 13.784940
_cell_length_c 8.629522
_cell_angle_alpha 90.000000
_cell_angle_beta 90.000000
_cell_angle_gamma 90.000000
_cell_volume 2245.918427
_symmetry_space_group_name_H-M "P N N M"
_symmetry_group_IT_number 58
_symmetry_cell_setting 'orthorhombic'
loop_
_space_group_symop_operation_xyz
x,y,z
-x,-y,z
1/2+x,1/2-y,1/2-z
1/2-x,1/2+y,1/2-z
-x,-y,-z
x,y,-z
1/2-x,1/2+y,1/2+z
1/2+x,1/2-y,1/2+z
loop_
_atom_site_type_symbol
_atom_site_label
_atom_site_fract_x
_atom_site_fract_y
_atom_site_fract_z
Si Si1 0.495373 0.386345 0.186279
Si Si2 0.712156 0.104328 0.685074
Si Si3 0.147369 0.203039 0.685983
Si Si4 0.352088 0.299523 0.684183
Si Si5 0.212490 0.607087 0.314927
O O1 0.500000 0.500000 0.226029
O O2 0.569550 0.335162 0.225600
O O3 0.428883 0.337268 0.268414
O O4 0.485374 0.379249 0.000000
O O5 0.708571 0.104800 0.500000
O O6 0.662502 0.188731 0.753785
O O7 0.791489 0.133941 0.737875
O O8 0.694769 0.998834 0.751085
O O9 0.155716 0.200179 0.500000
O O10 0.208312 0.136126 0.760285
O O11 0.342307 0.302169 0.500000
O O12 0.337263 0.191108 0.745541
O O13 0.209093 0.609077 0.500000
#
# Coordination Sequence:
#
# PCOD9443213 Si02
#       5
#     8   8   8   8   8
#     4  10  21  37  57  81 112 147 179 220 274 325
#     4  11  21  36  57  80 110 145 184 227 272 320
#     4  10  20  35  56  83 113 144 182 223 270 327
#     4  11  22  36  56  83 113 144 183 225 269 324
#     4  11  21  36  58  82 110 143 183 227 273 323
#
# _framework density 17.810085000000001
#
# number of rings (size 3 to 8) (size 9 to 14) (size 15 to 20)
#    0.000    1.400    0.000    9.600    0.000    3.600 
#    0.000    1.000    0.000    6.000    0.000    0.000 
#    0.000    0.000    0.000    0.000    0.000    0.000 
#
# Total GULP energy -223621.930957 kJ/mol
# GULP energy per Si atom -5590.548274 kJ/mol
# Density = 1.776955 g / cm^3
# Si number density = 17.810085 Si / 1000 Ang^3
#
#
#
# Elastic Constant Matrix: (Units=GPa)
#
#
# Indices 1 2 3 4 5 6 
#
# 1 106.7882 51.2644 37.9663 0.0000 0.0000 0.0000
# 2 51.2644 116.1263 28.1334 0.0000 0.0000 0.0000
# 3 37.9663 28.1334 95.2665 0.0000 0.0000 0.0000
# 4 0.0000 0.0000 0.0000 38.4747 0.0000 0.0000
# 5 0.0000 0.0000 0.0000 0.0000 22.5625 0.0000
# 6 0.0000 0.0000 0.0000 0.0000 0.0000 8.3902
#
#
#
# Elastic Compliance Matrix: (Units=1/GPa)
#
#
# Indices 1 2 3 4 5 6 
#
# 1 0.013024 -0.004838 -0.003762 0.000000 0.000000 0.000000
# 2 -0.004838 0.011072 -0.001342 0.000000 0.000000 0.000000
# 3 -0.003762 -0.001342 0.012392 0.000000 0.000000 0.000000
# 4 0.000000 0.000000 0.000000 0.025991 0.000000 0.000000
# 5 0.000000 0.000000 0.000000 0.000000 0.044321 0.000000
# 6 0.000000 0.000000 0.000000 0.000000 0.000000 0.119186
#
#
# Mechanical properties :
#
#
# Convention : Reuss Voigt Hill
#
# Bulk Modulus (GPa) = 60.22087 61.43438 60.82762
# Shear Modulus (GPa) = 19.88816 27.27328 23.58072
#
# Velocity S-wave (km/s) = 3.34530 3.91748 3.64264
# Velocity P-wave (km/s) = 6.98624 7.41830 7.20551
#
# Compressibility (1/GPa) = 0.01660554
#
# Stress axis : x y z
#
# Youngs Moduli (GPa) = 76.77879 90.31602 80.69586
#
# Poissons Ratio (x) = 0.43698 0.30356
# Poissons Ratio (y) = 0.37148 0.10826
# Poissons Ratio (z) = 0.28882 0.12116
#
# Static dielectric constant tensor:
#      x y z
#    x 1.579420 0.000000 0.000000 
#    y 0.000000 1.594820 0.000000 
#    z 0.000000 0.000000 1.596290 
# 
# From -- ./inp_files/3820.got.cif
#   From: 2010.05.17/outbox.cif.g08.bks.cpg/sg58_2_cif.got.tgz:3820.got - 2010.06.03 14:20:14.
