data_PCOD9443965
_publ_section_title
;
Structure prediction by ZEFSAII (Michael W. Deem and Ramdas Pophale) SiO2 
 PCOD9443965
Probable space group: P N N M
;
_chemical_formula_sum "Si O2"
_cell_formula_units_Z 48
_cell_length_a 10.251388
_cell_length_b 14.197965
_cell_length_c 15.830890
_cell_angle_alpha 90.000000
_cell_angle_beta 90.000000
_cell_angle_gamma 90.000000
_cell_volume 2304.167803
_symmetry_space_group_name_H-M "P N N M"
_symmetry_group_IT_number 58
_symmetry_cell_setting 'orthorhombic'
loop_
_space_group_symop_operation_xyz
x,y,z
-x,-y,z
1/2+x,1/2-y,1/2-z
1/2-x,1/2+y,1/2-z
-x,-y,-z
x,y,-z
1/2-x,1/2+y,1/2+z
1/2+x,1/2-y,1/2+z
loop_
_atom_site_type_symbol
_atom_site_label
_atom_site_fract_x
_atom_site_fract_y
_atom_site_fract_z
Si Si1 0.646675 0.479082 0.601124
Si Si2 0.448410 0.256585 0.814295
Si Si3 0.613074 0.561186 0.901168
Si Si4 0.842414 0.781138 0.182158
Si Si5 0.099048 0.412513 0.597955
Si Si6 0.104127 0.421369 0.897217
O O1 0.500000 0.500000 0.631237
O O2 0.647934 0.490189 0.500000
O O3 0.676667 0.370437 0.621585
O O4 0.761697 0.549037 0.631697
O O5 0.419444 0.329644 0.889323
O O6 0.302814 0.235474 0.780067
O O7 0.545547 0.305097 0.748743
O O8 0.528914 0.167296 0.847494
O O9 0.500000 0.500000 0.861348
O O10 0.755658 0.541140 0.866776
O O11 0.620886 0.538558 0.000000
O O12 0.896512 0.685443 0.137719
O O13 0.114894 0.380607 0.500000
O O14 0.000000 0.500000 0.596971
O O15 0.000000 0.500000 0.870262
O O16 0.099043 0.415466 0.000000
#
# Coordination Sequence:
#
# PCOD9443965 Si02
#       6
#     8   8   8   8   8   8
#     4  10  22  41  65  92 121 157 202 258 314 360
#     4  11  24  39  58  88 122 160 200 241 306 363
#     4   9  19  38  61  84 112 148 194 244 289 339
#     4  11  24  40  58  86 124 161 196 245 301 365
#     4  10  20  39  67  91 113 152 208 257 299 359
#     4   9  19  38  62  85 110 149 197 241 288 343
#
# _framework density 20.831817000000001
#
# number of rings (size 3 to 8) (size 9 to 14) (size 15 to 20)
#    0.000    2.000    1.667    1.000    2.333    4.000 
#    3.000    0.000    0.000    0.000    0.000    0.000 
#    0.000    0.000    0.000    0.000    0.000    0.000 
#
# Total GULP energy -267652.077648 kJ/mol
# GULP energy per Si atom -5576.084951 kJ/mol
# Density = 2.078440 g / cm^3
# Si number density = 20.831817 Si / 1000 Ang^3
#
#
#
# Elastic Constant Matrix: (Units=GPa)
#
#
# Indices 1 2 3 4 5 6 
#
# 1 168.6965 58.8719 19.4292 0.0000 0.0000 0.0000
# 2 58.8719 88.7258 3.1165 0.0000 0.0000 0.0000
# 3 19.4292 3.1165 21.5546 0.0000 0.0000 0.0000
# 4 0.0000 0.0000 0.0000 8.1664 0.0000 0.0000
# 5 0.0000 0.0000 0.0000 0.0000 -0.4838 0.0000
# 6 0.0000 0.0000 0.0000 0.0000 0.0000 42.2057
#
#
#
# Elastic Compliance Matrix: (Units=1/GPa)
#
#
# Indices 1 2 3 4 5 6 
#
# 1 0.008652 -0.005495 -0.007005 0.000000 0.000000 0.000000
# 2 -0.005495 0.014818 0.002811 0.000000 0.000000 0.000000
# 3 -0.007005 0.002811 0.052301 0.000000 0.000000 0.000000
# 4 0.000000 0.000000 0.000000 0.122453 0.000000 0.000000
# 5 0.000000 0.000000 0.000000 0.000000 -2.067149 0.000000
# 6 0.000000 0.000000 0.000000 0.000000 0.000000 0.023693
#
#
# Mechanical properties :
#
#
# Convention : Reuss Voigt Hill
#
# Bulk Modulus (GPa) = 17.73249 49.09022 33.41135
# Shear Modulus (GPa) = -2.76693 23.14828 10.19068
#
# Velocity S-wave (km/s) = -1.15374 3.33708 2.21416
# Velocity P-wave (km/s) = 2.59921 6.20196 4.75501
#
# Compressibility (1/GPa) = 0.05639367
#
# Stress axis : x y z
#
# Youngs Moduli (GPa) = 115.57828 67.48569 19.12004
#
# Poissons Ratio (x) = 0.37083 0.13393
# Poissons Ratio (y) = 0.63509 -0.05374
# Poissons Ratio (z) = 0.80957 -0.18968
#
# Static dielectric constant tensor:
#      x y z
#    x 1.777540 0.000000 0.000000 
#    y 0.000000 1.735810 0.000000 
#    z 0.000000 0.000000 1.756400 
# 
# From -- ./inp_files/25281.got.cif
#   From: 2010.05.17/outbox.cif.g08.bks.cpg/sg58_13_cif.got.tgz:25281.got - 2010.06.03 14:20:14.
