data_PCOD9443751
_publ_section_title
;
Structure prediction by ZEFSAII (Michael W. Deem and Ramdas Pophale) SiO2 
 PCOD9443751
Probable space group: P N N M
;
_chemical_formula_sum "Si O2"
_cell_formula_units_Z 48
_cell_length_a 15.418948
_cell_length_b 9.457703
_cell_length_c 15.816726
_cell_angle_alpha 90.000000
_cell_angle_beta 90.000000
_cell_angle_gamma 90.000000
_cell_volume 2306.518842
_symmetry_space_group_name_H-M "P N N M"
_symmetry_group_IT_number 58
_symmetry_cell_setting 'orthorhombic'
loop_
_space_group_symop_operation_xyz
x,y,z
-x,-y,z
1/2+x,1/2-y,1/2-z
1/2-x,1/2+y,1/2-z
-x,-y,-z
x,y,-z
1/2-x,1/2+y,1/2+z
1/2+x,1/2-y,1/2+z
loop_
_atom_site_type_symbol
_atom_site_label
_atom_site_fract_x
_atom_site_fract_y
_atom_site_fract_z
Si Si1 0.494748 0.170595 0.594255
Si Si2 0.108793 0.723187 0.600585
Si Si3 0.211325 0.449421 0.346855
Si Si4 0.443127 0.766908 0.221385
Si Si5 0.707501 0.817371 0.589129
Si Si6 0.671638 0.499158 0.803932
O O1 0.528375 0.211334 0.500000
O O2 0.536121 0.231834 0.679059
O O3 0.393623 0.210222 0.598014
O O4 0.500000 0.000000 0.599359
O O5 0.088744 0.734018 0.500000
O O6 0.176318 0.594925 0.615212
O O7 0.023872 0.698072 0.659716
O O8 0.149432 0.866724 0.638810
O O9 0.132394 0.381199 0.293777
O O10 0.237793 0.325981 0.410596
O O11 0.297105 0.462046 0.289423
O O12 0.406211 0.613033 0.196716
O O13 0.720823 0.893961 0.500000
O O14 0.745008 0.915522 0.661200
#
# Coordination Sequence:
#
# PCOD9443751 Si02
#       6
#     8   8   8   8   8   8
#     4  10  20  37  64  95 125 162 212 264 317 383
#     4  12  25  40  63  95 127 164 212 260 314 382
#     4  11  23  41  63  86 121 164 207 254 309 374
#     4  11  23  40  63  88 124 164 203 258 320 379
#     4  10  21  38  60  86 118 156 198 247 302 360
#     4  11  23  40  62  87 122 162 204 255 311 373
#
# _framework density 20.810582
#
# number of rings (size 3 to 8) (size 9 to 14) (size 15 to 20)
#    0.000    1.167    0.000    8.000    0.000    5.333 
#    0.000    5.833    0.000    4.000    0.000    0.000 
#    0.000    0.000    0.000    0.000    0.000    0.000 
#
# Total GULP energy -268039.212938 kJ/mol
# GULP energy per Si atom -5584.150270 kJ/mol
# Density = 2.076322 g / cm^3
# Si number density = 20.810582 Si / 1000 Ang^3
#
#
#
# Elastic Constant Matrix: (Units=GPa)
#
#
# Indices 1 2 3 4 5 6 
#
# 1 52.1973 29.9741 26.6362 0.0000 0.0000 0.0000
# 2 29.9741 101.7962 24.8075 0.0000 0.0000 0.0000
# 3 26.6362 24.8075 128.8807 0.0000 0.0000 0.0000
# 4 0.0000 0.0000 0.0000 4.9015 0.0000 0.0000
# 5 0.0000 0.0000 0.0000 0.0000 -61.0217 0.0000
# 6 0.0000 0.0000 0.0000 0.0000 0.0000 30.2173
#
#
#
# Elastic Compliance Matrix: (Units=1/GPa)
#
#
# Indices 1 2 3 4 5 6 
#
# 1 0.024796 -0.006350 -0.003902 0.000000 0.000000 0.000000
# 2 -0.006350 0.011933 -0.000985 0.000000 0.000000 0.000000
# 3 -0.003902 -0.000985 0.008755 0.000000 0.000000 0.000000
# 4 0.000000 0.000000 0.000000 0.204019 0.000000 0.000000
# 5 0.000000 0.000000 0.000000 0.000000 -0.016388 0.000000
# 6 0.000000 0.000000 0.000000 0.000000 0.000000 0.033094
#
#
# Mechanical properties :
#
#
# Convention : Reuss Voigt Hill
#
# Bulk Modulus (GPa) = 43.45901 49.52332 46.49117
# Shear Modulus (GPa) = 16.87171 8.24984 12.56077
#
# Velocity S-wave (km/s) = 2.85042 1.99320 2.45944
# Velocity P-wave (km/s) = 5.63575 5.39870 5.51850
#
# Compressibility (1/GPa) = 0.02301019
#
# Stress axis : x y z
#
# Youngs Moduli (GPa) = 40.32903 83.79887 114.21872
#
# Poissons Ratio (x) = 0.53214 0.44572
# Poissons Ratio (y) = 0.25610 0.11245
# Poissons Ratio (z) = 0.15738 0.08250
#
# Static dielectric constant tensor:
#      x y z
#    x 1.727470 0.000000 0.000000 
#    y 0.000000 1.724350 0.000000 
#    z 0.000000 0.000000 1.851620 
# 
# From -- ./inp_files/22754.got.cif
#   From: 2010.05.17/outbox.cif.g08.bks.cpg/sg58_12_cif.got.tgz:22754.got - 2010.06.03 14:20:14.
