data_PCOD9443560
_publ_section_title
;
Structure prediction by ZEFSAII (Michael W. Deem and Ramdas Pophale) SiO2 
 PCOD9443560
Probable space group: P N N M
;
_chemical_formula_sum "Si O2"
_cell_formula_units_Z 48
_cell_length_a 12.266874
_cell_length_b 11.636091
_cell_length_c 16.347907
_cell_angle_alpha 90.000000
_cell_angle_beta 90.000000
_cell_angle_gamma 90.000000
_cell_volume 2333.475105
_symmetry_space_group_name_H-M "P N N M"
_symmetry_group_IT_number 58
_symmetry_cell_setting 'orthorhombic'
loop_
_space_group_symop_operation_xyz
x,y,z
-x,-y,z
1/2+x,1/2-y,1/2-z
1/2-x,1/2+y,1/2-z
-x,-y,-z
x,y,-z
1/2-x,1/2+y,1/2+z
1/2+x,1/2-y,1/2+z
loop_
_atom_site_type_symbol
_atom_site_label
_atom_site_fract_x
_atom_site_fract_y
_atom_site_fract_z
Si Si1 0.945586 0.657765 0.911833
Si Si2 0.822131 0.753044 0.336968
Si Si3 0.031860 0.866830 0.597107
Si Si4 0.649140 0.929359 0.650418
Si Si5 0.739776 0.764874 0.149092
Si Si6 0.131213 0.500144 0.664258
O O1 0.883630 0.535407 0.906461
O O2 0.852708 0.749652 0.897705
O O3 0.041286 0.651000 0.845713
O O4 0.997927 0.672214 0.000000
O O5 0.945907 0.793440 0.349995
O O6 0.747577 0.850474 0.379022
O O7 0.775730 0.757740 0.244241
O O8 0.819783 0.620872 0.365210
O O9 0.022654 0.839906 0.500000
O O10 0.152932 0.834124 0.626856
O O11 0.000000 0.000000 0.607928
O O12 0.661246 0.986239 0.739410
O O13 0.682151 0.884770 0.127293
O O14 0.000000 0.500000 0.655984
#
# Coordination Sequence:
#
# PCOD9443560 Si02
#       6
#     8   8   8   8   8   8
#     4  11  21  38  63  91 124 158 200 261 320 366
#     4  11  23  39  64  92 125 169 210 257 308 381
#     4  11  25  43  65  97 131 163 211 275 329 369
#     4  10  20  36  62  92 122 154 209 259 310 370
#     4  11  23  38  63  92 127 166 211 256 311 383
#     4  11  19  39  61  88 122 160 215 256 303 373
#
# _framework density 20.570179
#
# number of rings (size 3 to 8) (size 9 to 14) (size 15 to 20)
#    0.000    1.167    5.000    2.500    4.667    2.667 
#    0.000    3.333    0.000    1.000    0.000    0.000 
#    0.000    0.000    0.000    0.000    0.000    0.000 
#
# Total GULP energy -267854.390192 kJ/mol
# GULP energy per Si atom -5580.299796 kJ/mol
# Density = 2.052336 g / cm^3
# Si number density = 20.570179 Si / 1000 Ang^3
#
#
#
# Elastic Constant Matrix: (Units=GPa)
#
#
# Indices 1 2 3 4 5 6 
#
# 1 69.2093 7.7471 -4.8320 0.0000 0.0000 0.0000
# 2 7.7471 69.2332 -3.3764 0.0000 0.0000 0.0000
# 3 -4.8320 -3.3764 34.6664 0.0000 0.0000 0.0000
# 4 0.0000 0.0000 0.0000 9.0882 0.0000 0.0000
# 5 0.0000 0.0000 0.0000 0.0000 9.2742 0.0000
# 6 0.0000 0.0000 0.0000 0.0000 0.0000 45.8995
#
#
#
# Elastic Compliance Matrix: (Units=1/GPa)
#
#
# Indices 1 2 3 4 5 6 
#
# 1 0.014756 -0.001558 0.001905 0.000000 0.000000 0.000000
# 2 -0.001558 0.014677 0.001212 0.000000 0.000000 0.000000
# 3 0.001905 0.001212 0.029230 0.000000 0.000000 0.000000
# 4 0.000000 0.000000 0.000000 0.110033 0.000000 0.000000
# 5 0.000000 0.000000 0.000000 0.000000 0.107826 0.000000
# 6 0.000000 0.000000 0.000000 0.000000 0.000000 0.021787
#
#
# Mechanical properties :
#
#
# Convention : Reuss Voigt Hill
#
# Bulk Modulus (GPa) = 16.18596 19.13182 17.65889
# Shear Modulus (GPa) = 15.83354 24.42372 20.12863
#
# Velocity S-wave (km/s) = 2.77742 3.44951 3.13155
# Velocity P-wave (km/s) = 4.26276 5.01861 4.65605
#
# Compressibility (1/GPa) = 0.06178194
#
# Stress axis : x y z
#
# Youngs Moduli (GPa) = 67.76732 68.13184 34.21141
#
# Poissons Ratio (x) = 0.10617 -0.06517
# Poissons Ratio (y) = 0.10560 -0.04148
# Poissons Ratio (z) = -0.12910 -0.08260
#
# Static dielectric constant tensor:
#      x y z
#    x 1.749820 0.000000 0.000000 
#    y 0.000000 1.767890 0.000000 
#    z 0.000000 0.000000 1.781840 
# 
# From -- ./inp_files/26125.got.cif
#   From: 2010.05.17/outbox.cif.g08.bks.cpg/sg58_14_cif.got.tgz:26125.got - 2010.06.03 14:20:14.
