data_PCOD9443670
_publ_section_title
;
Structure prediction by ZEFSAII (Michael W. Deem and Ramdas Pophale) SiO2 
 PCOD9443670
Probable space group: P N N M
;
_chemical_formula_sum "Si O2"
_cell_formula_units_Z 64
_cell_length_a 11.550484
_cell_length_b 10.263220
_cell_length_c 22.250078
_cell_angle_alpha 90.000000
_cell_angle_beta 90.000000
_cell_angle_gamma 90.000000
_cell_volume 2637.639021
_symmetry_space_group_name_H-M "P N N M"
_symmetry_group_IT_number 58
_symmetry_cell_setting 'orthorhombic'
loop_
_space_group_symop_operation_xyz
x,y,z
-x,-y,z
1/2+x,1/2-y,1/2-z
1/2-x,1/2+y,1/2-z
-x,-y,-z
x,y,-z
1/2-x,1/2+y,1/2+z
1/2+x,1/2-y,1/2+z
loop_
_atom_site_type_symbol
_atom_site_label
_atom_site_fract_x
_atom_site_fract_y
_atom_site_fract_z
Si Si1 0.967186 0.632937 0.748959
Si Si2 0.691508 0.241591 0.069034
Si Si3 0.263215 0.922840 0.334778
Si Si4 0.094688 0.282688 0.068531
Si Si5 0.235387 0.561163 0.605006
Si Si6 0.860891 0.009442 0.776800
Si Si7 0.956824 0.246537 0.368408
Si Si8 0.119695 0.727725 0.152776
O O1 0.987073 0.738008 0.697756
O O2 0.062980 0.628007 0.801580
O O3 0.000000 0.500000 0.715633
O O4 0.847294 0.646215 0.783921
O O5 0.560938 0.276354 0.086080
O O6 0.774175 0.321289 0.113715
O O7 0.722195 0.088414 0.083187
O O8 0.715992 0.266989 0.000000
O O9 0.348022 0.900734 0.392797
O O10 0.199475 0.018700 0.286458
O O11 0.147335 0.854002 0.360368
O O12 0.182352 0.159085 0.068076
O O13 0.980499 0.236794 0.105026
O O14 0.068529 0.319760 0.000000
O O15 0.295187 0.568847 0.670893
O O16 0.109799 0.624665 0.609150
O O17 0.845001 0.155205 0.803663
O O18 0.000000 0.000000 0.775441
#
# Coordination Sequence:
#
# PCOD9443670 Si02
#       8
#     8   8   8   8   8   8   8   8
#     4  11  21  40  63  89 117 151 205 263 309 353
#     4  11  23  37  57  86 126 166 199 240 302 382
#     4  10  23  37  57  90 118 163 200 251 311 361
#     4  10  20  37  60  87 123 164 209 252 305 372
#     4  10  21  35  58  94 123 165 201 248 309 375
#     4  11  19  37  58  91 130 153 198 257 320 370
#     4  11  22  36  57  87 125 161 194 241 297 374
#     4  10  21  38  60  90 118 155 205 258 314 356
#
# _framework density 24.264123999999999
#
# number of rings (size 3 to 8) (size 9 to 14) (size 15 to 20)
#    0.000    1.500    2.500    4.125    0.000    3.000 
#    2.250    1.875    0.000    9.750    0.000    0.000 
#    0.000    0.000    0.000    0.000    0.000    0.000 
#
# Total GULP energy -357104.150250 kJ/mol
# GULP energy per Si atom -5579.752348 kJ/mol
# Density = 2.420890 g / cm^3
# Si number density = 24.264124 Si / 1000 Ang^3
#
#
#
# Elastic Constant Matrix: (Units=GPa)
#
#
# Indices 1 2 3 4 5 6 
#
# 1 126.8588 -8.0525 29.2086 0.0000 0.0000 0.0000
# 2 -8.0525 29.3101 1.6650 0.0000 0.0000 0.0000
# 3 29.2086 1.6650 147.3902 0.0000 0.0000 0.0000
# 4 0.0000 0.0000 0.0000 22.5431 0.0000 0.0000
# 5 0.0000 0.0000 0.0000 0.0000 9.1997 0.0000
# 6 0.0000 0.0000 0.0000 0.0000 0.0000 26.4087
#
#
#
# Elastic Compliance Matrix: (Units=1/GPa)
#
#
# Indices 1 2 3 4 5 6 
#
# 1 0.008427 0.002411 -0.001697 0.000000 0.000000 0.000000
# 2 0.002411 0.034830 -0.000871 0.000000 0.000000 0.000000
# 3 -0.001697 -0.000871 0.007131 0.000000 0.000000 0.000000
# 4 0.000000 0.000000 0.000000 0.044360 0.000000 0.000000
# 5 0.000000 0.000000 0.000000 0.000000 0.108699 0.000000
# 6 0.000000 0.000000 0.000000 0.000000 0.000000 0.037866
#
#
# Mechanical properties :
#
#
# Convention : Reuss Voigt Hill
#
# Bulk Modulus (GPa) = 19.97066 38.80014 29.38540
# Shear Modulus (GPa) = 19.35604 30.34616 24.85110
#
# Velocity S-wave (km/s) = 2.82746 3.54030 3.20377
# Velocity P-wave (km/s) = 4.34831 5.72164 5.08158
#
# Compressibility (1/GPa) = 0.05007346
#
# Stress axis : x y z
#
# Youngs Moduli (GPa) = 118.67168 28.71089 140.23505
#
# Poissons Ratio (x) = -0.06924 0.23800
# Poissons Ratio (y) = -0.28618 0.12219
# Poissons Ratio (z) = 0.20140 0.02502
#
# Static dielectric constant tensor:
#      x y z
#    x 1.948350 0.000000 0.000000 
#    y 0.000000 2.217520 0.000000 
#    z 0.000000 0.000000 1.888980 
# 
# From -- ./inp_files/26372.got.cif
#   From: 2010.05.17/outbox.cif.g08.bks.cpg/sg58_14_cif.got.tgz:26372.got - 2010.06.03 14:20:14.
