data_PCOD9443164
_publ_section_title
;
Structure prediction by ZEFSAII (Michael W. Deem and Ramdas Pophale) SiO2 
 PCOD9443164
Probable space group: P N N M
;
_chemical_formula_sum "Si O2"
_cell_formula_units_Z 64
_cell_length_a 19.804897
_cell_length_b 20.694395
_cell_length_c 7.793541
_cell_angle_alpha 90.000000
_cell_angle_beta 90.000000
_cell_angle_gamma 90.000000
_cell_volume 3194.185596
_symmetry_space_group_name_H-M "P N N M"
_symmetry_group_IT_number 58
_symmetry_cell_setting 'orthorhombic'
loop_
_space_group_symop_operation_xyz
x,y,z
-x,-y,z
1/2+x,1/2-y,1/2-z
1/2-x,1/2+y,1/2-z
-x,-y,-z
x,y,-z
1/2-x,1/2+y,1/2+z
1/2+x,1/2-y,1/2+z
loop_
_atom_site_type_symbol
_atom_site_label
_atom_site_fract_x
_atom_site_fract_y
_atom_site_fract_z
Si Si1 0.208938 0.009205 0.792065
Si Si2 0.475864 0.932393 0.697698
Si Si3 0.075955 0.676434 0.702695
Si Si4 0.598328 0.682635 0.209241
Si Si5 0.825522 0.588305 0.299781
Si Si6 0.247584 0.286693 0.793096
Si Si7 0.725146 0.857023 0.790402
Si Si8 0.061880 0.957611 0.295121
O O1 0.263258 0.955261 0.734575
O O2 0.134050 0.991365 0.733551
O O3 0.235564 0.079258 0.733198
O O4 0.208298 0.008578 0.000000
O O5 0.497225 0.932809 0.500000
O O6 0.513809 0.870967 0.774107
O O7 0.395795 0.926828 0.710587
O O8 0.500000 0.000000 0.777967
O O9 0.087204 0.684088 0.500000
O O10 0.066419 0.749500 0.769284
O O11 0.146708 0.646001 0.767816
O O12 0.677487 0.688383 0.255250
O O13 0.567188 0.615752 0.273705
O O14 0.595410 0.680397 0.000000
O O15 0.834777 0.572917 0.500000
O O16 0.805684 0.663021 0.279418
O O17 0.242733 0.211851 0.739670
O O18 0.243414 0.288587 0.000000
O O19 0.725309 0.858930 0.000000
O O20 0.051843 0.952285 0.500000
O O21 0.000000 0.000000 0.225076
#
# Coordination Sequence:
#
# PCOD9443164 Si02
#       8
#     8   8   8   8   8   8   8   8
#     4  10  20  35  55  81 110 137 176 225 272 321
#     4  11  24  39  54  78 112 147 183 226 275 326
#     4   9  17  34  59  81 106 146 189 225 264 320
#     4   8  15  31  56  80 104 142 183 217 261 320
#     4  11  22  35  56  83 109 142 182 228 272 322
#     4   9  16  32  57  78 103 140 179 218 264 321
#     4   8  16  32  56  82 107 141 180 218 268 324
#     4  10  20  35  55  79 108 143 181 220 269 328
#
# _framework density 20.036404999999998
#
# number of rings (size 3 to 8) (size 9 to 14) (size 15 to 20)
#    0.000    2.500    1.250    3.000    0.000    2.750 
#    2.250    4.375    0.000    0.000    0.000    0.000 
#    0.000    0.000    0.000    0.000    0.000    0.000 
#
# Total GULP energy -357076.424587 kJ/mol
# GULP energy per Si atom -5579.319134 kJ/mol
# Density = 1.999080 g / cm^3
# Si number density = 20.036405 Si / 1000 Ang^3
#
#
#
# Elastic Constant Matrix: (Units=GPa)
#
#
# Indices 1 2 3 4 5 6 
#
# 1 106.8469 80.5108 -9.3269 0.0000 0.0000 0.0000
# 2 80.5108 161.7746 -0.3520 0.0000 0.0000 0.0000
# 3 -9.3269 -0.3520 19.3019 0.0000 0.0000 0.0000
# 4 0.0000 0.0000 0.0000 20.9953 0.0000 0.0000
# 5 0.0000 0.0000 0.0000 0.0000 71.8194 0.0000
# 6 0.0000 0.0000 0.0000 0.0000 0.0000 30.3797
#
#
#
# Elastic Compliance Matrix: (Units=1/GPa)
#
#
# Indices 1 2 3 4 5 6 
#
# 1 0.016015 -0.007954 0.007594 0.000000 0.000000 0.000000
# 2 -0.007954 0.010132 -0.003659 0.000000 0.000000 0.000000
# 3 0.007594 -0.003659 0.055411 0.000000 0.000000 0.000000
# 4 0.000000 0.000000 0.000000 0.047630 0.000000 0.000000
# 5 0.000000 0.000000 0.000000 0.000000 0.013924 0.000000
# 6 0.000000 0.000000 0.000000 0.000000 0.000000 0.032917
#
#
# Mechanical properties :
#
#
# Convention : Reuss Voigt Hill
#
# Bulk Modulus (GPa) = 13.60158 47.73190 30.66674
# Shear Modulus (GPa) = 23.97240 39.11166 31.54203
#
# Velocity S-wave (km/s) = 3.46272 4.42297 3.97197
# Velocity P-wave (km/s) = 4.77393 7.06809 6.03110
#
# Compressibility (1/GPa) = 0.07352089
#
# Stress axis : x y z
#
# Youngs Moduli (GPa) = 62.43956 98.69778 18.04695
#
# Poissons Ratio (x) = 0.78504 -0.13705
# Poissons Ratio (y) = 0.49664 0.06603
# Poissons Ratio (z) = -0.47415 0.36110
#
# Static dielectric constant tensor:
#      x y z
#    x 1.658190 0.000000 0.000000 
#    y 0.000000 1.734320 0.000000 
#    z 0.000000 0.000000 1.742620 
# 
# From -- ./inp_files/8406.got.cif
#   From: 2010.05.17/outbox.cif.g08.bks.cpg/sg58_5_cif.got.tgz:8406.got - 2010.06.03 14:20:14.
