data_PCOD9443742
_publ_section_title
;
Structure prediction by ZEFSAII (Michael W. Deem and Ramdas Pophale) SiO2 
 PCOD9443742
Probable space group: P N N M
;
_chemical_formula_sum "Si O2"
_cell_formula_units_Z 48
_cell_length_a 15.411433
_cell_length_b 19.056171
_cell_length_c 7.544641
_cell_angle_alpha 90.000000
_cell_angle_beta 90.000000
_cell_angle_gamma 90.000000
_cell_volume 2215.732068
_symmetry_space_group_name_H-M "P N N M"
_symmetry_group_IT_number 58
_symmetry_cell_setting 'orthorhombic'
loop_
_space_group_symop_operation_xyz
x,y,z
-x,-y,z
1/2+x,1/2-y,1/2-z
1/2-x,1/2+y,1/2-z
-x,-y,-z
x,y,-z
1/2-x,1/2+y,1/2+z
1/2+x,1/2-y,1/2+z
loop_
_atom_site_type_symbol
_atom_site_label
_atom_site_fract_x
_atom_site_fract_y
_atom_site_fract_z
Si Si1 0.899813 0.493277 0.715038
Si Si2 0.357383 0.162822 0.784726
Si Si3 0.014364 0.235225 0.295954
Si Si4 0.638328 0.506677 0.500000
Si Si5 0.710311 0.231834 0.284840
Si Si6 0.982835 0.881879 0.000000
Si Si7 0.742549 0.579390 0.199763
O O1 0.893463 0.498102 0.500000
O O2 0.864945 0.417318 0.773402
O O3 0.841959 0.554406 0.795482
O O4 0.000000 0.500000 0.762169
O O5 0.442965 0.207619 0.736595
O O6 0.271031 0.203748 0.727524
O O7 0.356164 0.161190 0.000000
O O8 0.994700 0.217133 0.500000
O O9 0.112502 0.264185 0.284399
O O10 0.010603 0.167935 0.169983
O O11 0.558338 0.560741 0.500000
O O12 0.605566 0.427071 0.500000
O O13 0.693432 0.526460 0.327997
O O14 0.704927 0.231958 0.500000
O O15 0.757799 0.159392 0.234031
O O16 0.708407 0.577085 0.000000
#
# Coordination Sequence:
#
# PCOD9443742 Si02
#       7
#     8   8   8   4   8   4   8
#     4  10  20  37  63  94 135 178 214 265 338 404
#     4   9  20  38  63  91 128 172 212 264 328 392
#     4  11  23  42  68  98 133 167 222 277 332 397
#     4  11  26  46  69  90 134 182 223 275 343 400
#     4  10  21  39  63  93 130 174 217 272 327 389
#     4  11  26  46  68  96 129 178 222 281 340 395
#     4  11  24  41  66  97 134 175 230 275 328 405
#
# _framework density 21.663267999999999
#
# number of rings (size 3 to 8) (size 9 to 14) (size 15 to 20)
#    0.000    1.667    1.667    2.000    3.500    4.333 
#    3.000    1.667    0.000    0.000    0.000    0.000 
#    0.000    0.000    0.000    0.000    0.000    0.000 
#
# Total GULP energy -268550.735517 kJ/mol
# GULP energy per Si atom -5594.806990 kJ/mol
# Density = 2.161396 g / cm^3
# Si number density = 21.663268 Si / 1000 Ang^3
#
#
#
# Elastic Constant Matrix: (Units=GPa)
#
#
# Indices 1 2 3 4 5 6 
#
# 1 58.6775 -10.7064 -7.2564 0.0000 0.0000 0.0000
# 2 -10.7064 79.0246 9.2930 0.0000 0.0000 0.0000
# 3 -7.2564 9.2930 76.3257 0.0000 0.0000 0.0000
# 4 0.0000 0.0000 0.0000 31.7591 0.0000 0.0000
# 5 0.0000 0.0000 0.0000 0.0000 24.4665 0.0000
# 6 0.0000 0.0000 0.0000 0.0000 0.0000 38.2538
#
#
#
# Elastic Compliance Matrix: (Units=1/GPa)
#
#
# Indices 1 2 3 4 5 6 
#
# 1 0.017622 0.002222 0.001405 0.000000 0.000000 0.000000
# 2 0.002222 0.013118 -0.001386 0.000000 0.000000 0.000000
# 3 0.001405 -0.001386 0.013404 0.000000 0.000000 0.000000
# 4 0.000000 0.000000 0.000000 0.031487 0.000000 0.000000
# 5 0.000000 0.000000 0.000000 0.000000 0.040872 0.000000
# 6 0.000000 0.000000 0.000000 0.000000 0.000000 0.026141
#
#
# Mechanical properties :
#
#
# Convention : Reuss Voigt Hill
#
# Bulk Modulus (GPa) = 20.56516 21.85422 21.20969
# Shear Modulus (GPa) = 32.38951 33.74238 33.06594
#
# Velocity S-wave (km/s) = 3.87089 3.95091 3.91110
# Velocity P-wave (km/s) = 5.43066 5.56084 5.49614
#
# Compressibility (1/GPa) = 0.04862592
#
# Stress axis : x y z
#
# Youngs Moduli (GPa) = 56.74883 76.22915 74.60431
#
# Poissons Ratio (x) = -0.16940 -0.10480
# Poissons Ratio (y) = -0.12611 0.10340
# Poissons Ratio (z) = -0.07972 0.10565
#
# Static dielectric constant tensor:
#      x y z
#    x 1.812480 0.000000 0.000000 
#    y 0.000000 1.745970 0.000000 
#    z 0.000000 0.000000 1.808830 
# 
# From -- ./inp_files/5928.got.cif
#   From: 2010.05.17/outbox.cif.g08.bks.cpg/sg58_3_cif.got.tgz:5928.got - 2010.06.03 14:20:14.
