data_PCOD9443386
_publ_section_title
;
Structure prediction by ZEFSAII (Michael W. Deem and Ramdas Pophale) SiO2 
 PCOD9443386
Probable space group: P N N M
;
_chemical_formula_sum "Si O2"
_cell_formula_units_Z 40
_cell_length_a 20.143158
_cell_length_b 5.461924
_cell_length_c 14.843979
_cell_angle_alpha 90.000000
_cell_angle_beta 90.000000
_cell_angle_gamma 90.000000
_cell_volume 1633.140479
_symmetry_space_group_name_H-M "P N N M"
_symmetry_group_IT_number 58
_symmetry_cell_setting 'orthorhombic'
loop_
_space_group_symop_operation_xyz
x,y,z
-x,-y,z
1/2+x,1/2-y,1/2-z
1/2-x,1/2+y,1/2-z
-x,-y,-z
x,y,-z
1/2-x,1/2+y,1/2+z
1/2+x,1/2-y,1/2+z
loop_
_atom_site_type_symbol
_atom_site_label
_atom_site_fract_x
_atom_site_fract_y
_atom_site_fract_z
Si Si1 0.069099 0.607272 0.868810
Si Si2 0.781705 0.520177 0.603814
Si Si3 0.417012 0.143757 0.158513
Si Si4 0.390655 0.641337 0.137182
Si Si5 0.132842 0.105062 0.148679
O O1 0.059626 0.642270 0.760777
O O2 0.091457 0.880701 0.895858
O O3 0.000000 0.500000 0.903115
O O4 0.120175 0.382281 0.885892
O O5 0.784030 0.440130 0.500000
O O6 0.835535 0.373048 0.662553
O O7 0.708603 0.480466 0.639632
O O8 0.815754 0.790856 0.606756
O O9 0.425165 0.395068 0.107534
O O10 0.432414 0.883865 0.114407
O O11 0.387071 0.624050 0.246026
#
# Coordination Sequence:
#
# PCOD9443386 Si02
#       5
#     8   8   8   8   8
#     4  10  20  36  57  81 105 143 195 237 268 313
#     4  10  22  34  55  85 120 145 175 223 289 345
#     4   8  18  32  52  78 106 137 176 223 274 324
#     4   8  18  31  50  75 105 141 171 214 270 325
#     4  10  21  33  57  82 110 143 183 232 277 327
#
# _framework density 24.492685999999999
#
# number of rings (size 3 to 8) (size 9 to 14) (size 15 to 20)
#    1.200    1.600    0.000    0.600    8.400    0.800 
#    0.000    0.000    0.000    4.200    0.000    2.800 
#    0.000    0.000    0.000    0.000    0.000    0.000 
#
# Total GULP energy -222796.804689 kJ/mol
# GULP energy per Si atom -5569.920117 kJ/mol
# Density = 2.443694 g / cm^3
# Si number density = 24.492686 Si / 1000 Ang^3
#
#
#
# Elastic Constant Matrix: (Units=GPa)
#
#
# Indices 1 2 3 4 5 6 
#
# 1 93.3958 28.4442 6.0263 0.0000 0.0000 0.0000
# 2 28.4442 200.0416 2.5108 0.0000 0.0000 0.0000
# 3 6.0263 2.5108 92.2265 0.0000 0.0000 0.0000
# 4 0.0000 0.0000 0.0000 -12.1789 0.0000 0.0000
# 5 0.0000 0.0000 0.0000 0.0000 -17.7976 0.0000
# 6 0.0000 0.0000 0.0000 0.0000 0.0000 32.9615
#
#
#
# Elastic Compliance Matrix: (Units=1/GPa)
#
#
# Indices 1 2 3 4 5 6 
#
# 1 0.011236 -0.001589 -0.000691 0.000000 0.000000 0.000000
# 2 -0.001589 0.005225 -0.000038 0.000000 0.000000 0.000000
# 3 -0.000691 -0.000038 0.010889 0.000000 0.000000 0.000000
# 4 0.000000 0.000000 0.000000 -0.082109 0.000000 0.000000
# 5 0.000000 0.000000 0.000000 0.000000 -0.056187 0.000000
# 6 0.000000 0.000000 0.000000 0.000000 0.000000 0.030338
#
#
# Mechanical properties :
#
#
# Convention : Reuss Voigt Hill
#
# Bulk Modulus (GPa) = 44.02666 51.06962 47.54814
# Shear Modulus (GPa) = -73.09945 23.84249 -24.62848
#
# Velocity S-wave (km/s) = -5.46902 3.12341 -3.17447
# Velocity P-wave (km/s) = 4.67609 5.82270 2.45336
#
# Compressibility (1/GPa) = 0.02271351
#
# Stress axis : x y z
#
# Youngs Moduli (GPa) = 89.00267 191.37382 91.83523
#
# Poissons Ratio (x) = 0.30408 0.06345
# Poissons Ratio (y) = 0.14142 0.00353
# Poissons Ratio (z) = 0.06149 0.00735
#
# Static dielectric constant tensor:
#      x y z
#    x 1.974660 0.000000 0.000000 
#    y 0.000000 2.115310 0.000000 
#    z 0.000000 0.000000 1.923340 
# 
# From -- ./inp_files/27425.got.cif
#   From: 2010.05.17/outbox.cif.g08.bks.cpg/sg58_14_cif.got.tgz:27425.got - 2010.06.03 14:20:14.
