data_PCOD9443691
_publ_section_title
;
Structure prediction by ZEFSAII (Michael W. Deem and Ramdas Pophale) SiO2 
 PCOD9443691
Probable space group: P N N M
;
_chemical_formula_sum "Si O2"
_cell_formula_units_Z 60
_cell_length_a 12.986988
_cell_length_b 19.777684
_cell_length_c 12.690125
_cell_angle_alpha 90.000000
_cell_angle_beta 90.000000
_cell_angle_gamma 90.000000
_cell_volume 3259.490900
_symmetry_space_group_name_H-M "P N N M"
_symmetry_group_IT_number 58
_symmetry_cell_setting 'orthorhombic'
loop_
_space_group_symop_operation_xyz
x,y,z
-x,-y,z
1/2+x,1/2-y,1/2-z
1/2-x,1/2+y,1/2-z
-x,-y,-z
x,y,-z
1/2-x,1/2+y,1/2+z
1/2+x,1/2-y,1/2+z
loop_
_atom_site_type_symbol
_atom_site_label
_atom_site_fract_x
_atom_site_fract_y
_atom_site_fract_z
Si Si1 0.721471 0.971335 0.375347
Si Si2 0.401412 0.899357 0.878645
Si Si3 0.500000 0.000000 0.719598
Si Si4 0.553644 0.259418 0.118552
Si Si5 0.501610 0.581112 0.619327
Si Si6 0.691986 0.733783 0.877030
Si Si7 0.812317 0.853008 0.768943
Si Si8 0.702261 0.598646 0.247176
O O1 0.735940 0.961428 0.500000
O O2 0.601763 0.986611 0.348892
O O3 0.756414 0.906955 0.306451
O O4 0.786259 0.036030 0.333238
O O5 0.419215 0.819375 0.871747
O O6 0.285875 0.914230 0.838875
O O7 0.475701 0.937778 0.797803
O O8 0.416645 0.920356 0.000000
O O9 0.431483 0.266415 0.131176
O O10 0.616340 0.304172 0.199242
O O11 0.580726 0.281473 0.000000
O O12 0.500000 0.500000 0.621392
O O13 0.525537 0.603611 0.500000
O O14 0.390277 0.608093 0.653708
O O15 0.590271 0.603488 0.700322
O O16 0.735378 0.803559 0.830668
O O17 0.729298 0.668275 0.812371
O O18 0.720465 0.727787 0.000000
#
# Coordination Sequence:
#
# PCOD9443691 Si02
#       8
#     8   8   4   8   8   8   8   8
#     4  11  24  41  63  91 121 162 208 253 313 371
#     4  10  20  37  61  90 118 157 203 245 301 362
#     4  10  22  40  64  86 126 160 198 264 300 368
#     4  10  21  37  59  85 122 158 196 252 302 354
#     4  11  23  41  63  92 125 161 204 256 316 371
#     4  11  23  39  62  90 123 162 203 251 314 372
#     4  12  22  41  64  91 123 162 209 257 305 376
#     4  11  21  40  62  88 125 160 200 254 308 368
#
# _framework density 18.407782999999998
#
# number of rings (size 3 to 8) (size 9 to 14) (size 15 to 20)
#    0.000    1.200    4.000    2.800    0.000    0.000 
#    0.000    2.000    0.000    0.000    0.000    0.000 
#    0.000    0.000    0.000    0.000    0.000    0.000 
#
# Total GULP energy -335132.076800 kJ/mol
# GULP energy per Si atom -5585.534613 kJ/mol
# Density = 1.836589 g / cm^3
# Si number density = 18.407783 Si / 1000 Ang^3
#
#
#
# Elastic Constant Matrix: (Units=GPa)
#
#
# Indices 1 2 3 4 5 6 
#
# 1 47.6952 11.8616 35.1254 0.0000 0.0000 0.0000
# 2 11.8616 82.3892 45.4769 0.0000 0.0000 0.0000
# 3 35.1254 45.4769 119.4342 0.0000 0.0000 0.0000
# 4 0.0000 0.0000 0.0000 9.3526 0.0000 0.0000
# 5 0.0000 0.0000 0.0000 0.0000 20.2324 0.0000
# 6 0.0000 0.0000 0.0000 0.0000 0.0000 26.4030
#
#
#
# Elastic Compliance Matrix: (Units=1/GPa)
#
#
# Indices 1 2 3 4 5 6 
#
# 1 0.026788 0.000623 -0.008116 0.000000 0.000000 0.000000
# 2 0.000623 0.015382 -0.006040 0.000000 0.000000 0.000000
# 3 -0.008116 -0.006040 0.013059 0.000000 0.000000 0.000000
# 4 0.000000 0.000000 0.000000 0.106922 0.000000 0.000000
# 5 0.000000 0.000000 0.000000 0.000000 0.049426 0.000000
# 6 0.000000 0.000000 0.000000 0.000000 0.000000 0.037874
#
#
# Mechanical properties :
#
#
# Convention : Reuss Voigt Hill
#
# Bulk Modulus (GPa) = 35.50628 48.27181 41.88905
# Shear Modulus (GPa) = 17.48826 21.66790 19.57808
#
# Velocity S-wave (km/s) = 3.08563 3.43462 3.26479
# Velocity P-wave (km/s) = 5.65910 6.48146 6.08419
#
# Compressibility (1/GPa) = 0.02816403
#
# Stress axis : x y z
#
# Youngs Moduli (GPa) = 37.32967 65.01170 76.57269
#
# Poissons Ratio (x) = -0.04049 0.62143
# Poissons Ratio (y) = -0.02325 0.46251
# Poissons Ratio (z) = 0.30295 0.39268
#
# Static dielectric constant tensor:
#      x y z
#    x 1.621000 0.000000 0.000000 
#    y 0.000000 1.613640 0.000000 
#    z 0.000000 0.000000 1.615830 
# 
# From -- ./inp_files/14670.got.cif
#   From: 2010.05.17/outbox.cif.g08.bks.cpg/sg58_8_cif.got.tgz:14670.got - 2010.06.03 14:20:14.
