data_PCOD9443958
_publ_section_title
;
Structure prediction by ZEFSAII (Michael W. Deem and Ramdas Pophale) SiO2 
 PCOD9443958
Probable space group: P N N M
;
_chemical_formula_sum "Si O2"
_cell_formula_units_Z 40
_cell_length_a 12.555746
_cell_length_b 5.058780
_cell_length_c 28.645679
_cell_angle_alpha 90.000000
_cell_angle_beta 90.000000
_cell_angle_gamma 90.000000
_cell_volume 1819.480625
_symmetry_space_group_name_H-M "P N N M"
_symmetry_group_IT_number 58
_symmetry_cell_setting 'orthorhombic'
loop_
_space_group_symop_operation_xyz
x,y,z
-x,-y,z
1/2+x,1/2-y,1/2-z
1/2-x,1/2+y,1/2-z
-x,-y,-z
x,y,-z
1/2-x,1/2+y,1/2+z
1/2+x,1/2-y,1/2+z
loop_
_atom_site_type_symbol
_atom_site_label
_atom_site_fract_x
_atom_site_fract_y
_atom_site_fract_z
Si Si1 0.804577 0.100058 0.553921
Si Si2 0.570326 0.261807 0.445914
Si Si3 0.259821 0.575680 0.312430
Si Si4 0.123046 0.576333 0.218488
Si Si5 0.615643 0.078692 0.101385
O O1 0.797008 0.013937 0.500000
O O2 0.685584 0.171397 0.571696
O O3 0.866859 0.374140 0.559032
O O4 0.862676 0.874005 0.583711
O O5 0.500000 0.500000 0.424392
O O6 0.591588 0.345047 0.500000
O O7 0.500000 0.000000 0.445676
O O8 0.174014 0.559540 0.270252
O O9 0.309843 0.866195 0.311843
O O10 0.200886 0.490903 0.359051
O O11 0.352549 0.367617 0.300320
O O12 0.000000 0.500000 0.218492
O O13 0.500000 0.000000 0.120425
#
# Coordination Sequence:
#
# PCOD9443958 Si02
#       5
#     8   8   8   8   8
#     4  11  24  41  62  89 120 159 211 261 304 360
#     4   9  17  33  57  81 107 142 186 238 297 357
#     4  10  22  39  62  93 125 161 203 243 296 370
#     4  10  20  39  66  93 126 161 196 242 299 364
#     4  12  25  42  62  86 122 162 207 259 310 363
#
# _framework density 21.984296000000001
#
# number of rings (size 3 to 8) (size 9 to 14) (size 15 to 20)
#    0.000    1.600    0.000    4.800    0.000    5.600 
#    0.000   16.000    0.000    0.000    0.000    0.000 
#    0.000    0.000    0.000    0.000    0.000    0.000 
#
# Total GULP energy -223555.363766 kJ/mol
# GULP energy per Si atom -5588.884094 kJ/mol
# Density = 2.193426 g / cm^3
# Si number density = 21.984296 Si / 1000 Ang^3
#
#
#
# Elastic Constant Matrix: (Units=GPa)
#
#
# Indices 1 2 3 4 5 6 
#
# 1 92.8853 1.6333 3.3501 0.0000 0.0000 0.0000
# 2 1.6333 92.4111 2.3862 0.0000 0.0000 0.0000
# 3 3.3501 2.3862 61.8552 0.0000 0.0000 0.0000
# 4 0.0000 0.0000 0.0000 1.6830 0.0000 0.0000
# 5 0.0000 0.0000 0.0000 0.0000 9.7724 0.0000
# 6 0.0000 0.0000 0.0000 0.0000 0.0000 34.6779
#
#
#
# Elastic Compliance Matrix: (Units=1/GPa)
#
#
# Indices 1 2 3 4 5 6 
#
# 1 0.010790 -0.000176 -0.000578 0.000000 0.000000 0.000000
# 2 -0.000176 0.010835 -0.000408 0.000000 0.000000 0.000000
# 3 -0.000578 -0.000408 0.016214 0.000000 0.000000 0.000000
# 4 0.000000 0.000000 0.000000 0.594184 0.000000 0.000000
# 5 0.000000 0.000000 0.000000 0.000000 0.102329 0.000000
# 6 0.000000 0.000000 0.000000 0.000000 0.000000 0.028837
#
#
# Mechanical properties :
#
#
# Convention : Reuss Voigt Hill
#
# Bulk Modulus (GPa) = 28.15720 29.09897 28.62808
# Shear Modulus (GPa) = 6.43211 25.21213 15.82212
#
# Velocity S-wave (km/s) = 1.71234 3.39015 2.68563
# Velocity P-wave (km/s) = 4.09209 5.34688 4.76101
#
# Compressibility (1/GPa) = 0.03551490
#
# Stress axis : x y z
#
# Youngs Moduli (GPa) = 92.67933 92.29465 61.67570
#
# Poissons Ratio (x) = 0.01622 0.03562
# Poissons Ratio (y) = 0.01629 0.02519
# Poissons Ratio (z) = 0.05353 0.03770
#
# Static dielectric constant tensor:
#      x y z
#    x 1.876640 0.000000 0.000000 
#    y 0.000000 1.766150 0.000000 
#    z 0.000000 0.000000 1.803990 
# 
# From -- ./inp_files/33459.got.cif
#   From: 2010.05.17/outbox.cif.g08.bks.cpg/sg58_17_cif.got.tgz:33459.got - 2010.06.03 14:20:14.
