data_PCOD9443777
_publ_section_title
;
Structure prediction by ZEFSAII (Michael W. Deem and Ramdas Pophale) SiO2 
 PCOD9443777
Probable space group: P N N M
;
_chemical_formula_sum "Si O2"
_cell_formula_units_Z 40
_cell_length_a 8.230519
_cell_length_b 9.790740
_cell_length_c 22.786815
_cell_angle_alpha 90.000000
_cell_angle_beta 90.000000
_cell_angle_gamma 90.000000
_cell_volume 1836.226987
_symmetry_space_group_name_H-M "P N N M"
_symmetry_group_IT_number 58
_symmetry_cell_setting 'orthorhombic'
loop_
_space_group_symop_operation_xyz
x,y,z
-x,-y,z
1/2+x,1/2-y,1/2-z
1/2-x,1/2+y,1/2-z
-x,-y,-z
x,y,-z
1/2-x,1/2+y,1/2+z
1/2+x,1/2-y,1/2+z
loop_
_atom_site_type_symbol
_atom_site_label
_atom_site_fract_x
_atom_site_fract_y
_atom_site_fract_z
Si Si1 0.255397 0.549781 0.773881
Si Si2 0.804621 0.026194 0.403395
Si Si3 0.768327 0.825170 0.500000
Si Si4 0.733815 0.503777 0.500000
Si Si5 0.428561 0.322365 0.283400
Si Si6 0.000000 0.000000 0.892610
Si Si7 0.141842 0.772823 0.500000
O O1 0.245556 0.481279 0.837525
O O2 0.424403 0.631584 0.759589
O O3 0.274385 0.422183 0.730085
O O4 0.119682 0.666764 0.771981
O O5 0.720616 0.906523 0.441730
O O6 0.778390 0.162328 0.441816
O O7 0.000000 0.000000 0.398723
O O8 0.736757 0.666519 0.500000
O O9 0.963074 0.834715 0.500000
O O10 0.643799 0.472925 0.561448
O O11 0.872400 0.389228 0.500000
O O12 0.477009 0.370657 0.348969
#
# Coordination Sequence:
#
# PCOD9443777 Si02
#       7
#     8   8   4   4   8   4   4
#     4  10  20  38  60  81 116 148 188 236 285 331
#     4   9  16  34  54  79 110 151 176 224 283 331
#     4   9  18  30  54  84 111 136 182 225 275 326
#     4  11  19  36  56  78 113 148 181 230 279 325
#     4  10  22  39  59  85 111 150 194 233 281 340
#     4   9  22  38  54  76 116 155 180 222 286 339
#     4   9  20  30  56  88 109 138 190 229 272 335
#
# _framework density 21.783798999999998
#
# number of rings (size 3 to 8) (size 9 to 14) (size 15 to 20)
#    0.000    2.600    2.000    2.700    0.000    4.000 
#    0.000    0.000    0.000   20.400    0.000    0.000 
#    0.000    0.000    0.000    0.000    0.000    0.000 
#
# Total GULP energy -222695.288154 kJ/mol
# GULP energy per Si atom -5567.382204 kJ/mol
# Density = 2.173422 g / cm^3
# Si number density = 21.783799 Si / 1000 Ang^3
#
#
#
# Elastic Constant Matrix: (Units=GPa)
#
#
# Indices 1 2 3 4 5 6 
#
# 1 12.7670 3.3885 9.6621 0.0000 0.0000 0.0000
# 2 3.3885 109.8113 27.1529 0.0000 0.0000 0.0000
# 3 9.6621 27.1529 135.7140 0.0000 0.0000 0.0000
# 4 0.0000 0.0000 0.0000 33.1013 0.0000 0.0000
# 5 0.0000 0.0000 0.0000 0.0000 24.5219 0.0000
# 6 0.0000 0.0000 0.0000 0.0000 0.0000 30.9989
#
#
#
# Elastic Compliance Matrix: (Units=1/GPa)
#
#
# Indices 1 2 3 4 5 6 
#
# 1 0.082927 -0.001156 -0.005673 0.000000 0.000000 0.000000
# 2 -0.001156 0.009597 -0.001838 0.000000 0.000000 0.000000
# 3 -0.005673 -0.001838 0.008140 0.000000 0.000000 0.000000
# 4 0.000000 0.000000 0.000000 0.030210 0.000000 0.000000
# 5 0.000000 0.000000 0.000000 0.000000 0.040780 0.000000
# 6 0.000000 0.000000 0.000000 0.000000 0.000000 0.032259
#
#
# Mechanical properties :
#
#
# Convention : Reuss Voigt Hill
#
# Bulk Modulus (GPa) = 12.00041 37.63326 24.81683
# Shear Modulus (GPa) = 20.07846 32.26368 26.17107
#
# Velocity S-wave (km/s) = 3.03927 3.85266 3.46988
# Velocity P-wave (km/s) = 4.22339 6.09130 5.24123
#
# Compressibility (1/GPa) = 0.08333047
#
# Stress axis : x y z
#
# Youngs Moduli (GPa) = 12.05879 104.20335 122.85049
#
# Poissons Ratio (x) = 0.12049 0.69689
# Poissons Ratio (y) = 0.01394 0.22576
# Poissons Ratio (z) = 0.06840 0.19150
#
# Static dielectric constant tensor:
#      x y z
#    x 1.888110 0.000000 0.000000 
#    y 0.000000 1.821840 0.000000 
#    z 0.000000 0.000000 1.776920 
# 
# From -- ./inp_files/28766.got.cif
#   From: 2010.05.17/outbox.cif.g08.bks.cpg/sg58_15_cif.got.tgz:28766.got - 2010.06.03 14:20:14.
