data_PCOD9443161
_publ_section_title
;
Structure prediction by ZEFSAII (Michael W. Deem and Ramdas Pophale) SiO2 
 PCOD9443161
Probable space group: P N N M
;
_chemical_formula_sum "Si O2"
_cell_formula_units_Z 56
_cell_length_a 16.249977
_cell_length_b 20.175351
_cell_length_c 9.611992
_cell_angle_alpha 90.000000
_cell_angle_beta 90.000000
_cell_angle_gamma 90.000000
_cell_volume 3151.281866
_symmetry_space_group_name_H-M "P N N M"
_symmetry_group_IT_number 58
_symmetry_cell_setting 'orthorhombic'
loop_
_space_group_symop_operation_xyz
x,y,z
-x,-y,z
1/2+x,1/2-y,1/2-z
1/2-x,1/2+y,1/2-z
-x,-y,-z
x,y,-z
1/2-x,1/2+y,1/2+z
1/2+x,1/2-y,1/2+z
loop_
_atom_site_type_symbol
_atom_site_label
_atom_site_fract_x
_atom_site_fract_y
_atom_site_fract_z
Si Si1 0.805105 0.621170 0.838262
Si Si2 0.402458 0.008907 0.332365
Si Si3 0.118102 0.025761 0.846335
Si Si4 0.485382 0.659964 0.657864
Si Si5 0.288460 0.105156 0.835769
Si Si6 0.889120 0.097051 0.658485
Si Si7 0.681001 0.269995 0.329666
O O1 0.856300 0.558617 0.782772
O O2 0.708683 0.605754 0.836229
O O3 0.812220 0.694959 0.777734
O O4 0.831788 0.626811 0.000000
O O5 0.389632 0.016044 0.500000
O O6 0.500000 0.000000 0.308299
O O7 0.360324 0.071069 0.253859
O O8 0.056303 0.087235 0.846574
O O9 0.208761 0.056715 0.826930
O O10 0.096777 0.973489 0.729894
O O11 0.114896 0.993667 0.000000
O O12 0.507262 0.678975 0.500000
O O13 0.563444 0.653328 0.755941
O O14 0.409884 0.704676 0.708940
O O15 0.251607 0.176802 0.788494
O O16 0.310818 0.109664 0.000000
O O17 0.917221 0.097853 0.500000
O O18 0.684137 0.271230 0.500000
#
# Coordination Sequence:
#
# PCOD9443161 Si02
#       7
#     8   8   8   8   8   8   8
#     4   9  18  34  53  73 102 140 175 208 255 315
#     4  10  20  35  55  79 107 139 175 215 261 317
#     4   9  17  30  49  72  99 129 162 203 246 294
#     4   9  18  32  50  72  98 130 170 210 246 295
#     4   9  17  32  56  79  97 127 174 222 260 298
#     4  11  20  29  47  75 104 133 163 199 253 310
#     4   8  16  34  56  73  96 138 182 213 254 315
#
# _framework density 17.770546
#
# number of rings (size 3 to 8) (size 9 to 14) (size 15 to 20)
#    0.000    2.714    1.429    2.571    0.000    2.571 
#    2.571    2.143    0.000    4.286    0.000    0.000 
#    0.000    0.000    0.000    0.000    0.000    0.000 
#
# Total GULP energy -311847.658438 kJ/mol
# GULP energy per Si atom -5568.708186 kJ/mol
# Density = 1.773010 g / cm^3
# Si number density = 17.770546 Si / 1000 Ang^3
#
#
#
# Elastic Constant Matrix: (Units=GPa)
#
#
# Indices 1 2 3 4 5 6 
#
# 1 57.8181 17.7784 24.5871 0.0000 0.0000 0.0000
# 2 17.7784 82.2593 14.5580 0.0000 0.0000 0.0000
# 3 24.5871 14.5580 43.8775 0.0000 0.0000 0.0000
# 4 0.0000 0.0000 0.0000 12.2265 0.0000 0.0000
# 5 0.0000 0.0000 0.0000 0.0000 72.5787 0.0000
# 6 0.0000 0.0000 0.0000 0.0000 0.0000 1.6872
#
#
#
# Elastic Compliance Matrix: (Units=1/GPa)
#
#
# Indices 1 2 3 4 5 6 
#
# 1 0.023340 -0.002900 -0.012116 0.000000 0.000000 0.000000
# 2 -0.002900 0.013275 -0.002780 0.000000 0.000000 0.000000
# 3 -0.012116 -0.002780 0.030502 0.000000 0.000000 0.000000
# 4 0.000000 0.000000 0.000000 0.081790 0.000000 0.000000
# 5 0.000000 0.000000 0.000000 0.000000 0.013778 0.000000
# 6 0.000000 0.000000 0.000000 0.000000 0.000000 0.592691
#
#
# Mechanical properties :
#
#
# Convention : Reuss Voigt Hill
#
# Bulk Modulus (GPa) = 31.72020 33.08908 32.40464
# Shear Modulus (GPa) = 6.23848 25.76724 16.00286
#
# Velocity S-wave (km/s) = 1.87569 3.81201 3.00413
# Velocity P-wave (km/s) = 4.75179 6.16732 5.50524
#
# Compressibility (1/GPa) = 0.03152565
#
# Stress axis : x y z
#
# Youngs Moduli (GPa) = 42.84522 75.32747 32.78424
#
# Poissons Ratio (x) = 0.21845 0.39723
# Poissons Ratio (y) = 0.12425 0.09113
# Poissons Ratio (z) = 0.51913 0.20938
#
# Static dielectric constant tensor:
#      x y z
#    x 1.618740 0.000000 0.000000 
#    y 0.000000 1.627080 0.000000 
#    z 0.000000 0.000000 1.619340 
# 
# From -- ./inp_files/8154.got.cif
#   From: 2010.05.17/outbox.cif.g08.bks.cpg/sg58_5_cif.got.tgz:8154.got - 2010.06.03 14:20:14.
