data_PCOD9443927
_publ_section_title
;
Structure prediction by ZEFSAII (Michael W. Deem and Ramdas Pophale) SiO2 
 PCOD9443927
Probable space group: P N N M
;
_chemical_formula_sum "Si O2"
_cell_formula_units_Z 64
_cell_length_a 13.733115
_cell_length_b 13.091034
_cell_length_c 18.141206
_cell_angle_alpha 90.000000
_cell_angle_beta 90.000000
_cell_angle_gamma 90.000000
_cell_volume 3261.438267
_symmetry_space_group_name_H-M "P N N M"
_symmetry_group_IT_number 58
_symmetry_cell_setting 'orthorhombic'
loop_
_space_group_symop_operation_xyz
x,y,z
-x,-y,z
1/2+x,1/2-y,1/2-z
1/2-x,1/2+y,1/2-z
-x,-y,-z
x,y,-z
1/2-x,1/2+y,1/2+z
1/2+x,1/2-y,1/2+z
loop_
_atom_site_type_symbol
_atom_site_label
_atom_site_fract_x
_atom_site_fract_y
_atom_site_fract_z
Si Si1 0.481842 0.284005 0.800559
Si Si2 0.671545 0.425577 0.807453
Si Si3 0.598036 0.569864 0.918002
Si Si4 0.656886 0.767243 0.335301
Si Si5 0.036727 0.306387 0.086825
Si Si6 0.727211 0.550650 0.322284
Si Si7 0.590486 0.431284 0.413690
Si Si8 0.925056 0.590314 0.759756
O O1 0.575263 0.358082 0.794831
O O2 0.423300 0.330297 0.869273
O O3 0.409355 0.272512 0.732035
O O4 0.529637 0.172365 0.797025
O O5 0.673127 0.490733 0.882242
O O6 0.764349 0.350228 0.808198
O O7 0.662142 0.513917 0.746667
O O8 0.500000 0.500000 0.919265
O O9 0.625014 0.599287 0.000000
O O10 0.579392 0.810244 0.394304
O O11 0.709578 0.661739 0.357573
O O12 0.066902 0.187600 0.095725
O O13 0.087965 0.362854 0.157150
O O14 0.054110 0.335597 0.000000
O O15 0.693156 0.465642 0.379961
O O16 0.830303 0.550532 0.281886
O O17 0.500000 0.500000 0.383779
O O18 0.595022 0.452700 0.500000
O O19 0.000000 0.500000 0.770784
#
# Coordination Sequence:
#
# PCOD9443927 Si02
#       8
#     8   8   8   8   8   8   8   8
#     4  10  20  39  61  86 123 159 209 263 314 370
#     4  11  22  36  60  90 127 161 210 264 311 374
#     4   9  19  36  59  87 117 154 200 257 320 367
#     4  11  21  34  59  94 121 162 214 258 313 384
#     4  10  22  42  65  92 131 169 208 263 330 386
#     4  12  21  35  62  88 121 169 211 260 313 377
#     4  10  21  37  61  95 128 158 203 268 327 371
#     4  11  24  42  61  91 129 172 213 258 316 388
#
# _framework density 19.623244
#
# number of rings (size 3 to 8) (size 9 to 14) (size 15 to 20)
#    0.000    1.500    3.750    3.000    0.000    0.750 
#    0.000    1.250    0.000    3.750    0.000    0.000 
#    0.000    0.000    0.000    0.000    0.000    0.000 
#
# Total GULP energy -356335.199964 kJ/mol
# GULP energy per Si atom -5567.737499 kJ/mol
# Density = 1.957858 g / cm^3
# Si number density = 19.623244 Si / 1000 Ang^3
#
#
#
# Elastic Constant Matrix: (Units=GPa)
#
#
# Indices 1 2 3 4 5 6 
#
# 1 80.6003 34.7702 43.3091 0.0000 0.0000 0.0000
# 2 34.7702 76.5246 36.6678 0.0000 0.0000 0.0000
# 3 43.3091 36.6678 102.0885 0.0000 0.0000 0.0000
# 4 0.0000 0.0000 0.0000 -15.5994 0.0000 0.0000
# 5 0.0000 0.0000 0.0000 0.0000 3.8408 0.0000
# 6 0.0000 0.0000 0.0000 0.0000 0.0000 19.6848
#
#
#
# Elastic Compliance Matrix: (Units=1/GPa)
#
#
# Indices 1 2 3 4 5 6 
#
# 1 0.017731 -0.005377 -0.005590 0.000000 0.000000 0.000000
# 2 -0.005377 0.017415 -0.003974 0.000000 0.000000 0.000000
# 3 -0.005590 -0.003974 0.013594 0.000000 0.000000 0.000000
# 4 0.000000 0.000000 0.000000 -0.064105 0.000000 0.000000
# 5 0.000000 0.000000 0.000000 0.000000 0.260363 0.000000
# 6 0.000000 0.000000 0.000000 0.000000 0.000000 0.050801
#
#
# Mechanical properties :
#
#
# Convention : Reuss Voigt Hill
#
# Bulk Modulus (GPa) = 53.03158 54.30086 53.66622
# Shear Modulus (GPa) = 15.06173 11.21633 13.13903
#
# Velocity S-wave (km/s) = 2.77347 2.39338 2.59040
# Velocity P-wave (km/s) = 6.11062 5.94722 6.02948
#
# Compressibility (1/GPa) = 0.01885669
#
# Stress axis : x y z
#
# Youngs Moduli (GPa) = 56.39973 57.42132 73.55995
#
# Poissons Ratio (x) = 0.30878 0.41123
# Poissons Ratio (y) = 0.30329 0.29231
# Poissons Ratio (z) = 0.31530 0.22818
#
# Static dielectric constant tensor:
#      x y z
#    x 1.795540 0.000000 0.000000 
#    y 0.000000 1.335350 0.000000 
#    z 0.000000 0.000000 1.755750 
# 
# From -- ./inp_files/26406.got.cif
#   From: 2010.05.17/outbox.cif.g08.bks.cpg/sg58_14_cif.got.tgz:26406.got - 2010.06.03 14:20:14.
