data_PCOD9443163
_publ_section_title
;
Structure prediction by ZEFSAII (Michael W. Deem and Ramdas Pophale) SiO2 
 PCOD9443163
Probable space group: P N N M
;
_chemical_formula_sum "Si O2"
_cell_formula_units_Z 64
_cell_length_a 19.769276
_cell_length_b 17.588972
_cell_length_c 8.360227
_cell_angle_alpha 90.000000
_cell_angle_beta 90.000000
_cell_angle_gamma 90.000000
_cell_volume 2907.028516
_symmetry_space_group_name_H-M "P N N M"
_symmetry_group_IT_number 58
_symmetry_cell_setting 'orthorhombic'
loop_
_space_group_symop_operation_xyz
x,y,z
-x,-y,z
1/2+x,1/2-y,1/2-z
1/2-x,1/2+y,1/2-z
-x,-y,-z
x,y,-z
1/2-x,1/2+y,1/2+z
1/2+x,1/2-y,1/2+z
loop_
_atom_site_type_symbol
_atom_site_label
_atom_site_fract_x
_atom_site_fract_y
_atom_site_fract_z
Si Si1 0.016859 0.621325 0.311798
Si Si2 0.641621 0.481412 0.680670
Si Si3 0.449137 0.727361 0.196207
Si Si4 0.757215 0.572379 0.180895
Si Si5 0.191833 0.769951 0.315869
Si Si6 0.191904 0.176899 0.312221
Si Si7 0.609061 0.005682 0.811223
Si Si8 0.567477 0.623929 0.806812
O O1 0.031484 0.633934 0.500000
O O2 0.081331 0.575288 0.248685
O O3 0.991644 0.700543 0.243626
O O4 0.953565 0.564056 0.304391
O O5 0.626396 0.458654 0.500000
O O6 0.708352 0.533695 0.692020
O O7 0.664307 0.407698 0.779209
O O8 0.585634 0.539981 0.746321
O O9 0.371872 0.726104 0.252582
O O10 0.493205 0.653340 0.238358
O O11 0.447294 0.731122 0.000000
O O12 0.747153 0.662268 0.196003
O O13 0.830893 0.540971 0.211537
O O14 0.733933 0.553183 0.000000
O O15 0.176084 0.753097 0.500000
O O16 0.233733 0.697997 0.251697
O O17 0.123746 0.812398 0.251961
O O18 0.196002 0.190121 0.500000
O O19 0.627438 0.999027 0.000000
O O20 0.572097 0.622349 0.000000
#
# Coordination Sequence:
#
# PCOD9443163 Si02
#       8
#     8   8   8   8   8   8   8   8
#     4   8  15  28  47  77 112 144 182 221 262 321
#     4  11  23  39  57  77 105 140 180 225 278 334
#     4   9  18  33  55  80 107 144 185 226 273 326
#     4  10  20  35  55  79 108 140 179 225 272 324
#     4   9  19  35  55  80 111 146 180 222 274 322
#     4  11  22  36  58  86 113 141 180 227 270 322
#     4   9  16  28  50  78 110 147 184 222 263 317
#     4   9  19  38  60  81 109 145 187 230 273 323
#
# _framework density 22.015606999999999
#
# number of rings (size 3 to 8) (size 9 to 14) (size 15 to 20)
#    0.000    2.500    0.000    4.125    0.000    5.000 
#    0.000    7.500    0.000    3.000    0.000    0.000 
#    0.000    0.000    0.000    0.000    0.000    0.000 
#
# Total GULP energy -356775.699418 kJ/mol
# GULP energy per Si atom -5574.620303 kJ/mol
# Density = 2.196550 g / cm^3
# Si number density = 22.015607 Si / 1000 Ang^3
#
#
#
# Elastic Constant Matrix: (Units=GPa)
#
#
# Indices 1 2 3 4 5 6 
#
# 1 47.3216 -4.5227 3.4910 0.0000 0.0000 0.0000
# 2 -4.5227 40.7050 -10.3357 0.0000 0.0000 0.0000
# 3 3.4910 -10.3357 9.9438 0.0000 0.0000 0.0000
# 4 0.0000 0.0000 0.0000 17.8729 0.0000 0.0000
# 5 0.0000 0.0000 0.0000 0.0000 18.0049 0.0000
# 6 0.0000 0.0000 0.0000 0.0000 0.0000 -17.7881
#
#
#
# Elastic Compliance Matrix: (Units=1/GPa)
#
#
# Indices 1 2 3 4 5 6 
#
# 1 0.021706 0.000648 -0.006947 0.000000 0.000000 0.000000
# 2 0.000648 0.033395 0.034484 0.000000 0.000000 0.000000
# 3 -0.006947 0.034484 0.138847 0.000000 0.000000 0.000000
# 4 0.000000 0.000000 0.000000 0.055951 0.000000 0.000000
# 5 0.000000 0.000000 0.000000 0.000000 0.055541 0.000000
# 6 0.000000 0.000000 0.000000 0.000000 0.000000 -0.056217
#
#
# Mechanical properties :
#
#
# Convention : Reuss Voigt Hill
#
# Bulk Modulus (GPa) = 3.99494 8.35953 6.17723
# Shear Modulus (GPa) = 18.09670 10.90711 14.50191
#
# Velocity S-wave (km/s) = 2.87015 2.22823 2.56932
# Velocity P-wave (km/s) = 3.57802 3.22883 3.40790
#
# Compressibility (1/GPa) = 0.25031680
#
# Stress axis : x y z
#
# Youngs Moduli (GPa) = 46.06933 29.94465 7.20216
#
# Poissons Ratio (x) = -0.01940 0.05004
# Poissons Ratio (y) = -0.02984 -0.24836
# Poissons Ratio (z) = 0.32006 -1.03260
#
# Static dielectric constant tensor:
#      x y z
#    x 1.829400 0.000000 0.000000 
#    y 0.000000 1.870690 0.000000 
#    z 0.000000 0.000000 1.798770 
# 
# From -- ./inp_files/9234.got.cif
#   From: 2010.05.17/outbox.cif.g08.bks.cpg/sg58_5_cif.got.tgz:9234.got - 2010.06.03 14:20:14.
