data_PCOD9443391
_publ_section_title
;
Structure prediction by ZEFSAII (Michael W. Deem and Ramdas Pophale) SiO2 
 PCOD9443391
Probable space group: P N N M
;
_chemical_formula_sum "Si O2"
_cell_formula_units_Z 64
_cell_length_a 25.422765
_cell_length_b 14.469309
_cell_length_c 7.566299
_cell_angle_alpha 90.000000
_cell_angle_beta 90.000000
_cell_angle_gamma 90.000000
_cell_volume 2783.261895
_symmetry_space_group_name_H-M "P N N M"
_symmetry_group_IT_number 58
_symmetry_cell_setting 'orthorhombic'
loop_
_space_group_symop_operation_xyz
x,y,z
-x,-y,z
1/2+x,1/2-y,1/2-z
1/2-x,1/2+y,1/2-z
-x,-y,-z
x,y,-z
1/2-x,1/2+y,1/2+z
1/2+x,1/2-y,1/2+z
loop_
_atom_site_type_symbol
_atom_site_label
_atom_site_fract_x
_atom_site_fract_y
_atom_site_fract_z
Si Si1 0.916337 0.247293 0.295454
Si Si2 0.758508 0.081057 0.287032
Si Si3 0.450124 0.059925 0.285602
Si Si4 0.999524 0.893147 0.282704
Si Si5 0.801436 0.282605 0.285592
Si Si6 0.201451 0.109859 0.206087
Si Si7 0.140182 0.427598 0.792924
Si Si8 0.600263 0.274437 0.797566
O O1 0.905431 0.223914 0.500000
O O2 0.953067 0.336784 0.284673
O O3 0.860934 0.281241 0.216761
O O4 0.948125 0.160661 0.221879
O O5 0.757627 0.076913 0.500000
O O6 0.796633 0.999982 0.224111
O O7 0.778540 0.182280 0.241732
O O8 0.698984 0.070338 0.217359
O O9 0.449215 0.064412 0.500000
O O10 0.500000 0.000000 0.233523
O O11 0.398573 0.005466 0.219766
O O12 0.998756 0.892724 0.500000
O O13 0.948554 0.833936 0.223558
O O14 0.000000 0.000000 0.228037
O O15 0.803718 0.294270 0.500000
O O16 0.758019 0.355402 0.221737
O O17 0.152157 0.161221 0.290635
O O18 0.198634 0.135974 0.000000
O O19 0.114976 0.325244 0.781808
O O20 0.145543 0.448325 0.000000
O O21 0.587105 0.254125 0.000000
#
# Coordination Sequence:
#
# PCOD9443391 Si02
#       8
#     8   8   8   8   8   8   8   8
#     4  10  20  36  60  85 110 147 191 241 288 330
#     4  10  20  36  57  82 110 149 194 231 280 343
#     4  10  21  36  56  83 115 152 186 223 283 346
#     4   9  20  37  58  84 112 147 194 244 291 338
#     4   9  19  36  58  82 113 149 185 227 285 341
#     4  11  22  38  57  84 119 153 189 235 289 343
#     4  10  20  37  59  82 117 157 186 229 290 345
#     4  11  22  36  59  87 113 148 194 240 285 341
#
# _framework density 22.994603000000001
#
# number of rings (size 3 to 8) (size 9 to 14) (size 15 to 20)
#    0.000    2.000    1.250    2.250    1.750    1.250 
#    0.000    1.875    0.000    1.875    0.000    0.000 
#    0.000    0.000    0.000    0.000    0.000    0.000 
#
# Total GULP energy -357668.704194 kJ/mol
# GULP energy per Si atom -5588.573503 kJ/mol
# Density = 2.294227 g / cm^3
# Si number density = 22.994603 Si / 1000 Ang^3
#
#
#
# Elastic Constant Matrix: (Units=GPa)
#
#
# Indices 1 2 3 4 5 6 
#
# 1 69.8906 -5.0905 0.0320 0.0000 0.0000 0.0000
# 2 -5.0905 65.7271 -9.3955 0.0000 0.0000 0.0000
# 3 0.0320 -9.3955 49.7267 0.0000 0.0000 0.0000
# 4 0.0000 0.0000 0.0000 76.5022 0.0000 0.0000
# 5 0.0000 0.0000 0.0000 0.0000 2.4391 0.0000
# 6 0.0000 0.0000 0.0000 0.0000 0.0000 40.4844
#
#
#
# Elastic Compliance Matrix: (Units=1/GPa)
#
#
# Indices 1 2 3 4 5 6 
#
# 1 0.014391 0.001144 0.000207 0.000000 0.000000 0.000000
# 2 0.001144 0.015728 0.002971 0.000000 0.000000 0.000000
# 3 0.000207 0.002971 0.020671 0.000000 0.000000 0.000000
# 4 0.000000 0.000000 0.000000 0.013072 0.000000 0.000000
# 5 0.000000 0.000000 0.000000 0.000000 0.409981 0.000000
# 6 0.000000 0.000000 0.000000 0.000000 0.000000 0.024701
#
#
# Mechanical properties :
#
#
# Convention : Reuss Voigt Hill
#
# Bulk Modulus (GPa) = 16.82535 17.38183 17.10359
# Shear Modulus (GPa) = 9.80948 37.20502 23.50725
#
# Velocity S-wave (km/s) = 2.06767 4.02679 3.20080
# Velocity P-wave (km/s) = 3.61017 5.40329 4.59504
#
# Compressibility (1/GPa) = 0.05943412
#
# Stress axis : x y z
#
# Youngs Moduli (GPa) = 69.48632 63.58203 48.37671
#
# Poissons Ratio (x) = -0.07275 -0.01001
# Poissons Ratio (y) = -0.07950 -0.14372
# Poissons Ratio (z) = -0.01438 -0.18890
#
# Static dielectric constant tensor:
#      x y z
#    x 1.920780 0.000000 0.000000 
#    y 0.000000 1.794350 0.000000 
#    z 0.000000 0.000000 1.871840 
# 
# From -- ./inp_files/10092.got.cif
#   From: 2010.05.17/outbox.cif.g08.bks.cpg/sg58_6_cif.got.tgz:10092.got - 2010.06.03 14:20:14.
