data_PCOD9443406
_publ_section_title
;
Structure prediction by ZEFSAII (Michael W. Deem and Ramdas Pophale) SiO2 
 PCOD9443406
Probable space group: P N N M
;
_chemical_formula_sum "Si O2"
_cell_formula_units_Z 64
_cell_length_a 15.918468
_cell_length_b 9.087615
_cell_length_c 22.075048
_cell_angle_alpha 90.000000
_cell_angle_beta 90.000000
_cell_angle_gamma 90.000000
_cell_volume 3193.396500
_symmetry_space_group_name_H-M "P N N M"
_symmetry_group_IT_number 58
_symmetry_cell_setting 'orthorhombic'
loop_
_space_group_symop_operation_xyz
x,y,z
-x,-y,z
1/2+x,1/2-y,1/2-z
1/2-x,1/2+y,1/2-z
-x,-y,-z
x,y,-z
1/2-x,1/2+y,1/2+z
1/2+x,1/2-y,1/2+z
loop_
_atom_site_type_symbol
_atom_site_label
_atom_site_fract_x
_atom_site_fract_y
_atom_site_fract_z
Si Si1 0.010548 0.832966 0.568920
Si Si2 0.884172 0.401772 0.271360
Si Si3 0.206038 0.030307 0.289272
Si Si4 0.068972 0.871042 0.205043
Si Si5 0.814370 0.220471 0.616520
Si Si6 0.070419 0.873281 0.065179
Si Si7 0.382665 0.818790 0.156896
Si Si8 0.741906 0.005633 0.932753
O O1 0.979147 0.821250 0.500000
O O2 0.958523 0.729025 0.613253
O O3 0.109923 0.808677 0.570753
O O4 0.000000 0.000000 0.591230
O O5 0.798144 0.425642 0.233423
O O6 0.943042 0.282998 0.239196
O O7 0.857018 0.316617 0.331385
O O8 0.910843 0.561763 0.293810
O O9 0.155928 0.175473 0.310435
O O10 0.153623 0.944146 0.235878
O O11 0.214756 0.924234 0.348029
O O12 0.067477 0.820630 0.134759
O O13 0.000000 0.000000 0.213398
O O14 0.750887 0.334521 0.586583
O O15 0.164552 0.934733 0.063678
O O16 0.059278 0.789603 0.000000
O O17 0.000000 0.000000 0.063717
O O18 0.312394 0.898206 0.114470
O O19 0.702754 0.014607 0.000000
#
# Coordination Sequence:
#
# PCOD9443406 Si02
#       8
#     8   8   8   8   8   8   8   8
#     4  11  23  40  60  88 127 173 220 256 301 369
#     4  10  22  36  57  88 118 155 203 252 307 361
#     4  11  21  37  60  86 122 165 201 255 308 371
#     4  10  21  37  60  85 122 158 197 241 307 372
#     4  10  21  37  59  81 122 166 205 249 313 364
#     4   9  18  35  61  89 115 148 193 250 306 368
#     4  11  22  37  61  88 126 166 209 261 307 355
#     4  10  20  36  57  87 120 156 211 256 303 364
#
# _framework density 20.041357000000001
#
# number of rings (size 3 to 8) (size 9 to 14) (size 15 to 20)
#    0.000    1.750    1.250    4.500    3.500    2.000 
#    0.000    3.125    0.000    0.750    0.000    0.875 
#    0.000   19.000    0.000    0.000    0.000    0.125 
#
# Total GULP energy -356608.618479 kJ/mol
# GULP energy per Si atom -5572.009664 kJ/mol
# Density = 1.999574 g / cm^3
# Si number density = 20.041357 Si / 1000 Ang^3
#
#
#
# Elastic Constant Matrix: (Units=GPa)
#
#
# Indices 1 2 3 4 5 6 
#
# 1 54.4335 8.0745 18.8151 0.0000 0.0000 0.0000
# 2 8.0745 100.3929 48.8779 0.0000 0.0000 0.0000
# 3 18.8151 48.8779 108.5652 0.0000 0.0000 0.0000
# 4 0.0000 0.0000 0.0000 -11.7977 0.0000 0.0000
# 5 0.0000 0.0000 0.0000 0.0000 32.6165 0.0000
# 6 0.0000 0.0000 0.0000 0.0000 0.0000 11.8147
#
#
#
# Elastic Compliance Matrix: (Units=1/GPa)
#
#
# Indices 1 2 3 4 5 6 
#
# 1 0.019542 0.000099 -0.003431 0.000000 0.000000 0.000000
# 2 0.000099 0.012758 -0.005761 0.000000 0.000000 0.000000
# 3 -0.003431 -0.005761 0.012399 0.000000 0.000000 0.000000
# 4 0.000000 0.000000 0.000000 -0.084763 0.000000 0.000000
# 5 0.000000 0.000000 0.000000 0.000000 0.030659 0.000000
# 6 0.000000 0.000000 0.000000 0.000000 0.000000 0.084640
#
#
# Mechanical properties :
#
#
# Convention : Reuss Voigt Hill
#
# Bulk Modulus (GPa) = 37.71770 46.10295 41.91032
# Shear Modulus (GPa) = 48.89464 19.03498 33.96481
#
# Velocity S-wave (km/s) = 4.94468 3.08520 4.12118
# Velocity P-wave (km/s) = 7.17360 5.97872 6.60325
#
# Compressibility (1/GPa) = 0.02651275
#
# Stress axis : x y z
#
# Youngs Moduli (GPa) = 51.17069 78.38420 80.64937
#
# Poissons Ratio (x) = -0.00774 0.27673
# Poissons Ratio (y) = -0.00506 0.46461
# Poissons Ratio (z) = 0.17558 0.45156
#
# Static dielectric constant tensor:
#      x y z
#    x 1.712300 0.000000 0.000000 
#    y 0.000000 1.738160 0.000000 
#    z 0.000000 0.000000 1.805660 
# 
# From -- ./inp_files/32250.got.cif
#   From: 2010.05.17/outbox.cif.g08.bks.cpg/sg58_17_cif.got.tgz:32250.got - 2010.06.03 14:20:14.
