data_PCOD9443326
_publ_section_title
;
Structure prediction by ZEFSAII (Michael W. Deem and Ramdas Pophale) SiO2 
 PCOD9443326
Probable space group: P N N M
;
_chemical_formula_sum "Si O2"
_cell_formula_units_Z 48
_cell_length_a 12.667039
_cell_length_b 11.673172
_cell_length_c 13.395562
_cell_angle_alpha 90.000000
_cell_angle_beta 90.000000
_cell_angle_gamma 90.000000
_cell_volume 1980.728412
_symmetry_space_group_name_H-M "P N N M"
_symmetry_group_IT_number 58
_symmetry_cell_setting 'orthorhombic'
loop_
_space_group_symop_operation_xyz
x,y,z
-x,-y,z
1/2+x,1/2-y,1/2-z
1/2-x,1/2+y,1/2-z
-x,-y,-z
x,y,-z
1/2-x,1/2+y,1/2+z
1/2+x,1/2-y,1/2+z
loop_
_atom_site_type_symbol
_atom_site_label
_atom_site_fract_x
_atom_site_fract_y
_atom_site_fract_z
Si Si1 0.874214 0.458286 0.389388
Si Si2 0.394130 0.849276 0.276512
Si Si3 0.482923 0.730574 0.109016
Si Si4 0.845966 0.972200 0.182474
Si Si5 0.186979 0.926802 0.383116
Si Si6 0.539775 0.687786 0.617441
O O1 0.884307 0.514371 0.500000
O O2 0.893409 0.536702 0.291985
O O3 0.947864 0.347741 0.390646
O O4 0.753509 0.424771 0.376532
O O5 0.393842 0.753181 0.190170
O O6 0.292532 0.858001 0.348133
O O7 0.500921 0.808608 0.334770
O O8 0.574413 0.638234 0.128473
O O9 0.438550 0.708156 0.000000
O O10 0.824731 0.974827 0.300567
O O11 0.863258 0.108344 0.155473
O O12 0.943161 0.897144 0.145290
O O13 0.197683 0.955896 0.500000
O O14 0.550666 0.701991 0.500000
#
# Coordination Sequence:
#
# PCOD9443326 Si02
#       6
#     8   8   8   8   8   8
#     4  10  20  35  59  88 117 153 198 244 285 338
#     4  11  21  34  57  88 120 153 194 241 294 350
#     4  10  20  38  61  87 118 156 202 246 288 344
#     4  10  20  37  60  87 114 151 199 246 292 346
#     4  10  21  38  59  86 123 161 197 238 298 356
#     4  11  21  36  59  88 116 149 194 248 302 349
#
# _framework density 24.233509999999999
#
# number of rings (size 3 to 8) (size 9 to 14) (size 15 to 20)
#    0.000    1.667    1.667    4.500    0.000    2.667 
#    0.000    3.333    0.000   19.000    0.000    0.000 
#    0.000    0.000    0.000    0.000    0.000    0.000 
#
# Total GULP energy -267774.754296 kJ/mol
# GULP energy per Si atom -5578.640714 kJ/mol
# Density = 2.417835 g / cm^3
# Si number density = 24.233510 Si / 1000 Ang^3
#
#
#
# Elastic Constant Matrix: (Units=GPa)
#
#
# Indices 1 2 3 4 5 6 
#
# 1 53.0000 12.7230 -4.3904 0.0000 0.0000 0.0000
# 2 12.7230 80.4927 34.3943 0.0000 0.0000 0.0000
# 3 -4.3904 34.3943 176.2908 0.0000 0.0000 0.0000
# 4 0.0000 0.0000 0.0000 8.1245 0.0000 0.0000
# 5 0.0000 0.0000 0.0000 0.0000 39.5163 0.0000
# 6 0.0000 0.0000 0.0000 0.0000 0.0000 15.1755
#
#
#
# Elastic Compliance Matrix: (Units=1/GPa)
#
#
# Indices 1 2 3 4 5 6 
#
# 1 0.019845 -0.003652 0.001207 0.000000 0.000000 0.000000
# 2 -0.003652 0.014226 -0.002866 0.000000 0.000000 0.000000
# 3 0.001207 -0.002866 0.006262 0.000000 0.000000 0.000000
# 4 0.000000 0.000000 0.000000 0.123084 0.000000 0.000000
# 5 0.000000 0.000000 0.000000 0.000000 0.025306 0.000000
# 6 0.000000 0.000000 0.000000 0.000000 0.000000 0.065896
#
#
# Mechanical properties :
#
#
# Convention : Reuss Voigt Hill
#
# Bulk Modulus (GPa) = 33.66090 43.91526 38.78808
# Shear Modulus (GPa) = 18.17228 30.36703 24.26966
#
# Velocity S-wave (km/s) = 2.74137 3.54376 3.16807
# Velocity P-wave (km/s) = 4.89291 5.90807 5.42429
#
# Compressibility (1/GPa) = 0.02970806
#
# Stress axis : x y z
#
# Youngs Moduli (GPa) = 50.39139 70.29587 159.70032
#
# Poissons Ratio (x) = 0.25675 -0.19273
# Poissons Ratio (y) = 0.18405 0.45776
# Poissons Ratio (z) = -0.06081 0.20149
#
# Static dielectric constant tensor:
#      x y z
#    x 2.022310 0.000000 0.000000 
#    y 0.000000 2.045970 0.000000 
#    z 0.000000 0.000000 1.964330 
# 
# From -- ./inp_files/15609.got.cif
#   From: 2010.05.17/outbox.cif.g08.bks.cpg/sg58_8_cif.got.tgz:15609.got - 2010.06.03 14:20:14.
