data_PCOD9443621
_publ_section_title
;
Structure prediction by ZEFSAII (Michael W. Deem and Ramdas Pophale) SiO2 
 PCOD9443621
Probable space group: P N N M
;
_chemical_formula_sum "Si O2"
_cell_formula_units_Z 32
_cell_length_a 18.781895
_cell_length_b 10.033129
_cell_length_c 7.626979
_cell_angle_alpha 90.000000
_cell_angle_beta 90.000000
_cell_angle_gamma 90.000000
_cell_volume 1437.236888
_symmetry_space_group_name_H-M "P N N M"
_symmetry_group_IT_number 58
_symmetry_cell_setting 'orthorhombic'
loop_
_space_group_symop_operation_xyz
x,y,z
-x,-y,z
1/2+x,1/2-y,1/2-z
1/2-x,1/2+y,1/2-z
-x,-y,-z
x,y,-z
1/2-x,1/2+y,1/2+z
1/2+x,1/2-y,1/2+z
loop_
_atom_site_type_symbol
_atom_site_label
_atom_site_fract_x
_atom_site_fract_y
_atom_site_fract_z
Si Si1 0.434402 0.087524 0.707687
Si Si2 0.716116 0.021498 0.288534
Si Si3 0.828192 0.812363 0.709399
Si Si4 0.512792 0.348586 0.788060
O O1 0.431758 0.060685 0.500000
O O2 0.357845 0.043149 0.778243
O O3 0.454198 0.241489 0.732467
O O4 0.500000 0.000000 0.781648
O O5 0.716777 0.010570 0.500000
O O6 0.783552 0.938040 0.222606
O O7 0.713968 0.176656 0.244224
O O8 0.834541 0.827466 0.500000
O O9 0.909025 0.803339 0.776582
O O10 0.500000 0.500000 0.730176
O O11 0.512288 0.348324 0.000000
#
# Coordination Sequence:
#
# PCOD9443621 Si02
#       4
#     8   8   8   8
#     4  10  20  37  59  83 110 145 187 229 277 329
#     4  10  22  39  58  82 115 149 186 232 278 331
#     4  10  22  39  57  82 114 148 187 229 276 333
#     4  10  22  38  57  84 115 146 186 233 280 329
#
# _framework density 22.264944
#
# number of rings (size 3 to 8) (size 9 to 14) (size 15 to 20)
#    0.000    2.000    2.500    0.000    3.500    3.000 
#    0.000    0.000    0.000    0.000    0.000    0.000 
#    0.000    0.000    0.000    0.000    0.000    0.000 
#
# Total GULP energy -178835.739356 kJ/mol
# GULP energy per Si atom -5588.616855 kJ/mol
# Density = 2.221427 g / cm^3
# Si number density = 22.264944 Si / 1000 Ang^3
#
#
#
# Elastic Constant Matrix: (Units=GPa)
#
#
# Indices 1 2 3 4 5 6 
#
# 1 24.5470 -12.6880 4.7508 0.0000 0.0000 0.0000
# 2 -12.6880 84.3658 -21.9114 0.0000 0.0000 0.0000
# 3 4.7508 -21.9114 40.9173 0.0000 0.0000 0.0000
# 4 0.0000 0.0000 0.0000 621.7338 0.0000 0.0000
# 5 0.0000 0.0000 0.0000 0.0000 6.3143 0.0000
# 6 0.0000 0.0000 0.0000 0.0000 0.0000 38.0231
#
#
#
# Elastic Compliance Matrix: (Units=1/GPa)
#
#
# Indices 1 2 3 4 5 6 
#
# 1 0.044290 0.006186 -0.001830 0.000000 0.000000 0.000000
# 2 0.006186 0.014632 0.007117 0.000000 0.000000 0.000000
# 3 -0.001830 0.007117 0.028463 0.000000 0.000000 0.000000
# 4 0.000000 0.000000 0.000000 0.001608 0.000000 0.000000
# 5 0.000000 0.000000 0.000000 0.000000 0.158372 0.000000
# 6 0.000000 0.000000 0.000000 0.000000 0.000000 0.026300
#
#
# Mechanical properties :
#
#
# Convention : Reuss Voigt Hill
#
# Bulk Modulus (GPa) = 9.06368 10.01477 9.53922
# Shear Modulus (GPa) = 17.39155 145.19280 81.29217
#
# Velocity S-wave (km/s) = 2.79788 8.08412 6.04901
# Velocity P-wave (km/s) = 3.81014 9.57314 7.28568
#
# Compressibility (1/GPa) = 0.11033047
#
# Stress axis : x y z
#
# Youngs Moduli (GPa) = 22.57866 68.34384 35.13293
#
# Poissons Ratio (x) = -0.42275 0.06429
# Poissons Ratio (y) = -0.13966 -0.25005
# Poissons Ratio (z) = 0.04132 -0.48642
#
# Static dielectric constant tensor:
#      x y z
#    x 1.840010 0.000000 0.000000 
#    y 0.000000 1.776930 0.000000 
#    z 0.000000 0.000000 1.834270 
# 
# From -- ./inp_files/2133.got.cif
#   From: 2010.05.17/outbox.cif.g08.bks.cpg/sg58_2_cif.got.tgz:2133.got - 2010.06.03 14:20:14.
