data_PCOD9443436
_publ_section_title
;
Structure prediction by ZEFSAII (Michael W. Deem and Ramdas Pophale) SiO2 
 PCOD9443436
Probable space group: P N N M
;
_chemical_formula_sum "Si O2"
_cell_formula_units_Z 58
_cell_length_a 24.023025
_cell_length_b 14.576818
_cell_length_c 7.413056
_cell_angle_alpha 90.000000
_cell_angle_beta 90.000000
_cell_angle_gamma 90.000000
_cell_volume 2595.898488
_symmetry_space_group_name_H-M "P N N M"
_symmetry_group_IT_number 58
_symmetry_cell_setting 'orthorhombic'
loop_
_space_group_symop_operation_xyz
x,y,z
-x,-y,z
1/2+x,1/2-y,1/2-z
1/2-x,1/2+y,1/2-z
-x,-y,-z
x,y,-z
1/2-x,1/2+y,1/2+z
1/2+x,1/2-y,1/2+z
loop_
_atom_site_type_symbol
_atom_site_label
_atom_site_fract_x
_atom_site_fract_y
_atom_site_fract_z
Si Si1 0.591661 0.050692 0.709390
Si Si2 0.883160 0.852190 0.708790
Si Si3 0.809622 0.681419 0.281211
Si Si4 0.816414 0.197911 0.219035
Si Si5 0.481116 0.778694 0.718364
Si Si6 0.909487 0.051335 0.797406
Si Si7 0.900526 0.344445 0.779698
Si Si8 0.500000 0.500000 0.000000
O O1 0.575563 0.040755 0.500000
O O2 0.652482 0.096481 0.721034
O O3 0.549540 0.127661 0.782835
O O4 0.592150 0.948506 0.785545
O O5 0.869990 0.871076 0.500000
O O6 0.841339 0.774254 0.777963
O O7 0.944253 0.805561 0.714122
O O8 0.884453 0.948599 0.805393
O O9 0.811034 0.681298 0.500000
O O10 0.746202 0.680698 0.218395
O O11 0.844523 0.293328 0.277863
O O12 0.860434 0.118951 0.263846
O O13 0.813413 0.199766 0.000000
O O14 0.477810 0.776209 0.500000
O O15 0.545255 0.785183 0.770902
O O16 0.959173 0.043496 0.657556
O O17 0.927722 0.079665 0.000000
O O18 0.899656 0.347138 0.000000
#
# Coordination Sequence:
#
# PCOD9443436 Si02
#       8
#     8   8   8   8   8   8   8   2
#     4   9  17  31  53  82 107 140 186 236 288 351
#     4  10  20  36  58  87 117 160 205 251 300 357
#     4   9  19  37  58  78 116 155 197 250 300 353
#     4   9  20  37  56  83 114 158 202 244 302 363
#     4   9  17  30  52  81 113 144 184 234 291 354
#     4  11  24  42  65  90 126 167 210 256 315 373
#     4   9  17  30  52  79 107 139 182 232 287 350
#     4  12  26  44  64  94 128 162 210 264 310 386
#
# _framework density 22.342939999999999
#
# number of rings (size 3 to 8) (size 9 to 14) (size 15 to 20)
#    0.000    2.483    0.690    1.034    1.931    3.310 
#    1.241    2.069    1.517    3.310    0.000    0.000 
#    0.000    0.000    0.000    0.000    0.000    0.000 
#
# Total GULP energy -323640.614876 kJ/mol
# GULP energy per Si atom -5580.010601 kJ/mol
# Density = 2.229209 g / cm^3
# Si number density = 22.342940 Si / 1000 Ang^3
#
#
#
# Elastic Constant Matrix: (Units=GPa)
#
#
# Indices 1 2 3 4 5 6 
#
# 1 119.5701 11.6108 5.4076 0.0000 0.0000 0.0000
# 2 11.6108 88.5319 -6.4297 0.0000 0.0000 0.0000
# 3 5.4076 -6.4297 91.4236 0.0000 0.0000 0.0000
# 4 0.0000 0.0000 0.0000 6.6662 0.0000 0.0000
# 5 0.0000 0.0000 0.0000 0.0000 16.1785 0.0000
# 6 0.0000 0.0000 0.0000 0.0000 0.0000 22.5979
#
#
#
# Elastic Compliance Matrix: (Units=1/GPa)
#
#
# Indices 1 2 3 4 5 6 
#
# 1 0.008502 -0.001157 -0.000584 0.000000 0.000000 0.000000
# 2 -0.001157 0.011511 0.000878 0.000000 0.000000 0.000000
# 3 -0.000584 0.000878 0.011034 0.000000 0.000000 0.000000
# 4 0.000000 0.000000 0.000000 0.150010 0.000000 0.000000
# 5 0.000000 0.000000 0.000000 0.000000 0.061810 0.000000
# 6 0.000000 0.000000 0.000000 0.000000 0.000000 0.044252
#
#
# Mechanical properties :
#
#
# Convention : Reuss Voigt Hill
#
# Bulk Modulus (GPa) = 34.10647 35.63366 34.87006
# Shear Modulus (GPa) = 16.74365 28.35099 22.54732
#
# Velocity S-wave (km/s) = 2.74047 3.56603 3.18015
# Velocity P-wave (km/s) = 5.03108 5.73921 5.39677
#
# Compressibility (1/GPa) = 0.02931995
#
# Stress axis : x y z
#
# Youngs Moduli (GPa) = 117.61783 86.87396 90.62559
#
# Poissons Ratio (x) = 0.10055 0.05295
# Poissons Ratio (y) = 0.13614 -0.07957
# Poissons Ratio (z) = 0.06872 -0.07628
#
# Static dielectric constant tensor:
#      x y z
#    x 1.788530 0.000000 0.000000 
#    y 0.000000 1.818550 0.000000 
#    z 0.000000 0.000000 1.847310 
# 
# From -- ./inp_files/6665.got.cif
#   From: 2010.05.17/outbox.cif.g08.bks.cpg/sg58_4_cif.got.tgz:6665.got - 2010.06.03 14:20:14.
