data_PCOD9443197
_publ_section_title
;
Structure prediction by ZEFSAII (Michael W. Deem and Ramdas Pophale) SiO2 
 PCOD9443197
Probable space group: P N N M
;
_chemical_formula_sum "Si O2"
_cell_formula_units_Z 64
_cell_length_a 41.659787
_cell_length_b 9.914375
_cell_length_c 9.053553
_cell_angle_alpha 90.000000
_cell_angle_beta 90.000000
_cell_angle_gamma 90.000000
_cell_volume 3739.395792
_symmetry_space_group_name_H-M "P N N M"
_symmetry_group_IT_number 58
_symmetry_cell_setting 'orthorhombic'
loop_
_space_group_symop_operation_xyz
x,y,z
-x,-y,z
1/2+x,1/2-y,1/2-z
1/2-x,1/2+y,1/2-z
-x,-y,-z
x,y,-z
1/2-x,1/2+y,1/2+z
1/2+x,1/2-y,1/2+z
loop_
_atom_site_type_symbol
_atom_site_label
_atom_site_fract_x
_atom_site_fract_y
_atom_site_fract_z
Si Si1 0.969788 0.592074 0.823311
Si Si2 0.723936 0.612438 0.676939
Si Si3 0.029846 0.091790 0.176837
Si Si4 0.902490 0.906475 0.675835
Si Si5 0.402123 0.910507 0.176464
Si Si6 0.152292 0.591871 0.823621
Si Si7 0.150834 0.910229 0.824546
Si Si8 0.779668 0.399743 0.323434
O O1 0.976560 0.749999 0.793197
O O2 0.937313 0.554151 0.738749
O O3 0.000000 0.500000 0.782313
O O4 0.964509 0.578046 0.000000
O O5 0.723950 0.639084 0.500000
O O6 0.688063 0.560819 0.713625
O O7 0.751405 0.504898 0.710494
O O8 0.728984 0.752415 0.761275
O O9 0.063294 0.054919 0.253581
O O10 0.033591 0.076346 0.000000
O O11 0.000000 0.000000 0.224479
O O12 0.904292 0.919170 0.500000
O O13 0.896884 0.748204 0.711396
O O14 0.874170 0.997952 0.738882
O O15 0.375206 0.000847 0.252978
O O16 0.401142 0.926913 0.000000
O O17 0.145916 0.750881 0.794811
O O18 0.186818 0.559867 0.752442
O O19 0.153634 0.573701 0.000000
O O20 0.146717 0.931707 0.000000
O O21 0.783807 0.394245 0.500000
#
# Coordination Sequence:
#
# PCOD9443197 Si02
#       8
#     8   8   8   8   8   8   8   8
#     4   9  18  33  52  74 101 134 173 214 256 305
#     4   9  20  37  54  77 108 139 174 215 259 310
#     4   9  18  33  52  73  99 133 171 210 252 301
#     4  10  21  35  52  77 107 137 171 213 259 306
#     4  10  21  36  53  77 108 139 174 215 260 311
#     4  10  21  37  56  78 105 138 176 217 263 313
#     4   9  19  36  55  75 102 136 174 214 255 306
#     4  10  20  35  56  81 108 138 175 218 262 309
#
# _framework density 17.115064
#
# number of rings (size 3 to 8) (size 9 to 14) (size 15 to 20)
#    0.000    2.500    0.000    2.250    0.000    7.500 
#    0.000    5.000    0.000    0.000    0.000    0.000 
#    0.000    0.000    0.000    0.000    0.000    0.000 
#
# Total GULP energy -357121.735175 kJ/mol
# GULP energy per Si atom -5580.027112 kJ/mol
# Density = 1.707611 g / cm^3
# Si number density = 17.115064 Si / 1000 Ang^3
#
#
#
# Elastic Constant Matrix: (Units=GPa)
#
#
# Indices 1 2 3 4 5 6 
#
# 1 190.6943 117.3839 85.9971 0.0000 0.0000 0.0000
# 2 117.3839 86.1943 62.0686 0.0000 0.0000 0.0000
# 3 85.9971 62.0686 57.6069 0.0000 0.0000 0.0000
# 4 0.0000 0.0000 0.0000 25.4359 0.0000 0.0000
# 5 0.0000 0.0000 0.0000 0.0000 31.5947 0.0000
# 6 0.0000 0.0000 0.0000 0.0000 0.0000 40.0285
#
#
#
# Elastic Compliance Matrix: (Units=1/GPa)
#
#
# Indices 1 2 3 4 5 6 
#
# 1 0.032608 -0.041736 -0.003710 0.000000 0.000000 0.000000
# 2 -0.041736 0.105183 -0.051025 0.000000 0.000000 0.000000
# 3 -0.003710 -0.051025 0.077874 0.000000 0.000000 0.000000
# 4 0.000000 0.000000 0.000000 0.039315 0.000000 0.000000
# 5 0.000000 0.000000 0.000000 0.000000 0.031651 0.000000
# 6 0.000000 0.000000 0.000000 0.000000 0.000000 0.024982
#
#
# Mechanical properties :
#
#
# Convention : Reuss Voigt Hill
#
# Bulk Modulus (GPa) = 44.00714 96.15495 70.08105
# Shear Modulus (GPa) = 9.76322 24.01487 16.88904
#
# Velocity S-wave (km/s) = 2.39099 3.74992 3.14474
# Velocity P-wave (km/s) = 5.77848 8.66329 7.36354
#
# Compressibility (1/GPa) = 0.02272358
#
# Stress axis : x y z
#
# Youngs Moduli (GPa) = 30.66757 9.50727 12.84134
#
# Poissons Ratio (x) = 0.39679 0.04764
# Poissons Ratio (y) = 1.27993 0.65523
# Poissons Ratio (z) = 0.11376 0.48511
#
# Static dielectric constant tensor:
#      x y z
#    x 1.552880 0.000000 0.000000 
#    y 0.000000 1.561920 0.000000 
#    z 0.000000 0.000000 1.568720 
# 
# From -- ./inp_files/10950.got.cif
#   From: 2010.05.17/outbox.cif.g08.bks.cpg/sg58_6_cif.got.tgz:10950.got - 2010.06.03 14:20:14.
