data_PCOD9443080
_publ_section_title
;
Structure prediction by ZEFSAII (Michael W. Deem and Ramdas Pophale) SiO2 
 PCOD9443080
Probable space group: P N N M
;
_chemical_formula_sum "Si O2"
_cell_formula_units_Z 64
_cell_length_a 9.545653
_cell_length_b 24.414786
_cell_length_c 14.135780
_cell_angle_alpha 90.000000
_cell_angle_beta 90.000000
_cell_angle_gamma 90.000000
_cell_volume 3294.415271
_symmetry_space_group_name_H-M "P N N M"
_symmetry_group_IT_number 58
_symmetry_cell_setting 'orthorhombic'
loop_
_space_group_symop_operation_xyz
x,y,z
-x,-y,z
1/2+x,1/2-y,1/2-z
1/2-x,1/2+y,1/2-z
-x,-y,-z
x,y,-z
1/2-x,1/2+y,1/2+z
1/2+x,1/2-y,1/2+z
loop_
_atom_site_type_symbol
_atom_site_label
_atom_site_fract_x
_atom_site_fract_y
_atom_site_fract_z
Si Si1 0.695111 0.115952 0.798371
Si Si2 0.681419 0.773865 0.112870
Si Si3 0.811848 0.341296 0.889845
Si Si4 0.558279 0.939002 0.109238
Si Si5 0.644225 0.228830 0.112240
Si Si6 0.853098 0.662296 0.109844
Si Si7 0.702338 0.384643 0.294944
Si Si8 0.951387 0.062609 0.111994
O O1 0.538748 0.099885 0.828499
O O2 0.714458 0.177446 0.836691
O O3 0.705728 0.119122 0.685567
O O4 0.794953 0.074077 0.852546
O O5 0.518943 0.764838 0.141916
O O6 0.776645 0.720268 0.128196
O O7 0.745869 0.826608 0.163522
O O8 0.681575 0.784183 0.000000
O O9 0.731803 0.283957 0.873232
O O10 0.744766 0.383069 0.814789
O O11 0.978854 0.333957 0.875294
O O12 0.790923 0.356601 0.000000
O O13 0.712353 0.931502 0.149393
O O14 0.500000 0.000000 0.115560
O O15 0.553353 0.921606 0.000000
O O16 0.644120 0.217391 0.000000
O O17 0.828593 0.648067 0.000000
O O18 0.544132 0.396956 0.323351
O O19 0.964468 0.075556 0.000000
O O20 0.000000 0.000000 0.124800
#
# Coordination Sequence:
#
# PCOD9443080 Si02
#       8
#     8   8   8   8   8   8   8   8
#     4  12  22  38  62  87 118 159 197 240 297 356
#     4  10  20  34  57  90 123 155 197 243 292 355
#     4  10  22  39  59  89 125 160 199 242 286 343
#     4  11  22  38  62  87 111 143 190 248 306 359
#     4  10  20  34  57  90 123 155 197 243 292 355
#     4  10  22  39  59  89 125 160 199 242 286 343
#     4  12  22  38  62  87 118 159 197 240 297 356
#     4  11  26  44  62  89 121 151 192 248 306 361
#
# _framework density 19.426815999999999
#
# number of rings (size 3 to 8) (size 9 to 14) (size 15 to 20)
#    0.000    1.250    2.500    3.750    3.500    2.000 
#    0.000    0.000    0.000    4.500    0.000    0.000 
#    0.000    0.000    0.000    0.000    0.000    0.000 
#
# Total GULP energy -357591.088841 kJ/mol
# GULP energy per Si atom -5587.360763 kJ/mol
# Density = 1.938260 g / cm^3
# Si number density = 19.426816 Si / 1000 Ang^3
#
#
#
# Elastic Constant Matrix: (Units=GPa)
#
#
# Indices 1 2 3 4 5 6 
#
# 1 50.5760 6.2403 18.6730 0.0000 0.0000 0.0000
# 2 6.2403 38.0621 49.0179 0.0000 0.0000 0.0000
# 3 18.6730 49.0179 100.0168 0.0000 0.0000 0.0000
# 4 0.0000 0.0000 0.0000 17.1743 0.0000 0.0000
# 5 0.0000 0.0000 0.0000 0.0000 24.9601 0.0000
# 6 0.0000 0.0000 0.0000 0.0000 0.0000 27.0844
#
#
#
# Elastic Compliance Matrix: (Units=1/GPa)
#
#
# Indices 1 2 3 4 5 6 
#
# 1 0.021512 0.004461 -0.006203 0.000000 0.000000 0.000000
# 2 0.004461 0.072158 -0.036197 0.000000 0.000000 0.000000
# 3 -0.006203 -0.036197 0.028896 0.000000 0.000000 0.000000
# 4 0.000000 0.000000 0.000000 0.058227 0.000000 0.000000
# 5 0.000000 0.000000 0.000000 0.000000 0.040064 0.000000
# 6 0.000000 0.000000 0.000000 0.000000 0.000000 0.036922
#
#
# Mechanical properties :
#
#
# Convention : Reuss Voigt Hill
#
# Bulk Modulus (GPa) = 21.41847 37.39079 29.40463
# Shear Modulus (GPa) = 14.31770 21.49202 17.90486
#
# Velocity S-wave (km/s) = 2.71773 3.32973 3.03917
# Velocity P-wave (km/s) = 4.57135 5.83709 5.24256
#
# Compressibility (1/GPa) = 0.04668867
#
# Stress axis : x y z
#
# Youngs Moduli (GPa) = 46.48606 13.85853 34.60632
#
# Poissons Ratio (x) = -0.06182 0.21465
# Poissons Ratio (y) = -0.20738 1.25265
# Poissons Ratio (z) = 0.28833 0.50164
#
# Static dielectric constant tensor:
#      x y z
#    x 1.664330 0.000000 0.000000 
#    y 0.000000 1.657760 0.000000 
#    z 0.000000 0.000000 1.696500 
# 
# From -- ./inp_files/20314.got.cif
#   From: 2010.05.17/outbox.cif.g08.bks.cpg/sg58_11_cif.got.tgz:20314.got - 2010.06.03 14:20:14.
