data_PCOD9443270
_publ_section_title
;
Structure prediction by ZEFSAII (Michael W. Deem and Ramdas Pophale) SiO2 
 PCOD9443270
Probable space group: P N N M
;
_chemical_formula_sum "Si O2"
_cell_formula_units_Z 64
_cell_length_a 26.121876
_cell_length_b 12.807813
_cell_length_c 9.283968
_cell_angle_alpha 90.000000
_cell_angle_beta 90.000000
_cell_angle_gamma 90.000000
_cell_volume 3106.082426
_symmetry_space_group_name_H-M "P N N M"
_symmetry_group_IT_number 58
_symmetry_cell_setting 'orthorhombic'
loop_
_space_group_symop_operation_xyz
x,y,z
-x,-y,z
1/2+x,1/2-y,1/2-z
1/2-x,1/2+y,1/2-z
-x,-y,-z
x,y,-z
1/2-x,1/2+y,1/2+z
1/2+x,1/2-y,1/2+z
loop_
_atom_site_type_symbol
_atom_site_label
_atom_site_fract_x
_atom_site_fract_y
_atom_site_fract_z
Si Si1 0.175186 0.198476 0.660526
Si Si2 0.142845 0.013387 0.838841
Si Si3 0.438439 0.782443 0.159896
Si Si4 0.028243 0.102123 0.163794
Si Si5 0.168977 0.827346 0.335557
Si Si6 0.785569 0.600941 0.832338
Si Si7 0.939140 0.509297 0.829239
Si Si8 0.345013 0.084850 0.173181
O O1 0.198343 0.194763 0.500000
O O2 0.115044 0.222512 0.643511
O O3 0.195030 0.294034 0.754856
O O4 0.178181 0.089121 0.743007
O O5 0.136270 0.899658 0.769710
O O6 0.087718 0.069176 0.846165
O O7 0.163865 0.004653 0.000000
O O8 0.476919 0.701899 0.234823
O O9 0.427151 0.876405 0.267708
O O10 0.454572 0.817989 0.000000
O O11 0.010295 0.124117 0.000000
O O12 0.000000 0.000000 0.220210
O O13 0.149893 0.834703 0.500000
O O14 0.224710 0.881195 0.329939
O O15 0.171590 0.704624 0.299330
O O16 0.808049 0.500736 0.748308
O O17 0.801931 0.595997 0.000000
O O18 0.901445 0.433624 0.741066
O O19 0.000000 0.500000 0.804022
O O20 0.929835 0.499825 0.000000
O O21 0.345737 0.067393 0.000000
#
# Coordination Sequence:
#
# PCOD9443270 Si02
#       8
#     8   8   8   8   8   8   8   8
#     4  10  20  36  60  88 118 154 197 252 310 364
#     4  10  21  37  60  88 120 159 204 252 306 369
#     4  10  20  35  57  86 117 153 200 253 310 369
#     4   9  19  36  58  85 119 159 203 254 308 365
#     4  10  25  44  61  89 129 168 206 256 319 379
#     4  11  23  40  64  92 121 160 208 255 310 375
#     4  11  24  41  63  91 124 166 214 264 318 381
#     4  11  24  44  66  93 130 169 212 267 323 381
#
# _framework density 20.604731999999998
#
# number of rings (size 3 to 8) (size 9 to 14) (size 15 to 20)
#    0.000    1.750    1.250    2.250    1.750    5.750 
#    0.000    3.750    0.000    0.000    0.000    0.000 
#    0.000    0.000    0.000    0.000    0.000    0.000 
#
# Total GULP energy -357147.711877 kJ/mol
# GULP energy per Si atom -5580.432998 kJ/mol
# Density = 2.055783 g / cm^3
# Si number density = 20.604732 Si / 1000 Ang^3
#
#
#
# Elastic Constant Matrix: (Units=GPa)
#
#
# Indices 1 2 3 4 5 6 
#
# 1 34.0192 15.7267 24.8008 0.0000 0.0000 0.0000
# 2 15.7267 128.5451 73.2404 0.0000 0.0000 0.0000
# 3 24.8008 73.2404 129.5080 0.0000 0.0000 0.0000
# 4 0.0000 0.0000 0.0000 -265.5042 0.0000 0.0000
# 5 0.0000 0.0000 0.0000 0.0000 22.0946 0.0000
# 6 0.0000 0.0000 0.0000 0.0000 0.0000 31.7215
#
#
#
# Elastic Compliance Matrix: (Units=1/GPa)
#
#
# Indices 1 2 3 4 5 6 
#
# 1 0.034204 -0.000668 -0.006172 0.000000 0.000000 0.000000
# 2 -0.000668 0.011491 -0.006370 0.000000 0.000000 0.000000
# 3 -0.006172 -0.006370 0.012506 0.000000 0.000000 0.000000
# 4 0.000000 0.000000 0.000000 -0.003766 0.000000 0.000000
# 5 0.000000 0.000000 0.000000 0.000000 0.045260 0.000000
# 6 0.000000 0.000000 0.000000 0.000000 0.000000 0.031524
#
#
# Mechanical properties :
#
#
# Convention : Reuss Voigt Hill
#
# Bulk Modulus (GPa) = 31.46694 57.73425 44.60060
# Shear Modulus (GPa) = 29.72071 -30.45067 -0.36498
#
# Velocity S-wave (km/s) = 3.80204 -3.84845 -0.42133
# Velocity P-wave (km/s) = 5.88038 2.88675 4.63207
#
# Compressibility (1/GPa) = 0.03177938
#
# Stress axis : x y z
#
# Youngs Moduli (GPa) = 29.23663 87.02665 79.96039
#
# Poissons Ratio (x) = 0.05812 0.49354
# Poissons Ratio (y) = 0.01953 0.50938
# Poissons Ratio (z) = 0.18046 0.55440
#
# Static dielectric constant tensor:
#      x y z
#    x 1.847910 0.000000 0.000000 
#    y 0.000000 1.718490 0.000000 
#    z 0.000000 0.000000 1.747990 
# 
# From -- ./inp_files/11047.got.cif
#   From: 2010.05.17/outbox.cif.g08.bks.cpg/sg58_6_cif.got.tgz:11047.got - 2010.06.03 14:20:14.
