data_PCOD9443347
_publ_section_title
;
Structure prediction by ZEFSAII (Michael W. Deem and Ramdas Pophale) SiO2 
 PCOD9443347
Probable space group: P N N M
;
_chemical_formula_sum "Si O2"
_cell_formula_units_Z 40
_cell_length_a 12.729942
_cell_length_b 19.311831
_cell_length_c 7.580749
_cell_angle_alpha 90.000000
_cell_angle_beta 90.000000
_cell_angle_gamma 90.000000
_cell_volume 1863.639876
_symmetry_space_group_name_H-M "P N N M"
_symmetry_group_IT_number 58
_symmetry_cell_setting 'orthorhombic'
loop_
_space_group_symop_operation_xyz
x,y,z
-x,-y,z
1/2+x,1/2-y,1/2-z
1/2-x,1/2+y,1/2-z
-x,-y,-z
x,y,-z
1/2-x,1/2+y,1/2+z
1/2+x,1/2-y,1/2+z
loop_
_atom_site_type_symbol
_atom_site_label
_atom_site_fract_x
_atom_site_fract_y
_atom_site_fract_z
Si Si1 0.824252 0.385532 0.213815
Si Si2 0.941786 0.657582 0.706009
Si Si3 0.281743 0.959886 0.705875
Si Si4 0.889524 0.810572 0.716022
Si Si5 0.947411 0.073189 0.715051
O O1 0.810598 0.464617 0.278994
O O2 0.723109 0.341214 0.268919
O O3 0.934571 0.354488 0.272812
O O4 0.826486 0.385974 0.000000
O O5 0.915780 0.657425 0.500000
O O6 0.876271 0.593986 0.783318
O O7 0.908837 0.732527 0.778042
O O8 0.259554 0.972977 0.500000
O O9 0.173049 0.928271 0.777519
O O10 0.891564 0.810121 0.500000
O O11 0.981267 0.862908 0.775055
O O12 0.948736 0.076560 0.500000
O O13 0.000000 0.000000 0.763741
#
# Coordination Sequence:
#
# PCOD9443347 Si02
#       5
#     8   8   8   8   8
#     4  10  20  38  60  81 107 142 188 233 269 315
#     4  11  24  37  53  81 118 152 177 216 280 339
#     4  10  20  35  61  87 106 139 189 235 271 316
#     4   9  19  35  54  80 112 142 176 225 281 326
#     4   9  15  30  57  85 106 132 180 236 275 309
#
# _framework density 21.463374999999999
#
# number of rings (size 3 to 8) (size 9 to 14) (size 15 to 20)
#    0.000    2.200    2.000    1.200    2.800    3.200 
#    0.000    1.000    0.000    1.800    0.000    0.000 
#    0.000    0.000    0.000    0.000    0.000    0.000 
#
# Total GULP energy -223475.327785 kJ/mol
# GULP energy per Si atom -5586.883195 kJ/mol
# Density = 2.141452 g / cm^3
# Si number density = 21.463375 Si / 1000 Ang^3
#
#
#
# Elastic Constant Matrix: (Units=GPa)
#
#
# Indices 1 2 3 4 5 6 
#
# 1 130.7604 87.8234 -16.8501 0.0000 0.0000 0.0000
# 2 87.8234 166.3923 -9.8963 0.0000 0.0000 0.0000
# 3 -16.8501 -9.8963 41.2023 0.0000 0.0000 0.0000
# 4 0.0000 0.0000 0.0000 1.7926 0.0000 0.0000
# 5 0.0000 0.0000 0.0000 0.0000 15.7767 0.0000
# 6 0.0000 0.0000 0.0000 0.0000 0.0000 31.5390
#
#
#
# Elastic Compliance Matrix: (Units=1/GPa)
#
#
# Indices 1 2 3 4 5 6 
#
# 1 0.012334 -0.006300 0.003531 0.000000 0.000000 0.000000
# 2 -0.006300 0.009315 -0.000339 0.000000 0.000000 0.000000
# 3 0.003531 -0.000339 0.025633 0.000000 0.000000 0.000000
# 4 0.000000 0.000000 0.000000 0.557863 0.000000 0.000000
# 5 0.000000 0.000000 0.000000 0.000000 0.063385 0.000000
# 6 0.000000 0.000000 0.000000 0.000000 0.000000 0.031707
#
#
# Mechanical properties :
#
#
# Convention : Reuss Voigt Hill
#
# Bulk Modulus (GPa) = 24.35133 51.16766 37.75950
# Shear Modulus (GPa) = 6.94309 28.30684 17.62497
#
# Velocity S-wave (km/s) = 1.80052 3.63553 2.86871
# Velocity P-wave (km/s) = 3.96140 6.44314 5.34821
#
# Compressibility (1/GPa) = 0.04106552
#
# Stress axis : x y z
#
# Youngs Moduli (GPa) = 81.07791 107.35515 39.01215
#
# Poissons Ratio (x) = 0.67633 -0.13775
# Poissons Ratio (y) = 0.51078 0.01323
# Poissons Ratio (z) = -0.28628 0.03640
#
# Static dielectric constant tensor:
#      x y z
#    x 1.728990 0.000000 0.000000 
#    y 0.000000 1.749130 0.000000 
#    z 0.000000 0.000000 1.826880 
# 
# From -- ./inp_files/3795.got.cif
#   From: 2010.05.17/outbox.cif.g08.bks.cpg/sg58_2_cif.got.tgz:3795.got - 2010.06.03 14:20:14.
