data_PCOD9443322
_publ_section_title
;
Structure prediction by ZEFSAII (Michael W. Deem and Ramdas Pophale) SiO2 
 PCOD9443322
Probable space group: P N N M
;
_chemical_formula_sum "Si O2"
_cell_formula_units_Z 48
_cell_length_a 24.633170
_cell_length_b 12.133863
_cell_length_c 8.616742
_cell_angle_alpha 90.000000
_cell_angle_beta 90.000000
_cell_angle_gamma 90.000000
_cell_volume 2575.505495
_symmetry_space_group_name_H-M "P N N M"
_symmetry_group_IT_number 58
_symmetry_cell_setting 'orthorhombic'
loop_
_space_group_symop_operation_xyz
x,y,z
-x,-y,z
1/2+x,1/2-y,1/2-z
1/2-x,1/2+y,1/2-z
-x,-y,-z
x,y,-z
1/2-x,1/2+y,1/2+z
1/2+x,1/2-y,1/2+z
loop_
_atom_site_type_symbol
_atom_site_label
_atom_site_fract_x
_atom_site_fract_y
_atom_site_fract_z
Si Si1 0.035918 0.761047 0.814141
Si Si2 0.139474 0.621998 0.186638
Si Si3 0.418745 0.717094 0.187571
Si Si4 0.101416 0.965636 0.313893
Si Si5 0.203680 0.840517 0.812329
Si Si6 0.326409 0.886335 0.812937
O O1 0.080600 0.669920 0.766441
O O2 0.058722 0.878158 0.754290
O O3 0.976348 0.741075 0.748959
O O4 0.034742 0.763643 0.000000
O O5 0.182389 0.718161 0.228099
O O6 0.154411 0.506261 0.260121
O O7 0.139787 0.611009 0.000000
O O8 0.410323 0.590333 0.236887
O O9 0.369305 0.794240 0.240463
O O10 0.419864 0.718286 0.000000
O O11 0.098364 0.961077 0.500000
O O12 0.160602 0.925380 0.259148
O O13 0.265004 0.861857 0.760284
O O14 0.200777 0.849702 0.000000
O O15 0.325620 0.882816 0.000000
#
# Coordination Sequence:
#
# PCOD9443322 Si02
#       6
#     8   8   8   8   8   8
#     4  10  21  38  59  82 113 149 184 231 281 328
#     4   9  20  38  58  79 108 146 185 227 278 330
#     4  10  22  37  55  83 116 148 184 230 279 327
#     4  10  20  35  59  86 112 146 187 229 278 331
#     4   9  20  38  58  80 112 148 184 229 280 329
#     4  10  22  38  56  81 113 149 186 229 277 327
#
# _framework density 18.637117
#
# number of rings (size 3 to 8) (size 9 to 14) (size 15 to 20)
#    0.000    2.333    0.000    2.500    2.333    8.667 
#    0.000    3.333    0.000    0.000    0.000    0.000 
#    0.000    0.000    0.000    0.000    0.000    0.000 
#
# Total GULP energy -268006.455748 kJ/mol
# GULP energy per Si atom -5583.467828 kJ/mol
# Density = 1.859470 g / cm^3
# Si number density = 18.637117 Si / 1000 Ang^3
#
#
#
# Elastic Constant Matrix: (Units=GPa)
#
#
# Indices 1 2 3 4 5 6 
#
# 1 120.6752 13.0809 8.5265 0.0000 0.0000 0.0000
# 2 13.0809 12.4438 -3.1624 0.0000 0.0000 0.0000
# 3 8.5265 -3.1624 5.5894 0.0000 0.0000 0.0000
# 4 0.0000 0.0000 0.0000 24.1439 0.0000 0.0000
# 5 0.0000 0.0000 0.0000 0.0000 33.5392 0.0000
# 6 0.0000 0.0000 0.0000 0.0000 0.0000 11.1353
#
#
#
# Elastic Compliance Matrix: (Units=1/GPa)
#
#
# Indices 1 2 3 4 5 6 
#
# 1 0.012890 -0.021662 -0.031919 0.000000 0.000000 0.000000
# 2 -0.021662 0.130258 0.106742 0.000000 0.000000 0.000000
# 3 -0.031919 0.106742 0.287995 0.000000 0.000000 0.000000
# 4 0.000000 0.000000 0.000000 0.041418 0.000000 0.000000
# 5 0.000000 0.000000 0.000000 0.000000 0.029816 0.000000
# 6 0.000000 0.000000 0.000000 0.000000 0.000000 0.089804
#
#
# Mechanical properties :
#
#
# Convention : Reuss Voigt Hill
#
# Bulk Modulus (GPa) = 1.86059 19.51094 10.68577
# Shear Modulus (GPa) = 7.51862 21.78124 14.64993
#
# Velocity S-wave (km/s) = 2.01072 3.42234 2.80672
# Velocity P-wave (km/s) = 2.52807 5.10961 4.03108
#
# Compressibility (1/GPa) = 0.53746483
#
# Stress axis : x y z
#
# Youngs Moduli (GPa) = 77.57901 7.67708 3.47228
#
# Poissons Ratio (x) = 0.16630 0.11083
# Poissons Ratio (y) = 1.68049 -0.37064
# Poissons Ratio (z) = 2.47627 -0.81946
#
# Static dielectric constant tensor:
#      x y z
#    x 1.637850 0.000000 0.000000 
#    y 0.000000 1.615230 0.000000 
#    z 0.000000 0.000000 1.635380 
# 
# From -- ./inp_files/4176.got.cif
#   From: 2010.05.17/outbox.cif.g08.bks.cpg/sg58_3_cif.got.tgz:4176.got - 2010.06.03 14:20:14.
