data_PCOD9443461
_publ_section_title
;
Structure prediction by ZEFSAII (Michael W. Deem and Ramdas Pophale) SiO2 
 PCOD9443461
Probable space group: P N N M
;
_chemical_formula_sum "Si O2"
_cell_formula_units_Z 64
_cell_length_a 20.298418
_cell_length_b 19.938762
_cell_length_c 8.791493
_cell_angle_alpha 90.000000
_cell_angle_beta 90.000000
_cell_angle_gamma 90.000000
_cell_volume 3558.139866
_symmetry_space_group_name_H-M "P N N M"
_symmetry_group_IT_number 58
_symmetry_cell_setting 'orthorhombic'
loop_
_space_group_symop_operation_xyz
x,y,z
-x,-y,z
1/2+x,1/2-y,1/2-z
1/2-x,1/2+y,1/2-z
-x,-y,-z
x,y,-z
1/2-x,1/2+y,1/2+z
1/2+x,1/2-y,1/2+z
loop_
_atom_site_type_symbol
_atom_site_label
_atom_site_fract_x
_atom_site_fract_y
_atom_site_fract_z
Si Si1 0.006532 0.711956 0.683283
Si Si2 0.956934 0.564441 0.683597
Si Si3 0.181072 0.398536 0.182464
Si Si4 0.644893 0.721028 0.183335
Si Si5 0.402831 0.683602 0.317745
Si Si6 0.932118 0.967059 0.816709
Si Si7 0.284298 0.754259 0.181109
Si Si8 0.328371 0.432319 0.182106
O O1 0.000789 0.717028 0.500000
O O2 0.078473 0.740148 0.725807
O O3 0.992721 0.634638 0.724684
O O4 0.952076 0.759635 0.757332
O O5 0.950210 0.563074 0.500000
O O6 0.884266 0.566202 0.755739
O O7 0.000000 0.500000 0.729329
O O8 0.187275 0.324695 0.255233
O O9 0.250676 0.433864 0.220922
O O10 0.177783 0.391716 0.000000
O O11 0.709808 0.751102 0.260128
O O12 0.644453 0.641881 0.225072
O O13 0.652572 0.724133 0.000000
O O14 0.399733 0.686951 0.500000
O O15 0.427547 0.610281 0.270202
O O16 0.331324 0.697581 0.248420
O O17 0.871071 0.010387 0.758537
O O18 0.932073 0.968937 0.000000
O O19 0.000000 0.000000 0.761385
O O20 0.286744 0.754896 0.000000
O O21 0.333897 0.437915 0.000000
#
# Coordination Sequence:
#
# PCOD9443461 Si02
#       8
#     8   8   8   8   8   8   8   8
#     4  10  20  36  59  85 113 148 188 231 282 340
#     4  10  21  37  57  84 116 149 189 235 283 341
#     4  10  20  37  60  84 112 148 189 234 282 336
#     4   9  19  36  57  83 116 148 184 232 283 334
#     4  11  22  36  57  83 114 150 188 235 283 334
#     4  10  22  38  55  81 115 149 187 231 280 333
#     4  11  21  35  57  83 110 144 189 234 278 335
#     4   9  19  35  56  82 112 149 189 229 277 331
#
# _framework density 17.986927000000001
#
# number of rings (size 3 to 8) (size 9 to 14) (size 15 to 20)
#    0.000    2.000    1.250    3.375    0.000    4.500 
#    2.250    0.000    0.000    0.000    0.000    0.000 
#    0.000    0.000    0.000    0.000    0.000    0.000 
#
# Total GULP energy -357345.650452 kJ/mol
# GULP energy per Si atom -5583.525788 kJ/mol
# Density = 1.794599 g / cm^3
# Si number density = 17.986927 Si / 1000 Ang^3
#
#
#
# Elastic Constant Matrix: (Units=GPa)
#
#
# Indices 1 2 3 4 5 6 
#
# 1 127.5100 76.6459 36.9766 0.0000 0.0000 0.0000
# 2 76.6459 125.7431 36.6524 0.0000 0.0000 0.0000
# 3 36.9766 36.6524 26.2633 0.0000 0.0000 0.0000
# 4 0.0000 0.0000 0.0000 47.4964 0.0000 0.0000
# 5 0.0000 0.0000 0.0000 0.0000 34.8339 0.0000
# 6 0.0000 0.0000 0.0000 0.0000 0.0000 29.8938
#
#
#
# Elastic Compliance Matrix: (Units=1/GPa)
#
#
# Indices 1 2 3 4 5 6 
#
# 1 0.014916 -0.005008 -0.014012 0.000000 0.000000 0.000000
# 2 -0.005008 0.015087 -0.014005 0.000000 0.000000 0.000000
# 3 -0.014012 -0.014005 0.077349 0.000000 0.000000 0.000000
# 4 0.000000 0.000000 0.000000 0.021054 0.000000 0.000000
# 5 0.000000 0.000000 0.000000 0.000000 0.028708 0.000000
# 6 0.000000 0.000000 0.000000 0.000000 0.000000 0.033452
#
#
# Mechanical properties :
#
#
# Convention : Reuss Voigt Hill
#
# Bulk Modulus (GPa) = 24.21146 64.45181 44.33164
# Shear Modulus (GPa) = 18.49226 31.06091 24.77658
#
# Velocity S-wave (km/s) = 3.20987 4.16006 3.71546
# Velocity P-wave (km/s) = 5.21800 7.68018 6.56554
#
# Compressibility (1/GPa) = 0.04130275
#
# Stress axis : x y z
#
# Youngs Moduli (GPa) = 67.04262 66.28023 12.92840
#
# Poissons Ratio (x) = 0.33191 0.18115
# Poissons Ratio (y) = 0.33572 0.18107
# Poissons Ratio (z) = 0.93939 0.92828
#
# Static dielectric constant tensor:
#      x y z
#    x 1.601940 0.000000 0.000000 
#    y 0.000000 1.601720 0.000000 
#    z 0.000000 0.000000 1.602720 
# 
# From -- ./inp_files/9275.got.cif
#   From: 2010.05.17/outbox.cif.g08.bks.cpg/sg58_5_cif.got.tgz:9275.got - 2010.06.03 14:20:14.
