data_PCOD9443999
_publ_section_title
;
Structure prediction by ZEFSAII (Michael W. Deem and Ramdas Pophale) SiO2 
 PCOD9443999
Probable space group: P N N M
;
_chemical_formula_sum "Si O2"
_cell_formula_units_Z 56
_cell_length_a 15.039930
_cell_length_b 22.146448
_cell_length_c 8.780369
_cell_angle_alpha 90.000000
_cell_angle_beta 90.000000
_cell_angle_gamma 90.000000
_cell_volume 2924.574330
_symmetry_space_group_name_H-M "P N N M"
_symmetry_group_IT_number 58
_symmetry_cell_setting 'orthorhombic'
loop_
_space_group_symop_operation_xyz
x,y,z
-x,-y,z
1/2+x,1/2-y,1/2-z
1/2-x,1/2+y,1/2-z
-x,-y,-z
x,y,-z
1/2-x,1/2+y,1/2+z
1/2+x,1/2-y,1/2+z
loop_
_atom_site_type_symbol
_atom_site_label
_atom_site_fract_x
_atom_site_fract_y
_atom_site_fract_z
Si Si1 0.415638 0.614693 0.682876
Si Si2 0.082015 0.541619 0.316028
Si Si3 0.061522 0.674569 0.816700
Si Si4 0.605688 0.598690 0.181186
Si Si5 0.280060 0.509882 0.316607
Si Si6 0.882651 0.746083 0.183741
Si Si7 0.807277 0.218722 0.817376
O O1 0.428486 0.613621 0.500000
O O2 0.505260 0.590769 0.759530
O O3 0.332840 0.571604 0.719562
O O4 0.398652 0.684064 0.727727
O O5 0.081544 0.543086 0.500000
O O6 0.071599 0.609351 0.256365
O O7 0.177627 0.515263 0.268197
O O8 0.000000 0.500000 0.264925
O O9 0.140559 0.720239 0.772324
O O10 0.968531 0.706520 0.774436
O O11 0.063014 0.668858 0.000000
O O12 0.668099 0.545203 0.241296
O O13 0.642270 0.661600 0.247489
O O14 0.606722 0.600296 0.000000
O O15 0.282625 0.502115 0.500000
O O16 0.793239 0.722024 0.259503
O O17 0.873274 0.744249 0.000000
O O18 0.810314 0.213841 0.000000
#
# Coordination Sequence:
#
# PCOD9443999 Si02
#       7
#     8   8   8   8   8   8   8
#     4  10  20  40  65  89 124 167 204 245 308 378
#     4  10  23  42  64  92 123 160 210 256 298 361
#     4  10  22  41  64  90 125 162 198 248 309 363
#     4  12  25  39  60  91 125 160 205 261 310 360
#     4  10  22  40  63  88 121 167 207 251 310 366
#     4  10  21  39  63  93 126 159 200 249 305 365
#     4  11  23  41  63  90 124 164 207 251 306 372
#
# _framework density 19.148085999999999
#
# number of rings (size 3 to 8) (size 9 to 14) (size 15 to 20)
#    0.000    1.571    1.429    3.000    2.000    6.571 
#    0.000    0.000    0.000    0.000    0.000    0.000 
#    0.000    0.000    0.000    0.000    0.000    0.000 
#
# Total GULP energy -313108.764278 kJ/mol
# GULP energy per Si atom -5591.227934 kJ/mol
# Density = 1.910450 g / cm^3
# Si number density = 19.148086 Si / 1000 Ang^3
#
#
#
# Elastic Constant Matrix: (Units=GPa)
#
#
# Indices 1 2 3 4 5 6 
#
# 1 120.6241 6.7783 23.7016 0.0000 0.0000 0.0000
# 2 6.7783 45.7968 9.8064 0.0000 0.0000 0.0000
# 3 23.7016 9.8064 17.2870 0.0000 0.0000 0.0000
# 4 0.0000 0.0000 0.0000 26.4537 0.0000 0.0000
# 5 0.0000 0.0000 0.0000 0.0000 19.6443 0.0000
# 6 0.0000 0.0000 0.0000 0.0000 0.0000 24.6586
#
#
#
# Elastic Compliance Matrix: (Units=1/GPa)
#
#
# Indices 1 2 3 4 5 6 
#
# 1 0.011491 0.001904 -0.016835 0.000000 0.000000 0.000000
# 2 0.001904 0.025170 -0.016889 0.000000 0.000000 0.000000
# 3 -0.016835 -0.016889 0.090510 0.000000 0.000000 0.000000
# 4 0.000000 0.000000 0.000000 0.037802 0.000000 0.000000
# 5 0.000000 0.000000 0.000000 0.000000 0.050905 0.000000
# 6 0.000000 0.000000 0.000000 0.000000 0.000000 0.040554
#
#
# Mechanical properties :
#
#
# Convention : Reuss Voigt Hill
#
# Bulk Modulus (GPa) = 15.74039 29.36450 22.55245
# Shear Modulus (GPa) = 14.65202 23.71275 19.18238
#
# Velocity S-wave (km/s) = 2.76922 3.52289 3.16854
# Velocity P-wave (km/s) = 4.29685 5.64946 5.01893
#
# Compressibility (1/GPa) = 0.06353081
#
# Stress axis : x y z
#
# Youngs Moduli (GPa) = 87.02304 39.72947 11.04852
#
# Poissons Ratio (x) = -0.07565 0.18601
# Poissons Ratio (y) = -0.16570 0.18660
# Poissons Ratio (z) = 1.46506 0.67099
#
# Static dielectric constant tensor:
#      x y z
#    x 1.649570 0.000000 0.000000 
#    y 0.000000 1.635260 0.000000 
#    z 0.000000 0.000000 1.643000 
# 
# From -- ./inp_files/6443.got.cif
#   From: 2010.05.17/outbox.cif.g08.bks.cpg/sg58_4_cif.got.tgz:6443.got - 2010.06.03 14:20:14.
