data_PCOD9443823
_publ_section_title
;
Structure prediction by ZEFSAII (Michael W. Deem and Ramdas Pophale) SiO2 
 PCOD9443823
Probable space group: P N N M
;
_chemical_formula_sum "Si O2"
_cell_formula_units_Z 64
_cell_length_a 25.234741
_cell_length_b 15.142245
_cell_length_c 7.637439
_cell_angle_alpha 90.000000
_cell_angle_beta 90.000000
_cell_angle_gamma 90.000000
_cell_volume 2918.346633
_symmetry_space_group_name_H-M "P N N M"
_symmetry_group_IT_number 58
_symmetry_cell_setting 'orthorhombic'
loop_
_space_group_symop_operation_xyz
x,y,z
-x,-y,z
1/2+x,1/2-y,1/2-z
1/2-x,1/2+y,1/2-z
-x,-y,-z
x,y,-z
1/2-x,1/2+y,1/2+z
1/2+x,1/2-y,1/2+z
loop_
_atom_site_type_symbol
_atom_site_label
_atom_site_fract_x
_atom_site_fract_y
_atom_site_fract_z
Si Si1 0.250000 0.372821 0.799866
Si Si2 0.364448 0.932309 0.796551
Si Si3 0.447908 0.446906 0.715025
Si Si4 0.021912 0.405541 0.710351
Si Si5 0.061377 0.747484 0.209863
Si Si6 0.652857 0.874420 0.288647
Si Si7 0.164574 0.019720 0.206690
Si Si8 0.267848 0.678750 0.295791
O O1 0.190857 0.412472 0.795655
O O2 0.292328 0.440919 0.722029
O O3 0.243101 0.275488 0.716775
O O4 0.267531 0.361076 0.000000
O O5 0.418053 0.888342 0.725910
O O6 0.374335 0.036822 0.779093
O O7 0.356872 0.909072 0.000000
O O8 0.500000 0.500000 0.769322
O O9 0.447243 0.446802 0.500000
O O10 0.450052 0.345366 0.774963
O O11 0.392584 0.490128 0.775152
O O12 0.026131 0.413929 0.500000
O O13 0.000000 0.500000 0.777348
O O14 0.982846 0.325349 0.749214
O O15 0.117831 0.708680 0.269522
O O16 0.064669 0.753055 0.000000
O O17 0.655080 0.877098 0.500000
O O18 0.711748 0.870313 0.215590
O O19 0.189287 0.110657 0.281082
O O20 0.157711 0.035144 0.000000
O O21 0.281883 0.693778 0.500000
#
# Coordination Sequence:
#
# PCOD9443823 Si02
#       8
#     8   8   8   8   8   8   8   8
#     4  11  23  38  57  88 122 152 193 243 292 345
#     4  11  22  37  57  81 114 155 193 234 290 350
#     4   9  19  37  61  87 114 150 198 244 287 340
#     4  10  21  37  56  80 113 154 194 230 283 352
#     4  10  21  35  57  88 116 148 194 246 296 340
#     4  11  21  34  56  86 118 150 191 242 292 345
#     4  10  20  38  62  85 115 156 198 240 290 349
#     4  10  22  37  57  85 117 156 197 237 288 349
#
# _framework density 21.930223999999999
#
# number of rings (size 3 to 8) (size 9 to 14) (size 15 to 20)
#    0.000    1.750    2.500    1.875    0.000    4.750 
#    0.000    3.125    0.000    1.500    0.000    0.000 
#    0.000    0.000    0.000    0.000    0.000    0.000 
#
# Total GULP energy -357453.332064 kJ/mol
# GULP energy per Si atom -5585.208314 kJ/mol
# Density = 2.188031 g / cm^3
# Si number density = 21.930224 Si / 1000 Ang^3
#
#
#
# Elastic Constant Matrix: (Units=GPa)
#
#
# Indices 1 2 3 4 5 6 
#
# 1 144.4333 46.2570 -7.6133 0.0000 0.0000 0.0000
# 2 46.2570 94.2470 -8.1510 0.0000 0.0000 0.0000
# 3 -7.6133 -8.1510 44.3674 0.0000 0.0000 0.0000
# 4 0.0000 0.0000 0.0000 14.3094 0.0000 0.0000
# 5 0.0000 0.0000 0.0000 0.0000 20.1884 0.0000
# 6 0.0000 0.0000 0.0000 0.0000 0.0000 29.4060
#
#
#
# Elastic Compliance Matrix: (Units=1/GPa)
#
#
# Indices 1 2 3 4 5 6 
#
# 1 0.008235 -0.003983 0.000681 0.000000 0.000000 0.000000
# 2 -0.003983 0.012708 0.001651 0.000000 0.000000 0.000000
# 3 0.000681 0.001651 0.022959 0.000000 0.000000 0.000000
# 4 0.000000 0.000000 0.000000 0.069884 0.000000 0.000000
# 5 0.000000 0.000000 0.000000 0.000000 0.049534 0.000000
# 6 0.000000 0.000000 0.000000 0.000000 0.000000 0.034007
#
#
# Mechanical properties :
#
#
# Convention : Reuss Voigt Hill
#
# Bulk Modulus (GPa) = 24.62940 38.22592 31.42766
# Shear Modulus (GPa) = 23.34686 29.61775 26.48231
#
# Velocity S-wave (km/s) = 3.26636 3.67896 3.47878
# Velocity P-wave (km/s) = 5.04783 5.95944 5.52248
#
# Compressibility (1/GPa) = 0.04060189
#
# Stress axis : x y z
#
# Youngs Moduli (GPa) = 121.43123 78.69025 43.55528
#
# Poissons Ratio (x) = 0.31342 -0.02968
# Poissons Ratio (y) = 0.48365 -0.07192
# Poissons Ratio (z) = -0.08274 -0.12993
#
# Static dielectric constant tensor:
#      x y z
#    x 1.790170 0.000000 0.000000 
#    y 0.000000 1.821990 0.000000 
#    z 0.000000 0.000000 1.833620 
# 
# From -- ./inp_files/6797.got.cif
#   From: 2010.05.17/outbox.cif.g08.bks.cpg/sg58_4_cif.got.tgz:6797.got - 2010.06.03 14:20:14.
