data_PCOD9443337
_publ_section_title
;
Structure prediction by ZEFSAII (Michael W. Deem and Ramdas Pophale) SiO2 
 PCOD9443337
Probable space group: P N N M
;
_chemical_formula_sum "Si O2"
_cell_formula_units_Z 56
_cell_length_a 11.646199
_cell_length_b 15.536301
_cell_length_c 15.800897
_cell_angle_alpha 90.000000
_cell_angle_beta 90.000000
_cell_angle_gamma 90.000000
_cell_volume 2858.996182
_symmetry_space_group_name_H-M "P N N M"
_symmetry_group_IT_number 58
_symmetry_cell_setting 'orthorhombic'
loop_
_space_group_symop_operation_xyz
x,y,z
-x,-y,z
1/2+x,1/2-y,1/2-z
1/2-x,1/2+y,1/2-z
-x,-y,-z
x,y,-z
1/2-x,1/2+y,1/2+z
1/2+x,1/2-y,1/2+z
loop_
_atom_site_type_symbol
_atom_site_label
_atom_site_fract_x
_atom_site_fract_y
_atom_site_fract_z
Si Si1 0.378908 0.818877 0.657748
Si Si2 0.769584 0.340854 0.329725
Si Si3 0.251528 0.989772 0.596284
Si Si4 0.850618 0.325936 0.137080
Si Si5 0.864465 0.009121 0.778617
Si Si6 0.491513 0.090467 0.094009
Si Si7 0.282312 0.835184 0.152441
O O1 0.306131 0.735131 0.630802
O O2 0.330866 0.906870 0.616911
O O3 0.513233 0.811528 0.637679
O O4 0.353789 0.820318 0.759147
O O5 0.803403 0.324428 0.232812
O O6 0.700552 0.430470 0.325331
O O7 0.893764 0.348993 0.370873
O O8 0.204742 0.981090 0.500000
O O9 0.166267 0.992761 0.677699
O O10 0.319768 0.080556 0.600322
O O11 0.778278 0.244338 0.105393
O O12 0.814084 0.096515 0.818555
O O13 0.000000 0.000000 0.788904
O O14 0.618230 0.126923 0.094613
O O15 0.500000 0.000000 0.144141
O O16 0.449070 0.071828 0.000000
#
# Coordination Sequence:
#
# PCOD9443337 Si02
#       7
#     8   8   8   8   8   8   8
#     4  10  20  35  60  86 117 157 199 242 282 338
#     4  10  20  36  60  89 118 149 198 242 289 346
#     4  10  23  39  56  86 121 160 199 235 292 353
#     4  10  20  35  60  86 117 157 199 242 282 338
#     4  10  20  37  64  89 116 150 191 249 298 349
#     4  11  22  38  62  87 117 153 191 241 298 351
#     4  10  20  36  60  89 118 149 198 242 289 346
#
# _framework density 19.587295000000001
#
# number of rings (size 3 to 8) (size 9 to 14) (size 15 to 20)
#    0.000    1.857    2.857    1.286    0.000    2.571 
#    2.571    0.000    0.000    3.429    0.000    0.000 
#    0.000    0.000    0.000    0.000    0.000    0.000 
#
# Total GULP energy -311963.617914 kJ/mol
# GULP energy per Si atom -5570.778891 kJ/mol
# Density = 1.954271 g / cm^3
# Si number density = 19.587295 Si / 1000 Ang^3
#
#
#
# Elastic Constant Matrix: (Units=GPa)
#
#
# Indices 1 2 3 4 5 6 
#
# 1 88.5980 27.0174 -8.1040 0.0000 0.0000 0.0000
# 2 27.0174 105.5793 13.0659 0.0000 0.0000 0.0000
# 3 -8.1040 13.0659 46.1490 0.0000 0.0000 0.0000
# 4 0.0000 0.0000 0.0000 -2.6178 0.0000 0.0000
# 5 0.0000 0.0000 0.0000 0.0000 -3.9363 0.0000
# 6 0.0000 0.0000 0.0000 0.0000 0.0000 30.5046
#
#
#
# Elastic Compliance Matrix: (Units=1/GPa)
#
#
# Indices 1 2 3 4 5 6 
#
# 1 0.012700 -0.003654 0.003265 0.000000 0.000000 0.000000
# 2 -0.003654 0.010867 -0.003718 0.000000 0.000000 0.000000
# 3 0.003265 -0.003718 0.023295 0.000000 0.000000 0.000000
# 4 0.000000 0.000000 0.000000 -0.381997 0.000000 0.000000
# 5 0.000000 0.000000 0.000000 0.000000 -0.254046 0.000000
# 6 0.000000 0.000000 0.000000 0.000000 0.000000 0.032782
#
#
# Mechanical properties :
#
#
# Convention : Reuss Voigt Hill
#
# Bulk Modulus (GPa) = 25.87556 33.80944 29.84250
# Shear Modulus (GPa) = -9.34051 18.67989 4.66969
#
# Velocity S-wave (km/s) = -2.18609 3.09151 1.54571
# Velocity P-wave (km/s) = 2.62051 5.48102 4.29585
#
# Compressibility (1/GPa) = 0.03864650
#
# Stress axis : x y z
#
# Youngs Moduli (GPa) = 78.74158 92.02416 42.92775
#
# Poissons Ratio (x) = 0.33624 -0.14014
# Poissons Ratio (y) = 0.28771 0.15962
# Poissons Ratio (z) = -0.25706 0.34217
#
# Static dielectric constant tensor:
#      x y z
#    x 1.757630 0.000000 0.000000 
#    y 0.000000 1.843000 0.000000 
#    z 0.000000 0.000000 1.703730 
# 
# From -- ./inp_files/21240.got.cif
#   From: 2010.05.17/outbox.cif.g08.bks.cpg/sg58_11_cif.got.tgz:21240.got - 2010.06.03 14:20:14.
