data_PCOD9443181
_publ_section_title
;
Structure prediction by ZEFSAII (Michael W. Deem and Ramdas Pophale) SiO2 
 PCOD9443181
Probable space group: P N N M
;
_chemical_formula_sum "Si O2"
_cell_formula_units_Z 58
_cell_length_a 12.184960
_cell_length_b 27.204288
_cell_length_c 7.581908
_cell_angle_alpha 90.000000
_cell_angle_beta 90.000000
_cell_angle_gamma 90.000000
_cell_volume 2513.274831
_symmetry_space_group_name_H-M "P N N M"
_symmetry_group_IT_number 58
_symmetry_cell_setting 'orthorhombic'
loop_
_space_group_symop_operation_xyz
x,y,z
-x,-y,z
1/2+x,1/2-y,1/2-z
1/2-x,1/2+y,1/2-z
-x,-y,-z
x,y,-z
1/2-x,1/2+y,1/2+z
1/2+x,1/2-y,1/2+z
loop_
_atom_site_type_symbol
_atom_site_label
_atom_site_fract_x
_atom_site_fract_y
_atom_site_fract_z
Si Si1 0.853575 0.053419 0.713598
Si Si2 0.500000 0.000000 0.500000
Si Si3 0.991044 0.310492 0.784150
Si Si4 0.933904 0.897499 0.702342
Si Si5 0.812001 0.387965 0.215447
Si Si6 0.444085 0.299080 0.292446
Si Si7 0.155223 0.503199 0.306390
Si Si8 0.773891 0.651789 0.212403
O O1 0.858259 0.052357 0.500000
O O2 0.778181 0.099939 0.770412
O O3 0.976708 0.064430 0.778607
O O4 0.784537 0.006957 0.775797
O O5 0.584119 0.020580 0.346798
O O6 0.885804 0.342222 0.729152
O O7 0.981621 0.254036 0.726877
O O8 0.104247 0.335695 0.725883
O O9 0.991216 0.310065 0.000000
O O10 0.915630 0.913360 0.500000
O O11 0.813753 0.888128 0.778150
O O12 0.996536 0.845215 0.703110
O O13 0.862564 0.438858 0.280502
O O14 0.814942 0.389669 0.000000
O O15 0.469085 0.302610 0.500000
O O16 0.314173 0.307024 0.267340
O O17 0.124971 0.486531 0.500000
O O18 0.775938 0.650442 0.000000
#
# Coordination Sequence:
#
# PCOD9443181 Si02
#       8
#     8   2   8   8   8   8   8   8
#     4   9  18  37  62  89 124 165 214 267 323 382
#     4  12  26  48  68  88 140 180 198 276 318 378
#     4   9  20  35  58  84 118 164 205 253 328 389
#     4   9  20  38  65  90 120 171 217 256 323 396
#     4  10  21  41  64  89 127 170 215 269 325 385
#     4  10  20  35  55  87 120 156 204 263 321 375
#     4  12  26  42  68 101 128 171 226 262 330 394
#     4   9  19  36  59  82 113 159 209 249 311 391
#
# _framework density 23.077459000000001
#
# number of rings (size 3 to 8) (size 9 to 14) (size 15 to 20)
#    0.000    2.207    1.379    1.448    3.862    3.310 
#    0.000    5.517    0.000    0.000    0.000    0.000 
#    0.000    0.000    0.000    0.000    0.000    0.000 
#
# Total GULP energy -323620.419678 kJ/mol
# GULP energy per Si atom -5579.662408 kJ/mol
# Density = 2.302493 g / cm^3
# Si number density = 23.077459 Si / 1000 Ang^3
#
#
#
# Elastic Constant Matrix: (Units=GPa)
#
#
# Indices 1 2 3 4 5 6 
#
# 1 133.2732 3.8687 18.0213 0.0000 0.0000 0.0000
# 2 3.8687 48.8676 -6.6535 0.0000 0.0000 0.0000
# 3 18.0213 -6.6535 92.6003 0.0000 0.0000 0.0000
# 4 0.0000 0.0000 0.0000 17.7441 0.0000 0.0000
# 5 0.0000 0.0000 0.0000 0.0000 -1.6855 0.0000
# 6 0.0000 0.0000 0.0000 0.0000 0.0000 26.0554
#
#
#
# Elastic Compliance Matrix: (Units=1/GPa)
#
#
# Indices 1 2 3 4 5 6 
#
# 1 0.007739 -0.000826 -0.001565 0.000000 0.000000 0.000000
# 2 -0.000826 0.020754 0.001652 0.000000 0.000000 0.000000
# 3 -0.001565 0.001652 0.011222 0.000000 0.000000 0.000000
# 4 0.000000 0.000000 0.000000 0.056357 0.000000 0.000000
# 5 0.000000 0.000000 0.000000 0.000000 -0.593305 0.000000
# 6 0.000000 0.000000 0.000000 0.000000 0.000000 0.038380
#
#
# Mechanical properties :
#
#
# Convention : Reuss Voigt Hill
#
# Bulk Modulus (GPa) = 26.15303 33.91268 30.03285
# Shear Modulus (GPa) = -11.24534 25.72311 7.23889
#
# Velocity S-wave (km/s) = -2.20985 3.34225 1.77302
# Velocity P-wave (km/s) = 2.20138 5.44254 4.15134
#
# Compressibility (1/GPa) = 0.03823649
#
# Stress axis : x y z
#
# Youngs Moduli (GPa) = 129.21503 48.18408 89.10706
#
# Poissons Ratio (x) = 0.03979 0.13949
# Poissons Ratio (y) = 0.10671 -0.14720
# Poissons Ratio (z) = 0.20228 -0.07960
#
# Static dielectric constant tensor:
#      x y z
#    x 1.904590 0.000000 0.000000 
#    y 0.000000 1.847970 0.000000 
#    z 0.000000 0.000000 1.852120 
# 
# From -- ./inp_files/4576.got.cif
#   From: 2010.05.17/outbox.cif.g08.bks.cpg/sg58_3_cif.got.tgz:4576.got - 2010.06.03 14:20:14.
