data_PCOD9443097
_publ_section_title
;
Structure prediction by ZEFSAII (Michael W. Deem and Ramdas Pophale) SiO2 
 PCOD9443097
Probable space group: P N N M
;
_chemical_formula_sum "Si O2"
_cell_formula_units_Z 48
_cell_length_a 21.444756
_cell_length_b 9.829610
_cell_length_c 11.034875
_cell_angle_alpha 90.000000
_cell_angle_beta 90.000000
_cell_angle_gamma 90.000000
_cell_volume 2326.080895
_symmetry_space_group_name_H-M "P N N M"
_symmetry_group_IT_number 58
_symmetry_cell_setting 'orthorhombic'
loop_
_space_group_symop_operation_xyz
x,y,z
-x,-y,z
1/2+x,1/2-y,1/2-z
1/2-x,1/2+y,1/2-z
-x,-y,-z
x,y,-z
1/2-x,1/2+y,1/2+z
1/2+x,1/2-y,1/2+z
loop_
_atom_site_type_symbol
_atom_site_label
_atom_site_fract_x
_atom_site_fract_y
_atom_site_fract_z
Si Si1 0.266778 0.947667 0.637030
Si Si2 0.435949 0.839238 0.867114
Si Si3 0.588720 0.975740 0.635986
Si Si4 0.968452 0.198497 0.777232
Si Si5 0.088164 0.050943 0.867199
Si Si6 0.686154 0.300782 0.225851
O O1 0.253805 0.899821 0.500000
O O2 0.269110 0.821461 0.730622
O O3 0.336964 0.007275 0.640120
O O4 0.221817 0.072047 0.669669
O O5 0.496638 0.745474 0.844868
O O6 0.370769 0.757009 0.855358
O O7 0.435745 0.936373 0.749448
O O8 0.438080 0.903973 0.000000
O O9 0.569433 0.020489 0.500000
O O10 0.566522 0.823197 0.660872
O O11 0.027237 0.145565 0.856290
O O12 0.922671 0.069438 0.770871
O O13 0.148209 0.141120 0.841264
O O14 0.091347 0.988748 0.000000
#
# Coordination Sequence:
#
# PCOD9443097 Si02
#       6
#     8   8   8   8   8   8
#     4  10  22  41  62  89 123 160 210 264 311 369
#     4  10  22  40  60  87 126 166 203 249 310 373
#     4  10  21  36  60  89 121 159 205 258 310 363
#     4  10  20  34  58  90 120 154 200 248 310 368
#     4  10  20  36  59  88 122 155 199 258 310 365
#     4  10  22  40  64  88 122 163 211 254 315 368
#
# _framework density 20.635567999999999
#
# number of rings (size 3 to 8) (size 9 to 14) (size 15 to 20)
#    0.000    2.000    0.000    3.500    2.333    7.333 
#    0.000   15.000    0.000    0.000    0.000    0.000 
#    0.000    0.000    0.000    0.000    0.000    0.000 
#
# Total GULP energy -267761.430254 kJ/mol
# GULP energy per Si atom -5578.363130 kJ/mol
# Density = 2.058860 g / cm^3
# Si number density = 20.635568 Si / 1000 Ang^3
#
#
#
# Elastic Constant Matrix: (Units=GPa)
#
#
# Indices 1 2 3 4 5 6 
#
# 1 37.7147 15.3459 7.7819 0.0000 0.0000 0.0000
# 2 15.3459 102.0907 32.4035 0.0000 0.0000 0.0000
# 3 7.7819 32.4035 106.6337 0.0000 0.0000 0.0000
# 4 0.0000 0.0000 0.0000 7.5463 0.0000 0.0000
# 5 0.0000 0.0000 0.0000 0.0000 1.1395 0.0000
# 6 0.0000 0.0000 0.0000 0.0000 0.0000 46.5193
#
#
#
# Elastic Compliance Matrix: (Units=1/GPa)
#
#
# Indices 1 2 3 4 5 6 
#
# 1 0.028313 -0.003984 -0.000855 0.000000 0.000000 0.000000
# 2 -0.003984 0.011402 -0.003174 0.000000 0.000000 0.000000
# 3 -0.000855 -0.003174 0.010405 0.000000 0.000000 0.000000
# 4 0.000000 0.000000 0.000000 0.132516 0.000000 0.000000
# 5 0.000000 0.000000 0.000000 0.000000 0.877582 0.000000
# 6 0.000000 0.000000 0.000000 0.000000 0.000000 0.021496
#
#
# Mechanical properties :
#
#
# Convention : Reuss Voigt Hill
#
# Bulk Modulus (GPa) = 29.33275 39.72239 34.52757
# Shear Modulus (GPa) = 4.50814 23.76820 14.13817
#
# Velocity S-wave (km/s) = 1.47966 3.39751 2.62035
# Velocity P-wave (km/s) = 4.14303 5.88915 5.09150
#
# Compressibility (1/GPa) = 0.03409158
#
# Stress axis : x y z
#
# Youngs Moduli (GPa) = 35.31999 87.70773 96.10956
#
# Poissons Ratio (x) = 0.34946 0.08222
# Poissons Ratio (y) = 0.14073 0.30504
# Poissons Ratio (z) = 0.03021 0.27837
#
# Static dielectric constant tensor:
#      x y z
#    x 1.744470 0.000000 0.000000 
#    y 0.000000 1.770950 0.000000 
#    z 0.000000 0.000000 1.732160 
# 
# From -- ./inp_files/17407.got.cif
#   From: 2010.05.17/outbox.cif.g08.bks.cpg/sg58_9_cif.got.tgz:17407.got - 2010.06.03 14:20:14.
