data_PCOD9443449
_publ_section_title
;
Structure prediction by ZEFSAII (Michael W. Deem and Ramdas Pophale) SiO2 
 PCOD9443449
Probable space group: P N N M
;
_chemical_formula_sum "Si O2"
_cell_formula_units_Z 56
_cell_length_a 11.660498
_cell_length_b 15.789284
_cell_length_c 16.737179
_cell_angle_alpha 90.000000
_cell_angle_beta 90.000000
_cell_angle_gamma 90.000000
_cell_volume 3081.497332
_symmetry_space_group_name_H-M "P N N M"
_symmetry_group_IT_number 58
_symmetry_cell_setting 'orthorhombic'
loop_
_space_group_symop_operation_xyz
x,y,z
-x,-y,z
1/2+x,1/2-y,1/2-z
1/2-x,1/2+y,1/2-z
-x,-y,-z
x,y,-z
1/2-x,1/2+y,1/2+z
1/2+x,1/2-y,1/2+z
loop_
_atom_site_type_symbol
_atom_site_label
_atom_site_fract_x
_atom_site_fract_y
_atom_site_fract_z
Si Si1 0.763086 0.329012 0.905164
Si Si2 0.720429 0.162126 0.354040
Si Si3 0.490672 0.093272 0.591377
Si Si4 0.131958 0.324019 0.323786
Si Si5 0.865642 0.007018 0.405219
Si Si6 0.139050 0.495951 0.590915
Si Si7 0.617947 0.816785 0.096211
O O1 0.704561 0.250638 0.863066
O O2 0.693267 0.416158 0.893274
O O3 0.890861 0.348752 0.873465
O O4 0.764412 0.310631 0.000000
O O5 0.612882 0.137379 0.409134
O O6 0.659056 0.177959 0.269599
O O7 0.795963 0.241282 0.382547
O O8 0.802959 0.080180 0.355857
O O9 0.451175 0.077845 0.500000
O O10 0.500000 0.000000 0.630242
O O11 0.170158 0.416748 0.354908
O O12 0.000470 0.311127 0.353648
O O13 0.854095 0.028760 0.500000
O O14 0.000000 0.000000 0.387194
O O15 0.176566 0.479332 0.500000
O O16 0.173539 0.591159 0.614170
O O17 0.000000 0.500000 0.590546
O O18 0.591845 0.815369 0.000000
#
# Coordination Sequence:
#
# PCOD9443449 Si02
#       7
#     8   8   8   8   8   8   8
#     4  10  20  36  59  82 112 153 198 242 286 357
#     4  12  24  35  58  89 127 157 191 249 309 362
#     4  10  20  37  59  82 113 155 199 238 292 364
#     4  11  23  35  58  88 122 151 192 249 309 353
#     4  10  20  37  61  87 114 152 199 245 298 360
#     4   8  16  35  60  81 103 141 194 243 286 341
#     4  10  21  40  63  86 116 159 211 252 290 356
#
# _framework density 18.172984
#
# number of rings (size 3 to 8) (size 9 to 14) (size 15 to 20)
#    0.000    1.857    1.429    4.286    2.000    4.000 
#    0.000    0.000    0.000    0.000    0.000    4.000 
#    0.000    0.000    0.000    0.000    0.000    0.000 
#
# Total GULP energy -312356.514266 kJ/mol
# GULP energy per Si atom -5577.794898 kJ/mol
# Density = 1.813162 g / cm^3
# Si number density = 18.172984 Si / 1000 Ang^3
#
#
#
# Elastic Constant Matrix: (Units=GPa)
#
#
# Indices 1 2 3 4 5 6 
#
# 1 100.7421 41.9662 22.0116 0.0000 0.0000 0.0000
# 2 41.9662 113.8118 33.2135 0.0000 0.0000 0.0000
# 3 22.0116 33.2135 59.7137 0.0000 0.0000 0.0000
# 4 0.0000 0.0000 0.0000 -86.2728 0.0000 0.0000
# 5 0.0000 0.0000 0.0000 0.0000 24.4959 0.0000
# 6 0.0000 0.0000 0.0000 0.0000 0.0000 26.8583
#
#
#
# Elastic Compliance Matrix: (Units=1/GPa)
#
#
# Indices 1 2 3 4 5 6 
#
# 1 0.011996 -0.003740 -0.002342 0.000000 0.000000 0.000000
# 2 -0.003740 0.011655 -0.005104 0.000000 0.000000 0.000000
# 3 -0.002342 -0.005104 0.020449 0.000000 0.000000 0.000000
# 4 0.000000 0.000000 0.000000 -0.011591 0.000000 0.000000
# 5 0.000000 0.000000 0.000000 0.000000 0.040823 0.000000
# 6 0.000000 0.000000 0.000000 0.000000 0.000000 0.037232
#
#
# Mechanical properties :
#
#
# Convention : Reuss Voigt Hill
#
# Bulk Modulus (GPa) = 46.02307 52.07225 49.04766
# Shear Modulus (GPa) = 35.66892 4.82138 20.24515
#
# Velocity S-wave (km/s) = 4.43509 1.63058 3.34132
# Velocity P-wave (km/s) = 7.18378 5.67987 6.47563
#
# Compressibility (1/GPa) = 0.02172823
#
# Stress axis : x y z
#
# Youngs Moduli (GPa) = 83.36159 85.80036 48.90285
#
# Poissons Ratio (x) = 0.32089 0.11452
# Poissons Ratio (y) = 0.31177 0.24960
# Poissons Ratio (z) = 0.19521 0.43793
#
# Static dielectric constant tensor:
#      x y z
#    x 1.617500 0.000000 0.000000 
#    y 0.000000 1.629440 0.000000 
#    z 0.000000 0.000000 1.630020 
# 
# From -- ./inp_files/21296.got.cif
#   From: 2010.05.17/outbox.cif.g08.bks.cpg/sg58_11_cif.got.tgz:21296.got - 2010.06.03 14:20:14.
