data_PCOD9443701
_publ_section_title
;
Structure prediction by ZEFSAII (Michael W. Deem and Ramdas Pophale) SiO2 
 PCOD9443701
Probable space group: P N N M
;
_chemical_formula_sum "Si O2"
_cell_formula_units_Z 48
_cell_length_a 17.111440
_cell_length_b 10.996780
_cell_length_c 14.250426
_cell_angle_alpha 90.000000
_cell_angle_beta 90.000000
_cell_angle_gamma 90.000000
_cell_volume 2681.513222
_symmetry_space_group_name_H-M "P N N M"
_symmetry_group_IT_number 58
_symmetry_cell_setting 'orthorhombic'
loop_
_space_group_symop_operation_xyz
x,y,z
-x,-y,z
1/2+x,1/2-y,1/2-z
1/2-x,1/2+y,1/2-z
-x,-y,-z
x,y,-z
1/2-x,1/2+y,1/2+z
1/2+x,1/2-y,1/2+z
loop_
_atom_site_type_symbol
_atom_site_label
_atom_site_fract_x
_atom_site_fract_y
_atom_site_fract_z
Si Si1 0.428517 0.071246 0.787319
Si Si2 0.281268 0.370669 0.106154
Si Si3 0.595963 0.087226 0.608823
Si Si4 0.997974 0.800771 0.788564
Si Si5 0.876220 0.007102 0.774827
Si Si6 0.227715 0.579909 0.391480
O O1 0.456482 0.210452 0.782194
O O2 0.348654 0.035515 0.836903
O O3 0.500000 0.000000 0.833424
O O4 0.421766 0.022172 0.680393
O O5 0.189274 0.397811 0.116910
O O6 0.333804 0.435831 0.184059
O O7 0.283040 0.225179 0.114297
O O8 0.305200 0.404947 0.000000
O O9 0.578334 0.063578 0.500000
O O10 0.549156 0.208382 0.642761
O O11 0.931993 0.892751 0.749786
O O12 0.067057 0.891468 0.822448
O O13 0.807475 0.962254 0.843013
O O14 0.227674 0.543726 0.500000
#
# Coordination Sequence:
#
# PCOD9443701 Si02
#       6
#     8   8   8   8   8   8
#     4  10  21  38  60  85 116 157 198 245 294 345
#     4  10  20  37  62  86 113 155 202 240 285 351
#     4  10  20  37  62  89 117 154 200 245 292 350
#     4  10  22  35  56  88 123 155 190 242 302 345
#     4  11  21  38  60  87 122 156 192 246 300 352
#     4  11  22  38  60  85 117 159 198 236 291 360
#
# _framework density 17.900341000000001
#
# number of rings (size 3 to 8) (size 9 to 14) (size 15 to 20)
#    0.000    1.667    5.000    0.000    0.000    4.000 
#    0.000    4.167    0.000   10.000    0.000    0.000 
#    0.000    0.000    0.000    0.000    0.000    0.000 
#
# Total GULP energy -267270.555801 kJ/mol
# GULP energy per Si atom -5568.136579 kJ/mol
# Density = 1.785960 g / cm^3
# Si number density = 17.900341 Si / 1000 Ang^3
#
#
#
# Elastic Constant Matrix: (Units=GPa)
#
#
# Indices 1 2 3 4 5 6 
#
# 1 140.8388 43.8195 61.4690 0.0000 0.0000 0.0000
# 2 43.8195 81.4905 38.7327 0.0000 0.0000 0.0000
# 3 61.4690 38.7327 108.9062 0.0000 0.0000 0.0000
# 4 0.0000 0.0000 0.0000 18.4540 0.0000 0.0000
# 5 0.0000 0.0000 0.0000 0.0000 9.6765 0.0000
# 6 0.0000 0.0000 0.0000 0.0000 0.0000 33.8554
#
#
#
# Elastic Compliance Matrix: (Units=1/GPa)
#
#
# Indices 1 2 3 4 5 6 
#
# 1 0.010099 -0.003275 -0.004535 0.000000 0.000000 0.000000
# 2 -0.003275 0.015830 -0.003782 0.000000 0.000000 0.000000
# 3 -0.004535 -0.003782 0.013087 0.000000 0.000000 0.000000
# 4 0.000000 0.000000 0.000000 0.054189 0.000000 0.000000
# 5 0.000000 0.000000 0.000000 0.000000 0.103343 0.000000
# 6 0.000000 0.000000 0.000000 0.000000 0.000000 0.029537
#
#
# Mechanical properties :
#
#
# Convention : Reuss Voigt Hill
#
# Bulk Modulus (GPa) = 63.16219 68.80866 65.98543
# Shear Modulus (GPa) = 19.64292 24.87813 22.26052
#
# Velocity S-wave (km/s) = 3.31622 3.73206 3.53027
# Velocity P-wave (km/s) = 7.07285 7.55608 7.31845
#
# Compressibility (1/GPa) = 0.01583226
#
# Stress axis : x y z
#
# Youngs Moduli (GPa) = 99.02411 63.17273 76.41232
#
# Poissons Ratio (x) = 0.20687 0.34655
# Poissons Ratio (y) = 0.32427 0.28896
# Poissons Ratio (z) = 0.44909 0.23889
#
# Static dielectric constant tensor:
#      x y z
#    x 1.658530 0.000000 0.000000 
#    y 0.000000 1.639110 0.000000 
#    z 0.000000 0.000000 1.597460 
# 
# From -- ./inp_files/22121.got.cif
#   From: 2010.05.17/outbox.cif.g08.bks.cpg/sg58_12_cif.got.tgz:22121.got - 2010.06.03 14:20:14.
