data_PCOD9443831
_publ_section_title
;
Structure prediction by ZEFSAII (Michael W. Deem and Ramdas Pophale) SiO2 
 PCOD9443831
Probable space group: P N N M
;
_chemical_formula_sum "Si O2"
_cell_formula_units_Z 34
_cell_length_a 23.744406
_cell_length_b 6.932183
_cell_length_c 7.634838
_cell_angle_alpha 90.000000
_cell_angle_beta 90.000000
_cell_angle_gamma 90.000000
_cell_volume 1256.698668
_symmetry_space_group_name_H-M "P N N M"
_symmetry_group_IT_number 58
_symmetry_cell_setting 'orthorhombic'
loop_
_space_group_symop_operation_xyz
x,y,z
-x,-y,z
1/2+x,1/2-y,1/2-z
1/2-x,1/2+y,1/2-z
-x,-y,-z
x,y,-z
1/2-x,1/2+y,1/2+z
1/2+x,1/2-y,1/2+z
loop_
_atom_site_type_symbol
_atom_site_label
_atom_site_fract_x
_atom_site_fract_y
_atom_site_fract_z
Si Si1 0.000000 0.000000 0.500000
Si Si2 0.703301 0.602404 0.289774
Si Si3 0.443007 0.100333 0.203285
Si Si4 0.586207 0.471969 0.300702
Si Si5 0.830257 0.517533 0.792056
O O1 0.957725 0.913061 0.345328
O O2 0.703523 0.606442 0.500000
O O3 0.652901 0.452391 0.247285
O O4 0.768135 0.601368 0.235068
O O5 0.681339 0.803451 0.217340
O O6 0.425837 0.294027 0.305437
O O7 0.500000 0.000000 0.263513
O O8 0.391822 0.947334 0.213871
O O9 0.451105 0.169168 0.000000
O O10 0.578732 0.399997 0.500000
O O11 0.838769 0.517573 0.000000
#
# Coordination Sequence:
#
# PCOD9443831 Si02
#       5
#     2   8   8   8   8
#     4  12  22  40  62  90 116 172 196 242 310 360
#     4   9  20  39  58  85 117 153 198 249 297 355
#     4  10  20  38  62  87 117 158 203 251 305 363
#     4  10  22  40  62  87 123 161 201 249 303 361
#     4  10  21  36  60  87 117 156 200 249 306 363
#
# _framework density 27.055016999999999
#
# number of rings (size 3 to 8) (size 9 to 14) (size 15 to 20)
#    0.000    2.118    1.176    3.176    1.647    3.765 
#    4.235    0.000    0.000    0.000    0.000    0.000 
#    0.000    0.000    0.000    0.000    0.000    0.000 
#
# Total GULP energy -189546.729190 kJ/mol
# GULP energy per Si atom -5574.903800 kJ/mol
# Density = 2.699344 g / cm^3
# Si number density = 27.055017 Si / 1000 Ang^3
#
#
#
# Elastic Constant Matrix: (Units=GPa)
#
#
# Indices 1 2 3 4 5 6 
#
# 1 287.6976 40.4542 67.0968 0.0000 0.0000 0.0000
# 2 40.4542 35.6508 3.4663 0.0000 0.0000 0.0000
# 3 67.0968 3.4663 133.8339 0.0000 0.0000 0.0000
# 4 0.0000 0.0000 0.0000 21.5803 0.0000 0.0000
# 5 0.0000 0.0000 0.0000 0.0000 45.8783 0.0000
# 6 0.0000 0.0000 0.0000 0.0000 0.0000 51.2759
#
#
#
# Elastic Compliance Matrix: (Units=1/GPa)
#
#
# Indices 1 2 3 4 5 6 
#
# 1 0.004719 -0.005138 -0.002233 0.000000 0.000000 0.000000
# 2 -0.005138 0.033714 0.001703 0.000000 0.000000 0.000000
# 3 -0.002233 0.001703 0.008547 0.000000 0.000000 0.000000
# 4 0.000000 0.000000 0.000000 0.046339 0.000000 0.000000
# 5 0.000000 0.000000 0.000000 0.000000 0.021797 0.000000
# 6 0.000000 0.000000 0.000000 0.000000 0.000000 0.019502
#
#
# Mechanical properties :
#
#
# Convention : Reuss Voigt Hill
#
# Bulk Modulus (GPa) = 28.05468 75.46855 51.76161
# Shear Modulus (GPa) = 31.67845 46.82455 39.25150
#
# Velocity S-wave (km/s) = 3.42554 4.16470 3.81307
# Velocity P-wave (km/s) = 5.10272 7.14712 6.20963
#
# Compressibility (1/GPa) = 0.03564468
#
# Stress axis : x y z
#
# Youngs Moduli (GPa) = 211.90716 29.66095 116.99667
#
# Poissons Ratio (x) = 0.15239 0.26123
# Poissons Ratio (y) = 1.08873 -0.19920
# Poissons Ratio (z) = 0.47315 -0.05050
#
# Static dielectric constant tensor:
#      x y z
#    x 2.820810 0.000000 0.000000 
#    y 0.000000 -0.951390 0.000000 
#    z 0.000000 0.000000 1.962520 
# 
# From -- ./inp_files/2284.got.cif
#   From: 2010.05.17/outbox.cif.g08.bks.cpg/sg58_2_cif.got.tgz:2284.got - 2010.06.03 14:20:14.
