data_PCOD9443977
_publ_section_title
;
Structure prediction by ZEFSAII (Michael W. Deem and Ramdas Pophale) SiO2 
 PCOD9443977
Probable space group: P N N M
;
_chemical_formula_sum "Si O2"
_cell_formula_units_Z 52
_cell_length_a 5.521877
_cell_length_b 18.080344
_cell_length_c 23.896364
_cell_angle_alpha 90.000000
_cell_angle_beta 90.000000
_cell_angle_gamma 90.000000
_cell_volume 2385.751704
_symmetry_space_group_name_H-M "P N N M"
_symmetry_group_IT_number 58
_symmetry_cell_setting 'orthorhombic'
loop_
_space_group_symop_operation_xyz
x,y,z
-x,-y,z
1/2+x,1/2-y,1/2-z
1/2-x,1/2+y,1/2-z
-x,-y,-z
x,y,-z
1/2-x,1/2+y,1/2+z
1/2+x,1/2-y,1/2+z
loop_
_atom_site_type_symbol
_atom_site_label
_atom_site_fract_x
_atom_site_fract_y
_atom_site_fract_z
Si Si1 0.611791 0.909243 0.187599
Si Si2 0.249799 0.857813 0.100186
Si Si3 0.081690 0.077342 0.628824
Si Si4 0.036452 0.775068 0.562744
Si Si5 0.084206 0.397099 0.195285
Si Si6 0.000000 0.000000 0.124592
Si Si7 0.617950 0.268533 0.665472
O O1 0.472688 0.896520 0.129821
O O2 0.454266 0.923819 0.241934
O O3 0.801480 0.969945 0.168104
O O4 0.738427 0.830239 0.199413
O O5 0.347785 0.793595 0.060370
O O6 0.077206 0.928035 0.087802
O O7 0.125417 0.809556 0.148633
O O8 0.074102 0.149372 0.588699
O O9 0.853447 0.085194 0.671934
O O10 0.348027 0.076162 0.658531
O O11 0.000000 0.000000 0.599849
O O12 0.129203 0.788336 0.500000
O O13 0.240682 0.750129 0.607336
O O14 0.076115 0.308345 0.194691
#
# Coordination Sequence:
#
# PCOD9443977 Si02
#       7
#     8   8   8   8   8   4   8
#     4  10  23  35  64  91 132 178 215 257 318 387
#     4  10  20  40  60  92 123 167 213 269 322 394
#     4  11  25  43  63  97 136 171 218 273 321 391
#     4  10  22  43  67  90 121 165 215 274 342 393
#     4  11  24  40  64  95 138 177 219 261 319 381
#     4  10  22  38  59  92 134 166 217 262 322 390
#     4   9  21  38  60  92 126 162 218 271 316 381
#
# _framework density 21.796064000000001
#
# number of rings (size 3 to 8) (size 9 to 14) (size 15 to 20)
#    0.000    1.846    1.538    0.923    7.538    2.154 
#    0.000    0.385    0.000   14.769    0.000    0.000 
#    0.000    0.000    0.000    0.000    0.000    0.000 
#
# Total GULP energy -289774.789791 kJ/mol
# GULP energy per Si atom -5572.592111 kJ/mol
# Density = 2.174646 g / cm^3
# Si number density = 21.796064 Si / 1000 Ang^3
#
#
#
# Elastic Constant Matrix: (Units=GPa)
#
#
# Indices 1 2 3 4 5 6 
#
# 1 81.0765 21.1293 20.0231 0.0000 0.0000 0.0000
# 2 21.1293 157.9561 20.8059 0.0000 0.0000 0.0000
# 3 20.0231 20.8059 84.6663 0.0000 0.0000 0.0000
# 4 0.0000 0.0000 0.0000 18.6431 0.0000 0.0000
# 5 0.0000 0.0000 0.0000 0.0000 17.1996 0.0000
# 6 0.0000 0.0000 0.0000 0.0000 0.0000 48.2598
#
#
#
# Elastic Compliance Matrix: (Units=1/GPa)
#
#
# Indices 1 2 3 4 5 6 
#
# 1 0.013401 -0.001421 -0.002820 0.000000 0.000000 0.000000
# 2 -0.001421 0.006693 -0.001309 0.000000 0.000000 0.000000
# 3 -0.002820 -0.001309 0.012800 0.000000 0.000000 0.000000
# 4 0.000000 0.000000 0.000000 0.053639 0.000000 0.000000
# 5 0.000000 0.000000 0.000000 0.000000 0.058141 0.000000
# 6 0.000000 0.000000 0.000000 0.000000 0.000000 0.020721
#
#
# Mechanical properties :
#
#
# Convention : Reuss Voigt Hill
#
# Bulk Modulus (GPa) = 45.88408 49.73507 47.80958
# Shear Modulus (GPa) = 27.20948 34.26987 30.73968
#
# Velocity S-wave (km/s) = 3.53706 3.96952 3.75951
# Velocity P-wave (km/s) = 6.14640 6.62400 6.38967
#
# Compressibility (1/GPa) = 0.02179405
#
# Stress axis : x y z
#
# Youngs Moduli (GPa) = 74.62218 149.40173 78.12747
#
# Poissons Ratio (x) = 0.21232 0.22032
# Poissons Ratio (y) = 0.10605 0.10225
# Poissons Ratio (z) = 0.21043 0.19553
#
# Static dielectric constant tensor:
#      x y z
#    x 1.859100 0.000000 0.000000 
#    y 0.000000 1.870990 0.000000 
#    z 0.000000 0.000000 1.728490 
# 
# From -- ./inp_files/32906.got.cif
#   From: 2010.05.17/outbox.cif.g08.bks.cpg/sg58_17_cif.got.tgz:32906.got - 2010.06.03 14:20:14.
