data_PCOD9443262
_publ_section_title
;
Structure prediction by ZEFSAII (Michael W. Deem and Ramdas Pophale) SiO2 
 PCOD9443262
Probable space group: P N N M
;
_chemical_formula_sum "Si O2"
_cell_formula_units_Z 64
_cell_length_a 23.439491
_cell_length_b 8.954406
_cell_length_c 15.667546
_cell_angle_alpha 90.000000
_cell_angle_beta 90.000000
_cell_angle_gamma 90.000000
_cell_volume 3288.409822
_symmetry_space_group_name_H-M "P N N M"
_symmetry_group_IT_number 58
_symmetry_cell_setting 'orthorhombic'
loop_
_space_group_symop_operation_xyz
x,y,z
-x,-y,z
1/2+x,1/2-y,1/2-z
1/2-x,1/2+y,1/2-z
-x,-y,-z
x,y,-z
1/2-x,1/2+y,1/2+z
1/2+x,1/2-y,1/2+z
loop_
_atom_site_type_symbol
_atom_site_label
_atom_site_fract_x
_atom_site_fract_y
_atom_site_fract_z
Si Si1 0.114411 0.922995 0.401633
Si Si2 0.773471 0.892805 0.407158
Si Si3 0.060444 0.071146 0.765035
Si Si4 0.161899 0.083336 0.101111
Si Si5 0.275369 0.922656 0.162657
Si Si6 0.323214 0.927499 0.651687
Si Si7 0.941796 0.572241 0.763662
Si Si8 0.889771 0.433904 0.596380
O O1 0.096829 0.960074 0.500000
O O2 0.111170 0.744812 0.392565
O O3 0.179549 0.979766 0.391791
O O4 0.079681 0.002652 0.326176
O O5 0.786711 0.826458 0.500000
O O6 0.779575 0.755706 0.344141
O O7 0.710773 0.961815 0.408531
O O8 0.108655 0.044944 0.837252
O O9 0.054439 0.249484 0.756686
O O10 0.000000 0.000000 0.789147
O O11 0.177837 0.257068 0.119613
O O12 0.215467 0.982705 0.129094
O O13 0.150241 0.065927 0.000000
O O14 0.287536 0.952323 0.261347
O O15 0.326338 0.001137 0.110783
O O16 0.388235 0.964031 0.675403
O O17 0.927572 0.506412 0.670379
O O18 0.000000 0.500000 0.795291
O O19 0.908808 0.468167 0.500000
#
# Coordination Sequence:
#
# PCOD9443262 Si02
#       8
#     8   8   8   8   8   8   8   8
#     4  10  21  37  59  89 123 158 194 238 298 365
#     4  11  21  34  55  85 118 146 180 228 284 344
#     4  11  24  41  62  84 113 155 201 252 303 352
#     4  11  23  40  61  86 119 159 203 246 294 353
#     4  11  21  35  56  87 119 150 189 234 289 348
#     4  10  21  37  59  82 112 152 191 236 290 349
#     4  10  22  39  58  81 108 146 194 243 292 345
#     4  10  20  35  57  85 118 153 188 231 288 357
#
# _framework density 19.462295000000001
#
# number of rings (size 3 to 8) (size 9 to 14) (size 15 to 20)
#    0.000    1.500    0.000    6.750    0.000    7.250 
#    0.000    0.000    0.000    9.375    0.000    0.000 
#    0.000    0.000    0.000    0.000    0.000    0.000 
#
# Total GULP energy -357467.702534 kJ/mol
# GULP energy per Si atom -5585.432852 kJ/mol
# Density = 1.941800 g / cm^3
# Si number density = 19.462295 Si / 1000 Ang^3
#
#
#
# Elastic Constant Matrix: (Units=GPa)
#
#
# Indices 1 2 3 4 5 6 
#
# 1 69.5009 19.8475 23.7112 0.0000 0.0000 0.0000
# 2 19.8475 49.1160 16.3930 0.0000 0.0000 0.0000
# 3 23.7112 16.3930 84.2525 0.0000 0.0000 0.0000
# 4 0.0000 0.0000 0.0000 23.8947 0.0000 0.0000
# 5 0.0000 0.0000 0.0000 0.0000 11.9018 0.0000
# 6 0.0000 0.0000 0.0000 0.0000 0.0000 33.8902
#
#
#
# Elastic Compliance Matrix: (Units=1/GPa)
#
#
# Indices 1 2 3 4 5 6 
#
# 1 0.017309 -0.005741 -0.003754 0.000000 0.000000 0.000000
# 2 -0.005741 0.023678 -0.002991 0.000000 0.000000 0.000000
# 3 -0.003754 -0.002991 0.013508 0.000000 0.000000 0.000000
# 4 0.000000 0.000000 0.000000 0.041850 0.000000 0.000000
# 5 0.000000 0.000000 0.000000 0.000000 0.084021 0.000000
# 6 0.000000 0.000000 0.000000 0.000000 0.000000 0.029507
#
#
# Mechanical properties :
#
#
# Convention : Reuss Voigt Hill
#
# Bulk Modulus (GPa) = 33.87401 35.86365 34.86883
# Shear Modulus (GPa) = 20.43430 23.46519 21.94975
#
# Velocity S-wave (km/s) = 3.24380 3.47605 3.36193
# Velocity P-wave (km/s) = 5.61002 5.88029 5.74675
#
# Compressibility (1/GPa) = 0.02952115
#
# Stress axis : x y z
#
# Youngs Moduli (GPa) = 57.77465 42.23255 74.03235
#
# Poissons Ratio (x) = 0.24247 0.27792
# Poissons Ratio (y) = 0.33171 0.22145
# Poissons Ratio (z) = 0.21689 0.12633
#
# Static dielectric constant tensor:
#      x y z
#    x 1.671340 0.000000 0.000000 
#    y 0.000000 1.645300 0.000000 
#    z 0.000000 0.000000 1.692680 
# 
# From -- ./inp_files/23525.got.cif
#   From: 2010.05.17/outbox.cif.g08.bks.cpg/sg58_12_cif.got.tgz:23525.got - 2010.06.03 14:20:14.
