data_PCOD9443116
_publ_section_title
;
Structure prediction by ZEFSAII (Michael W. Deem and Ramdas Pophale) SiO2 
 PCOD9443116
Probable space group: P N N M
;
_chemical_formula_sum "Si O2"
_cell_formula_units_Z 64
_cell_length_a 14.938289
_cell_length_b 31.709990
_cell_length_c 7.672334
_cell_angle_alpha 90.000000
_cell_angle_beta 90.000000
_cell_angle_gamma 90.000000
_cell_volume 3634.330870
_symmetry_space_group_name_H-M "P N N M"
_symmetry_group_IT_number 58
_symmetry_cell_setting 'orthorhombic'
loop_
_space_group_symop_operation_xyz
x,y,z
-x,-y,z
1/2+x,1/2-y,1/2-z
1/2-x,1/2+y,1/2-z
-x,-y,-z
x,y,-z
1/2-x,1/2+y,1/2+z
1/2+x,1/2-y,1/2+z
loop_
_atom_site_type_symbol
_atom_site_label
_atom_site_fract_x
_atom_site_fract_y
_atom_site_fract_z
Si Si1 0.903436 0.547404 0.293927
Si Si2 0.504765 0.733451 0.707866
Si Si3 0.814910 0.368448 0.712715
Si Si4 0.810724 0.794038 0.212830
Si Si5 0.392282 0.046693 0.213281
Si Si6 0.314474 0.867967 0.304326
Si Si7 0.295771 0.290377 0.210109
Si Si8 0.496417 0.829387 0.800377
O O1 0.913501 0.542319 0.500000
O O2 0.874736 0.501220 0.227613
O O3 0.835835 0.585715 0.266443
O O4 0.004998 0.557069 0.231094
O O5 0.499203 0.739880 0.500000
O O6 0.414504 0.709521 0.763246
O O7 0.599564 0.712433 0.748792
O O8 0.502989 0.779285 0.794346
O O9 0.810938 0.368319 0.500000
O O10 0.737608 0.336819 0.773125
O O11 0.824031 0.416894 0.770711
O O12 0.909650 0.347579 0.762104
O O13 0.756265 0.752041 0.270607
O O14 0.807075 0.793956 0.000000
O O15 0.390559 0.047595 0.000000
O O16 0.282088 0.874586 0.500000
O O17 0.249006 0.833363 0.219617
O O18 0.410704 0.844912 0.302810
O O19 0.284948 0.290590 0.000000
O O20 0.483213 0.844172 0.000000
#
# Coordination Sequence:
#
# PCOD9443116 Si02
#       8
#     8   8   8   8   8   8   8   8
#     4   9  16  28  46  69  95 120 155 196 234 283
#     4  11  21  33  47  69  98 124 157 204 239 268
#     4   9  15  26  47  69  88 122 160 184 223 280
#     4   9  17  30  46  66  94 123 154 192 233 274
#     4   8  14  25  44  70  95 119 153 196 231 279
#     4  11  21  32  46  67  98 130 162 199 236 275
#     4  10  20  35  49  65  93 130 163 193 233 283
#     4  11  19  29  49  70  93 129 165 192 228 284
#
# _framework density 17.609843000000001
#
# number of rings (size 3 to 8) (size 9 to 14) (size 15 to 20)
#    0.000    2.250    3.750    1.875    0.000    1.000 
#    0.000    1.250    0.000    0.000    0.000    0.875 
#    0.000    7.000    0.000    0.000    0.000    0.000 
#
# Total GULP energy -356787.832477 kJ/mol
# GULP energy per Si atom -5574.809882 kJ/mol
# Density = 1.756976 g / cm^3
# Si number density = 17.609843 Si / 1000 Ang^3
#
#
#
# Elastic Constant Matrix: (Units=GPa)
#
#
# Indices 1 2 3 4 5 6 
#
# 1 105.7031 69.5423 -2.3366 0.0000 0.0000 0.0000
# 2 69.5423 153.5597 1.4381 0.0000 0.0000 0.0000
# 3 -2.3366 1.4381 29.1428 0.0000 0.0000 0.0000
# 4 0.0000 0.0000 0.0000 13.0604 0.0000 0.0000
# 5 0.0000 0.0000 0.0000 0.0000 10.3905 0.0000
# 6 0.0000 0.0000 0.0000 0.0000 0.0000 25.1455
#
#
#
# Elastic Compliance Matrix: (Units=1/GPa)
#
#
# Indices 1 2 3 4 5 6 
#
# 1 0.013531 -0.006141 0.001388 0.000000 0.000000 0.000000
# 2 -0.006141 0.009302 -0.000951 0.000000 0.000000 0.000000
# 3 0.001388 -0.000951 0.034472 0.000000 0.000000 0.000000
# 4 0.000000 0.000000 0.000000 0.076567 0.000000 0.000000
# 5 0.000000 0.000000 0.000000 0.000000 0.096242 0.000000
# 6 0.000000 0.000000 0.000000 0.000000 0.000000 0.039769
#
#
# Mechanical properties :
#
#
# Convention : Reuss Voigt Hill
#
# Bulk Modulus (GPa) = 21.78809 47.29924 34.54367
# Shear Modulus (GPa) = 16.85826 24.37007 20.61417
#
# Velocity S-wave (km/s) = 3.09742 3.72410 3.42512
# Velocity P-wave (km/s) = 5.01912 6.73868 5.94143
#
# Compressibility (1/GPa) = 0.04589663
#
# Stress axis : x y z
#
# Youngs Moduli (GPa) = 73.90313 107.50339 29.00906
#
# Poissons Ratio (x) = 0.66016 -0.04026
# Poissons Ratio (y) = 0.45383 0.02760
# Poissons Ratio (z) = -0.10257 0.10228
#
# Static dielectric constant tensor:
#      x y z
#    x 1.577940 0.000000 0.000000 
#    y 0.000000 1.633700 0.000000 
#    z 0.000000 0.000000 1.661540 
# 
# From -- ./inp_files/7142.got.cif
#   From: 2010.05.17/outbox.cif.g08.bks.cpg/sg58_4_cif.got.tgz:7142.got - 2010.06.03 14:20:14.
