data_PCOD9443141
_publ_section_title
;
Structure prediction by ZEFSAII (Michael W. Deem and Ramdas Pophale) SiO2 
 PCOD9443141
Probable space group: P N N M
;
_chemical_formula_sum "Si O2"
_cell_formula_units_Z 40
_cell_length_a 19.054112
_cell_length_b 12.656935
_cell_length_c 7.474166
_cell_angle_alpha 90.000000
_cell_angle_beta 90.000000
_cell_angle_gamma 90.000000
_cell_volume 1802.519629
_symmetry_space_group_name_H-M "P N N M"
_symmetry_group_IT_number 58
_symmetry_cell_setting 'orthorhombic'
loop_
_space_group_symop_operation_xyz
x,y,z
-x,-y,z
1/2+x,1/2-y,1/2-z
1/2-x,1/2+y,1/2-z
-x,-y,-z
x,y,-z
1/2-x,1/2+y,1/2+z
1/2+x,1/2-y,1/2+z
loop_
_atom_site_type_symbol
_atom_site_label
_atom_site_fract_x
_atom_site_fract_y
_atom_site_fract_z
Si Si1 0.115406 0.193374 0.784170
Si Si2 0.075607 0.534567 0.710986
Si Si3 0.797287 0.605107 0.289137
Si Si4 0.458184 0.267669 0.284160
Si Si5 0.142959 0.953892 0.780775
O O1 0.175095 0.275934 0.730778
O O2 0.038836 0.232360 0.720879
O O3 0.128704 0.073819 0.724193
O O4 0.113838 0.192319 0.000000
O O5 0.073510 0.508769 0.500000
O O6 0.141659 0.470772 0.786827
O O7 0.080335 0.660083 0.730890
O O8 0.000000 0.500000 0.787730
O O9 0.792217 0.581387 0.500000
O O10 0.719555 0.584083 0.218672
O O11 0.459962 0.270012 0.500000
O O12 0.416448 0.371168 0.223240
O O13 0.141481 0.953275 0.000000
#
# Coordination Sequence:
#
# PCOD9443141 Si02
#       5
#     8   8   8   8   8
#     4  10  20  36  58  81 107 139 179 223 267 317
#     4  10  20  35  54  77 109 146 178 213 264 322
#     4  10  21  37  55  77 109 146 179 217 267 319
#     4  10  20  35  58  83 106 137 181 227 266 313
#     4   9  20  37  56  79 109 144 178 219 273 321
#
# _framework density 22.191161000000001
#
# number of rings (size 3 to 8) (size 9 to 14) (size 15 to 20)
#    0.000    2.200    2.000    0.600    2.800    3.600 
#    0.000    2.000    0.000    2.400    0.000    0.000 
#    0.000    0.000    0.000    0.000    0.000    0.000 
#
# Total GULP energy -223556.527762 kJ/mol
# GULP energy per Si atom -5588.913194 kJ/mol
# Density = 2.214065 g / cm^3
# Si number density = 22.191161 Si / 1000 Ang^3
#
#
#
# Elastic Constant Matrix: (Units=GPa)
#
#
# Indices 1 2 3 4 5 6 
#
# 1 54.9559 0.0228 -0.1394 0.0000 0.0000 0.0000
# 2 0.0228 97.3428 -26.3419 0.0000 0.0000 0.0000
# 3 -0.1394 -26.3419 60.2373 0.0000 0.0000 0.0000
# 4 0.0000 0.0000 0.0000 22.1693 0.0000 0.0000
# 5 0.0000 0.0000 0.0000 0.0000 0.3921 0.0000
# 6 0.0000 0.0000 0.0000 0.0000 0.0000 28.8193
#
#
#
# Elastic Compliance Matrix: (Units=1/GPa)
#
#
# Indices 1 2 3 4 5 6 
#
# 1 0.018197 0.000008 0.000046 0.000000 0.000000 0.000000
# 2 0.000008 0.011652 0.005095 0.000000 0.000000 0.000000
# 3 0.000046 0.005095 0.018829 0.000000 0.000000 0.000000
# 4 0.000000 0.000000 0.000000 0.045107 0.000000 0.000000
# 5 0.000000 0.000000 0.000000 0.000000 2.550556 0.000000
# 6 0.000000 0.000000 0.000000 0.000000 0.000000 0.034699
#
#
# Mechanical properties :
#
#
# Convention : Reuss Voigt Hill
#
# Bulk Modulus (GPa) = 16.95605 17.73543 17.34574
# Shear Modulus (GPa) = 1.85984 26.20909 14.03447
#
# Velocity S-wave (km/s) = 0.91647 3.44038 2.51755
# Velocity P-wave (km/s) = 2.96267 4.87761 4.03538
#
# Compressibility (1/GPa) = 0.05897599
#
# Stress axis : x y z
#
# Youngs Moduli (GPa) = 54.95554 85.82343 53.10857
#
# Poissons Ratio (x) = -0.00070 -0.00242
# Poissons Ratio (y) = -0.00045 -0.27061
# Poissons Ratio (z) = -0.00251 -0.43730
#
# Static dielectric constant tensor:
#      x y z
#    x 1.803790 0.000000 0.000000 
#    y 0.000000 1.763000 0.000000 
#    z 0.000000 0.000000 1.853970 
# 
# From -- ./inp_files/3791.got.cif
#   From: 2010.05.17/outbox.cif.g08.bks.cpg/sg58_2_cif.got.tgz:3791.got - 2010.06.03 14:20:14.
