data_PCOD9443220
_publ_section_title
;
Structure prediction by ZEFSAII (Michael W. Deem and Ramdas Pophale) SiO2 
 PCOD9443220
Probable space group: P N N M
;
_chemical_formula_sum "Si O2"
_cell_formula_units_Z 64
_cell_length_a 23.704114
_cell_length_b 15.346325
_cell_length_c 9.330111
_cell_angle_alpha 90.000000
_cell_angle_beta 90.000000
_cell_angle_gamma 90.000000
_cell_volume 3394.024156
_symmetry_space_group_name_H-M "P N N M"
_symmetry_group_IT_number 58
_symmetry_cell_setting 'orthorhombic'
loop_
_space_group_symop_operation_xyz
x,y,z
-x,-y,z
1/2+x,1/2-y,1/2-z
1/2-x,1/2+y,1/2-z
-x,-y,-z
x,y,-z
1/2-x,1/2+y,1/2+z
1/2+x,1/2-y,1/2+z
loop_
_atom_site_type_symbol
_atom_site_label
_atom_site_fract_x
_atom_site_fract_y
_atom_site_fract_z
Si Si1 0.675438 0.001454 0.167106
Si Si2 0.309871 0.790547 0.165281
Si Si3 0.999795 0.901146 0.832990
Si Si4 0.551204 0.938154 0.825468
Si Si5 0.710530 0.485964 0.830999
Si Si6 0.929051 0.243012 0.328155
Si Si7 0.630807 0.353162 0.666119
Si Si8 0.802140 0.193767 0.331959
O O1 0.677995 0.106516 0.172016
O O2 0.728054 0.969893 0.261179
O O3 0.613644 0.970993 0.216111
O O4 0.682976 0.974597 0.000000
O O5 0.353842 0.737123 0.258679
O O6 0.248433 0.773851 0.232865
O O7 0.311935 0.763356 0.000000
O O8 0.935576 0.869474 0.826499
O O9 0.039213 0.836031 0.746807
O O10 0.018034 0.903336 0.000000
O O11 0.000000 0.000000 0.777484
O O12 0.546645 0.836969 0.782902
O O13 0.500000 0.000000 0.775738
O O14 0.550309 0.940505 0.000000
O O15 0.664946 0.427643 0.749868
O O16 0.695639 0.588650 0.813678
O O17 0.711289 0.467143 0.000000
O O18 0.935082 0.235532 0.500000
O O19 0.862279 0.235980 0.297407
O O20 0.648142 0.353102 0.500000
O O21 0.789426 0.210508 0.500000
#
# Coordination Sequence:
#
# PCOD9443220 Si02
#       8
#     8   8   8   8   8   8   8   8
#     4   9  19  36  58  83 114 152 191 231 287 349
#     4  10  21  35  56  86 115 148 191 239 287 343
#     4  10  23  42  61  84 116 155 195 240 297 355
#     4   9  19  35  57  84 114 152 197 242 285 339
#     4  10  20  35  56  84 117 148 186 236 288 347
#     4  10  21  36  61  90 116 153 198 242 290 343
#     4  11  23  37  57  82 113 151 192 236 293 355
#     4   9  19  36  56  84 119 152 186 232 292 351
#
# _framework density 18.856673000000001
#
# number of rings (size 3 to 8) (size 9 to 14) (size 15 to 20)
#    0.000    2.250    0.000    1.875    3.500    2.750 
#    0.000    0.625    0.000    0.750    0.000    0.000 
#    0.000    0.000    0.000    0.000    0.000    0.000 
#
# Total GULP energy -357408.284034 kJ/mol
# GULP energy per Si atom -5584.504438 kJ/mol
# Density = 1.881375 g / cm^3
# Si number density = 18.856673 Si / 1000 Ang^3
#
#
#
# Elastic Constant Matrix: (Units=GPa)
#
#
# Indices 1 2 3 4 5 6 
#
# 1 64.2073 33.0372 27.1123 0.0000 0.0000 0.0000
# 2 33.0372 69.7153 25.4257 0.0000 0.0000 0.0000
# 3 27.1123 25.4257 66.2116 0.0000 0.0000 0.0000
# 4 0.0000 0.0000 0.0000 20.4496 0.0000 0.0000
# 5 0.0000 0.0000 0.0000 0.0000 26.3598 0.0000
# 6 0.0000 0.0000 0.0000 0.0000 0.0000 32.6351
#
#
#
# Elastic Compliance Matrix: (Units=1/GPa)
#
#
# Indices 1 2 3 4 5 6 
#
# 1 0.022438 -0.008468 -0.005936 0.000000 0.000000 0.000000
# 2 -0.008468 0.019876 -0.004165 0.000000 0.000000 0.000000
# 3 -0.005936 -0.004165 0.019133 0.000000 0.000000 0.000000
# 4 0.000000 0.000000 0.000000 0.048901 0.000000 0.000000
# 5 0.000000 0.000000 0.000000 0.000000 0.037937 0.000000
# 6 0.000000 0.000000 0.000000 0.000000 0.000000 0.030642
#
#
# Mechanical properties :
#
#
# Convention : Reuss Voigt Hill
#
# Bulk Modulus (GPa) = 41.13733 41.25384 41.19558
# Shear Modulus (GPa) = 22.30462 23.52617 22.91539
#
# Velocity S-wave (km/s) = 3.44299 3.53601 3.48981
# Velocity P-wave (km/s) = 6.13749 6.21259 6.17515
#
# Compressibility (1/GPa) = 0.02430882
#
# Stress axis : x y z
#
# Youngs Moduli (GPa) = 44.56633 50.31176 52.26513
#
# Poissons Ratio (x) = 0.42606 0.31026
# Poissons Ratio (y) = 0.37740 0.21768
# Poissons Ratio (z) = 0.26455 0.20955
#
# Static dielectric constant tensor:
#      x y z
#    x 1.622570 0.000000 0.000000 
#    y 0.000000 1.664380 0.000000 
#    z 0.000000 0.000000 1.631560 
# 
# From -- ./inp_files/10096.got.cif
#   From: 2010.05.17/outbox.cif.g08.bks.cpg/sg58_6_cif.got.tgz:10096.got - 2010.06.03 14:20:14.
