data_PCOD9443815
_publ_section_title
;
Structure prediction by ZEFSAII (Michael W. Deem and Ramdas Pophale) SiO2 
 PCOD9443815
Probable space group: P N N M
;
_chemical_formula_sum "Si O2"
_cell_formula_units_Z 64
_cell_length_a 24.402790
_cell_length_b 15.792414
_cell_length_c 8.618474
_cell_angle_alpha 90.000000
_cell_angle_beta 90.000000
_cell_angle_gamma 90.000000
_cell_volume 3321.378568
_symmetry_space_group_name_H-M "P N N M"
_symmetry_group_IT_number 58
_symmetry_cell_setting 'orthorhombic'
loop_
_space_group_symop_operation_xyz
x,y,z
-x,-y,z
1/2+x,1/2-y,1/2-z
1/2-x,1/2+y,1/2-z
-x,-y,-z
x,y,-z
1/2-x,1/2+y,1/2+z
1/2+x,1/2-y,1/2+z
loop_
_atom_site_type_symbol
_atom_site_label
_atom_site_fract_x
_atom_site_fract_y
_atom_site_fract_z
Si Si1 0.642437 0.913646 0.684163
Si Si2 0.871201 0.898053 0.312652
Si Si3 0.252727 0.653138 0.315677
Si Si4 0.049263 0.251523 0.689229
Si Si5 0.126632 0.405619 0.312851
Si Si6 0.355642 0.413567 0.812849
Si Si7 0.576885 0.752864 0.187892
Si Si8 0.252099 0.840289 0.814442
O O1 0.643425 0.910781 0.500000
O O2 0.704302 0.904065 0.747252
O O3 0.608361 0.834263 0.748359
O O4 0.618023 0.002279 0.742006
O O5 0.868670 0.892747 0.500000
O O6 0.812041 0.871640 0.248735
O O7 0.917052 0.831430 0.259910
O O8 0.881180 0.995799 0.270661
O O9 0.251910 0.646463 0.500000
O O10 0.241578 0.749798 0.264670
O O11 0.049236 0.250742 0.500000
O O12 0.082677 0.335177 0.736864
O O13 0.986329 0.251932 0.739028
O O14 0.124664 0.412101 0.500000
O O15 0.187557 0.373027 0.270941
O O16 0.392279 0.333413 0.765170
O O17 0.295810 0.402895 0.738699
O O18 0.349967 0.411078 0.000000
O O19 0.578216 0.756640 0.000000
O O20 0.250709 0.829489 0.000000
#
# Coordination Sequence:
#
# PCOD9443815 Si02
#       8
#     8   8   8   8   8   8   8   8
#     4  12  25  40  60  87 119 157 197 247 300 350
#     4  10  20  38  61  90 123 156 196 242 291 347
#     4  12  23  37  60  89 120 154 194 240 296 360
#     4   9  19  38  63  87 118 158 202 245 290 345
#     4  10  21  39  62  88 118 156 196 241 294 356
#     4  10  21  35  58  90 123 156 195 239 287 343
#     4  10  21  39  61  87 118 159 204 246 290 344
#     4  11  21  36  61  88 120 155 192 237 296 357
#
# _framework density 19.269107000000002
#
# number of rings (size 3 to 8) (size 9 to 14) (size 15 to 20)
#    0.000    1.500    2.500    3.375    0.000    4.500 
#    0.000    6.250    0.000    0.000    0.000    2.625 
#    0.000    0.000    0.000    0.000    0.000    0.000 
#
# Total GULP energy -357749.196717 kJ/mol
# GULP energy per Si atom -5589.831199 kJ/mol
# Density = 1.922525 g / cm^3
# Si number density = 19.269107 Si / 1000 Ang^3
#
#
#
# Elastic Constant Matrix: (Units=GPa)
#
#
# Indices 1 2 3 4 5 6 
#
# 1 122.1434 36.9804 19.6482 0.0000 0.0000 0.0000
# 2 36.9804 109.5561 26.0597 0.0000 0.0000 0.0000
# 3 19.6482 26.0597 24.6959 0.0000 0.0000 0.0000
# 4 0.0000 0.0000 0.0000 163.6754 0.0000 0.0000
# 5 0.0000 0.0000 0.0000 0.0000 22.4009 0.0000
# 6 0.0000 0.0000 0.0000 0.0000 0.0000 6.5683
#
#
#
# Elastic Compliance Matrix: (Units=1/GPa)
#
#
# Indices 1 2 3 4 5 6 
#
# 1 0.009681 -0.001917 -0.005680 0.000000 0.000000 0.000000
# 2 -0.001917 0.012566 -0.011735 0.000000 0.000000 0.000000
# 3 -0.005680 -0.011735 0.057394 0.000000 0.000000 0.000000
# 4 0.000000 0.000000 0.000000 0.006110 0.000000 0.000000
# 5 0.000000 0.000000 0.000000 0.000000 0.044641 0.000000
# 6 0.000000 0.000000 0.000000 0.000000 0.000000 0.152247
#
#
# Mechanical properties :
#
#
# Convention : Reuss Voigt Hill
#
# Bulk Modulus (GPa) = 24.40303 46.86353 35.63328
# Shear Modulus (GPa) = 14.92707 50.10938 32.51822
#
# Velocity S-wave (km/s) = 2.78630 5.10505 4.11248
# Velocity P-wave (km/s) = 4.80032 7.68908 6.40957
#
# Compressibility (1/GPa) = 0.04097852
#
# Stress axis : x y z
#
# Youngs Moduli (GPa) = 103.29432 79.57908 17.42337
#
# Poissons Ratio (x) = 0.15254 0.09896
# Poissons Ratio (y) = 0.19800 0.20446
# Poissons Ratio (z) = 0.58667 0.93386
#
# Static dielectric constant tensor:
#      x y z
#    x 1.643990 0.000000 0.000000 
#    y 0.000000 1.671880 0.000000 
#    z 0.000000 0.000000 1.649870 
# 
# From -- ./inp_files/6831.got.cif
#   From: 2010.05.17/outbox.cif.g08.bks.cpg/sg58_4_cif.got.tgz:6831.got - 2010.06.03 14:20:14.
