data_PCOD9443913
_publ_section_title
;
Structure prediction by ZEFSAII (Michael W. Deem and Ramdas Pophale) SiO2 
 PCOD9443913
Probable space group: P N N M
;
_chemical_formula_sum "Si O2"
_cell_formula_units_Z 40
_cell_length_a 7.435389
_cell_length_b 13.410327
_cell_length_c 17.266129
_cell_angle_alpha 90.000000
_cell_angle_beta 90.000000
_cell_angle_gamma 90.000000
_cell_volume 1721.622952
_symmetry_space_group_name_H-M "P N N M"
_symmetry_group_IT_number 58
_symmetry_cell_setting 'orthorhombic'
loop_
_space_group_symop_operation_xyz
x,y,z
-x,-y,z
1/2+x,1/2-y,1/2-z
1/2-x,1/2+y,1/2-z
-x,-y,-z
x,y,-z
1/2-x,1/2+y,1/2+z
1/2+x,1/2-y,1/2+z
loop_
_atom_site_type_symbol
_atom_site_label
_atom_site_fract_x
_atom_site_fract_y
_atom_site_fract_z
Si Si1 0.891909 0.862023 0.086771
Si Si2 0.334518 0.343048 0.910051
Si Si3 0.663567 0.362090 0.204686
Si Si4 0.430776 0.846246 0.715538
Si Si5 0.222282 0.963806 0.829245
O O1 0.757712 0.767301 0.092828
O O2 0.766264 0.958003 0.101501
O O3 0.070056 0.885985 0.139733
O O4 0.963837 0.858550 0.000000
O O5 0.195823 0.393714 0.850364
O O6 0.118539 0.234243 0.757906
O O7 0.340570 0.373856 0.000000
O O8 0.666721 0.460771 0.258433
O O9 0.524794 0.357004 0.133529
O O10 0.870502 0.348898 0.183021
O O11 0.391012 0.905827 0.794690
#
# Coordination Sequence:
#
# PCOD9443913 Si02
#       5
#     8   8   8   8   8
#     4  10  20  38  69 107 147 182 220 284 366 433
#     4  11  24  44  67 101 141 183 231 288 354 419
#     4  12  24  43  69 100 137 184 237 288 344 412
#     4  12  23  42  71  96 135 184 238 288 344 414
#     4  11  21  39  69 105 137 181 238 282 344 414
#
# _framework density 23.233892000000001
#
# number of rings (size 3 to 8) (size 9 to 14) (size 15 to 20)
#    0.000    0.800    4.000    5.400    0.000    0.800 
#    0.000    4.000    0.000    9.600    0.000    0.000 
#    0.000    0.000    0.000    0.000    0.000    0.000 
#
# Total GULP energy -222763.305971 kJ/mol
# GULP energy per Si atom -5569.082649 kJ/mol
# Density = 2.318101 g / cm^3
# Si number density = 23.233892 Si / 1000 Ang^3
#
#
#
# Elastic Constant Matrix: (Units=GPa)
#
#
# Indices 1 2 3 4 5 6 
#
# 1 162.7601 7.1870 61.2847 0.0000 0.0000 0.0000
# 2 7.1870 79.4211 8.2110 0.0000 0.0000 0.0000
# 3 61.2847 8.2110 121.5481 0.0000 0.0000 0.0000
# 4 0.0000 0.0000 0.0000 27.5420 0.0000 0.0000
# 5 0.0000 0.0000 0.0000 0.0000 20.1489 0.0000
# 6 0.0000 0.0000 0.0000 0.0000 0.0000 28.2937
#
#
#
# Elastic Compliance Matrix: (Units=1/GPa)
#
#
# Indices 1 2 3 4 5 6 
#
# 1 0.007591 -0.000293 -0.003807 0.000000 0.000000 0.000000
# 2 -0.000293 0.012691 -0.000709 0.000000 0.000000 0.000000
# 3 -0.003807 -0.000709 0.010195 0.000000 0.000000 0.000000
# 4 0.000000 0.000000 0.000000 0.036308 0.000000 0.000000
# 5 0.000000 0.000000 0.000000 0.000000 0.049631 0.000000
# 6 0.000000 0.000000 0.000000 0.000000 0.000000 0.035344
#
#
# Mechanical properties :
#
#
# Convention : Reuss Voigt Hill
#
# Bulk Modulus (GPa) = 47.94739 57.45497 52.70118
# Shear Modulus (GPa) = 29.70341 34.33336 32.01838
#
# Velocity S-wave (km/s) = 3.57942 3.84829 3.71629
# Velocity P-wave (km/s) = 6.14530 6.67296 6.41456
#
# Compressibility (1/GPa) = 0.02085619
#
# Stress axis : x y z
#
# Youngs Moduli (GPa) = 131.74264 78.79601 98.08929
#
# Poissons Ratio (x) = 0.02311 0.37346
# Poissons Ratio (y) = 0.03863 0.06959
# Poissons Ratio (z) = 0.50159 0.05590
#
# Static dielectric constant tensor:
#      x y z
#    x 1.937220 0.000000 0.000000 
#    y 0.000000 1.986980 0.000000 
#    z 0.000000 0.000000 1.981230 
# 
# From -- ./inp_files/19498.got.cif
#   From: 2010.05.17/outbox.cif.g08.bks.cpg/sg58_10_cif.got.tgz:19498.got - 2010.06.03 14:20:14.
