data_PCOD9443610
_publ_section_title
;
Structure prediction by ZEFSAII (Michael W. Deem and Ramdas Pophale) SiO2 
 PCOD9443610
Probable space group: P N N M
;
_chemical_formula_sum "Si O2"
_cell_formula_units_Z 24
_cell_length_a 17.496746
_cell_length_b 5.280704
_cell_length_c 12.091919
_cell_angle_alpha 90.000000
_cell_angle_beta 90.000000
_cell_angle_gamma 90.000000
_cell_volume 1117.234508
_symmetry_space_group_name_H-M "P N N M"
_symmetry_group_IT_number 58
_symmetry_cell_setting 'orthorhombic'
loop_
_space_group_symop_operation_xyz
x,y,z
-x,-y,z
1/2+x,1/2-y,1/2-z
1/2-x,1/2+y,1/2-z
-x,-y,-z
x,y,-z
1/2-x,1/2+y,1/2+z
1/2+x,1/2-y,1/2+z
loop_
_atom_site_type_symbol
_atom_site_label
_atom_site_fract_x
_atom_site_fract_y
_atom_site_fract_z
Si Si1 0.087696 0.468702 0.832254
Si Si2 0.658751 0.833207 0.874608
Si Si3 0.675316 0.538819 0.665747
O O1 0.098298 0.511453 0.699474
O O2 0.122598 0.199177 0.862437
O O3 0.000000 0.500000 0.863150
O O4 0.139501 0.699333 0.876493
O O5 0.674309 0.584494 0.799131
O O6 0.739098 0.982500 0.870697
O O7 0.636557 0.783577 0.000000
#
# Coordination Sequence:
#
# PCOD9443610 Si02
#       3
#     8   8   8
#     4  10  20  37  58  82 119 149 183 234 290 336
#     4  10  21  37  62  85 114 150 192 236 281 335
#     4  10  20  39  53  88 111 150 195 225 281 337
#
# _framework density 21.481611000000001
#
# number of rings (size 3 to 8) (size 9 to 14) (size 15 to 20)
#    2.000    0.000    3.333    1.000    0.000    2.000 
#    0.000    1.667    0.000    6.000    0.000    0.000 
#    0.000    0.000    0.000    0.000    0.000    0.000 
#
# Total GULP energy -133797.805430 kJ/mol
# GULP energy per Si atom -5574.908560 kJ/mol
# Density = 2.143272 g / cm^3
# Si number density = 21.481611 Si / 1000 Ang^3
#
#
#
# Elastic Constant Matrix: (Units=GPa)
#
#
# Indices 1 2 3 4 5 6 
#
# 1 93.0547 26.8717 -15.2749 0.0000 0.0000 0.0000
# 2 26.8717 135.0719 1.3470 0.0000 0.0000 0.0000
# 3 -15.2749 1.3470 136.5570 0.0000 0.0000 0.0000
# 4 0.0000 0.0000 0.0000 16.6900 0.0000 0.0000
# 5 0.0000 0.0000 0.0000 0.0000 3.0544 0.0000
# 6 0.0000 0.0000 0.0000 0.0000 0.0000 25.2443
#
#
#
# Elastic Compliance Matrix: (Units=1/GPa)
#
#
# Indices 1 2 3 4 5 6 
#
# 1 0.011636 -0.002328 0.001325 0.000000 0.000000 0.000000
# 2 -0.002328 0.007870 -0.000338 0.000000 0.000000 0.000000
# 3 0.001325 -0.000338 0.007474 0.000000 0.000000 0.000000
# 4 0.000000 0.000000 0.000000 0.059916 0.000000 0.000000
# 5 0.000000 0.000000 0.000000 0.000000 0.327394 0.000000
# 6 0.000000 0.000000 0.000000 0.000000 0.000000 0.039613
#
#
# Mechanical properties :
#
#
# Convention : Reuss Voigt Hill
#
# Bulk Modulus (GPa) = 41.15688 43.39679 42.27683
# Shear Modulus (GPa) = 10.75994 32.44705 21.60350
#
# Velocity S-wave (km/s) = 2.24049 3.89068 3.17468
# Velocity P-wave (km/s) = 5.08859 6.35837 5.75858
#
# Compressibility (1/GPa) = 0.02429728
#
# Stress axis : x y z
#
# Youngs Moduli (GPa) = 85.93948 127.06477 133.78917
#
# Poissons Ratio (x) = 0.29582 -0.17721
# Poissons Ratio (y) = 0.20008 0.04523
# Poissons Ratio (z) = -0.11383 0.04295
#
# Static dielectric constant tensor:
#      x y z
#    x 1.712290 0.000000 0.000000 
#    y 0.000000 1.764550 0.000000 
#    z 0.000000 0.000000 1.899000 
# 
# From -- ./inp_files/11359.got.cif
#   From: 2010.05.17/outbox.cif.g08.bks.cpg/sg58_6_cif.got.tgz:11359.got - 2010.06.03 14:20:14.
