data_PCOD9443727
_publ_section_title
;
Structure prediction by ZEFSAII (Michael W. Deem and Ramdas Pophale) SiO2 
 PCOD9443727
Probable space group: P N N M
;
_chemical_formula_sum "Si O2"
_cell_formula_units_Z 28
_cell_length_a 8.177258
_cell_length_b 18.387350
_cell_length_c 7.440228
_cell_angle_alpha 90.000000
_cell_angle_beta 90.000000
_cell_angle_gamma 90.000000
_cell_volume 1118.698582
_symmetry_space_group_name_H-M "P N N M"
_symmetry_group_IT_number 58
_symmetry_cell_setting 'orthorhombic'
loop_
_space_group_symop_operation_xyz
x,y,z
-x,-y,z
1/2+x,1/2-y,1/2-z
1/2-x,1/2+y,1/2-z
-x,-y,-z
x,y,-z
1/2-x,1/2+y,1/2+z
1/2+x,1/2-y,1/2+z
loop_
_atom_site_type_symbol
_atom_site_label
_atom_site_fract_x
_atom_site_fract_y
_atom_site_fract_z
Si Si1 0.000000 0.500000 0.248995
Si Si2 0.526995 0.692139 0.216884
Si Si3 0.101390 0.346997 0.711004
Si Si4 0.656431 0.449349 0.217953
O O1 0.953107 0.581377 0.184790
O O2 0.817158 0.479229 0.312423
O O3 0.705189 0.666570 0.276252
O O4 0.484714 0.773341 0.276479
O O5 0.392578 0.632369 0.270654
O O6 0.526546 0.692590 0.000000
O O7 0.060703 0.359453 0.500000
O O8 0.500000 0.500000 0.253331
O O9 0.685984 0.452504 0.000000
#
# Coordination Sequence:
#
# PCOD9443727 Si02
#       4
#     4   8   8   8
#     4  12  22  38  64  92 131 172 199 256 323 378
#     4  10  22  42  64  89 125 164 213 264 305 369
#     4  11  24  41  62  92 129 165 208 259 316 380
#     4  10  20  37  62  94 124 159 213 262 301 363
#
# _framework density 25.029084999999998
#
# number of rings (size 3 to 8) (size 9 to 14) (size 15 to 20)
#    0.000    1.429    2.857    2.571    0.000    2.286 
#    0.000    4.286    0.000    0.000    0.000    0.000 
#    0.000    0.000    0.000    0.000    0.000    0.000 
#
# Total GULP energy -156325.912924 kJ/mol
# GULP energy per Si atom -5583.068319 kJ/mol
# Density = 2.497212 g / cm^3
# Si number density = 25.029085 Si / 1000 Ang^3
#
#
#
# Elastic Constant Matrix: (Units=GPa)
#
#
# Indices 1 2 3 4 5 6 
#
# 1 202.7424 90.6572 25.4759 0.0000 0.0000 0.0000
# 2 90.6572 266.3537 44.4267 0.0000 0.0000 0.0000
# 3 25.4759 44.4267 110.6767 0.0000 0.0000 0.0000
# 4 0.0000 0.0000 0.0000 -37.2827 0.0000 0.0000
# 5 0.0000 0.0000 0.0000 0.0000 -0.0692 0.0000
# 6 0.0000 0.0000 0.0000 0.0000 0.0000 68.4306
#
#
#
# Elastic Compliance Matrix: (Units=1/GPa)
#
#
# Indices 1 2 3 4 5 6 
#
# 1 0.005853 -0.001894 -0.000587 0.000000 0.000000 0.000000
# 2 -0.001894 0.004637 -0.001425 0.000000 0.000000 0.000000
# 3 -0.000587 -0.001425 0.009743 0.000000 0.000000 0.000000
# 4 0.000000 0.000000 0.000000 -0.026822 0.000000 0.000000
# 5 0.000000 0.000000 0.000000 0.000000-14.460012 0.000000
# 6 0.000000 0.000000 0.000000 0.000000 0.000000 0.014613
#
#
# Mechanical properties :
#
#
# Convention : Reuss Voigt Hill
#
# Bulk Modulus (GPa) = 80.51761 100.09916 90.30839
# Shear Modulus (GPa) = -0.34626 34.16328 16.90851
#
# Velocity S-wave (km/s) = -0.37235 3.69852 2.60196
# Velocity P-wave (km/s) = 5.66168 7.63667 6.72210
#
# Compressibility (1/GPa) = 0.01241964
#
# Stress axis : x y z
#
# Youngs Moduli (GPa) = 170.84760 215.66184 102.64277
#
# Poissons Ratio (x) = 0.40853 0.06024
# Poissons Ratio (y) = 0.32364 0.14629
# Poissons Ratio (z) = 0.10027 0.30737
#
# Static dielectric constant tensor:
#      x y z
#    x 1.881790 0.000000 0.000000 
#    y 0.000000 1.923650 0.000000 
#    z 0.000000 0.000000 2.083420 
# 
# From -- ./inp_files/1950.got.cif
#   From: 2010.05.17/outbox.cif.g08.bks.cpg/sg58_1_cif.got.tgz:1950.got - 2010.06.03 14:20:14.
