data_PCOD9443154
_publ_section_title
;
Structure prediction by ZEFSAII (Michael W. Deem and Ramdas Pophale) SiO2 
 PCOD9443154
Probable space group: P N N M
;
_chemical_formula_sum "Si O2"
_cell_formula_units_Z 58
_cell_length_a 22.584802
_cell_length_b 8.106464
_cell_length_c 15.238850
_cell_angle_alpha 90.000000
_cell_angle_beta 90.000000
_cell_angle_gamma 90.000000
_cell_volume 2789.972612
_symmetry_space_group_name_H-M "P N N M"
_symmetry_group_IT_number 58
_symmetry_cell_setting 'orthorhombic'
loop_
_space_group_symop_operation_xyz
x,y,z
-x,-y,z
1/2+x,1/2-y,1/2-z
1/2-x,1/2+y,1/2-z
-x,-y,-z
x,y,-z
1/2-x,1/2+y,1/2+z
1/2+x,1/2-y,1/2+z
loop_
_atom_site_type_symbol
_atom_site_label
_atom_site_fract_x
_atom_site_fract_y
_atom_site_fract_z
Si Si1 0.079226 0.191813 0.235757
Si Si2 0.354542 0.805312 0.100429
Si Si3 0.966814 0.344182 0.817858
Si Si4 0.328869 0.815894 0.600684
Si Si5 0.710617 0.547161 0.100423
Si Si6 0.144215 0.837581 0.237447
Si Si7 0.736302 0.537793 0.398183
Si Si8 0.000000 0.500000 0.000000
O O1 0.094346 0.273683 0.329401
O O2 0.011348 0.197594 0.208217
O O3 0.115633 0.297450 0.163399
O O4 0.107186 0.009706 0.233024
O O5 0.316526 0.634974 0.103413
O O6 0.305457 0.942316 0.124802
O O7 0.374512 0.830813 0.000000
O O8 0.000000 0.500000 0.774321
O O9 0.901723 0.305300 0.784415
O O10 0.970309 0.384598 0.921140
O O11 0.349167 0.837483 0.500000
O O12 0.279997 0.951411 0.624446
O O13 0.290803 0.645929 0.606987
O O14 0.674326 0.659094 0.167519
O O15 0.707044 0.607444 0.000000
O O16 0.196250 0.854560 0.166348
O O17 0.730884 0.591063 0.500000
#
# Coordination Sequence:
#
# PCOD9443154 Si02
#       8
#     8   8   8   8   8   8   8   2
#     4  10  20  35  55  77 105 140 181 216 257 311
#     4   9  18  33  52  78 108 140 175 217 260 305
#     4  10  23  39  56  76 104 133 172 216 263 312
#     4   9  18  30  48  76 107 137 174 216 263 313
#     4   9  18  33  52  78 108 140 175 217 260 305
#     4  10  20  35  55  77 105 140 181 216 257 311
#     4   9  18  30  48  76 107 137 174 216 263 313
#     4   8  24  44  54  76 110 128 174 216 268 310
#
# _framework density 20.788734999999999
#
# number of rings (size 3 to 8) (size 9 to 14) (size 15 to 20)
#    0.414    2.207    0.000    1.241    1.931    2.207 
#    0.000    1.379    0.000    4.138    0.000    0.000 
#    0.000    0.000    0.000    0.000    0.000    0.000 
#
# Total GULP energy -323182.598282 kJ/mol
# GULP energy per Si atom -5572.113763 kJ/mol
# Density = 2.074142 g / cm^3
# Si number density = 20.788735 Si / 1000 Ang^3
#
#
#
# Elastic Constant Matrix: (Units=GPa)
#
#
# Indices 1 2 3 4 5 6 
#
# 1 51.6781 6.8875 33.1724 0.0000 0.0000 0.0000
# 2 6.8875 45.8946 16.9641 0.0000 0.0000 0.0000
# 3 33.1724 16.9641 65.0881 0.0000 0.0000 0.0000
# 4 0.0000 0.0000 0.0000 13.6230 0.0000 0.0000
# 5 0.0000 0.0000 0.0000 0.0000 3.5661 0.0000
# 6 0.0000 0.0000 0.0000 0.0000 0.0000 35.1402
#
#
#
# Elastic Compliance Matrix: (Units=1/GPa)
#
#
# Indices 1 2 3 4 5 6 
#
# 1 0.028821 0.001222 -0.015007 0.000000 0.000000 0.000000
# 2 0.001222 0.024164 -0.006921 0.000000 0.000000 0.000000
# 3 -0.015007 -0.006921 0.024816 0.000000 0.000000 0.000000
# 4 0.000000 0.000000 0.000000 0.073406 0.000000 0.000000
# 5 0.000000 0.000000 0.000000 0.000000 0.280420 0.000000
# 6 0.000000 0.000000 0.000000 0.000000 0.000000 0.028457
#
#
# Mechanical properties :
#
#
# Convention : Reuss Voigt Hill
#
# Bulk Modulus (GPa) = 27.48093 30.74543 29.11318
# Shear Modulus (GPa) = 9.73474 17.50830 13.62152
#
# Velocity S-wave (km/s) = 2.16630 2.90522 2.56253
# Velocity P-wave (km/s) = 4.41645 5.10640 4.77390
#
# Compressibility (1/GPa) = 0.03638887
#
# Stress axis : x y z
#
# Youngs Moduli (GPa) = 34.69714 41.38430 40.29664
#
# Poissons Ratio (x) = -0.05057 0.60474
# Poissons Ratio (y) = -0.04240 0.27888
# Poissons Ratio (z) = 0.52070 0.28640
#
# Static dielectric constant tensor:
#      x y z
#    x 1.745650 0.000000 0.000000 
#    y 0.000000 1.836190 0.000000 
#    z 0.000000 0.000000 1.720920 
# 
# From -- ./inp_files/6674.got.cif
#   From: 2010.05.17/outbox.cif.g08.bks.cpg/sg58_4_cif.got.tgz:6674.got - 2010.06.03 14:20:14.
