data_PCOD9443426
_publ_section_title
;
Structure prediction by ZEFSAII (Michael W. Deem and Ramdas Pophale) SiO2 
 PCOD9443426
Probable space group: P N N M
;
_chemical_formula_sum "Si O2"
_cell_formula_units_Z 64
_cell_length_a 30.931684
_cell_length_b 12.464635
_cell_length_c 7.513714
_cell_angle_alpha 90.000000
_cell_angle_beta 90.000000
_cell_angle_gamma 90.000000
_cell_volume 2896.928595
_symmetry_space_group_name_H-M "P N N M"
_symmetry_group_IT_number 58
_symmetry_cell_setting 'orthorhombic'
loop_
_space_group_symop_operation_xyz
x,y,z
-x,-y,z
1/2+x,1/2-y,1/2-z
1/2-x,1/2+y,1/2-z
-x,-y,-z
x,y,-z
1/2-x,1/2+y,1/2+z
1/2+x,1/2-y,1/2+z
loop_
_atom_site_type_symbol
_atom_site_label
_atom_site_fract_x
_atom_site_fract_y
_atom_site_fract_z
Si Si1 0.041247 0.561869 0.288649
Si Si2 0.689789 0.495094 0.290048
Si Si3 0.950401 0.994066 0.714793
Si Si4 0.580939 0.725762 0.216158
Si Si5 0.288640 0.051505 0.716049
Si Si6 0.677028 0.729373 0.705811
Si Si7 0.873540 0.578125 0.215087
Si Si8 0.121684 0.177388 0.210789
O O1 0.034359 0.572303 0.500000
O O2 0.047405 0.683584 0.223075
O O3 0.085140 0.494096 0.264330
O O4 0.000000 0.500000 0.212626
O O5 0.678826 0.499205 0.500000
O O6 0.740800 0.481142 0.270195
O O7 0.679353 0.611790 0.210939
O O8 0.660367 0.398491 0.216463
O O9 0.950997 0.995196 0.500000
O O10 0.922395 0.890481 0.766046
O O11 0.928188 0.104753 0.775918
O O12 0.000000 0.000000 0.775755
O O13 0.627260 0.762489 0.285327
O O14 0.582007 0.725252 0.000000
O O15 0.290248 0.052610 0.500000
O O16 0.296432 0.172459 0.783582
O O17 0.328266 0.975598 0.775324
O O18 0.690847 0.718888 0.500000
O O19 0.878772 0.700898 0.280906
O O20 0.872394 0.579358 0.000000
O O21 0.128983 0.189170 0.000000
#
# Coordination Sequence:
#
# PCOD9443426 Si02
#       8
#     8   8   8   8   8   8   8   8
#     4  10  22  38  59  86 116 150 189 234 284 336
#     4  10  22  38  58  83 112 146 187 232 281 334
#     4  10  22  38  59  86 116 150 189 234 284 336
#     4  10  20  36  58  85 112 145 191 236 281 335
#     4  10  22  38  58  83 112 146 187 232 281 334
#     4  10  20  38  60  81 108 147 191 234 279 335
#     4  10  22  40  59  83 116 152 190 232 281 338
#     4  10  22  40  59  83 116 152 190 232 281 338
#
# _framework density 22.092362000000001
#
# number of rings (size 3 to 8) (size 9 to 14) (size 15 to 20)
#    0.000    2.000    2.500    0.000    3.500    3.000 
#    0.000    0.000    0.000    0.000    0.000    0.000 
#    0.000    0.000    0.000    0.000    0.000    0.000 
#
# Total GULP energy -357387.136286 kJ/mol
# GULP energy per Si atom -5584.174004 kJ/mol
# Density = 2.204208 g / cm^3
# Si number density = 22.092362 Si / 1000 Ang^3
#
#
#
# Elastic Constant Matrix: (Units=GPa)
#
#
# Indices 1 2 3 4 5 6 
#
# 1 67.7189 -3.3160 -24.1418 0.0000 0.0000 0.0000
# 2 -3.3160 107.1861 -4.0298 0.0000 0.0000 0.0000
# 3 -24.1418 -4.0298 55.3436 0.0000 0.0000 0.0000
# 4 0.0000 0.0000 0.0000 24.3769 0.0000 0.0000
# 5 0.0000 0.0000 0.0000 0.0000 15.1682 0.0000
# 6 0.0000 0.0000 0.0000 0.0000 0.0000 36.9543
#
#
#
# Elastic Compliance Matrix: (Units=1/GPa)
#
#
# Indices 1 2 3 4 5 6 
#
# 1 0.017560 0.000834 0.007721 0.000000 0.000000 0.000000
# 2 0.000834 0.009395 0.001048 0.000000 0.000000 0.000000
# 3 0.007721 0.001048 0.021513 0.000000 0.000000 0.000000
# 4 0.000000 0.000000 0.000000 0.041022 0.000000 0.000000
# 5 0.000000 0.000000 0.000000 0.000000 0.065927 0.000000
# 6 0.000000 0.000000 0.000000 0.000000 0.000000 0.027060
#
#
# Mechanical properties :
#
#
# Convention : Reuss Voigt Hill
#
# Bulk Modulus (GPa) = 14.77716 18.58591 16.68154
# Shear Modulus (GPa) = 26.90606 32.74896 29.82751
#
# Velocity S-wave (km/s) = 3.49361 3.85433 3.67839
# Velocity P-wave (km/s) = 4.79344 5.31403 5.06043
#
# Compressibility (1/GPa) = 0.06767200
#
# Stress axis : x y z
#
# Youngs Moduli (GPa) = 56.94696 106.44246 46.48323
#
# Poissons Ratio (x) = -0.08872 -0.35889
# Poissons Ratio (y) = -0.04747 -0.04870
# Poissons Ratio (z) = -0.43967 -0.11152
#
# Static dielectric constant tensor:
#      x y z
#    x 1.804300 0.000000 0.000000 
#    y 0.000000 1.829470 0.000000 
#    z 0.000000 0.000000 1.833800 
# 
# From -- ./inp_files/4752.got.cif
#   From: 2010.05.17/outbox.cif.g08.bks.cpg/sg58_3_cif.got.tgz:4752.got - 2010.06.03 14:20:14.
