data_PCOD9443786
_publ_section_title
;
Structure prediction by ZEFSAII (Michael W. Deem and Ramdas Pophale) SiO2 
 PCOD9443786
Probable space group: P N N M
;
_chemical_formula_sum "Si O2"
_cell_formula_units_Z 56
_cell_length_a 17.359528
_cell_length_b 19.320490
_cell_length_c 7.807525
_cell_angle_alpha 90.000000
_cell_angle_beta 90.000000
_cell_angle_gamma 90.000000
_cell_volume 2618.601624
_symmetry_space_group_name_H-M "P N N M"
_symmetry_group_IT_number 58
_symmetry_cell_setting 'orthorhombic'
loop_
_space_group_symop_operation_xyz
x,y,z
-x,-y,z
1/2+x,1/2-y,1/2-z
1/2-x,1/2+y,1/2-z
-x,-y,-z
x,y,-z
1/2-x,1/2+y,1/2+z
1/2+x,1/2-y,1/2+z
loop_
_atom_site_type_symbol
_atom_site_label
_atom_site_fract_x
_atom_site_fract_y
_atom_site_fract_z
Si Si1 0.247868 0.288853 0.297509
Si Si2 0.828904 0.428673 0.802193
Si Si3 0.577637 0.708356 0.708968
Si Si4 0.485000 0.146766 0.292227
Si Si5 0.677264 0.354623 0.697123
Si Si6 0.647842 0.083866 0.798376
Si Si7 0.019938 0.077267 0.209790
O O1 0.255688 0.300575 0.500000
O O2 0.334780 0.281046 0.229756
O O3 0.199390 0.219052 0.275685
O O4 0.203086 0.355567 0.228377
O O5 0.907136 0.392719 0.738117
O O6 0.752737 0.402328 0.709306
O O7 0.839073 0.510611 0.790016
O O8 0.819694 0.406741 0.000000
O O9 0.578294 0.709887 0.500000
O O10 0.524953 0.773324 0.760910
O O11 0.542479 0.634972 0.760775
O O12 0.489148 0.143528 0.500000
O O13 0.560845 0.110544 0.222662
O O14 0.659164 0.339517 0.500000
O O15 0.603169 0.394705 0.768481
O O16 0.663233 0.073349 0.000000
O O17 0.020815 0.074921 0.000000
O O18 0.000000 0.000000 0.268635
#
# Coordination Sequence:
#
# PCOD9443786 Si02
#       7
#     8   8   8   8   8   8   8
#     4  10  21  39  61  85 118 161 198 236 293 359
#     4  11  23  40  61  85 118 161 200 237 293 365
#     4   9  17  34  58  81 111 155 202 235 273 349
#     4  10  20  38  61  82 111 158 203 235 287 361
#     4  11  22  37  61  91 120 151 198 254 299 344
#     4  11  24  37  58  91 122 150 191 249 303 348
#     4   9  19  33  56  88 118 152 195 244 293 348
#
# _framework density 21.385459000000001
#
# number of rings (size 3 to 8) (size 9 to 14) (size 15 to 20)
#    0.000    1.857    1.429    2.571    2.000    5.143 
#    0.000    0.000    0.000    2.571    0.000    0.000 
#    0.000    0.000    0.000    0.000    0.000    0.000 
#
# Total GULP energy -312984.569713 kJ/mol
# GULP energy per Si atom -5589.010173 kJ/mol
# Density = 2.133678 g / cm^3
# Si number density = 21.385459 Si / 1000 Ang^3
#
#
#
# Elastic Constant Matrix: (Units=GPa)
#
#
# Indices 1 2 3 4 5 6 
#
# 1 35.2066 11.7952 -9.3562 0.0000 0.0000 0.0000
# 2 11.7952 140.5787 -12.4156 0.0000 0.0000 0.0000
# 3 -9.3562 -12.4156 25.8530 0.0000 0.0000 0.0000
# 4 0.0000 0.0000 0.0000 20.1823 0.0000 0.0000
# 5 0.0000 0.0000 0.0000 0.0000 17.9165 0.0000
# 6 0.0000 0.0000 0.0000 0.0000 0.0000 19.7011
#
#
#
# Elastic Compliance Matrix: (Units=1/GPa)
#
#
# Indices 1 2 3 4 5 6 
#
# 1 0.031822 -0.001726 0.010688 0.000000 0.000000 0.000000
# 2 -0.001726 0.007522 0.002988 0.000000 0.000000 0.000000
# 3 0.010688 0.002988 0.043983 0.000000 0.000000 0.000000
# 4 0.000000 0.000000 0.000000 0.049548 0.000000 0.000000
# 5 0.000000 0.000000 0.000000 0.000000 0.055815 0.000000
# 6 0.000000 0.000000 0.000000 0.000000 0.000000 0.050758
#
#
# Mechanical properties :
#
#
# Convention : Reuss Voigt Hill
#
# Bulk Modulus (GPa) = 9.32614 20.18723 14.75669
# Shear Modulus (GPa) = 19.89716 25.66765 22.78240
#
# Velocity S-wave (km/s) = 3.05356 3.46820 3.26747
# Velocity P-wave (km/s) = 4.09912 5.04957 4.59896
#
# Compressibility (1/GPa) = 0.10722550
#
# Stress axis : x y z
#
# Youngs Moduli (GPa) = 31.42448 132.94065 22.73615
#
# Poissons Ratio (x) = 0.22947 -0.24299
# Poissons Ratio (y) = 0.05424 -0.06793
# Poissons Ratio (z) = -0.33585 -0.39719
#
# Static dielectric constant tensor:
#      x y z
#    x 1.755720 0.000000 0.000000 
#    y 0.000000 1.734890 0.000000 
#    z 0.000000 0.000000 1.809130 
# 
# From -- ./inp_files/6429.got.cif
#   From: 2010.05.17/outbox.cif.g08.bks.cpg/sg58_4_cif.got.tgz:6429.got - 2010.06.03 14:20:14.
