data_PCOD9443215
_publ_section_title
;
Structure prediction by ZEFSAII (Michael W. Deem and Ramdas Pophale) SiO2 
 PCOD9443215
Probable space group: P N N M
;
_chemical_formula_sum "Si O2"
_cell_formula_units_Z 40
_cell_length_a 7.523686
_cell_length_b 27.461821
_cell_length_c 7.411988
_cell_angle_alpha 90.000000
_cell_angle_beta 90.000000
_cell_angle_gamma 90.000000
_cell_volume 1531.421365
_symmetry_space_group_name_H-M "P N N M"
_symmetry_group_IT_number 58
_symmetry_cell_setting 'orthorhombic'
loop_
_space_group_symop_operation_xyz
x,y,z
-x,-y,z
1/2+x,1/2-y,1/2-z
1/2-x,1/2+y,1/2-z
-x,-y,-z
x,y,-z
1/2-x,1/2+y,1/2+z
1/2+x,1/2-y,1/2+z
loop_
_atom_site_type_symbol
_atom_site_label
_atom_site_fract_x
_atom_site_fract_y
_atom_site_fract_z
Si Si1 0.539514 0.291005 0.210005
Si Si2 0.154739 0.967654 0.205205
Si Si3 0.497474 0.918995 0.782723
Si Si4 0.865644 0.685702 0.717716
Si Si5 0.379562 0.608040 0.786824
O O1 0.339252 0.309240 0.229589
O O2 0.551304 0.236618 0.285964
O O3 0.652322 0.336756 0.283532
O O4 0.588516 0.286012 0.000000
O O5 0.052246 0.915850 0.198883
O O6 0.348505 0.956891 0.283932
O O7 0.179346 0.986165 0.000000
O O8 0.000000 0.000000 0.294563
O O9 0.445922 0.864945 0.715209
O O10 0.704612 0.924579 0.740871
O O11 0.480738 0.920110 0.000000
O O12 0.880840 0.683984 0.500000
O O13 0.413816 0.611047 0.000000
#
# Coordination Sequence:
#
# PCOD9443215 Si02
#       5
#     8   8   8   8   8
#     4  10  21  35  53  83 119 154 193 239 291 346
#     4  10  22  42  66  89 115 153 203 254 298 345
#     4  10  21  38  61  87 116 154 199 246 293 347
#     4  10  20  35  56  83 115 155 201 241 286 346
#     4  11  23  38  59  88 123 158 192 240 302 360
#
# _framework density 26.119524999999999
#
# number of rings (size 3 to 8) (size 9 to 14) (size 15 to 20)
#    0.000    1.800    2.000    1.800    0.000    4.400 
#    0.000    4.000    0.000    0.000    0.000    0.000 
#    0.000    0.000    0.000    0.000    0.000    0.000 
#
# Total GULP energy -223696.383990 kJ/mol
# GULP energy per Si atom -5592.409600 kJ/mol
# Density = 2.606008 g / cm^3
# Si number density = 26.119525 Si / 1000 Ang^3
#
#
#
# Elastic Constant Matrix: (Units=GPa)
#
#
# Indices 1 2 3 4 5 6 
#
# 1 134.1052 13.8710 -14.4328 0.0000 0.0000 0.0000
# 2 13.8710 93.3730 4.1142 0.0000 0.0000 0.0000
# 3 -14.4328 4.1142 107.1615 0.0000 0.0000 0.0000
# 4 0.0000 0.0000 0.0000 11.6569 0.0000 0.0000
# 5 0.0000 0.0000 0.0000 0.0000 10.9606 0.0000
# 6 0.0000 0.0000 0.0000 0.0000 0.0000 54.1930
#
#
#
# Elastic Compliance Matrix: (Units=1/GPa)
#
#
# Indices 1 2 3 4 5 6 
#
# 1 0.007697 -0.001191 0.001082 0.000000 0.000000 0.000000
# 2 -0.001191 0.010912 -0.000579 0.000000 0.000000 0.000000
# 3 0.001082 -0.000579 0.009500 0.000000 0.000000 0.000000
# 4 0.000000 0.000000 0.000000 0.085786 0.000000 0.000000
# 5 0.000000 0.000000 0.000000 0.000000 0.091236 0.000000
# 6 0.000000 0.000000 0.000000 0.000000 0.000000 0.018453
#
#
# Mechanical properties :
#
#
# Convention : Reuss Voigt Hill
#
# Bulk Modulus (GPa) = 37.40801 37.97162 37.68982
# Shear Modulus (GPa) = 21.37943 37.43460 29.40702
#
# Velocity S-wave (km/s) = 2.86409 3.78987 3.35903
# Velocity P-wave (km/s) = 5.02894 5.80690 5.43187
#
# Compressibility (1/GPa) = 0.02673224
#
# Stress axis : x y z
#
# Youngs Moduli (GPa) = 129.92909 91.64057 105.26627
#
# Poissons Ratio (x) = 0.10915 -0.11393
# Poissons Ratio (y) = 0.15475 0.06099
# Poissons Ratio (z) = -0.14062 0.05309
#
# Static dielectric constant tensor:
#      x y z
#    x 1.997190 0.000000 0.000000 
#    y 0.000000 2.172220 0.000000 
#    z 0.000000 0.000000 1.995280 
# 
# From -- ./inp_files/2610.got.cif
#   From: 2010.05.17/outbox.cif.g08.bks.cpg/sg58_2_cif.got.tgz:2610.got - 2010.06.03 14:20:14.
