data_PCOD9443332
_publ_section_title
;
Structure prediction by ZEFSAII (Michael W. Deem and Ramdas Pophale) SiO2 
 PCOD9443332
Probable space group: P N N M
;
_chemical_formula_sum "Si O2"
_cell_formula_units_Z 48
_cell_length_a 7.357071
_cell_length_b 7.975880
_cell_length_c 32.576303
_cell_angle_alpha 90.000000
_cell_angle_beta 90.000000
_cell_angle_gamma 90.000000
_cell_volume 1911.548645
_symmetry_space_group_name_H-M "P N N M"
_symmetry_group_IT_number 58
_symmetry_cell_setting 'orthorhombic'
loop_
_space_group_symop_operation_xyz
x,y,z
-x,-y,z
1/2+x,1/2-y,1/2-z
1/2-x,1/2+y,1/2-z
-x,-y,-z
x,y,-z
1/2-x,1/2+y,1/2+z
1/2+x,1/2-y,1/2+z
loop_
_atom_site_type_symbol
_atom_site_label
_atom_site_fract_x
_atom_site_fract_y
_atom_site_fract_z
Si Si1 0.294704 0.022041 0.845870
Si Si2 0.809508 0.830340 0.927024
Si Si3 0.273937 0.312769 0.454111
Si Si4 0.378749 0.667730 0.273666
Si Si5 0.779227 0.486346 0.103475
Si Si6 0.304012 0.166052 0.686910
O O1 0.216156 0.839570 0.837707
O O2 0.500000 0.000000 0.860295
O O3 0.174140 0.114947 0.879482
O O4 0.288248 0.127411 0.803778
O O5 0.715622 0.650410 0.921505
O O6 0.005073 0.812710 0.948575
O O7 0.718164 0.993863 0.946950
O O8 0.226891 0.260034 0.500000
O O9 0.213794 0.178873 0.420276
O O10 0.500000 0.500000 0.275746
O O11 0.493819 0.819455 0.293146
O O12 0.320915 0.682308 0.226913
O O13 0.746496 0.468907 0.152409
O O14 0.000000 0.500000 0.101362
#
# Coordination Sequence:
#
# PCOD9443332 Si02
#       6
#     8   8   8   8   8   8
#     4  11  23  39  61  85 125 176 222 267 332 392
#     4  10  20  35  59  91 128 165 205 263 328 390
#     4  10  20  37  65  98 129 163 209 267 334 405
#     4  10  23  37  61  90 127 175 224 280 329 393
#     4  10  21  34  61  94 129 163 205 263 326 392
#     4  11  22  41  60  88 132 173 221 279 328 389
#
# _framework density 25.110527999999999
#
# number of rings (size 3 to 8) (size 9 to 14) (size 15 to 20)
#    0.000    1.667    1.667    4.000    4.667   11.000 
#    0.000    0.000    0.000    2.000    0.000    1.167 
#    0.000    0.000    0.000    0.000    0.000    0.000 
#
# Total GULP energy -268264.924791 kJ/mol
# GULP energy per Si atom -5588.852600 kJ/mol
# Density = 2.505338 g / cm^3
# Si number density = 25.110528 Si / 1000 Ang^3
#
#
#
# Elastic Constant Matrix: (Units=GPa)
#
#
# Indices 1 2 3 4 5 6 
#
# 1 73.4968 -3.3398 13.1430 0.0000 0.0000 0.0000
# 2 -3.3398 121.6085 40.0115 0.0000 0.0000 0.0000
# 3 13.1430 40.0115 166.7294 0.0000 0.0000 0.0000
# 4 0.0000 0.0000 0.0000 36.2996 0.0000 0.0000
# 5 0.0000 0.0000 0.0000 0.0000 74.8029 0.0000
# 6 0.0000 0.0000 0.0000 0.0000 0.0000 -2.3722
#
#
#
# Elastic Compliance Matrix: (Units=1/GPa)
#
#
# Indices 1 2 3 4 5 6 
#
# 1 0.013873 0.000804 -0.001287 0.000000 0.000000 0.000000
# 2 0.000804 0.008975 -0.002217 0.000000 0.000000 0.000000
# 3 -0.001287 -0.002217 0.006631 0.000000 0.000000 0.000000
# 4 0.000000 0.000000 0.000000 0.027549 0.000000 0.000000
# 5 0.000000 0.000000 0.000000 0.000000 0.013368 0.000000
# 6 0.000000 0.000000 0.000000 0.000000 0.000000 -0.421546
#
#
# Mechanical properties :
#
#
# Convention : Reuss Voigt Hill
#
# Bulk Modulus (GPa) = 41.52870 51.27381 46.40125
# Shear Modulus (GPa) = -14.80494 42.54737 13.87122
#
# Velocity S-wave (km/s) = -2.43078 4.12078 2.35288
# Velocity P-wave (km/s) = 2.94890 6.56541 5.08924
#
# Compressibility (1/GPa) = 0.02407973
#
# Stress axis : x y z
#
# Youngs Moduli (GPa) = 72.08428 111.42465 150.80165
#
# Poissons Ratio (x) = -0.08962 0.19402
# Poissons Ratio (y) = -0.05798 0.33435
# Poissons Ratio (z) = 0.09274 0.24704
#
# Static dielectric constant tensor:
#      x y z
#    x 2.080590 0.000000 0.000000 
#    y 0.000000 2.039950 0.000000 
#    z 0.000000 0.000000 1.951530 
# 
# From -- ./inp_files/34579.got.cif
#   From: 2010.05.17/outbox.cif.g08.bks.cpg/sg58_18_cif.got.tgz:34579.got - 2010.06.03 14:20:14.
