data_PCOD9443894
_publ_section_title
;
Structure prediction by ZEFSAII (Michael W. Deem and Ramdas Pophale) SiO2 
 PCOD9443894
Probable space group: P N N M
;
_chemical_formula_sum "Si O2"
_cell_formula_units_Z 40
_cell_length_a 12.735031
_cell_length_b 18.058050
_cell_length_c 7.622323
_cell_angle_alpha 90.000000
_cell_angle_beta 90.000000
_cell_angle_gamma 90.000000
_cell_volume 1752.904298
_symmetry_space_group_name_H-M "P N N M"
_symmetry_group_IT_number 58
_symmetry_cell_setting 'orthorhombic'
loop_
_space_group_symop_operation_xyz
x,y,z
-x,-y,z
1/2+x,1/2-y,1/2-z
1/2-x,1/2+y,1/2-z
-x,-y,-z
x,y,-z
1/2-x,1/2+y,1/2+z
1/2+x,1/2-y,1/2+z
loop_
_atom_site_type_symbol
_atom_site_label
_atom_site_fract_x
_atom_site_fract_y
_atom_site_fract_z
Si Si1 0.971800 0.918161 0.295232
Si Si2 0.963157 0.372537 0.700625
Si Si3 0.756392 0.452453 0.712574
Si Si4 0.883646 0.216363 0.201845
Si Si5 0.801064 0.617765 0.285167
O O1 0.000822 0.916898 0.500000
O O2 0.846656 0.910559 0.277422
O O3 0.035422 0.852056 0.207812
O O4 0.000000 0.000000 0.223503
O O5 0.973952 0.399608 0.500000
O O6 0.866225 0.418554 0.777327
O O7 0.928993 0.287170 0.701330
O O8 0.079288 0.378917 0.778426
O O9 0.755411 0.448369 0.500000
O O10 0.752211 0.538632 0.763921
O O11 0.774061 0.184125 0.273476
O O12 0.868574 0.239082 0.000000
O O13 0.801048 0.621043 0.500000
#
# Coordination Sequence:
#
# PCOD9443894 Si02
#       5
#     8   8   8   8   8
#     4  11  23  39  60  87 119 155 197 248 301 346
#     4  10  22  39  61  90 122 156 195 246 301 354
#     4  10  20  38  65  91 116 153 202 245 294 359
#     4  11  23  39  60  87 121 160 200 242 293 356
#     4   9  19  38  62  86 117 156 196 242 294 354
#
# _framework density 22.819272000000002
#
# number of rings (size 3 to 8) (size 9 to 14) (size 15 to 20)
#    0.000    1.800    2.000    1.800    2.800    4.000 
#    0.000    2.000    0.000    2.400    0.000    0.000 
#    0.000    0.000    0.000    0.000    0.000    0.000 
#
# Total GULP energy -223653.312505 kJ/mol
# GULP energy per Si atom -5591.332813 kJ/mol
# Density = 2.276733 g / cm^3
# Si number density = 22.819272 Si / 1000 Ang^3
#
#
#
# Elastic Constant Matrix: (Units=GPa)
#
#
# Indices 1 2 3 4 5 6 
#
# 1 129.7809 -2.5554 -8.2543 0.0000 0.0000 0.0000
# 2 -2.5554 49.4196 -6.8371 0.0000 0.0000 0.0000
# 3 -8.2543 -6.8371 55.9984 0.0000 0.0000 0.0000
# 4 0.0000 0.0000 0.0000 -72.4589 0.0000 0.0000
# 5 0.0000 0.0000 0.0000 0.0000 24.3271 0.0000
# 6 0.0000 0.0000 0.0000 0.0000 0.0000 18.1016
#
#
#
# Elastic Compliance Matrix: (Units=1/GPa)
#
#
# Indices 1 2 3 4 5 6 
#
# 1 0.007794 0.000572 0.001219 0.000000 0.000000 0.000000
# 2 0.000572 0.020624 0.002602 0.000000 0.000000 0.000000
# 3 0.001219 0.002602 0.018355 0.000000 0.000000 0.000000
# 4 0.000000 0.000000 0.000000 -0.013801 0.000000 0.000000
# 5 0.000000 0.000000 0.000000 0.000000 0.041106 0.000000
# 6 0.000000 0.000000 0.000000 0.000000 0.000000 0.055244
#
#
# Mechanical properties :
#
#
# Convention : Reuss Voigt Hill
#
# Bulk Modulus (GPa) = 17.99892 22.21169 20.10531
# Shear Modulus (GPa) = 35.95647 10.85034 23.40340
#
# Velocity S-wave (km/s) = 3.97382 2.18294 3.20597
# Velocity P-wave (km/s) = 5.38143 4.01354 4.74701
#
# Compressibility (1/GPa) = 0.05555889
#
# Stress axis : x y z
#
# Youngs Moduli (GPa) = 128.30283 48.48607 54.48099
#
# Poissons Ratio (x) = -0.02772 -0.06639
# Poissons Ratio (y) = -0.07334 -0.14178
# Poissons Ratio (z) = -0.15636 -0.12618
#
# Static dielectric constant tensor:
#      x y z
#    x 1.846340 0.000000 0.000000 
#    y 0.000000 1.801660 0.000000 
#    z 0.000000 0.000000 1.850320 
# 
# From -- ./inp_files/3801.got.cif
#   From: 2010.05.17/outbox.cif.g08.bks.cpg/sg58_2_cif.got.tgz:3801.got - 2010.06.03 14:20:14.
