data_PCOD9443437
_publ_section_title
;
Structure prediction by ZEFSAII (Michael W. Deem and Ramdas Pophale) SiO2 
 PCOD9443437
Probable space group: P N N M
;
_chemical_formula_sum "Si O2"
_cell_formula_units_Z 40
_cell_length_a 10.295741
_cell_length_b 27.293586
_cell_length_c 7.919989
_cell_angle_alpha 90.000000
_cell_angle_beta 90.000000
_cell_angle_gamma 90.000000
_cell_volume 2225.577833
_symmetry_space_group_name_H-M "P N N M"
_symmetry_group_IT_number 58
_symmetry_cell_setting 'orthorhombic'
loop_
_space_group_symop_operation_xyz
x,y,z
-x,-y,z
1/2+x,1/2-y,1/2-z
1/2-x,1/2+y,1/2-z
-x,-y,-z
x,y,-z
1/2-x,1/2+y,1/2+z
1/2+x,1/2-y,1/2+z
loop_
_atom_site_type_symbol
_atom_site_label
_atom_site_fract_x
_atom_site_fract_y
_atom_site_fract_z
Si Si1 0.526068 0.898954 0.691148
Si Si2 0.118039 0.538518 0.500000
Si Si3 0.005376 0.710617 0.298448
Si Si4 0.215266 0.904341 0.691907
Si Si5 0.207947 0.794172 0.798026
Si Si6 0.132003 0.970127 0.000000
O O1 0.559222 0.913701 0.500000
O O2 0.602382 0.928181 0.833858
O O3 0.544386 0.840720 0.713515
O O4 0.371576 0.908099 0.717671
O O5 0.249697 0.508324 0.500000
O O6 0.000000 0.500000 0.500000
O O7 0.008062 0.702983 0.500000
O O8 0.855347 0.721220 0.250146
O O9 0.102763 0.753902 0.251986
O O10 0.185931 0.919465 0.500000
O O11 0.182584 0.847009 0.715778
O O12 0.146874 0.936232 0.834600
O O13 0.205580 0.800713 0.000000
O O14 0.000000 0.000000 0.000000
#
# Coordination Sequence:
#
# PCOD9443437 Si02
#       6
#     8   4   8   8   8   4
#     4  10  20  37  64  93 119 152 202 257 304 352
#     4  12  22  40  68  90 118 156 208 256 296 352
#     4  10  20  36  58  87 124 158 197 246 298 358
#     4  10  20  39  65  88 119 161 203 244 303 369
#     4  10  20  36  60  88 121 159 199 245 297 360
#     4  12  26  44  62  90 124 162 206 252 310 362
#
# _framework density 17.972861999999999
#
# number of rings (size 3 to 8) (size 9 to 14) (size 15 to 20)
#    0.000    1.600    4.000    1.200    0.000    4.000 
#    3.600    0.000    0.000    0.000    0.000    0.000 
#    0.000    0.000    0.000    0.000    0.000    0.000 
#
# Total GULP energy -223442.321234 kJ/mol
# GULP energy per Si atom -5586.058031 kJ/mol
# Density = 1.793195 g / cm^3
# Si number density = 17.972862 Si / 1000 Ang^3
#
#
#
# Elastic Constant Matrix: (Units=GPa)
#
#
# Indices 1 2 3 4 5 6 
#
# 1 95.2852 72.8542 43.8251 0.0000 0.0000 0.0000
# 2 72.8542 106.2181 60.9476 0.0000 0.0000 0.0000
# 3 43.8251 60.9476 118.7747 0.0000 0.0000 0.0000
# 4 0.0000 0.0000 0.0000 32.2214 0.0000 0.0000
# 5 0.0000 0.0000 0.0000 0.0000 17.9160 0.0000
# 6 0.0000 0.0000 0.0000 0.0000 0.0000 39.3937
#
#
#
# Elastic Compliance Matrix: (Units=1/GPa)
#
#
# Indices 1 2 3 4 5 6 
#
# 1 0.022091 -0.014847 -0.000533 0.000000 0.000000 0.000000
# 2 -0.014847 0.023321 -0.006489 0.000000 0.000000 0.000000
# 3 -0.000533 -0.006489 0.011946 0.000000 0.000000 0.000000
# 4 0.000000 0.000000 0.000000 0.031035 0.000000 0.000000
# 5 0.000000 0.000000 0.000000 0.000000 0.055816 0.000000
# 6 0.000000 0.000000 0.000000 0.000000 0.000000 0.025385
#
#
# Mechanical properties :
#
#
# Convention : Reuss Voigt Hill
#
# Bulk Modulus (GPa) = 73.41372 75.05909 74.23640
# Shear Modulus (GPa) = 22.94933 27.41628 25.18280
#
# Velocity S-wave (km/s) = 3.57723 3.90991 3.74726
# Velocity P-wave (km/s) = 7.61563 7.88900 7.75352
#
# Compressibility (1/GPa) = 0.01362143
#
# Stress axis : x y z
#
# Youngs Moduli (GPa) = 45.26634 42.87986 83.71300
#
# Poissons Ratio (x) = 0.63662 0.04461
# Poissons Ratio (y) = 0.67205 0.54320
# Poissons Ratio (z) = 0.02412 0.27824
#
# Static dielectric constant tensor:
#      x y z
#    x 1.582650 0.000000 0.000000 
#    y 0.000000 1.589700 0.000000 
#    z 0.000000 0.000000 1.597920 
# 
# From -- ./inp_files/2644.got.cif
#   From: 2010.05.17/outbox.cif.g08.bks.cpg/sg58_2_cif.got.tgz:2644.got - 2010.06.03 14:20:14.
