data_PCOD9443048
_publ_section_title
;
Structure prediction by ZEFSAII (Michael W. Deem and Ramdas Pophale) SiO2 
 PCOD9443048
Probable space group: P N N M
;
_chemical_formula_sum "Si O2"
_cell_formula_units_Z 48
_cell_length_a 18.167505
_cell_length_b 16.919353
_cell_length_c 8.958834
_cell_angle_alpha 90.000000
_cell_angle_beta 90.000000
_cell_angle_gamma 90.000000
_cell_volume 2753.788167
_symmetry_space_group_name_H-M "P N N M"
_symmetry_group_IT_number 58
_symmetry_cell_setting 'orthorhombic'
loop_
_space_group_symop_operation_xyz
x,y,z
-x,-y,z
1/2+x,1/2-y,1/2-z
1/2-x,1/2+y,1/2-z
-x,-y,-z
x,y,-z
1/2-x,1/2+y,1/2+z
1/2+x,1/2-y,1/2+z
loop_
_atom_site_type_symbol
_atom_site_label
_atom_site_fract_x
_atom_site_fract_y
_atom_site_fract_z
Si Si1 0.329788 0.829682 0.178149
Si Si2 0.099633 0.179870 0.176887
Si Si3 0.984456 0.590351 0.320496
Si Si4 0.442285 0.239863 0.322514
Si Si5 0.326490 0.354598 0.821410
Si Si6 0.085856 0.014293 0.678251
O O1 0.350384 0.742588 0.236585
O O2 0.400732 0.883821 0.216017
O O3 0.255112 0.856503 0.255678
O O4 0.321196 0.829567 0.000000
O O5 0.015004 0.206359 0.206725
O O6 0.111361 0.091722 0.234774
O O7 0.112152 0.186071 0.000000
O O8 0.993026 0.597054 0.500000
O O9 0.000000 0.500000 0.277290
O O10 0.037790 0.654092 0.243532
O O11 0.431833 0.235031 0.500000
O O12 0.373306 0.282440 0.246755
O O13 0.368699 0.435942 0.783809
O O14 0.324617 0.346982 0.000000
O O15 0.091916 0.028114 0.500000
O O16 0.000000 0.000000 0.712449
#
# Coordination Sequence:
#
# PCOD9443048 Si02
#       6
#     8   8   8   8   8   8
#     4  10  21  38  59  81 112 148 186 234 287 338
#     4  10  20  35  57  83 111 146 187 228 276 336
#     4   9  19  38  62  84 108 146 192 235 281 337
#     4  10  20  34  56  84 112 145 185 230 279 333
#     4  11  22  37  57  82 115 151 188 233 284 339
#     4  10  20  35  57  84 114 150 190 230 279 335
#
# _framework density 17.430534999999999
#
# number of rings (size 3 to 8) (size 9 to 14) (size 15 to 20)
#    0.000    2.000    1.667    2.000    0.000    4.000 
#    3.000    0.000    0.000    0.000    0.000    0.000 
#    0.000    0.000    0.000    0.000    0.000    0.000 
#
# Total GULP energy -268011.334125 kJ/mol
# GULP energy per Si atom -5583.569461 kJ/mol
# Density = 1.739086 g / cm^3
# Si number density = 17.430535 Si / 1000 Ang^3
#
#
#
# Elastic Constant Matrix: (Units=GPa)
#
#
# Indices 1 2 3 4 5 6 
#
# 1 100.5792 71.0375 49.1613 0.0000 0.0000 0.0000
# 2 71.0375 154.3938 60.5114 0.0000 0.0000 0.0000
# 3 49.1613 60.5114 48.5157 0.0000 0.0000 0.0000
# 4 0.0000 0.0000 0.0000 23.6494 0.0000 0.0000
# 5 0.0000 0.0000 0.0000 0.0000 31.0636 0.0000
# 6 0.0000 0.0000 0.0000 0.0000 0.0000 20.5619
#
#
#
# Elastic Compliance Matrix: (Units=1/GPa)
#
#
# Indices 1 2 3 4 5 6 
#
# 1 0.020175 -0.002485 -0.017344 0.000000 0.000000 0.000000
# 2 -0.002485 0.012977 -0.013668 0.000000 0.000000 0.000000
# 3 -0.017344 -0.013668 0.055234 0.000000 0.000000 0.000000
# 4 0.000000 0.000000 0.000000 0.042284 0.000000 0.000000
# 5 0.000000 0.000000 0.000000 0.000000 0.032192 0.000000
# 6 0.000000 0.000000 0.000000 0.000000 0.000000 0.048634
#
#
# Mechanical properties :
#
#
# Convention : Reuss Voigt Hill
#
# Bulk Modulus (GPa) = 46.74552 73.87881 60.31216
# Shear Modulus (GPa) = 17.50579 23.24020 20.37300
#
# Velocity S-wave (km/s) = 3.17253 3.65541 3.42250
# Velocity P-wave (km/s) = 6.34794 7.76484 7.09186
#
# Compressibility (1/GPa) = 0.02139243
#
# Stress axis : x y z
#
# Youngs Moduli (GPa) = 49.56633 77.05932 18.10491
#
# Poissons Ratio (x) = 0.19149 0.31401
# Poissons Ratio (y) = 0.12317 0.24745
# Poissons Ratio (z) = 0.85968 1.05321
#
# Static dielectric constant tensor:
#      x y z
#    x 1.574410 0.000000 0.000000 
#    y 0.000000 1.568870 0.000000 
#    z 0.000000 0.000000 1.575830 
# 
# From -- ./inp_files/5751.got.cif
#   From: 2010.05.17/outbox.cif.g08.bks.cpg/sg58_3_cif.got.tgz:5751.got - 2010.06.03 14:20:14.
