data_PCOD9443524
_publ_section_title
;
Structure prediction by ZEFSAII (Michael W. Deem and Ramdas Pophale) SiO2 
 PCOD9443524
Probable space group: P N N M
;
_chemical_formula_sum "Si O2"
_cell_formula_units_Z 58
_cell_length_a 23.307309
_cell_length_b 14.907676
_cell_length_c 7.542919
_cell_angle_alpha 90.000000
_cell_angle_beta 90.000000
_cell_angle_gamma 90.000000
_cell_volume 2620.846124
_symmetry_space_group_name_H-M "P N N M"
_symmetry_group_IT_number 58
_symmetry_cell_setting 'orthorhombic'
loop_
_space_group_symop_operation_xyz
x,y,z
-x,-y,z
1/2+x,1/2-y,1/2-z
1/2-x,1/2+y,1/2-z
-x,-y,-z
x,y,-z
1/2-x,1/2+y,1/2+z
1/2+x,1/2-y,1/2+z
loop_
_atom_site_type_symbol
_atom_site_label
_atom_site_fract_x
_atom_site_fract_y
_atom_site_fract_z
Si Si1 0.707858 0.620302 0.782537
Si Si2 0.500000 0.000000 0.500000
Si Si3 0.270778 0.707742 0.291056
Si Si4 0.607172 0.201212 0.787337
Si Si5 0.968664 0.861958 0.283755
Si Si6 0.289464 0.032876 0.702938
Si Si7 0.914254 0.047808 0.716135
Si Si8 0.412202 0.005012 0.203998
O O1 0.723927 0.720118 0.727868
O O2 0.758198 0.554278 0.720092
O O3 0.646597 0.584263 0.723303
O O4 0.708363 0.617909 0.000000
O O5 0.457918 0.041438 0.342340
O O6 0.263936 0.694753 0.500000
O O7 0.332672 0.752233 0.260882
O O8 0.256761 0.612464 0.207462
O O9 0.557167 0.267929 0.722558
O O10 0.599431 0.098337 0.730799
O O11 0.605258 0.198640 0.000000
O O12 0.968740 0.860249 0.500000
O O13 0.032549 0.889686 0.228293
O O14 0.928215 0.945685 0.230414
O O15 0.303904 0.013302 0.500000
O O16 0.350143 0.052671 0.791835
O O17 0.913890 0.047742 0.500000
O O18 0.431862 0.004421 0.000000
#
# Coordination Sequence:
#
# PCOD9443524 Si02
#       8
#     8   2   8   8   8   8   8   8
#     4   9  18  32  54  81 118 160 205 258 326 391
#     4  12  26  48  72  94 128 182 218 282 336 398
#     4  11  22  35  57  90 123 161 216 270 331 401
#     4  10  20  36  60  90 120 162 216 275 326 397
#     4   8  14  26  48  79 114 147 196 251 313 381
#     4  11  21  40  64  91 129 173 212 272 339 403
#     4   8  13  25  46  77 114 152 190 247 311 385
#     4  11  24  44  70  97 130 172 227 280 337 401
#
# _framework density 22.130258999999999
#
# number of rings (size 3 to 8) (size 9 to 14) (size 15 to 20)
#    0.000    2.207    2.069    2.690    0.966    2.207 
#    2.483    0.000    0.000    0.000    0.000    8.690 
#    0.000    0.000    0.000    0.000    0.000    0.000 
#
# Total GULP energy -323469.803895 kJ/mol
# GULP energy per Si atom -5577.065584 kJ/mol
# Density = 2.207989 g / cm^3
# Si number density = 22.130259 Si / 1000 Ang^3
#
#
#
# Elastic Constant Matrix: (Units=GPa)
#
#
# Indices 1 2 3 4 5 6 
#
# 1 52.6488 -20.6136 5.8411 0.0000 0.0000 0.0000
# 2 -20.6136 39.0018 1.3465 0.0000 0.0000 0.0000
# 3 5.8411 1.3465 88.4127 0.0000 0.0000 0.0000
# 4 0.0000 0.0000 0.0000 3.2172 0.0000 0.0000
# 5 0.0000 0.0000 0.0000 0.0000 4.2760 0.0000
# 6 0.0000 0.0000 0.0000 0.0000 0.0000 26.7975
#
#
#
# Elastic Compliance Matrix: (Units=1/GPa)
#
#
# Indices 1 2 3 4 5 6 
#
# 1 0.024232 0.012869 -0.001797 0.000000 0.000000 0.000000
# 2 0.012869 0.032488 -0.001345 0.000000 0.000000 0.000000
# 3 -0.001797 -0.001345 0.011450 0.000000 0.000000 0.000000
# 4 0.000000 0.000000 0.000000 0.310828 0.000000 0.000000
# 5 0.000000 0.000000 0.000000 0.000000 0.233863 0.000000
# 6 0.000000 0.000000 0.000000 0.000000 0.000000 0.037317
#
#
# Mechanical properties :
#
#
# Convention : Reuss Voigt Hill
#
# Bulk Modulus (GPa) = 11.41235 17.02347 14.21791
# Shear Modulus (GPa) = 7.57655 19.75744 13.66700
#
# Velocity S-wave (km/s) = 1.85231 2.99118 2.48779
# Velocity P-wave (km/s) = 3.12135 4.43155 3.83285
#
# Compressibility (1/GPa) = 0.08762435
#
# Stress axis : x y z
#
# Youngs Moduli (GPa) = 41.26805 30.78059 87.33783
#
# Poissons Ratio (x) = -0.39612 0.15694
# Poissons Ratio (y) = -0.53109 0.11747
# Poissons Ratio (z) = 0.07415 0.04140
#
# Static dielectric constant tensor:
#      x y z
#    x 1.816630 0.000000 0.000000 
#    y 0.000000 1.799480 0.000000 
#    z 0.000000 0.000000 1.817020 
# 
# From -- ./inp_files/9867.got.cif
#   From: 2010.05.17/outbox.cif.g08.bks.cpg/sg58_5_cif.got.tgz:9867.got - 2010.06.03 14:20:14.
