data_PCOD9443862
_publ_section_title
;
Structure prediction by ZEFSAII (Michael W. Deem and Ramdas Pophale) SiO2 
 PCOD9443862
Probable space group: P N N M
;
_chemical_formula_sum "Si O2"
_cell_formula_units_Z 58
_cell_length_a 21.747034
_cell_length_b 15.743625
_cell_length_c 7.682611
_cell_angle_alpha 90.000000
_cell_angle_beta 90.000000
_cell_angle_gamma 90.000000
_cell_volume 2630.350445
_symmetry_space_group_name_H-M "P N N M"
_symmetry_group_IT_number 58
_symmetry_cell_setting 'orthorhombic'
loop_
_space_group_symop_operation_xyz
x,y,z
-x,-y,z
1/2+x,1/2-y,1/2-z
1/2-x,1/2+y,1/2-z
-x,-y,-z
x,y,-z
1/2-x,1/2+y,1/2+z
1/2+x,1/2-y,1/2+z
loop_
_atom_site_type_symbol
_atom_site_label
_atom_site_fract_x
_atom_site_fract_y
_atom_site_fract_z
Si Si1 0.896308 0.054316 0.210038
Si Si2 0.324675 0.038334 0.202940
Si Si3 0.759555 0.113102 0.213137
Si Si4 0.545111 0.890614 0.789825
Si Si5 0.388154 0.635771 0.698141
Si Si6 0.987859 0.203345 0.699414
Si Si7 0.258242 0.695868 0.800848
Si Si8 0.500000 0.000000 0.500000
O O1 0.827268 0.080460 0.259899
O O2 0.944602 0.122294 0.277363
O O3 0.906487 0.957465 0.266944
O O4 0.901374 0.056861 0.000000
O O5 0.391277 0.065199 0.272371
O O6 0.279435 0.119193 0.215471
O O7 0.290687 0.955314 0.276792
O O8 0.335393 0.020847 0.000000
O O9 0.750989 0.209744 0.273680
O O10 0.756365 0.113347 0.000000
O O11 0.548512 0.789584 0.761156
O O12 0.495353 0.927773 0.657683
O O13 0.535439 0.904266 0.000000
O O14 0.366144 0.623464 0.500000
O O15 0.448983 0.691934 0.698633
O O16 0.330293 0.674379 0.795750
O O17 0.007614 0.209334 0.500000
O O18 0.236382 0.697906 0.000000
#
# Coordination Sequence:
#
# PCOD9443862 Si02
#       8
#     8   8   8   8   8   8   8   2
#     4  10  20  38  63  91 125 169 218 263 323 402
#     4  10  20  42  67  89 129 172 215 267 328 390
#     4   9  19  37  62  90 123 167 207 255 325 388
#     4  10  25  45  69 101 133 177 228 283 333 401
#     4  11  23  40  62  90 128 174 217 270 332 398
#     4  11  24  41  62  93 131 167 216 276 337 390
#     4  11  22  36  61  96 129 165 214 270 329 397
#     4  12  26  44  76  94 134 176 226 274 344 384
#
# _framework density 22.050294000000001
#
# number of rings (size 3 to 8) (size 9 to 14) (size 15 to 20)
#    0.000    1.655    1.379    2.690    2.897    3.862 
#    0.000    4.828    0.000    0.000    0.000    0.000 
#    0.000    0.000    0.000    0.000    0.000    0.000 
#
# Total GULP energy -323477.330801 kJ/mol
# GULP energy per Si atom -5577.195359 kJ/mol
# Density = 2.200011 g / cm^3
# Si number density = 22.050294 Si / 1000 Ang^3
#
#
#
# Elastic Constant Matrix: (Units=GPa)
#
#
# Indices 1 2 3 4 5 6 
#
# 1 58.3787 9.1489 -2.4714 0.0000 0.0000 0.0000
# 2 9.1489 75.1149 1.6161 0.0000 0.0000 0.0000
# 3 -2.4714 1.6161 56.8833 0.0000 0.0000 0.0000
# 4 0.0000 0.0000 0.0000 28.0317 0.0000 0.0000
# 5 0.0000 0.0000 0.0000 0.0000 15.0413 0.0000
# 6 0.0000 0.0000 0.0000 0.0000 0.0000 26.6254
#
#
#
# Elastic Compliance Matrix: (Units=1/GPa)
#
#
# Indices 1 2 3 4 5 6 
#
# 1 0.017501 -0.002149 0.000821 0.000000 0.000000 0.000000
# 2 -0.002149 0.013585 -0.000479 0.000000 0.000000 0.000000
# 3 0.000821 -0.000479 0.017629 0.000000 0.000000 0.000000
# 4 0.000000 0.000000 0.000000 0.035674 0.000000 0.000000
# 5 0.000000 0.000000 0.000000 0.000000 0.066484 0.000000
# 6 0.000000 0.000000 0.000000 0.000000 0.000000 0.037558
#
#
# Mechanical properties :
#
#
# Convention : Reuss Voigt Hill
#
# Bulk Modulus (GPa) = 22.17249 22.99602 22.58425
# Shear Modulus (GPa) = 24.14537 26.07857 25.11197
#
# Velocity S-wave (km/s) = 3.31269 3.44275 3.37835
# Velocity P-wave (km/s) = 4.97083 5.12395 5.04797
#
# Compressibility (1/GPa) = 0.04510093
#
# Stress axis : x y z
#
# Youngs Moduli (GPa) = 57.13908 73.61046 56.72423
#
# Poissons Ratio (x) = 0.15821 -0.04659
# Poissons Ratio (y) = 0.12281 0.02719
# Poissons Ratio (z) = -0.04694 0.03528
#
# Static dielectric constant tensor:
#      x y z
#    x 1.797120 0.000000 0.000000 
#    y 0.000000 1.825400 0.000000 
#    z 0.000000 0.000000 1.837290 
# 
# From -- ./inp_files/9896.got.cif
#   From: 2010.05.17/outbox.cif.g08.bks.cpg/sg58_5_cif.got.tgz:9896.got - 2010.06.03 14:20:14.
