data_PCOD9443503
_publ_section_title
;
Structure prediction by ZEFSAII (Michael W. Deem and Ramdas Pophale) SiO2 
 PCOD9443503
Probable space group: P N N M
;
_chemical_formula_sum "Si O2"
_cell_formula_units_Z 40
_cell_length_a 30.584207
_cell_length_b 9.037856
_cell_length_c 7.573588
_cell_angle_alpha 90.000000
_cell_angle_beta 90.000000
_cell_angle_gamma 90.000000
_cell_volume 2093.458316
_symmetry_space_group_name_H-M "P N N M"
_symmetry_group_IT_number 58
_symmetry_cell_setting 'orthorhombic'
loop_
_space_group_symop_operation_xyz
x,y,z
-x,-y,z
1/2+x,1/2-y,1/2-z
1/2-x,1/2+y,1/2-z
-x,-y,-z
x,y,-z
1/2-x,1/2+y,1/2+z
1/2+x,1/2-y,1/2+z
loop_
_atom_site_type_symbol
_atom_site_label
_atom_site_fract_x
_atom_site_fract_y
_atom_site_fract_z
Si Si1 0.206477 0.558094 0.204473
Si Si2 0.952869 0.575098 0.000000
Si Si3 0.547965 0.428402 0.500000
Si Si4 0.386565 0.102706 0.296353
Si Si5 0.293016 0.401223 0.214661
Si Si6 0.108884 0.936776 0.701853
O O1 0.157709 0.529335 0.278140
O O2 0.250370 0.487356 0.280622
O O3 0.210642 0.733990 0.220015
O O4 0.205763 0.509434 0.000000
O O5 0.955070 0.750997 0.000000
O O6 0.925583 0.511887 0.831049
O O7 0.000000 0.500000 0.000000
O O8 0.500000 0.500000 0.500000
O O9 0.574935 0.486333 0.668921
O O10 0.375709 0.149293 0.500000
O O11 0.397451 0.257677 0.205730
O O12 0.340879 0.462210 0.264035
O O13 0.293606 0.399251 0.000000
O O14 0.104330 0.987165 0.500000
#
# Coordination Sequence:
#
# PCOD9443503 Si02
#       6
#     8   4   4   8   8   8
#     4   9  17  31  49  72 108 142 188 232 271 332
#     4  10  20  36  60  86 114 150 194 246 293 356
#     4  12  24  40  64  90 118 150 194 244 299 366
#     4   8  16  34  57  79 109 154 196 234 288 347
#     4   9  19  32  49  78 111 147 190 236 280 339
#     4  10  20  38  61  86 118 155 193 243 298 348
#
# _framework density 19.107140000000001
#
# number of rings (size 3 to 8) (size 9 to 14) (size 15 to 20)
#    0.600    2.000    1.000    1.200    1.400    2.800 
#    0.000    1.000    0.000    2.400    0.000    0.000 
#    0.000    0.000    0.000    0.000    0.000    0.000 
#
# Total GULP energy -222706.083805 kJ/mol
# GULP energy per Si atom -5567.652095 kJ/mol
# Density = 1.906365 g / cm^3
# Si number density = 19.107140 Si / 1000 Ang^3
#
#
#
# Elastic Constant Matrix: (Units=GPa)
#
#
# Indices 1 2 3 4 5 6 
#
# 1 203.7808 95.3404 35.1892 0.0000 0.0000 0.0000
# 2 95.3404 85.9725 16.0598 0.0000 0.0000 0.0000
# 3 35.1892 16.0598 59.8055 0.0000 0.0000 0.0000
# 4 0.0000 0.0000 0.0000 16.0655 0.0000 0.0000
# 5 0.0000 0.0000 0.0000 0.0000 12.4479 0.0000
# 6 0.0000 0.0000 0.0000 0.0000 0.0000 39.8827
#
#
#
# Elastic Compliance Matrix: (Units=1/GPa)
#
#
# Indices 1 2 3 4 5 6 
#
# 1 0.010783 -0.011342 -0.003299 0.000000 0.000000 0.000000
# 2 -0.011342 0.024176 0.000182 0.000000 0.000000 0.000000
# 3 -0.003299 0.000182 0.018613 0.000000 0.000000 0.000000
# 4 0.000000 0.000000 0.000000 0.062245 0.000000 0.000000
# 5 0.000000 0.000000 0.000000 0.000000 0.080335 0.000000
# 6 0.000000 0.000000 0.000000 0.000000 0.000000 0.025074
#
#
# Mechanical properties :
#
#
# Convention : Reuss Voigt Hill
#
# Bulk Modulus (GPa) = 40.56279 71.41530 55.98904
# Shear Modulus (GPa) = 19.35259 27.21051 23.28155
#
# Velocity S-wave (km/s) = 3.18598 3.77782 3.49445
# Velocity P-wave (km/s) = 5.89993 7.51576 6.75632
#
# Compressibility (1/GPa) = 0.02465314
#
# Stress axis : x y z
#
# Youngs Moduli (GPa) = 92.73450 41.36373 53.72503
#
# Poissons Ratio (x) = 0.46916 0.17725
# Poissons Ratio (y) = 1.05181 -0.00976
# Poissons Ratio (z) = 0.30595 -0.00751
#
# Static dielectric constant tensor:
#      x y z
#    x 1.711020 0.000000 0.000000 
#    y 0.000000 1.626430 0.000000 
#    z 0.000000 0.000000 1.719990 
# 
# From -- ./inp_files/10292.got.cif
#   From: 2010.05.17/outbox.cif.g08.bks.cpg/sg58_6_cif.got.tgz:10292.got - 2010.06.03 14:20:14.
