data_PCOD9443782
_publ_section_title
;
Structure prediction by ZEFSAII (Michael W. Deem and Ramdas Pophale) SiO2 
 PCOD9443782
Probable space group: P N N M
;
_chemical_formula_sum "Si O2"
_cell_formula_units_Z 32
_cell_length_a 12.122803
_cell_length_b 4.995922
_cell_length_c 25.045603
_cell_angle_alpha 90.000000
_cell_angle_beta 90.000000
_cell_angle_gamma 90.000000
_cell_volume 1516.876382
_symmetry_space_group_name_H-M "P N N M"
_symmetry_group_IT_number 58
_symmetry_cell_setting 'orthorhombic'
loop_
_space_group_symop_operation_xyz
x,y,z
-x,-y,z
1/2+x,1/2-y,1/2-z
1/2-x,1/2+y,1/2-z
-x,-y,-z
x,y,-z
1/2-x,1/2+y,1/2+z
1/2+x,1/2-y,1/2+z
loop_
_atom_site_type_symbol
_atom_site_label
_atom_site_fract_x
_atom_site_fract_y
_atom_site_fract_z
Si Si1 0.500000 0.000000 0.609963
Si Si2 0.256780 0.917161 0.402418
Si Si3 0.121532 0.422407 0.561678
Si Si4 0.286772 0.772651 0.721357
Si Si5 0.000000 0.000000 0.813678
O O1 0.385181 0.942170 0.580301
O O2 0.530407 0.746474 0.647401
O O3 0.195758 0.685821 0.434478
O O4 0.259395 0.831832 0.340201
O O5 0.187051 0.187556 0.408704
O O6 0.107464 0.337406 0.500000
O O7 0.000000 0.500000 0.582889
O O8 0.207170 0.553405 0.748018
O O9 0.402127 0.616148 0.721289
#
# Coordination Sequence:
#
# PCOD9443782 Si02
#       5
#     4   8   8   8   4
#     4  10  20  38  67  90 120 170 202 254 323 382
#     4  11  22  42  67  94 126 168 220 260 321 389
#     4  11  24  44  68  94 130 174 212 263 333 384
#     4  11  22  39  62  92 127 169 210 262 317 374
#     4  10  20  38  60  84 123 174 205 238 322 388
#
# _framework density 21.095986
#
# number of rings (size 3 to 8) (size 9 to 14) (size 15 to 20)
#    0.000    1.250    0.000    9.000    0.000    2.000 
#    9.000    3.750    2.750    0.000    0.000    0.000 
#    0.000    0.000    0.000    0.000    0.000    0.000 
#
# Total GULP energy -178824.261642 kJ/mol
# GULP energy per Si atom -5588.258176 kJ/mol
# Density = 2.104797 g / cm^3
# Si number density = 21.095986 Si / 1000 Ang^3
#
#
#
# Elastic Constant Matrix: (Units=GPa)
#
#
# Indices 1 2 3 4 5 6 
#
# 1 137.1475 48.4337 34.8193 0.0000 0.0000 0.0000
# 2 48.4337 136.8076 15.2935 0.0000 0.0000 0.0000
# 3 34.8193 15.2935 41.8535 0.0000 0.0000 0.0000
# 4 0.0000 0.0000 0.0000 32.6159 0.0000 0.0000
# 5 0.0000 0.0000 0.0000 0.0000 2.9475 0.0000
# 6 0.0000 0.0000 0.0000 0.0000 0.0000 40.0490
#
#
#
# Elastic Compliance Matrix: (Units=1/GPa)
#
#
# Indices 1 2 3 4 5 6 
#
# 1 0.010156 -0.002764 -0.007439 0.000000 0.000000 0.000000
# 2 -0.002764 0.008373 -0.000760 0.000000 0.000000 0.000000
# 3 -0.007439 -0.000760 0.030360 0.000000 0.000000 0.000000
# 4 0.000000 0.000000 0.000000 0.030660 0.000000 0.000000
# 5 0.000000 0.000000 0.000000 0.000000 0.339271 0.000000
# 6 0.000000 0.000000 0.000000 0.000000 0.000000 0.024969
#
#
# Mechanical properties :
#
#
# Convention : Reuss Voigt Hill
#
# Bulk Modulus (GPa) = 37.08918 56.98907 47.03913
# Shear Modulus (GPa) = 10.53290 29.60662 20.06976
#
# Velocity S-wave (km/s) = 2.23689 3.75029 3.08775
# Velocity P-wave (km/s) = 4.92858 6.76947 5.92101
#
# Compressibility (1/GPa) = 0.02696204
#
# Stress axis : x y z
#
# Youngs Moduli (GPa) = 98.46183 119.43111 32.93852
#
# Poissons Ratio (x) = 0.33010 0.24504
# Poissons Ratio (y) = 0.27214 0.02504
# Poissons Ratio (z) = 0.73249 0.09078
#
# Static dielectric constant tensor:
#      x y z
#    x 1.820150 0.000000 0.000000 
#    y 0.000000 1.746300 0.000000 
#    z 0.000000 0.000000 1.740270 
# 
# From -- ./inp_files/31754.got.cif
#   From: 2010.05.17/outbox.cif.g08.bks.cpg/sg58_16_cif.got.tgz:31754.got - 2010.06.03 14:20:14.
