data_PCOD9443589
_publ_section_title
;
Structure prediction by ZEFSAII (Michael W. Deem and Ramdas Pophale) SiO2 
 PCOD9443589
Probable space group: P N N M
;
_chemical_formula_sum "Si O2"
_cell_formula_units_Z 48
_cell_length_a 12.034263
_cell_length_b 14.027349
_cell_length_c 13.390673
_cell_angle_alpha 90.000000
_cell_angle_beta 90.000000
_cell_angle_gamma 90.000000
_cell_volume 2260.463535
_symmetry_space_group_name_H-M "P N N M"
_symmetry_group_IT_number 58
_symmetry_cell_setting 'orthorhombic'
loop_
_space_group_symop_operation_xyz
x,y,z
-x,-y,z
1/2+x,1/2-y,1/2-z
1/2-x,1/2+y,1/2-z
-x,-y,-z
x,y,-z
1/2-x,1/2+y,1/2+z
1/2+x,1/2-y,1/2+z
loop_
_atom_site_type_symbol
_atom_site_label
_atom_site_fract_x
_atom_site_fract_y
_atom_site_fract_z
Si Si1 0.692553 0.625052 0.700046
Si Si2 0.131200 0.986714 0.000000
Si Si3 0.620511 0.993140 0.294165
Si Si4 0.243388 0.198811 0.000000
Si Si5 0.241014 0.683602 0.723936
Si Si6 0.962074 0.890289 0.288111
Si Si7 0.610023 0.437280 0.000000
Si Si8 0.826933 0.577798 0.000000
O O1 0.662902 0.578210 0.595228
O O2 0.773518 0.548295 0.749868
O O3 0.759410 0.722398 0.710622
O O4 0.579941 0.654746 0.759965
O O5 0.184820 0.093136 0.000000
O O6 0.000000 0.000000 0.000000
O O7 0.659761 0.884678 0.285777
O O8 0.500000 0.000000 0.243273
O O9 0.610825 0.042557 0.401629
O O10 0.300222 0.198891 0.109895
O O11 0.188324 0.306899 0.000000
O O12 0.364356 0.638111 0.713689
O O13 0.905596 0.879507 0.397237
O O14 0.000000 0.000000 0.278301
O O15 0.500000 0.500000 0.000000
O O16 0.712459 0.512746 0.000000
#
# Coordination Sequence:
#
# PCOD9443589 Si02
#       8
#     8   4   8   4   8   8   4   4
#     4  12  26  45  71 107 150 185 246 301 367 437
#     4  12  26  48  78 108 142 196 247 307 367 442
#     4  12  26  46  68 104 149 190 234 304 365 432
#     4  12  24  41  73 103 137 191 235 291 375 431
#     4  12  26  44  72 104 144 190 241 298 369 431
#     4  11  21  43  71 102 142 185 238 309 350 423
#     4  10  20  36  72 104 132 177 233 298 366 404
#     4  12  23  45  71 105 139 181 245 294 359 435
#
# _framework density 21.234583000000001
#
# number of rings (size 3 to 8) (size 9 to 14) (size 15 to 20)
#    0.000    0.333    6.667    2.750    2.333    2.667 
#    0.000    1.667    0.000    0.000    0.000    0.000 
#    0.000    0.000    0.000    0.000    0.000    0.000 
#
# Total GULP energy -267333.925625 kJ/mol
# GULP energy per Si atom -5569.456784 kJ/mol
# Density = 2.118625 g / cm^3
# Si number density = 21.234583 Si / 1000 Ang^3
#
#
#
# Elastic Constant Matrix: (Units=GPa)
#
#
# Indices 1 2 3 4 5 6 
#
# 1 82.1915 1.5323 3.8771 0.0000 0.0000 0.0000
# 2 1.5323 116.0505 53.1176 0.0000 0.0000 0.0000
# 3 3.8771 53.1176 106.8005 0.0000 0.0000 0.0000
# 4 0.0000 0.0000 0.0000 33.8936 0.0000 0.0000
# 5 0.0000 0.0000 0.0000 0.0000 19.1022 0.0000
# 6 0.0000 0.0000 0.0000 0.0000 0.0000 20.1932
#
#
#
# Elastic Compliance Matrix: (Units=1/GPa)
#
#
# Indices 1 2 3 4 5 6 
#
# 1 0.012188 0.000054 -0.000469 0.000000 0.000000 0.000000
# 2 0.000054 0.011157 -0.005551 0.000000 0.000000 0.000000
# 3 -0.000469 -0.005551 0.012141 0.000000 0.000000 0.000000
# 4 0.000000 0.000000 0.000000 0.029504 0.000000 0.000000
# 5 0.000000 0.000000 0.000000 0.000000 0.052350 0.000000
# 6 0.000000 0.000000 0.000000 0.000000 0.000000 0.049522
#
#
# Mechanical properties :
#
#
# Convention : Reuss Voigt Hill
#
# Bulk Modulus (GPa) = 42.45696 46.89962 44.67829
# Shear Modulus (GPa) = 26.78880 31.07217 28.93049
#
# Velocity S-wave (km/s) = 3.55570 3.82944 3.69511
# Velocity P-wave (km/s) = 6.07413 6.45656 6.26826
#
# Compressibility (1/GPa) = 0.02355326
#
# Stress axis : x y z
#
# Youngs Moduli (GPa) = 82.04897 89.63036 82.36528
#
# Poissons Ratio (x) = -0.00483 0.03865
# Poissons Ratio (y) = -0.00442 0.45720
# Poissons Ratio (z) = 0.03850 0.49753
#
# Static dielectric constant tensor:
#      x y z
#    x 2.631970 0.000000 0.000000 
#    y 0.000000 1.735190 0.000000 
#    z 0.000000 0.000000 1.862040 
# 
# From -- ./inp_files/21224.got.cif
#   From: 2010.05.17/outbox.cif.g08.bks.cpg/sg58_11_cif.got.tgz:21224.got - 2010.06.03 14:20:14.
