data_PCOD9443145
_publ_section_title
;
Structure prediction by ZEFSAII (Michael W. Deem and Ramdas Pophale) SiO2 
 PCOD9443145
Probable space group: P N N M
;
_chemical_formula_sum "Si O2"
_cell_formula_units_Z 64
_cell_length_a 21.298630
_cell_length_b 20.088192
_cell_length_c 8.685778
_cell_angle_alpha 90.000000
_cell_angle_beta 90.000000
_cell_angle_gamma 90.000000
_cell_volume 3716.218532
_symmetry_space_group_name_H-M "P N N M"
_symmetry_group_IT_number 58
_symmetry_cell_setting 'orthorhombic'
loop_
_space_group_symop_operation_xyz
x,y,z
-x,-y,z
1/2+x,1/2-y,1/2-z
1/2-x,1/2+y,1/2-z
-x,-y,-z
x,y,-z
1/2-x,1/2+y,1/2+z
1/2+x,1/2-y,1/2+z
loop_
_atom_site_type_symbol
_atom_site_label
_atom_site_fract_x
_atom_site_fract_y
_atom_site_fract_z
Si Si1 0.684448 0.700486 0.184857
Si Si2 0.237920 0.931696 0.815346
Si Si3 0.883821 0.427293 0.683886
Si Si4 0.065056 0.714739 0.312489
Si Si5 0.121030 0.431253 0.817143
Si Si6 0.698004 0.282001 0.183541
Si Si7 0.926686 0.703929 0.685843
Si Si8 0.734210 0.418602 0.682957
O O1 0.695183 0.627489 0.253584
O O2 0.620238 0.735891 0.238069
O O3 0.743317 0.745371 0.237271
O O4 0.684317 0.696977 0.000000
O O5 0.307807 0.923707 0.746530
O O6 0.215021 0.006127 0.775365
O O7 0.243483 0.927988 0.000000
O O8 0.892133 0.435487 0.500000
O O9 0.919106 0.360857 0.735725
O O10 0.902064 0.496062 0.764204
O O11 0.809387 0.415532 0.710625
O O12 0.067310 0.714547 0.500000
O O13 0.994368 0.731816 0.265162
O O14 0.081885 0.370676 0.747285
O O15 0.121918 0.427061 0.000000
O O16 0.633131 0.247556 0.234826
O O17 0.701169 0.359416 0.227132
O O18 0.703799 0.273539 0.000000
O O19 0.925919 0.701468 0.500000
O O20 0.724779 0.409054 0.500000
#
# Coordination Sequence:
#
# PCOD9443145 Si02
#       8
#     8   8   8   8   8   8   8   8
#     4  11  20  34  57  82 106 135 177 224 267 312
#     4  10  20  35  54  79 107 138 175 217 267 320
#     4   9  17  33  53  73 101 140 181 218 258 313
#     4   9  19  36  56  76 102 143 185 216 259 318
#     4  11  21  32  49  76 108 142 177 217 262 311
#     4  11  21  32  53  81 108 138 176 220 265 313
#     4  10  21  37  54  74 105 145 183 216 258 318
#     4   9  18  33  54  77 105 135 173 219 264 313
#
# _framework density 17.221806999999998
#
# number of rings (size 3 to 8) (size 9 to 14) (size 15 to 20)
#    0.000    2.000    2.500    3.000    0.000    3.500 
#    0.000    4.375    0.000    0.750    0.000    5.250 
#    0.000    0.000    0.000    0.000    0.000    0.000 
#
# Total GULP energy -357218.674622 kJ/mol
# GULP energy per Si atom -5581.541791 kJ/mol
# Density = 1.718261 g / cm^3
# Si number density = 17.221807 Si / 1000 Ang^3
#
#
#
# Elastic Constant Matrix: (Units=GPa)
#
#
# Indices 1 2 3 4 5 6 
#
# 1 76.3654 37.5158 19.2446 0.0000 0.0000 0.0000
# 2 37.5158 90.5482 18.4726 0.0000 0.0000 0.0000
# 3 19.2446 18.4726 25.7575 0.0000 0.0000 0.0000
# 4 0.0000 0.0000 0.0000 31.2723 0.0000 0.0000
# 5 0.0000 0.0000 0.0000 0.0000 15.7467 0.0000
# 6 0.0000 0.0000 0.0000 0.0000 0.0000 21.7993
#
#
#
# Elastic Compliance Matrix: (Units=1/GPa)
#
#
# Indices 1 2 3 4 5 6 
#
# 1 0.018278 -0.005607 -0.009635 0.000000 0.000000 0.000000
# 2 -0.005607 0.014657 -0.006322 0.000000 0.000000 0.000000
# 3 -0.009635 -0.006322 0.050556 0.000000 0.000000 0.000000
# 4 0.000000 0.000000 0.000000 0.031977 0.000000 0.000000
# 5 0.000000 0.000000 0.000000 0.000000 0.063505 0.000000
# 6 0.000000 0.000000 0.000000 0.000000 0.000000 0.045873
#
#
# Mechanical properties :
#
#
# Convention : Reuss Voigt Hill
#
# Bulk Modulus (GPa) = 24.77541 38.12635 31.45088
# Shear Modulus (GPa) = 17.76655 21.59289 19.67972
#
# Velocity S-wave (km/s) = 3.21539 3.54476 3.38408
# Velocity P-wave (km/s) = 5.31058 6.24021 5.79407
#
# Compressibility (1/GPa) = 0.04036260
#
# Stress axis : x y z
#
# Youngs Moduli (GPa) = 54.71195 68.22802 19.78001
#
# Poissons Ratio (x) = 0.38257 0.19057
# Poissons Ratio (y) = 0.30678 0.12505
# Poissons Ratio (z) = 0.52713 0.43134
#
# Static dielectric constant tensor:
#      x y z
#    x 1.582550 0.000000 0.000000 
#    y 0.000000 1.586550 0.000000 
#    z 0.000000 0.000000 1.581590 
# 
# From -- ./inp_files/9217.got.cif
#   From: 2010.05.17/outbox.cif.g08.bks.cpg/sg58_5_cif.got.tgz:9217.got - 2010.06.03 14:20:14.
