data_PCOD9443488
_publ_section_title
;
Structure prediction by ZEFSAII (Michael W. Deem and Ramdas Pophale) SiO2 
 PCOD9443488
Probable space group: P N N M
;
_chemical_formula_sum "Si O2"
_cell_formula_units_Z 32
_cell_length_a 15.060026
_cell_length_b 7.414584
_cell_length_c 14.334051
_cell_angle_alpha 90.000000
_cell_angle_beta 90.000000
_cell_angle_gamma 90.000000
_cell_volume 1600.595003
_symmetry_space_group_name_H-M "P N N M"
_symmetry_group_IT_number 58
_symmetry_cell_setting 'orthorhombic'
loop_
_space_group_symop_operation_xyz
x,y,z
-x,-y,z
1/2+x,1/2-y,1/2-z
1/2-x,1/2+y,1/2-z
-x,-y,-z
x,y,-z
1/2-x,1/2+y,1/2+z
1/2+x,1/2-y,1/2+z
loop_
_atom_site_type_symbol
_atom_site_label
_atom_site_fract_x
_atom_site_fract_y
_atom_site_fract_z
Si Si1 0.085051 0.232478 0.195402
Si Si2 0.719945 0.993119 0.609142
Si Si3 0.599557 0.663489 0.611488
Si Si4 0.084958 0.128624 0.396361
O O1 0.164791 0.358282 0.163514
O O2 0.073886 0.252319 0.306208
O O3 0.991255 0.262908 0.143162
O O4 0.105280 0.024382 0.166816
O O5 0.700779 0.023970 0.500000
O O6 0.680859 0.795826 0.632222
O O7 0.825354 0.986041 0.620498
O O8 0.596020 0.627904 0.500000
O O9 0.094027 0.212780 0.500000
O O10 0.000000 0.000000 0.397627
#
# Coordination Sequence:
#
# PCOD9443488 Si02
#       4
#     8   8   8   8
#     4  11  20  35  63  87 115 153 189 232 295 346
#     4  10  22  38  61  88 116 149 189 241 291 341
#     4  10  20  36  59  93 121 141 184 245 299 342
#     4  10  22  40  58  82 119 160 197 234 280 339
#
# _framework density 19.992566
#
# number of rings (size 3 to 8) (size 9 to 14) (size 15 to 20)
#    0.000    1.750    2.500    3.750    3.500    2.000 
#    0.000    0.000    0.000    4.500    0.000    0.000 
#    0.000    0.000    0.000    0.000    0.000    0.000 
#
# Total GULP energy -178632.889908 kJ/mol
# GULP energy per Si atom -5582.277810 kJ/mol
# Density = 1.994706 g / cm^3
# Si number density = 19.992566 Si / 1000 Ang^3
#
#
#
# Elastic Constant Matrix: (Units=GPa)
#
#
# Indices 1 2 3 4 5 6 
#
# 1 129.9664 34.5828 25.7280 0.0000 0.0000 0.0000
# 2 34.5828 37.4756 16.1994 0.0000 0.0000 0.0000
# 3 25.7280 16.1994 102.6303 0.0000 0.0000 0.0000
# 4 0.0000 0.0000 0.0000 -5.4323 0.0000 0.0000
# 5 0.0000 0.0000 0.0000 0.0000 113.5121 0.0000
# 6 0.0000 0.0000 0.0000 0.0000 0.0000 3.6835
#
#
#
# Elastic Compliance Matrix: (Units=1/GPa)
#
#
# Indices 1 2 3 4 5 6 
#
# 1 0.010327 -0.009026 -0.001164 0.000000 0.000000 0.000000
# 2 -0.009026 0.036528 -0.003503 0.000000 0.000000 0.000000
# 3 -0.001164 -0.003503 0.010588 0.000000 0.000000 0.000000
# 4 0.000000 0.000000 0.000000 -0.184085 0.000000 0.000000
# 5 0.000000 0.000000 0.000000 0.000000 0.008810 0.000000
# 6 0.000000 0.000000 0.000000 0.000000 0.000000 0.271482
#
#
# Mechanical properties :
#
#
# Convention : Reuss Voigt Hill
#
# Bulk Modulus (GPa) = 33.27078 47.01030 40.14054
# Shear Modulus (GPa) = 26.17059 35.25680 30.71370
#
# Velocity S-wave (km/s) = 3.62196 4.20396 3.92376
# Velocity P-wave (km/s) = 5.84544 6.86508 6.37567
#
# Compressibility (1/GPa) = 0.03005640
#
# Stress axis : x y z
#
# Youngs Moduli (GPa) = 96.83810 27.37651 94.44289
#
# Poissons Ratio (x) = 0.24711 0.10993
# Poissons Ratio (y) = 0.87408 0.33082
# Poissons Ratio (z) = 0.11272 0.09590
#
# Static dielectric constant tensor:
#      x y z
#    x 1.704870 0.000000 0.000000 
#    y 0.000000 1.639140 0.000000 
#    z 0.000000 0.000000 1.739750 
# 
# From -- ./inp_files/19311.got.cif
#   From: 2010.05.17/outbox.cif.g08.bks.cpg/sg58_10_cif.got.tgz:19311.got - 2010.06.03 14:20:14.
