data_PCOD9443810
_publ_section_title
;
Structure prediction by ZEFSAII (Michael W. Deem and Ramdas Pophale) SiO2 
 PCOD9443810
Probable space group: P N N M
;
_chemical_formula_sum "Si O2"
_cell_formula_units_Z 52
_cell_length_a 9.353975
_cell_length_b 16.883381
_cell_length_c 17.927052
_cell_angle_alpha 90.000000
_cell_angle_beta 90.000000
_cell_angle_gamma 90.000000
_cell_volume 2831.160590
_symmetry_space_group_name_H-M "P N N M"
_symmetry_group_IT_number 58
_symmetry_cell_setting 'orthorhombic'
loop_
_space_group_symop_operation_xyz
x,y,z
-x,-y,z
1/2+x,1/2-y,1/2-z
1/2-x,1/2+y,1/2-z
-x,-y,-z
x,y,-z
1/2-x,1/2+y,1/2+z
1/2+x,1/2-y,1/2+z
loop_
_atom_site_type_symbol
_atom_site_label
_atom_site_fract_x
_atom_site_fract_y
_atom_site_fract_z
Si Si1 0.729306 0.930254 0.087045
Si Si2 0.500000 0.500000 0.190733
Si Si3 0.331931 0.416797 0.678565
Si Si4 0.510634 0.126864 0.371360
Si Si5 0.007001 0.408894 0.288711
Si Si6 0.233163 0.508074 0.086544
Si Si7 0.478363 0.694866 0.582957
O O1 0.593069 0.909665 0.138713
O O2 0.832184 0.854548 0.089014
O O3 0.811093 0.004555 0.126204
O O4 0.695547 0.948178 0.000000
O O5 0.579228 0.559782 0.247761
O O6 0.370908 0.527496 0.137038
O O7 0.170419 0.390868 0.694210
O O8 0.413901 0.346614 0.638849
O O9 0.465939 0.138813 0.284762
O O10 0.380359 0.079708 0.409091
O O11 0.540901 0.212445 0.404448
O O12 0.647884 0.068971 0.381637
O O13 0.000000 0.500000 0.261596
O O14 0.270787 0.493819 0.000000
O O15 0.535673 0.681584 0.500000
#
# Coordination Sequence:
#
# PCOD9443810 Si02
#       7
#     8   4   8   8   8   8   8
#     4  10  21  38  61  88 122 158 196 242 293 348
#     4  12  21  40  61  92 118 152 204 250 289 360
#     4  11  21  38  60  85 121 157 194 240 293 348
#     4  11  21  40  63  85 116 156 202 240 297 361
#     4  10  20  38  61  89 115 156 199 241 288 353
#     4  11  22  40  64  86 116 155 196 249 304 349
#     4  11  23  37  58  88 119 154 200 244 289 351
#
# _framework density 18.367025999999999
#
# number of rings (size 3 to 8) (size 9 to 14) (size 15 to 20)
#    0.000    1.231    4.615    3.462    0.000    5.846 
#    0.000    0.000    0.000    1.846    0.000    0.000 
#    0.000    0.000    0.000    0.000    0.000    0.000 
#
# Total GULP energy -290023.071940 kJ/mol
# GULP energy per Si atom -5577.366768 kJ/mol
# Density = 1.832522 g / cm^3
# Si number density = 18.367026 Si / 1000 Ang^3
#
#
#
# Elastic Constant Matrix: (Units=GPa)
#
#
# Indices 1 2 3 4 5 6 
#
# 1 89.1049 21.7315 42.4064 0.0000 0.0000 0.0000
# 2 21.7315 72.4826 23.7378 0.0000 0.0000 0.0000
# 3 42.4064 23.7378 134.0308 0.0000 0.0000 0.0000
# 4 0.0000 0.0000 0.0000 16.5626 0.0000 0.0000
# 5 0.0000 0.0000 0.0000 0.0000 56.6843 0.0000
# 6 0.0000 0.0000 0.0000 0.0000 0.0000 8.1535
#
#
#
# Elastic Compliance Matrix: (Units=1/GPa)
#
#
# Indices 1 2 3 4 5 6 
#
# 1 0.013750 -0.002864 -0.003843 0.000000 0.000000 0.000000
# 2 -0.002864 0.015242 -0.001793 0.000000 0.000000 0.000000
# 3 -0.003843 -0.001793 0.008995 0.000000 0.000000 0.000000
# 4 0.000000 0.000000 0.000000 0.060377 0.000000 0.000000
# 5 0.000000 0.000000 0.000000 0.000000 0.017642 0.000000
# 6 0.000000 0.000000 0.000000 0.000000 0.000000 0.122647
#
#
# Mechanical properties :
#
#
# Convention : Reuss Voigt Hill
#
# Bulk Modulus (GPa) = 47.65066 52.37441 50.01254
# Shear Modulus (GPa) = 19.03677 30.12957 24.58317
#
# Velocity S-wave (km/s) = 3.22291 4.05460 3.66244
# Velocity P-wave (km/s) = 6.31264 7.10613 6.72110
#
# Compressibility (1/GPa) = 0.02098607
#
# Stress axis : x y z
#
# Youngs Moduli (GPa) = 72.72582 65.60642 111.17801
#
# Poissons Ratio (x) = 0.18789 0.42729
# Poissons Ratio (y) = 0.20828 0.19939
# Poissons Ratio (z) = 0.27951 0.11766
#
# Static dielectric constant tensor:
#      x y z
#    x 1.593370 0.000000 0.000000 
#    y 0.000000 1.587170 0.000000 
#    z 0.000000 0.000000 1.688410 
# 
# From -- ./inp_files/25477.got.cif
#   From: 2010.05.17/outbox.cif.g08.bks.cpg/sg58_13_cif.got.tgz:25477.got - 2010.06.03 14:20:14.
