data_PCOD9443485
_publ_section_title
;
Structure prediction by ZEFSAII (Michael W. Deem and Ramdas Pophale) SiO2 
 PCOD9443485
Probable space group: P N N M
;
_chemical_formula_sum "Si O2"
_cell_formula_units_Z 64
_cell_length_a 12.033343
_cell_length_b 29.562750
_cell_length_c 9.459826
_cell_angle_alpha 90.000000
_cell_angle_beta 90.000000
_cell_angle_gamma 90.000000
_cell_volume 3365.226305
_symmetry_space_group_name_H-M "P N N M"
_symmetry_group_IT_number 58
_symmetry_cell_setting 'orthorhombic'
loop_
_space_group_symop_operation_xyz
x,y,z
-x,-y,z
1/2+x,1/2-y,1/2-z
1/2-x,1/2+y,1/2-z
-x,-y,-z
x,y,-z
1/2-x,1/2+y,1/2+z
1/2+x,1/2-y,1/2+z
loop_
_atom_site_type_symbol
_atom_site_label
_atom_site_fract_x
_atom_site_fract_y
_atom_site_fract_z
Si Si1 0.078244 0.369350 0.843003
Si Si2 0.215728 0.833156 0.777712
Si Si3 0.625235 0.836115 0.829650
Si Si4 0.704224 0.070769 0.844706
Si Si5 0.973347 0.821477 0.663171
Si Si6 0.234008 0.233096 0.339284
Si Si7 0.871223 0.988616 0.831982
Si Si8 0.705267 0.400584 0.833987
O O1 0.194452 0.341869 0.846230
O O2 0.112486 0.417595 0.773580
O O3 0.996543 0.344707 0.733945
O O4 0.031181 0.372790 0.000000
O O5 0.231529 0.881152 0.854120
O O6 0.087831 0.826536 0.742600
O O7 0.253947 0.786481 0.845804
O O8 0.677579 0.790176 0.764921
O O9 0.700844 0.875670 0.759517
O O10 0.627129 0.836531 0.000000
O O11 0.791536 0.031834 0.808463
O O12 0.655515 0.061025 0.000000
O O13 0.000864 0.812513 0.500000
O O14 0.888253 0.782390 0.710493
O O15 0.901069 0.867172 0.672354
O O16 0.248331 0.214302 0.500000
O O17 0.828122 0.947679 0.736681
O O18 0.865105 0.977239 0.000000
O O19 0.000000 0.000000 0.800588
O O20 0.736202 0.404958 0.000000
#
# Coordination Sequence:
#
# PCOD9443485 Si02
#       8
#     8   8   8   8   8   8   8   8
#     4  10  22  38  60  86 118 154 198 247 293 348
#     4  10  21  34  61  86 117 157 198 242 297 348
#     4  11  23  41  64  86 119 160 202 247 302 362
#     4   9  20  36  55  84 120 156 194 235 291 350
#     4   9  19  37  57  84 118 152 192 245 296 347
#     4  10  22  39  60  87 119 156 201 247 294 351
#     4  10  20  36  59  90 127 161 197 244 297 361
#     4  10  21  39  64  91 120 156 201 250 303 356
#
# _framework density 19.018038000000001
#
# number of rings (size 3 to 8) (size 9 to 14) (size 15 to 20)
#    0.750    1.375    0.000    4.125    1.750    1.750 
#    0.000    6.250    0.000    3.750    0.000    0.000 
#    0.000    0.000    0.000    0.000    0.000    0.000 
#
# Total GULP energy -356415.401199 kJ/mol
# GULP energy per Si atom -5568.990644 kJ/mol
# Density = 1.897475 g / cm^3
# Si number density = 19.018038 Si / 1000 Ang^3
#
#
#
# Elastic Constant Matrix: (Units=GPa)
#
#
# Indices 1 2 3 4 5 6 
#
# 1 64.9048 8.7547 29.7705 0.0000 0.0000 0.0000
# 2 8.7547 96.8197 27.8027 0.0000 0.0000 0.0000
# 3 29.7705 27.8027 109.3965 0.0000 0.0000 0.0000
# 4 0.0000 0.0000 0.0000 -389.6825 0.0000 0.0000
# 5 0.0000 0.0000 0.0000 0.0000 -18.4997 0.0000
# 6 0.0000 0.0000 0.0000 0.0000 0.0000 9.0590
#
#
#
# Elastic Compliance Matrix: (Units=1/GPa)
#
#
# Indices 1 2 3 4 5 6 
#
# 1 0.017609 -0.000233 -0.004733 0.000000 0.000000 0.000000
# 2 -0.000233 0.011145 -0.002769 0.000000 0.000000 0.000000
# 3 -0.004733 -0.002769 0.011133 0.000000 0.000000 0.000000
# 4 0.000000 0.000000 0.000000 -0.002566 0.000000 0.000000
# 5 0.000000 0.000000 0.000000 0.000000 -0.054055 0.000000
# 6 0.000000 0.000000 0.000000 0.000000 0.000000 0.110388
#
#
# Mechanical properties :
#
#
# Convention : Reuss Voigt Hill
#
# Bulk Modulus (GPa) = 40.95519 44.86409 42.90964
# Shear Modulus (GPa) = 42.63948 -66.17176 -11.76614
#
# Velocity S-wave (km/s) = 4.74017 -5.90506 -2.49003
# Velocity P-wave (km/s) = 7.17918 4.78032 3.78742
#
# Compressibility (1/GPa) = 0.02441693
#
# Stress axis : x y z
#
# Youngs Moduli (GPa) = 56.78754 89.72885 89.82511
#
# Poissons Ratio (x) = 0.02093 0.42513
# Poissons Ratio (y) = 0.01324 0.24872
# Poissons Ratio (z) = 0.26877 0.24845
#
# Static dielectric constant tensor:
#      x y z
#    x 1.664780 0.000000 0.000000 
#    y 0.000000 1.651770 0.000000 
#    z 0.000000 0.000000 1.682060 
# 
# From -- ./inp_files/4773.got.cif
#   From: 2010.05.17/outbox.cif.g08.bks.cpg/sg58_3_cif.got.tgz:4773.got - 2010.06.03 14:20:14.
