data_PCOD9443843
_publ_section_title
;
Structure prediction by ZEFSAII (Michael W. Deem and Ramdas Pophale) SiO2 
 PCOD9443843
Probable space group: P N N M
;
_chemical_formula_sum "Si O2"
_cell_formula_units_Z 56
_cell_length_a 14.806415
_cell_length_b 21.199098
_cell_length_c 7.861108
_cell_angle_alpha 90.000000
_cell_angle_beta 90.000000
_cell_angle_gamma 90.000000
_cell_volume 2467.465353
_symmetry_space_group_name_H-M "P N N M"
_symmetry_group_IT_number 58
_symmetry_cell_setting 'orthorhombic'
loop_
_space_group_symop_operation_xyz
x,y,z
-x,-y,z
1/2+x,1/2-y,1/2-z
1/2-x,1/2+y,1/2-z
-x,-y,-z
x,y,-z
1/2-x,1/2+y,1/2+z
1/2+x,1/2-y,1/2+z
loop_
_atom_site_type_symbol
_atom_site_label
_atom_site_fract_x
_atom_site_fract_y
_atom_site_fract_z
Si Si1 0.409322 0.676303 0.206651
Si Si2 0.383932 0.133721 0.306734
Si Si3 0.711181 0.989745 0.293758
Si Si4 0.102213 0.775016 0.698052
Si Si5 0.701396 0.205894 0.701066
Si Si6 0.406719 0.530143 0.207459
Si Si7 0.928629 0.596686 0.308496
O O1 0.507039 0.701470 0.269219
O O2 0.332540 0.722718 0.274674
O O3 0.400272 0.603542 0.254542
O O4 0.406288 0.680368 0.000000
O O5 0.356571 0.149113 0.500000
O O6 0.316792 0.080631 0.238028
O O7 0.392128 0.199453 0.210382
O O8 0.483058 0.102170 0.306207
O O9 0.708082 0.989885 0.500000
O O10 0.813803 0.003567 0.239862
O O11 0.638065 0.039573 0.232138
O O12 0.101142 0.793582 0.500000
O O13 0.196667 0.801078 0.768853
O O14 0.700377 0.190750 0.500000
O O15 0.630263 0.159973 0.789058
O O16 0.500000 0.500000 0.268879
O O17 0.408839 0.527862 0.000000
O O18 0.962784 0.590684 0.500000
#
# Coordination Sequence:
#
# PCOD9443843 Si02
#       7
#     8   8   8   8   8   8   8
#     4  10  20  38  62  91 122 158 200 248 299 356
#     4  11  22  39  63  92 123 158 201 250 306 368
#     4  10  22  39  61  89 120 159 203 249 301 364
#     4  10  22  37  60  91 124 160 199 245 301 362
#     4  11  23  39  61  91 123 163 204 249 305 362
#     4   9  19  36  63  92 120 158 202 246 295 356
#     4  12  25  40  60  88 121 161 204 255 310 361
#
# _framework density 22.695354999999999
#
# number of rings (size 3 to 8) (size 9 to 14) (size 15 to 20)
#    0.000    1.571    1.429    3.429    2.000    5.143 
#    0.000    0.714    0.000    0.857    0.000    0.000 
#    0.000    0.000    0.000    0.000    0.000    0.000 
#
# Total GULP energy -313200.038776 kJ/mol
# GULP energy per Si atom -5592.857835 kJ/mol
# Density = 2.264370 g / cm^3
# Si number density = 22.695355 Si / 1000 Ang^3
#
#
#
# Elastic Constant Matrix: (Units=GPa)
#
#
# Indices 1 2 3 4 5 6 
#
# 1 111.5388 -2.4152 -5.6419 0.0000 0.0000 0.0000
# 2 -2.4152 43.2318 -8.7300 0.0000 0.0000 0.0000
# 3 -5.6419 -8.7300 38.4321 0.0000 0.0000 0.0000
# 4 0.0000 0.0000 0.0000 31.8819 0.0000 0.0000
# 5 0.0000 0.0000 0.0000 0.0000 11.4400 0.0000
# 6 0.0000 0.0000 0.0000 0.0000 0.0000 25.0856
#
#
#
# Elastic Compliance Matrix: (Units=1/GPa)
#
#
# Indices 1 2 3 4 5 6 
#
# 1 0.009060 0.000812 0.001514 0.000000 0.000000 0.000000
# 2 0.000812 0.024316 0.005643 0.000000 0.000000 0.000000
# 3 0.001514 0.005643 0.027524 0.000000 0.000000 0.000000
# 4 0.000000 0.000000 0.000000 0.031366 0.000000 0.000000
# 5 0.000000 0.000000 0.000000 0.000000 0.087413 0.000000
# 6 0.000000 0.000000 0.000000 0.000000 0.000000 0.039863
#
#
# Mechanical properties :
#
#
# Convention : Reuss Voigt Hill
#
# Bulk Modulus (GPa) = 13.01447 17.73649 15.37548
# Shear Modulus (GPa) = 21.81347 27.68082 24.74714
#
# Velocity S-wave (km/s) = 3.10359 3.49616 3.30571
# Velocity P-wave (km/s) = 4.31160 4.91218 4.62166
#
# Compressibility (1/GPa) = 0.07683755
#
# Stress axis : x y z
#
# Youngs Moduli (GPa) = 110.37919 41.12532 36.33200
#
# Poissons Ratio (x) = -0.03339 -0.05502
# Poissons Ratio (y) = -0.08962 -0.20501
# Poissons Ratio (z) = -0.16716 -0.23205
#
# Static dielectric constant tensor:
#      x y z
#    x 1.845820 0.000000 0.000000 
#    y 0.000000 1.807250 0.000000 
#    z 0.000000 0.000000 1.839100 
# 
# From -- ./inp_files/6242.got.cif
#   From: 2010.05.17/outbox.cif.g08.bks.cpg/sg58_4_cif.got.tgz:6242.got - 2010.06.03 14:20:14.
