data_PCOD9443892
_publ_section_title
;
Structure prediction by ZEFSAII (Michael W. Deem and Ramdas Pophale) SiO2 
 PCOD9443892
Probable space group: P N N M
;
_chemical_formula_sum "Si O2"
_cell_formula_units_Z 64
_cell_length_a 15.677363
_cell_length_b 9.986410
_cell_length_c 21.236509
_cell_angle_alpha 90.000000
_cell_angle_beta 90.000000
_cell_angle_gamma 90.000000
_cell_volume 3324.800052
_symmetry_space_group_name_H-M "P N N M"
_symmetry_group_IT_number 58
_symmetry_cell_setting 'orthorhombic'
loop_
_space_group_symop_operation_xyz
x,y,z
-x,-y,z
1/2+x,1/2-y,1/2-z
1/2-x,1/2+y,1/2-z
-x,-y,-z
x,y,-z
1/2-x,1/2+y,1/2+z
1/2+x,1/2-y,1/2+z
loop_
_atom_site_type_symbol
_atom_site_label
_atom_site_fract_x
_atom_site_fract_y
_atom_site_fract_z
Si Si1 0.428497 0.888157 0.706781
Si Si2 0.815976 0.138607 0.131320
Si Si3 0.000954 0.148890 0.120414
Si Si4 0.431606 0.681196 0.806160
Si Si5 0.763821 0.598490 0.873838
Si Si6 0.820972 0.871272 0.931829
Si Si7 0.676381 0.335428 0.925641
Si Si8 0.124376 0.890957 0.271731
O O1 0.469800 0.765977 0.666796
O O2 0.401429 0.817074 0.771939
O O3 0.348281 0.940667 0.666343
O O4 0.500000 0.000000 0.716324
O O5 0.741400 0.226673 0.103172
O O6 0.841873 0.157410 0.204161
O O7 0.905726 0.171437 0.096342
O O8 0.796783 0.982484 0.119244
O O9 0.076278 0.138191 0.070512
O O10 0.000000 0.000000 0.152066
O O11 0.405906 0.672678 0.879525
O O12 0.385806 0.552739 0.774214
O O13 0.532333 0.665719 0.792521
O O14 0.787271 0.725016 0.916191
O O15 0.723436 0.476930 0.912656
O O16 0.693942 0.644908 0.823488
O O17 0.791752 0.917696 0.000000
O O18 0.660311 0.317556 0.000000
#
# Coordination Sequence:
#
# PCOD9443892 Si02
#       8
#     8   8   8   8   8   8   8   8
#     4  11  20  35  57  92 126 146 189 248 319 359
#     4  11  20  34  61  88 117 154 196 250 300 357
#     4   9  18  32  55  83 115 158 194 237 286 355
#     4  10  21  39  62  87 119 155 194 256 297 352
#     4  10  22  38  59  88 116 157 197 251 296 346
#     4  10  21  36  55  83 121 159 195 234 288 359
#     4  11  24  41  59  85 123 163 202 238 297 367
#     4  10  20  38  65  91 110 147 210 256 300 337
#
# _framework density 19.249278
#
# number of rings (size 3 to 8) (size 9 to 14) (size 15 to 20)
#    0.000    1.750    1.250    4.500    1.750    3.750 
#    2.250    5.625    0.000    4.500    0.000    0.000 
#    0.000    0.000    0.000    0.000    0.000    0.000 
#
# Total GULP energy -357084.698154 kJ/mol
# GULP energy per Si atom -5579.448409 kJ/mol
# Density = 1.920547 g / cm^3
# Si number density = 19.249278 Si / 1000 Ang^3
#
#
#
# Elastic Constant Matrix: (Units=GPa)
#
#
# Indices 1 2 3 4 5 6 
#
# 1 53.4632 11.8769 37.4706 0.0000 0.0000 0.0000
# 2 11.8769 51.2450 34.5892 0.0000 0.0000 0.0000
# 3 37.4706 34.5892 128.6187 0.0000 0.0000 0.0000
# 4 0.0000 0.0000 0.0000 11.4550 0.0000 0.0000
# 5 0.0000 0.0000 0.0000 0.0000 12.5594 0.0000
# 6 0.0000 0.0000 0.0000 0.0000 0.0000 19.7493
#
#
#
# Elastic Compliance Matrix: (Units=1/GPa)
#
#
# Indices 1 2 3 4 5 6 
#
# 1 0.023546 -0.001011 -0.006588 0.000000 0.000000 0.000000
# 2 -0.001011 0.023885 -0.006129 0.000000 0.000000 0.000000
# 3 -0.006588 -0.006129 0.011342 0.000000 0.000000 0.000000
# 4 0.000000 0.000000 0.000000 0.087298 0.000000 0.000000
# 5 0.000000 0.000000 0.000000 0.000000 0.079621 0.000000
# 6 0.000000 0.000000 0.000000 0.000000 0.000000 0.050635
#
#
# Mechanical properties :
#
#
# Convention : Reuss Voigt Hill
#
# Bulk Modulus (GPa) = 31.92959 44.57783 38.25371
# Shear Modulus (GPa) = 15.91226 18.71209 17.31217
#
# Velocity S-wave (km/s) = 2.87826 3.12122 3.00220
# Velocity P-wave (km/s) = 5.26016 6.01646 5.65098
#
# Compressibility (1/GPa) = 0.03131892
#
# Stress axis : x y z
#
# Youngs Moduli (GPa) = 42.46955 41.86690 88.16421
#
# Poissons Ratio (x) = 0.04231 0.58083
# Poissons Ratio (y) = 0.04292 0.54036
# Poissons Ratio (z) = 0.27979 0.25660
#
# Static dielectric constant tensor:
#      x y z
#    x 1.688040 0.000000 0.000000 
#    y 0.000000 1.679450 0.000000 
#    z 0.000000 0.000000 1.686840 
# 
# From -- ./inp_files/30302.got.cif
#   From: 2010.05.17/outbox.cif.g08.bks.cpg/sg58_16_cif.got.tgz:30302.got - 2010.06.03 14:20:14.
