data_PCOD9443207
_publ_section_title
;
Structure prediction by ZEFSAII (Michael W. Deem and Ramdas Pophale) SiO2 
 PCOD9443207
Probable space group: P N N M
;
_chemical_formula_sum "Si O2"
_cell_formula_units_Z 48
_cell_length_a 7.771706
_cell_length_b 12.892688
_cell_length_c 21.146886
_cell_angle_alpha 90.000000
_cell_angle_beta 90.000000
_cell_angle_gamma 90.000000
_cell_volume 2118.879504
_symmetry_space_group_name_H-M "P N N M"
_symmetry_group_IT_number 58
_symmetry_cell_setting 'orthorhombic'
loop_
_space_group_symop_operation_xyz
x,y,z
-x,-y,z
1/2+x,1/2-y,1/2-z
1/2-x,1/2+y,1/2-z
-x,-y,-z
x,y,-z
1/2-x,1/2+y,1/2+z
1/2+x,1/2-y,1/2+z
loop_
_atom_site_type_symbol
_atom_site_label
_atom_site_fract_x
_atom_site_fract_y
_atom_site_fract_z
Si Si1 0.876058 0.628114 0.309924
Si Si2 0.018961 0.743372 0.809625
Si Si3 0.134310 0.363890 0.071680
Si Si4 0.321056 0.564416 0.734150
Si Si5 0.496733 0.240049 0.070789
Si Si6 0.680363 0.437654 0.882287
O O1 0.987471 0.671489 0.251515
O O2 0.697530 0.694624 0.308389
O O3 0.815818 0.510813 0.298535
O O4 0.968170 0.656474 0.375136
O O5 0.987559 0.680235 0.873771
O O6 0.869447 0.830756 0.801918
O O7 0.311019 0.296015 0.076718
O O8 0.188386 0.482302 0.086175
O O9 0.070282 0.353677 0.000000
O O10 0.500000 0.500000 0.735016
O O11 0.280133 0.580911 0.808338
O O12 0.635709 0.331944 0.082005
O O13 0.512333 0.198339 0.000000
O O14 0.500000 0.500000 0.882734
#
# Coordination Sequence:
#
# PCOD9443207 Si02
#       6
#     8   8   8   8   8   8
#     4  11  21  36  57  80 108 142 181 223 266 316
#     4  11  21  36  57  80 108 142 181 223 266 316
#     4  10  20  35  56  82 111 144 180 219 267 321
#     4   9  18  33  55  79 105 139 182 219 258 321
#     4  10  20  35  56  82 111 144 180 219 267 321
#     4   9  15  30  55  81 109 141 177 215 262 324
#
# _framework density 22.653483999999999
#
# number of rings (size 3 to 8) (size 9 to 14) (size 15 to 20)
#    0.000    2.000    3.333    1.500    0.000    2.667 
#    0.000    6.667    0.000    7.000    0.000    0.000 
#    0.000    0.000    0.000    0.000    0.000    0.000 
#
# Total GULP energy -268884.081459 kJ/mol
# GULP energy per Si atom -5601.751697 kJ/mol
# Density = 2.260192 g / cm^3
# Si number density = 22.653484 Si / 1000 Ang^3
#
#
#
# Elastic Constant Matrix: (Units=GPa)
#
#
# Indices 1 2 3 4 5 6 
#
# 1 105.0477 9.0743 44.1336 0.0000 0.0000 0.0000
# 2 9.0743 93.8683 47.1763 0.0000 0.0000 0.0000
# 3 44.1336 47.1763 177.5076 0.0000 0.0000 0.0000
# 4 0.0000 0.0000 0.0000 36.3063 0.0000 0.0000
# 5 0.0000 0.0000 0.0000 0.0000 30.4285 0.0000
# 6 0.0000 0.0000 0.0000 0.0000 0.0000 42.7884
#
#
#
# Elastic Compliance Matrix: (Units=1/GPa)
#
#
# Indices 1 2 3 4 5 6 
#
# 1 0.010640 0.000347 -0.002738 0.000000 0.000000 0.000000
# 2 0.000347 0.012307 -0.003357 0.000000 0.000000 0.000000
# 3 -0.002738 -0.003357 0.007206 0.000000 0.000000 0.000000
# 4 0.000000 0.000000 0.000000 0.027543 0.000000 0.000000
# 5 0.000000 0.000000 0.000000 0.000000 0.032864 0.000000
# 6 0.000000 0.000000 0.000000 0.000000 0.000000 0.023371
#
#
# Mechanical properties :
#
#
# Convention : Reuss Voigt Hill
#
# Bulk Modulus (GPa) = 53.59615 64.13244 58.86430
# Shear Modulus (GPa) = 37.98081 40.30726 39.14403
#
# Velocity S-wave (km/s) = 4.09907 4.22275 4.16137
# Velocity P-wave (km/s) = 6.79070 7.22130 7.00931
#
# Compressibility (1/GPa) = 0.01865806
#
# Stress axis : x y z
#
# Youngs Moduli (GPa) = 93.98809 81.25527 138.76452
#
# Poissons Ratio (x) = -0.02822 0.37989
# Poissons Ratio (y) = -0.03265 0.46586
# Poissons Ratio (z) = 0.25731 0.27279
#
# Static dielectric constant tensor:
#      x y z
#    x 1.936310 0.000000 0.000000 
#    y 0.000000 1.831930 0.000000 
#    z 0.000000 0.000000 1.760260 
# 
# From -- ./inp_files/6030.got.cif
#   From: 2010.05.17/outbox.cif.g08.bks.cpg/sg58_4_cif.got.tgz:6030.got - 2010.06.03 14:20:14.
