data_PCOD9443661
_publ_section_title
;
Structure prediction by ZEFSAII (Michael W. Deem and Ramdas Pophale) SiO2 
 PCOD9443661
Probable space group: P N N M
;
_chemical_formula_sum "Si O2"
_cell_formula_units_Z 56
_cell_length_a 21.380358
_cell_length_b 14.979644
_cell_length_c 7.625030
_cell_angle_alpha 90.000000
_cell_angle_beta 90.000000
_cell_angle_gamma 90.000000
_cell_volume 2442.069513
_symmetry_space_group_name_H-M "P N N M"
_symmetry_group_IT_number 58
_symmetry_cell_setting 'orthorhombic'
loop_
_space_group_symop_operation_xyz
x,y,z
-x,-y,z
1/2+x,1/2-y,1/2-z
1/2-x,1/2+y,1/2-z
-x,-y,-z
x,y,-z
1/2-x,1/2+y,1/2+z
1/2+x,1/2-y,1/2+z
loop_
_atom_site_type_symbol
_atom_site_label
_atom_site_fract_x
_atom_site_fract_y
_atom_site_fract_z
Si Si1 0.009251 0.217585 0.796023
Si Si2 0.473802 0.909199 0.296201
Si Si3 0.907089 0.080667 0.213321
Si Si4 0.126851 0.115544 0.298212
Si Si5 0.769394 0.395778 0.212929
Si Si6 0.168456 0.416264 0.295381
Si Si7 0.286694 0.304054 0.713405
O O1 0.003095 0.315848 0.716811
O O2 0.080848 0.186145 0.788258
O O3 0.964910 0.140405 0.723135
O O4 0.991096 0.224162 0.000000
O O5 0.494361 0.908738 0.500000
O O6 0.398822 0.910074 0.292328
O O7 0.500000 0.000000 0.215013
O O8 0.843884 0.132611 0.264500
O O9 0.904975 0.981109 0.284439
O O10 0.909163 0.072570 0.000000
O O11 0.133042 0.143260 0.500000
O O12 0.196951 0.104749 0.227680
O O13 0.804458 0.483420 0.279081
O O14 0.795620 0.298819 0.265962
O O15 0.770736 0.401083 0.000000
O O16 0.158768 0.395795 0.500000
O O17 0.221387 0.347937 0.226941
O O18 0.285089 0.304640 0.500000
#
# Coordination Sequence:
#
# PCOD9443661 Si02
#       7
#     8   8   8   8   8   8   8
#     4  10  22  38  60  87 114 155 204 246 289 346
#     4  10  23  42  64  88 117 156 202 247 291 345
#     4  10  20  37  60  85 115 153 201 248 291 350
#     4  11  22  37  58  88 124 158 192 240 302 355
#     4  10  21  37  60  86 115 156 199 239 287 350
#     4  11  22  39  62  90 121 155 191 239 300 351
#     4   9  19  36  60  85 115 155 197 242 293 346
#
# _framework density 22.931370000000001
#
# number of rings (size 3 to 8) (size 9 to 14) (size 15 to 20)
#    0.000    1.857    1.429    2.143    2.000    4.857 
#    0.000    2.143    0.000    0.000    0.000    0.000 
#    0.000    0.000    0.000    0.000    0.000    0.000 
#
# Total GULP energy -313104.483410 kJ/mol
# GULP energy per Si atom -5591.151489 kJ/mol
# Density = 2.287918 g / cm^3
# Si number density = 22.931370 Si / 1000 Ang^3
#
#
#
# Elastic Constant Matrix: (Units=GPa)
#
#
# Indices 1 2 3 4 5 6 
#
# 1 40.8330 -3.4992 -10.5650 0.0000 0.0000 0.0000
# 2 -3.4992 112.0187 -9.4599 0.0000 0.0000 0.0000
# 3 -10.5650 -9.4599 48.8819 0.0000 0.0000 0.0000
# 4 0.0000 0.0000 0.0000 11.8634 0.0000 0.0000
# 5 0.0000 0.0000 0.0000 0.0000 19.1030 0.0000
# 6 0.0000 0.0000 0.0000 0.0000 0.0000 18.9988
#
#
#
# Elastic Compliance Matrix: (Units=1/GPa)
#
#
# Indices 1 2 3 4 5 6 
#
# 1 0.026130 0.001315 0.005902 0.000000 0.000000 0.000000
# 2 0.001315 0.009142 0.002053 0.000000 0.000000 0.000000
# 3 0.005902 0.002053 0.022130 0.000000 0.000000 0.000000
# 4 0.000000 0.000000 0.000000 0.084293 0.000000 0.000000
# 5 0.000000 0.000000 0.000000 0.000000 0.052348 0.000000
# 6 0.000000 0.000000 0.000000 0.000000 0.000000 0.052635
#
#
# Mechanical properties :
#
#
# Convention : Reuss Voigt Hill
#
# Bulk Modulus (GPa) = 13.16807 17.18726 15.17767
# Shear Modulus (GPa) = 19.72762 25.01021 22.36892
#
# Velocity S-wave (km/s) = 2.93625 3.30609 3.12664
# Velocity P-wave (km/s) = 4.15335 4.69947 4.43482
#
# Compressibility (1/GPa) = 0.07594129
#
# Stress axis : x y z
#
# Youngs Moduli (GPa) = 38.27064 109.39069 45.18668
#
# Poissons Ratio (x) = -0.14381 -0.26669
# Poissons Ratio (y) = -0.05031 -0.09278
# Poissons Ratio (z) = -0.22587 -0.22461
#
# Static dielectric constant tensor:
#      x y z
#    x 1.825950 0.000000 0.000000 
#    y 0.000000 1.851090 0.000000 
#    z 0.000000 0.000000 1.865510 
# 
# From -- ./inp_files/9032.got.cif
#   From: 2010.05.17/outbox.cif.g08.bks.cpg/sg58_5_cif.got.tgz:9032.got - 2010.06.03 14:20:14.
