data_PCOD9443840
_publ_section_title
;
Structure prediction by ZEFSAII (Michael W. Deem and Ramdas Pophale) SiO2 
 PCOD9443840
Probable space group: P N N M
;
_chemical_formula_sum "Si O2"
_cell_formula_units_Z 40
_cell_length_a 21.001784
_cell_length_b 10.534586
_cell_length_c 8.644554
_cell_angle_alpha 90.000000
_cell_angle_beta 90.000000
_cell_angle_gamma 90.000000
_cell_volume 1912.565212
_symmetry_space_group_name_H-M "P N N M"
_symmetry_group_IT_number 58
_symmetry_cell_setting 'orthorhombic'
loop_
_space_group_symop_operation_xyz
x,y,z
-x,-y,z
1/2+x,1/2-y,1/2-z
1/2-x,1/2+y,1/2-z
-x,-y,-z
x,y,-z
1/2-x,1/2+y,1/2+z
1/2+x,1/2-y,1/2+z
loop_
_atom_site_type_symbol
_atom_site_label
_atom_site_fract_x
_atom_site_fract_y
_atom_site_fract_z
Si Si1 0.221658 0.290827 0.185637
Si Si2 0.916537 0.597938 0.184091
Si Si3 0.194606 0.031262 0.315532
Si Si4 0.948588 0.331707 0.317136
Si Si5 0.432115 0.441143 0.684627
O O1 0.150096 0.337103 0.222944
O O2 0.232573 0.156178 0.264942
O O3 0.269038 0.403115 0.232455
O O4 0.226016 0.275995 0.000000
O O5 0.915937 0.449818 0.230508
O O6 0.976786 0.658190 0.271331
O O7 0.927403 0.609658 0.000000
O O8 0.187324 0.030071 0.500000
O O9 0.125810 0.030004 0.235528
O O10 0.941033 0.347481 0.500000
O O11 0.923848 0.195617 0.263360
O O12 0.500000 0.500000 0.731196
O O13 0.432291 0.426055 0.500000
#
# Coordination Sequence:
#
# PCOD9443840 Si02
#       5
#     8   8   8   8   8
#     4  10  24  44  64  92 128 167 212 258 311 380
#     4  10  20  38  62  88 125 168 210 254 311 383
#     4  11  25  43  66  98 129 167 215 264 318 375
#     4  11  22  36  59  94 127 159 208 264 316 372
#     4  11  24  42  64  89 123 167 212 261 321 383
#
# _framework density 20.91432
#
# number of rings (size 3 to 8) (size 9 to 14) (size 15 to 20)
#    0.000    1.400    0.000    6.000    2.800    9.600 
#    0.000    0.000    0.000    0.000    0.000    0.000 
#    0.000    0.000    0.000    0.000    0.000    0.000 
#
# Total GULP energy -223864.035967 kJ/mol
# GULP energy per Si atom -5596.600899 kJ/mol
# Density = 2.086672 g / cm^3
# Si number density = 20.914320 Si / 1000 Ang^3
#
#
#
# Elastic Constant Matrix: (Units=GPa)
#
#
# Indices 1 2 3 4 5 6 
#
# 1 56.8363 28.9274 9.1620 0.0000 0.0000 0.0000
# 2 28.9274 93.8488 10.3582 0.0000 0.0000 0.0000
# 3 9.1620 10.3582 26.8572 0.0000 0.0000 0.0000
# 4 0.0000 0.0000 0.0000 65.7698 0.0000 0.0000
# 5 0.0000 0.0000 0.0000 0.0000 503.0050 0.0000
# 6 0.0000 0.0000 0.0000 0.0000 0.0000 28.5024
#
#
#
# Elastic Compliance Matrix: (Units=1/GPa)
#
#
# Indices 1 2 3 4 5 6 
#
# 1 0.021490 -0.006073 -0.004989 0.000000 0.000000 0.000000
# 2 -0.006073 0.012846 -0.002882 0.000000 0.000000 0.000000
# 3 -0.004989 -0.002882 0.040048 0.000000 0.000000 0.000000
# 4 0.000000 0.000000 0.000000 0.015205 0.000000 0.000000
# 5 0.000000 0.000000 0.000000 0.000000 0.001988 0.000000
# 6 0.000000 0.000000 0.000000 0.000000 0.000000 0.035085
#
#
# Mechanical properties :
#
#
# Convention : Reuss Voigt Hill
#
# Bulk Modulus (GPa) = 21.50812 30.49308 26.00060
# Shear Modulus (GPa) = 29.40368 128.06174 78.73271
#
# Velocity S-wave (km/s) = 3.75362 7.83355 6.14224
# Velocity P-wave (km/s) = 5.39374 9.81993 7.92223
#
# Compressibility (1/GPa) = 0.04649407
#
# Stress axis : x y z
#
# Youngs Moduli (GPa) = 46.53410 77.84795 24.97034
#
# Poissons Ratio (x) = 0.47279 0.12457
# Poissons Ratio (y) = 0.28261 0.07198
# Poissons Ratio (z) = 0.23214 0.22439
#
# Static dielectric constant tensor:
#      x y z
#    x 1.750770 0.000000 0.000000 
#    y 0.000000 1.754110 0.000000 
#    z 0.000000 0.000000 1.696820 
# 
# From -- ./inp_files/9598.got.cif
#   From: 2010.05.17/outbox.cif.g08.bks.cpg/sg58_5_cif.got.tgz:9598.got - 2010.06.03 14:20:14.
