data_PCOD9443358
_publ_section_title
;
Structure prediction by ZEFSAII (Michael W. Deem and Ramdas Pophale) SiO2 
 PCOD9443358
Probable space group: P N N M
;
_chemical_formula_sum "Si O2"
_cell_formula_units_Z 48
_cell_length_a 8.427421
_cell_length_b 14.589768
_cell_length_c 18.169741
_cell_angle_alpha 90.000000
_cell_angle_beta 90.000000
_cell_angle_gamma 90.000000
_cell_volume 2234.044465
_symmetry_space_group_name_H-M "P N N M"
_symmetry_group_IT_number 58
_symmetry_cell_setting 'orthorhombic'
loop_
_space_group_symop_operation_xyz
x,y,z
-x,-y,z
1/2+x,1/2-y,1/2-z
1/2-x,1/2+y,1/2-z
-x,-y,-z
x,y,-z
1/2-x,1/2+y,1/2+z
1/2+x,1/2-y,1/2+z
loop_
_atom_site_type_symbol
_atom_site_label
_atom_site_fract_x
_atom_site_fract_y
_atom_site_fract_z
Si Si1 0.920541 0.132388 0.334137
Si Si2 0.013581 0.720430 0.130646
Si Si3 0.158657 0.446177 0.917890
Si Si4 0.079697 0.668826 0.295117
Si Si5 0.630853 0.243330 0.917199
Si Si6 0.402313 0.587988 0.314980
O O1 0.799101 0.055065 0.359091
O O2 0.841749 0.228699 0.305929
O O3 0.034245 0.105508 0.267733
O O4 0.021818 0.167137 0.403461
O O5 0.023499 0.671838 0.211126
O O6 0.190596 0.727014 0.099133
O O7 0.954289 0.823622 0.139059
O O8 0.898844 0.659158 0.081700
O O9 0.000000 0.500000 0.896666
O O10 0.205690 0.476029 0.000000
O O11 0.211230 0.592182 0.311384
O O12 0.936669 0.674417 0.354181
O O13 0.613444 0.208841 0.000000
O O14 0.500000 0.500000 0.341689
#
# Coordination Sequence:
#
# PCOD9443358 Si02
#       6
#     8   8   8   8   8   8
#     4   9  20  36  58  84 118 156 196 248 299 362
#     4  11  19  40  60  89 124 158 206 254 293 366
#     4  11  24  38  58  90 128 166 198 243 312 379
#     4   9  19  38  59  83 121 155 204 249 301 348
#     4  10  20  35  66  91 116 164 199 247 316 366
#     4  11  22  37  61  91 116 159 207 254 304 354
#
# _framework density 21.485696000000001
#
# number of rings (size 3 to 8) (size 9 to 14) (size 15 to 20)
#    1.000    0.833    3.333    1.000    4.667    0.000 
#    0.000    0.833    0.000    9.500    0.000    0.000 
#    0.000    0.000    0.000    0.000    0.000    0.000 
#
# Total GULP energy -267690.479915 kJ/mol
# GULP energy per Si atom -5576.884998 kJ/mol
# Density = 2.143679 g / cm^3
# Si number density = 21.485696 Si / 1000 Ang^3
#
#
#
# Elastic Constant Matrix: (Units=GPa)
#
#
# Indices 1 2 3 4 5 6 
#
# 1 45.9812 -14.0432 2.9551 0.0000 0.0000 0.0000
# 2 -14.0432 51.8718 -0.0868 0.0000 0.0000 0.0000
# 3 2.9551 -0.0868 83.0338 0.0000 0.0000 0.0000
# 4 0.0000 0.0000 0.0000 13.0029 0.0000 0.0000
# 5 0.0000 0.0000 0.0000 0.0000 -8.2657 0.0000
# 6 0.0000 0.0000 0.0000 0.0000 0.0000 26.4396
#
#
#
# Elastic Compliance Matrix: (Units=1/GPa)
#
#
# Indices 1 2 3 4 5 6 
#
# 1 0.023767 0.006433 -0.000839 0.000000 0.000000 0.000000
# 2 0.006433 0.021020 -0.000207 0.000000 0.000000 0.000000
# 3 -0.000839 -0.000207 0.012073 0.000000 0.000000 0.000000
# 4 0.000000 0.000000 0.000000 0.076906 0.000000 0.000000
# 5 0.000000 0.000000 0.000000 0.000000 -0.120982 0.000000
# 6 0.000000 0.000000 0.000000 0.000000 0.000000 0.037822
#
#
# Mechanical properties :
#
#
# Convention : Reuss Voigt Hill
#
# Bulk Modulus (GPa) = 14.78573 17.61522 16.20047
# Shear Modulus (GPa) = 80.16009 19.03948 49.59979
#
# Velocity S-wave (km/s) = 6.11470 2.98005 4.80990
# Velocity P-wave (km/s) = 7.53322 4.47854 6.19704
#
# Compressibility (1/GPa) = 0.06763277
#
# Stress axis : x y z
#
# Youngs Moduli (GPa) = 42.07581 47.57480 82.82991
#
# Poissons Ratio (x) = -0.30604 0.06950
# Poissons Ratio (y) = -0.27067 0.01714
# Poissons Ratio (z) = 0.03531 0.00985
#
# Static dielectric constant tensor:
#      x y z
#    x 1.823000 0.000000 0.000000 
#    y 0.000000 1.838000 0.000000 
#    z 0.000000 0.000000 1.763350 
# 
# From -- ./inp_files/25310.got.cif
#   From: 2010.05.17/outbox.cif.g08.bks.cpg/sg58_13_cif.got.tgz:25310.got - 2010.06.03 14:20:14.
