data_PCOD9443142
_publ_section_title
;
Structure prediction by ZEFSAII (Michael W. Deem and Ramdas Pophale) SiO2 
 PCOD9443142
Probable space group: P N N M
;
_chemical_formula_sum "Si O2"
_cell_formula_units_Z 48
_cell_length_a 24.295235
_cell_length_b 10.719932
_cell_length_c 8.794993
_cell_angle_alpha 90.000000
_cell_angle_beta 90.000000
_cell_angle_gamma 90.000000
_cell_volume 2290.596711
_symmetry_space_group_name_H-M "P N N M"
_symmetry_group_IT_number 58
_symmetry_cell_setting 'orthorhombic'
loop_
_space_group_symop_operation_xyz
x,y,z
-x,-y,z
1/2+x,1/2-y,1/2-z
1/2-x,1/2+y,1/2-z
-x,-y,-z
x,y,-z
1/2-x,1/2+y,1/2+z
1/2+x,1/2-y,1/2+z
loop_
_atom_site_type_symbol
_atom_site_label
_atom_site_fract_x
_atom_site_fract_y
_atom_site_fract_z
Si Si1 0.808644 0.046330 0.825292
Si Si2 0.976704 0.697378 0.816909
Si Si3 0.693942 0.829734 0.676641
Si Si4 0.582622 0.936935 0.684447
Si Si5 0.619062 0.332324 0.820066
Si Si6 0.213667 0.314951 0.177974
O O1 0.851107 0.954462 0.746060
O O2 0.831461 0.188657 0.827868
O O3 0.750305 0.070066 0.739189
O O4 0.799880 0.009043 0.000000
O O5 0.944653 0.568770 0.776724
O O6 0.941869 0.807615 0.743197
O O7 0.039452 0.670617 0.768591
O O8 0.975286 0.709929 0.000000
O O9 0.709714 0.857636 0.500000
O O10 0.645037 0.916307 0.734922
O O11 0.746639 0.802978 0.781322
O O12 0.585201 0.933048 0.500000
O O13 0.657812 0.218395 0.762753
O O14 0.619155 0.336486 0.000000
O O15 0.203713 0.327165 0.000000
#
# Coordination Sequence:
#
# PCOD9443142 Si02
#       6
#     8   8   8   8   8   8
#     4   9  19  36  56  78 106 136 177 226 272 325
#     4   9  18  33  56  83 109 142 184 228 274 323
#     4   8  16  33  56  80 107 138 177 222 271 325
#     4   8  15  33  59  83 108 140 182 227 271 328
#     4  12  23  36  53  77 114 150 184 224 271 323
#     4  10  20  35  54  78 106 141 180 220 273 328
#
# _framework density 20.955238999999999
#
# number of rings (size 3 to 8) (size 9 to 14) (size 15 to 20)
#    1.000    1.667    0.000    4.000    0.000    1.333 
#    0.000    9.167    0.000    5.000    0.000    0.000 
#    0.000    0.000    0.000    0.000    0.000    0.000 
#
# Total GULP energy -267646.302606 kJ/mol
# GULP energy per Si atom -5575.964638 kJ/mol
# Density = 2.090754 g / cm^3
# Si number density = 20.955239 Si / 1000 Ang^3
#
#
#
# Elastic Constant Matrix: (Units=GPa)
#
#
# Indices 1 2 3 4 5 6 
#
# 1 66.3594 -13.8025 -1.6462 0.0000 0.0000 0.0000
# 2 -13.8025 37.2417 -0.6874 0.0000 0.0000 0.0000
# 3 -1.6462 -0.6874 82.4972 0.0000 0.0000 0.0000
# 4 0.0000 0.0000 0.0000 39.5129 0.0000 0.0000
# 5 0.0000 0.0000 0.0000 0.0000 21.0713 0.0000
# 6 0.0000 0.0000 0.0000 0.0000 0.0000 36.5492
#
#
#
# Elastic Compliance Matrix: (Units=1/GPa)
#
#
# Indices 1 2 3 4 5 6 
#
# 1 0.016340 0.006063 0.000377 0.000000 0.000000 0.000000
# 2 0.006063 0.029105 0.000363 0.000000 0.000000 0.000000
# 3 0.000377 0.000363 0.012132 0.000000 0.000000 0.000000
# 4 0.000000 0.000000 0.000000 0.025308 0.000000 0.000000
# 5 0.000000 0.000000 0.000000 0.000000 0.047458 0.000000
# 6 0.000000 0.000000 0.000000 0.000000 0.000000 0.027360
#
#
# Mechanical properties :
#
#
# Convention : Reuss Voigt Hill
#
# Bulk Modulus (GPa) = 14.04830 17.09181 15.57005
# Shear Modulus (GPa) = 29.79279 32.90897 31.35088
#
# Velocity S-wave (km/s) = 3.77468 3.96718 3.87213
# Velocity P-wave (km/s) = 5.07111 5.39988 5.23807
#
# Compressibility (1/GPa) = 0.07118298
#
# Stress axis : x y z
#
# Youngs Moduli (GPa) = 61.20017 34.35801 82.42553
#
# Poissons Ratio (x) = -0.20831 -0.03104
# Poissons Ratio (y) = -0.37104 -0.02996
# Poissons Ratio (z) = -0.02305 -0.01249
#
# Static dielectric constant tensor:
#      x y z
#    x 1.765360 0.000000 0.000000 
#    y 0.000000 1.878100 0.000000 
#    z 0.000000 0.000000 1.698890 
# 
# From -- ./inp_files/10328.got.cif
#   From: 2010.05.17/outbox.cif.g08.bks.cpg/sg58_6_cif.got.tgz:10328.got - 2010.06.03 14:20:14.
