data_PCOD9443281
_publ_section_title
;
Structure prediction by ZEFSAII (Michael W. Deem and Ramdas Pophale) SiO2 
 PCOD9443281
Probable space group: P N N M
;
_chemical_formula_sum "Si O2"
_cell_formula_units_Z 44
_cell_length_a 8.406972
_cell_length_b 13.229264
_cell_length_c 18.469425
_cell_angle_alpha 90.000000
_cell_angle_beta 90.000000
_cell_angle_gamma 90.000000
_cell_volume 2054.133471
_symmetry_space_group_name_H-M "P N N M"
_symmetry_group_IT_number 58
_symmetry_cell_setting 'orthorhombic'
loop_
_space_group_symop_operation_xyz
x,y,z
-x,-y,z
1/2+x,1/2-y,1/2-z
1/2-x,1/2+y,1/2-z
-x,-y,-z
x,y,-z
1/2-x,1/2+y,1/2+z
1/2+x,1/2-y,1/2+z
loop_
_atom_site_type_symbol
_atom_site_label
_atom_site_fract_x
_atom_site_fract_y
_atom_site_fract_z
Si Si1 0.574517 0.694306 0.415925
Si Si2 0.360739 0.294179 0.847025
Si Si3 0.743621 0.902312 0.082025
Si Si4 0.000000 0.500000 0.688737
Si Si5 0.837084 0.705442 0.293730
Si Si6 0.893175 0.591241 0.914483
O O1 0.626643 0.685919 0.500000
O O2 0.430282 0.615524 0.404274
O O3 0.713377 0.683441 0.358104
O O4 0.492500 0.804600 0.406724
O O5 0.335783 0.208716 0.908081
O O6 0.257739 0.262153 0.777057
O O7 0.541253 0.290506 0.821620
O O8 0.275964 0.394237 0.875839
O O9 0.648762 0.969290 0.138327
O O10 0.723288 0.938292 0.000000
O O11 0.059883 0.395725 0.724959
O O12 0.000000 0.500000 0.886458
O O13 0.865905 0.575651 0.000000
#
# Coordination Sequence:
#
# PCOD9443281 Si02
#       6
#     8   8   8   4   8   8
#     4   9  19  36  59  84 117 154 191 237 295 353
#     4  10  20  35  58  80 115 152 194 243 291 359
#     4   9  18  36  60  87 117 153 191 237 292 349
#     4  10  23  36  58  88 119 150 198 246 287 362
#     4  11  23  39  57  84 114 158 197 243 302 355
#     4   9  18  35  61  87 112 149 194 241 294 354
#
# _framework density 21.420226
#
# number of rings (size 3 to 8) (size 9 to 14) (size 15 to 20)
#    0.000    2.364    0.000    4.091    1.273    5.091 
#    0.000    2.727    0.000    3.273    0.000    0.000 
#    0.000    0.000    0.000    0.000    0.000    0.000 
#
# Total GULP energy -245659.364075 kJ/mol
# GULP energy per Si atom -5583.167365 kJ/mol
# Density = 2.137147 g / cm^3
# Si number density = 21.420226 Si / 1000 Ang^3
#
#
#
# Elastic Constant Matrix: (Units=GPa)
#
#
# Indices 1 2 3 4 5 6 
#
# 1 81.5413 4.9802 33.8523 0.0000 0.0000 0.0000
# 2 4.9802 55.4317 1.4739 0.0000 0.0000 0.0000
# 3 33.8523 1.4739 62.4095 0.0000 0.0000 0.0000
# 4 0.0000 0.0000 0.0000 17.2504 0.0000 0.0000
# 5 0.0000 0.0000 0.0000 0.0000 28.8405 0.0000
# 6 0.0000 0.0000 0.0000 0.0000 0.0000 27.1720
#
#
#
# Elastic Compliance Matrix: (Units=1/GPa)
#
#
# Indices 1 2 3 4 5 6 
#
# 1 0.015907 -0.001201 -0.008600 0.000000 0.000000 0.000000
# 2 -0.001201 0.018142 0.000223 0.000000 0.000000 0.000000
# 3 -0.008600 0.000223 0.020683 0.000000 0.000000 0.000000
# 4 0.000000 0.000000 0.000000 0.057970 0.000000 0.000000
# 5 0.000000 0.000000 0.000000 0.000000 0.034674 0.000000
# 6 0.000000 0.000000 0.000000 0.000000 0.000000 0.036803
#
#
# Mechanical properties :
#
#
# Convention : Reuss Voigt Hill
#
# Bulk Modulus (GPa) = 28.10844 31.11059 29.60952
# Shear Modulus (GPa) = 23.23493 25.25763 24.24628
#
# Velocity S-wave (km/s) = 3.29708 3.43760 3.36807
# Velocity P-wave (km/s) = 5.25787 5.50560 5.38316
#
# Compressibility (1/GPa) = 0.03557650
#
# Stress axis : x y z
#
# Youngs Moduli (GPa) = 62.86348 55.12024 48.34911
#
# Poissons Ratio (x) = 0.06617 0.41581
# Poissons Ratio (y) = 0.07547 -0.01077
# Poissons Ratio (z) = 0.54064 -0.01228
#
# Static dielectric constant tensor:
#      x y z
#    x 1.764500 0.000000 0.000000 
#    y 0.000000 1.818800 0.000000 
#    z 0.000000 0.000000 1.772260 
# 
# From -- ./inp_files/25225.got.cif
#   From: 2010.05.17/outbox.cif.g08.bks.cpg/sg58_13_cif.got.tgz:25225.got - 2010.06.03 14:20:14.
