data_PCOD9443425
_publ_section_title
;
Structure prediction by ZEFSAII (Michael W. Deem and Ramdas Pophale) SiO2 
 PCOD9443425
Probable space group: P N N M
;
_chemical_formula_sum "Si O2"
_cell_formula_units_Z 56
_cell_length_a 19.682269
_cell_length_b 9.419786
_cell_length_c 15.226387
_cell_angle_alpha 90.000000
_cell_angle_beta 90.000000
_cell_angle_gamma 90.000000
_cell_volume 2823.014205
_symmetry_space_group_name_H-M "P N N M"
_symmetry_group_IT_number 58
_symmetry_cell_setting 'orthorhombic'
loop_
_space_group_symop_operation_xyz
x,y,z
-x,-y,z
1/2+x,1/2-y,1/2-z
1/2-x,1/2+y,1/2-z
-x,-y,-z
x,y,-z
1/2-x,1/2+y,1/2+z
1/2+x,1/2-y,1/2+z
loop_
_atom_site_type_symbol
_atom_site_label
_atom_site_fract_x
_atom_site_fract_y
_atom_site_fract_z
Si Si1 0.862098 0.598986 0.100983
Si Si2 0.433917 0.903728 0.782229
Si Si3 0.808736 0.607423 0.596008
Si Si4 0.232553 0.146945 0.861865
Si Si5 0.504657 0.329997 0.102506
Si Si6 0.645596 0.653532 0.098520
Si Si7 0.732483 0.408854 0.159074
O O1 0.917297 0.589949 0.178623
O O2 0.830438 0.757573 0.109201
O O3 0.799661 0.490366 0.124027
O O4 0.883521 0.574761 0.000000
O O5 0.363179 0.940749 0.831119
O O6 0.449901 0.750515 0.826637
O O7 0.500000 0.000000 0.801342
O O8 0.838111 0.579745 0.500000
O O9 0.740633 0.514450 0.608304
O O10 0.789612 0.772003 0.604421
O O11 0.297689 0.227198 0.900400
O O12 0.239773 0.148235 0.757272
O O13 0.500000 0.500000 0.111670
O O14 0.427155 0.283275 0.119704
O O15 0.522933 0.298552 0.000000
O O16 0.672988 0.526479 0.157931
O O17 0.640216 0.592470 0.000000
#
# Coordination Sequence:
#
# PCOD9443425 Si02
#       7
#     8   8   8   8   8   8   8
#     4  11  24  44  64  86 121 166 209 250 297 359
#     4  12  25  41  60  89 124 167 210 251 291 353
#     4  12  22  36  62  96 127 151 187 253 318 367
#     4  11  20  37  59  91 119 152 194 248 312 362
#     4  10  22  39  61  90 124 162 199 240 302 370
#     4  10  20  36  58  84 120 160 192 235 302 371
#     4  11  20  38  62  94 122 155 196 248 307 367
#
# _framework density 19.836953999999999
#
# number of rings (size 3 to 8) (size 9 to 14) (size 15 to 20)
#    0.000    1.000    2.857    6.429    0.000    3.714 
#    0.000    0.000    0.000    0.429    0.000    0.000 
#    0.000    0.000    0.000    0.000    0.000    0.000 
#
# Total GULP energy -312623.870798 kJ/mol
# GULP energy per Si atom -5582.569121 kJ/mol
# Density = 1.979180 g / cm^3
# Si number density = 19.836954 Si / 1000 Ang^3
#
#
#
# Elastic Constant Matrix: (Units=GPa)
#
#
# Indices 1 2 3 4 5 6 
#
# 1 48.8371 16.2282 18.3352 0.0000 0.0000 0.0000
# 2 16.2282 79.5581 19.9369 0.0000 0.0000 0.0000
# 3 18.3352 19.9369 130.0968 0.0000 0.0000 0.0000
# 4 0.0000 0.0000 0.0000 27.4753 0.0000 0.0000
# 5 0.0000 0.0000 0.0000 0.0000 25.6575 0.0000
# 6 0.0000 0.0000 0.0000 0.0000 0.0000 25.2103
#
#
#
# Elastic Compliance Matrix: (Units=1/GPa)
#
#
# Indices 1 2 3 4 5 6 
#
# 1 0.022779 -0.003995 -0.002598 0.000000 0.000000 0.000000
# 2 -0.003995 0.013772 -0.001547 0.000000 0.000000 0.000000
# 3 -0.002598 -0.001547 0.008290 0.000000 0.000000 0.000000
# 4 0.000000 0.000000 0.000000 0.036396 0.000000 0.000000
# 5 0.000000 0.000000 0.000000 0.000000 0.038975 0.000000
# 6 0.000000 0.000000 0.000000 0.000000 0.000000 0.039666
#
#
# Mechanical properties :
#
#
# Convention : Reuss Voigt Hill
#
# Bulk Modulus (GPa) = 35.01474 40.83253 37.92363
# Shear Modulus (GPa) = 26.92794 29.26807 28.09801
#
# Velocity S-wave (km/s) = 3.68837 3.84530 3.76766
# Velocity P-wave (km/s) = 5.98568 6.35168 6.17140
#
# Compressibility (1/GPa) = 0.02855940
#
# Stress axis : x y z
#
# Youngs Moduli (GPa) = 43.89944 72.61005 120.62878
#
# Poissons Ratio (x) = 0.29011 0.31341
# Poissons Ratio (y) = 0.17540 0.18667
# Poissons Ratio (z) = 0.11406 0.11236
#
# Static dielectric constant tensor:
#      x y z
#    x 1.743520 0.000000 0.000000 
#    y 0.000000 1.727370 0.000000 
#    z 0.000000 0.000000 1.711140 
# 
# From -- ./inp_files/23234.got.cif
#   From: 2010.05.17/outbox.cif.g08.bks.cpg/sg58_12_cif.got.tgz:23234.got - 2010.06.03 14:20:14.
