data_PCOD9443690
_publ_section_title
;
Structure prediction by ZEFSAII (Michael W. Deem and Ramdas Pophale) SiO2 
 PCOD9443690
Probable space group: P N N M
;
_chemical_formula_sum "Si O2"
_cell_formula_units_Z 56
_cell_length_a 6.844867
_cell_length_b 30.143041
_cell_length_c 14.272207
_cell_angle_alpha 90.000000
_cell_angle_beta 90.000000
_cell_angle_gamma 90.000000
_cell_volume 2944.714631
_symmetry_space_group_name_H-M "P N N M"
_symmetry_group_IT_number 58
_symmetry_cell_setting 'orthorhombic'
loop_
_space_group_symop_operation_xyz
x,y,z
-x,-y,z
1/2+x,1/2-y,1/2-z
1/2-x,1/2+y,1/2-z
-x,-y,-z
x,y,-z
1/2-x,1/2+y,1/2+z
1/2+x,1/2-y,1/2+z
loop_
_atom_site_type_symbol
_atom_site_label
_atom_site_fract_x
_atom_site_fract_y
_atom_site_fract_z
Si Si1 0.541269 0.447375 0.108896
Si Si2 0.039170 0.755356 0.890674
Si Si3 0.274011 0.400792 0.258635
Si Si4 0.711689 0.830350 0.104349
Si Si5 0.891983 0.928454 0.892192
Si Si6 0.611193 0.954585 0.740418
Si Si7 0.855324 0.697519 0.733445
O O1 0.500000 0.500000 0.119621
O O2 0.382618 0.420297 0.167751
O O3 0.752005 0.439329 0.155274
O O4 0.536551 0.436297 0.000000
O O5 0.230536 0.768350 0.830283
O O6 0.898616 0.798381 0.890938
O O7 0.919641 0.718433 0.832356
O O8 0.079834 0.744178 0.000000
O O9 0.398155 0.419986 0.345558
O O10 0.267796 0.347715 0.256554
O O11 0.055290 0.419118 0.262389
O O12 0.785087 0.880612 0.114521
O O13 0.551933 0.815762 0.178731
O O14 0.623812 0.825969 0.000000
O O15 0.760857 0.960247 0.827324
O O16 0.903178 0.942038 0.000000
O O17 0.500000 0.000000 0.718710
#
# Coordination Sequence:
#
# PCOD9443690 Si02
#       7
#     8   8   8   8   8   8   8
#     4  10  22  41  65  91 121 161 207 253 302 367
#     4  11  24  40  61  91 122 157 202 249 307 372
#     4  11  23  38  63  92 125 157 204 254 309 359
#     4  10  20  37  61  89 116 153 204 247 294 361
#     4  10  22  38  60  90 123 160 206 255 299 359
#     4  11  22  39  61  90 125 162 203 254 307 366
#     4  12  22  40  66  88 123 161 199 257 312 358
#
# _framework density 19.017122000000001
#
# number of rings (size 3 to 8) (size 9 to 14) (size 15 to 20)
#    0.000    1.286    5.714    0.429    0.000    2.857 
#    0.000    0.714    0.000    0.000    0.000    0.000 
#    0.000    0.000    0.000    0.000    0.000    0.000 
#
# Total GULP energy -312748.906374 kJ/mol
# GULP energy per Si atom -5584.801900 kJ/mol
# Density = 1.897384 g / cm^3
# Si number density = 19.017122 Si / 1000 Ang^3
#
#
#
# Elastic Constant Matrix: (Units=GPa)
#
#
# Indices 1 2 3 4 5 6 
#
# 1 88.6714 9.5268 46.5750 0.0000 0.0000 0.0000
# 2 9.5268 26.9796 14.0636 0.0000 0.0000 0.0000
# 3 46.5750 14.0636 137.4355 0.0000 0.0000 0.0000
# 4 0.0000 0.0000 0.0000 24.1414 0.0000 0.0000
# 5 0.0000 0.0000 0.0000 0.0000 14.2972 0.0000
# 6 0.0000 0.0000 0.0000 0.0000 0.0000 32.0799
#
#
#
# Elastic Compliance Matrix: (Units=1/GPa)
#
#
# Indices 1 2 3 4 5 6 
#
# 1 0.013889 -0.002589 -0.004442 0.000000 0.000000 0.000000
# 2 -0.002589 0.039636 -0.003179 0.000000 0.000000 0.000000
# 3 -0.004442 -0.003179 0.009107 0.000000 0.000000 0.000000
# 4 0.000000 0.000000 0.000000 0.041423 0.000000 0.000000
# 5 0.000000 0.000000 0.000000 0.000000 0.069944 0.000000
# 6 0.000000 0.000000 0.000000 0.000000 0.000000 0.031172
#
#
# Mechanical properties :
#
#
# Convention : Reuss Voigt Hill
#
# Bulk Modulus (GPa) = 23.68942 43.71304 33.70123
# Shear Modulus (GPa) = 20.86291 26.29844 23.58067
#
# Velocity S-wave (km/s) = 3.31578 3.72275 3.52514
# Velocity P-wave (km/s) = 5.20991 6.44318 5.85908
#
# Compressibility (1/GPa) = 0.04221293
#
# Stress axis : x y z
#
# Youngs Moduli (GPa) = 72.00034 25.22956 109.80971
#
# Poissons Ratio (x) = 0.06532 0.48775
# Poissons Ratio (y) = 0.18640 0.34904
# Poissons Ratio (z) = 0.31981 0.08019
#
# Static dielectric constant tensor:
#      x y z
#    x 1.644180 0.000000 0.000000 
#    y 0.000000 1.669100 0.000000 
#    z 0.000000 0.000000 1.648490 
# 
# From -- ./inp_files/18723.got.cif
#   From: 2010.05.17/outbox.cif.g08.bks.cpg/sg58_10_cif.got.tgz:18723.got - 2010.06.03 14:20:14.
