data_PCOD9443379
_publ_section_title
;
Structure prediction by ZEFSAII (Michael W. Deem and Ramdas Pophale) SiO2 
 PCOD9443379
Probable space group: P N N M
;
_chemical_formula_sum "Si O2"
_cell_formula_units_Z 52
_cell_length_a 8.999237
_cell_length_b 11.028772
_cell_length_c 26.287943
_cell_angle_alpha 90.000000
_cell_angle_beta 90.000000
_cell_angle_gamma 90.000000
_cell_volume 2609.092355
_symmetry_space_group_name_H-M "P N N M"
_symmetry_group_IT_number 58
_symmetry_cell_setting 'orthorhombic'
loop_
_space_group_symop_operation_xyz
x,y,z
-x,-y,z
1/2+x,1/2-y,1/2-z
1/2-x,1/2+y,1/2-z
-x,-y,-z
x,y,-z
1/2-x,1/2+y,1/2+z
1/2+x,1/2-y,1/2+z
loop_
_atom_site_type_symbol
_atom_site_label
_atom_site_fract_x
_atom_site_fract_y
_atom_site_fract_z
Si Si1 0.540506 0.129752 0.904682
Si Si2 0.376782 0.260399 0.744441
Si Si3 0.227086 0.158304 0.441747
Si Si4 0.384527 0.891930 0.213199
Si Si5 0.968251 0.359658 0.857922
Si Si6 0.799994 0.222352 0.648968
Si Si7 0.000000 0.000000 0.375485
O O1 0.650340 0.210510 0.937368
O O2 0.611192 0.112405 0.847949
O O3 0.388325 0.201635 0.892865
O O4 0.500000 0.000000 0.926342
O O5 0.545778 0.232876 0.763256
O O6 0.284449 0.384785 0.733805
O O7 0.376498 0.194345 0.689809
O O8 0.304105 0.210534 0.796722
O O9 0.246224 0.122010 0.500000
O O10 0.376708 0.156508 0.409306
O O11 0.114988 0.070841 0.411334
O O12 0.500000 0.000000 0.228384
O O13 0.000000 0.500000 0.847960
O O14 0.130348 0.301420 0.863122
O O15 0.899365 0.098790 0.654238
#
# Coordination Sequence:
#
# PCOD9443379 Si02
#       7
#     8   8   8   8   8   8   4
#     4   9  20  41  63  83 122 161 215 266 307 373
#     4  11  21  35  56  88 119 164 203 242 310 378
#     4  11  23  40  67  95 125 169 216 265 329 381
#     4  10  20  36  56  81 119 158 199 250 304 372
#     4  12  23  40  61  91 134 162 206 267 318 378
#     4  10  22  38  62  92 125 168 204 252 321 382
#     4  10  21  42  62  96 132 160 209 266 314 390
#
# _framework density 19.930302000000001
#
# number of rings (size 3 to 8) (size 9 to 14) (size 15 to 20)
#    0.000    1.538    4.615    0.692    0.000    1.231 
#    0.000    1.538    0.000    0.923    0.000    0.000 
#    0.000    0.000    0.000    0.000    0.000    0.000 
#
# Total GULP energy -289542.378417 kJ/mol
# GULP energy per Si atom -5568.122662 kJ/mol
# Density = 1.988494 g / cm^3
# Si number density = 19.930302 Si / 1000 Ang^3
#
#
#
# Elastic Constant Matrix: (Units=GPa)
#
#
# Indices 1 2 3 4 5 6 
#
# 1 123.9232 37.4605 40.6727 0.0000 0.0000 0.0000
# 2 37.4605 84.5589 8.0388 0.0000 0.0000 0.0000
# 3 40.6727 8.0388 89.2863 0.0000 0.0000 0.0000
# 4 0.0000 0.0000 0.0000 12.6243 0.0000 0.0000
# 5 0.0000 0.0000 0.0000 0.0000 19.9444 0.0000
# 6 0.0000 0.0000 0.0000 0.0000 0.0000 27.8060
#
#
#
# Elastic Compliance Matrix: (Units=1/GPa)
#
#
# Indices 1 2 3 4 5 6 
#
# 1 0.010897 -0.004393 -0.004568 0.000000 0.000000 0.000000
# 2 -0.004393 0.013699 0.000768 0.000000 0.000000 0.000000
# 3 -0.004568 0.000768 0.013212 0.000000 0.000000 0.000000
# 4 0.000000 0.000000 0.000000 0.079213 0.000000 0.000000
# 5 0.000000 0.000000 0.000000 0.000000 0.050139 0.000000
# 6 0.000000 0.000000 0.000000 0.000000 0.000000 0.035963
#
#
# Mechanical properties :
#
#
# Convention : Reuss Voigt Hill
#
# Bulk Modulus (GPa) = 46.68392 52.23473 49.45932
# Shear Modulus (GPa) = 22.06034 26.18134 24.12084
#
# Velocity S-wave (km/s) = 3.33058 3.62836 3.48265
# Velocity P-wave (km/s) = 6.18585 6.61958 6.40639
#
# Compressibility (1/GPa) = 0.02142065
#
# Stress axis : x y z
#
# Youngs Moduli (GPa) = 91.76947 72.99648 75.68981
#
# Poissons Ratio (x) = 0.32068 0.34578
# Poissons Ratio (y) = 0.40316 -0.05811
# Poissons Ratio (z) = 0.41923 -0.05605
#
# Static dielectric constant tensor:
#      x y z
#    x 1.772290 0.000000 0.000000 
#    y 0.000000 1.747180 0.000000 
#    z 0.000000 0.000000 1.684760 
# 
# From -- ./inp_files/33303.got.cif
#   From: 2010.05.17/outbox.cif.g08.bks.cpg/sg58_17_cif.got.tgz:33303.got - 2010.06.03 14:20:14.
