data_PCOD9443642
_publ_section_title
;
Structure prediction by ZEFSAII (Michael W. Deem and Ramdas Pophale) SiO2 
 PCOD9443642
Probable space group: P N N M
;
_chemical_formula_sum "Si O2"
_cell_formula_units_Z 48
_cell_length_a 31.876045
_cell_length_b 9.557196
_cell_length_c 8.453581
_cell_angle_alpha 90.000000
_cell_angle_beta 90.000000
_cell_angle_gamma 90.000000
_cell_volume 2575.346338
_symmetry_space_group_name_H-M "P N N M"
_symmetry_group_IT_number 58
_symmetry_cell_setting 'orthorhombic'
loop_
_space_group_symop_operation_xyz
x,y,z
-x,-y,z
1/2+x,1/2-y,1/2-z
1/2-x,1/2+y,1/2-z
-x,-y,-z
x,y,-z
1/2-x,1/2+y,1/2+z
1/2+x,1/2-y,1/2+z
loop_
_atom_site_type_symbol
_atom_site_label
_atom_site_fract_x
_atom_site_fract_y
_atom_site_fract_z
Si Si1 0.788999 0.590607 0.808570
Si Si2 0.538386 0.903683 0.691643
Si Si3 0.290705 0.592715 0.189108
Si Si4 0.631551 0.583740 0.310733
Si Si5 0.867748 0.407881 0.807686
Si Si6 0.540042 0.588928 0.810687
O O1 0.748448 0.502325 0.755363
O O2 0.787665 0.749943 0.752661
O O3 0.830884 0.509594 0.753003
O O4 0.789326 0.590703 0.000000
O O5 0.537696 0.896948 0.500000
O O6 0.585177 0.953155 0.738743
O O7 0.533584 0.748333 0.757726
O O8 0.500000 0.000000 0.744172
O O9 0.333366 0.517278 0.241453
O O10 0.289084 0.598397 0.000000
O O11 0.634300 0.581565 0.500000
O O12 0.638340 0.745803 0.257807
O O13 0.584580 0.542222 0.260385
O O14 0.866570 0.407203 0.000000
O O15 0.500000 0.500000 0.756903
O O16 0.542829 0.580778 0.000000
#
# Coordination Sequence:
#
# PCOD9443642 Si02
#       6
#     8   8   8   8   8   8
#     4  10  21  37  56  78 108 146 182 219 268 323
#     4   9  18  33  54  80 109 144 187 228 267 319
#     4  11  23  37  55  82 113 142 180 228 273 322
#     4  10  20  37  60  81 106 143 185 226 272 327
#     4   8  16  33  55  78 104 138 183 228 265 311
#     4  10  21  36  54  80 114 146 179 224 275 324
#
# _framework density 18.638268
#
# number of rings (size 3 to 8) (size 9 to 14) (size 15 to 20)
#    0.000    2.333    0.000    3.500    0.000    5.667 
#    0.000    5.833    0.000    0.000    0.000    0.000 
#    0.000    0.000    0.000    0.000    0.000    0.000 
#
# Total GULP energy -267912.113165 kJ/mol
# GULP energy per Si atom -5581.502358 kJ/mol
# Density = 1.859585 g / cm^3
# Si number density = 18.638268 Si / 1000 Ang^3
#
#
#
# Elastic Constant Matrix: (Units=GPa)
#
#
# Indices 1 2 3 4 5 6 
#
# 1 178.7549 120.1536 23.8934 0.0000 0.0000 0.0000
# 2 120.1536 128.9319 19.9293 0.0000 0.0000 0.0000
# 3 23.8934 19.9293 17.3871 0.0000 0.0000 0.0000
# 4 0.0000 0.0000 0.0000 27.5190 0.0000 0.0000
# 5 0.0000 0.0000 0.0000 0.0000 34.3885 0.0000
# 6 0.0000 0.0000 0.0000 0.0000 0.0000 41.3872
#
#
#
# Elastic Compliance Matrix: (Units=1/GPa)
#
#
# Indices 1 2 3 4 5 6 
#
# 1 0.015431 -0.013494 -0.005739 0.000000 0.000000 0.000000
# 2 -0.013494 0.021225 -0.005786 0.000000 0.000000 0.000000
# 3 -0.005739 -0.005786 0.072033 0.000000 0.000000 0.000000
# 4 0.000000 0.000000 0.000000 0.036339 0.000000 0.000000
# 5 0.000000 0.000000 0.000000 0.000000 0.029080 0.000000
# 6 0.000000 0.000000 0.000000 0.000000 0.000000 0.024162
#
#
# Mechanical properties :
#
#
# Convention : Reuss Voigt Hill
#
# Bulk Modulus (GPa) = 17.04973 72.55849 44.80411
# Shear Modulus (GPa) = 18.66667 31.39877 25.03272
#
# Velocity S-wave (km/s) = 3.16812 4.10889 3.66878
# Velocity P-wave (km/s) = 4.74870 7.84379 6.48364
#
# Compressibility (1/GPa) = 0.05865197
#
# Stress axis : x y z
#
# Youngs Moduli (GPa) = 64.80289 47.11370 13.88262
#
# Poissons Ratio (x) = 0.63573 0.07968
# Poissons Ratio (y) = 0.87443 0.08032
# Poissons Ratio (z) = 0.37192 0.27258
#
# Static dielectric constant tensor:
#      x y z
#    x 1.649100 0.000000 0.000000 
#    y 0.000000 1.606210 0.000000 
#    z 0.000000 0.000000 1.635520 
# 
# From -- ./inp_files/2983.got.cif
#   From: 2010.05.17/outbox.cif.g08.bks.cpg/sg58_2_cif.got.tgz:2983.got - 2010.06.03 14:20:14.
