data_PCOD9443923
_publ_section_title
;
Structure prediction by ZEFSAII (Michael W. Deem and Ramdas Pophale) SiO2 
 PCOD9443923
Probable space group: P N N M
;
_chemical_formula_sum "Si O2"
_cell_formula_units_Z 64
_cell_length_a 12.133719
_cell_length_b 31.049734
_cell_length_c 9.416146
_cell_angle_alpha 90.000000
_cell_angle_beta 90.000000
_cell_angle_gamma 90.000000
_cell_volume 3547.521211
_symmetry_space_group_name_H-M "P N N M"
_symmetry_group_IT_number 58
_symmetry_cell_setting 'orthorhombic'
loop_
_space_group_symop_operation_xyz
x,y,z
-x,-y,z
1/2+x,1/2-y,1/2-z
1/2-x,1/2+y,1/2-z
-x,-y,-z
x,y,-z
1/2-x,1/2+y,1/2+z
1/2+x,1/2-y,1/2+z
loop_
_atom_site_type_symbol
_atom_site_label
_atom_site_fract_x
_atom_site_fract_y
_atom_site_fract_z
Si Si1 0.038408 0.786257 0.667402
Si Si2 0.740842 0.078594 0.167756
Si Si3 0.085700 0.126851 0.672386
Si Si4 0.258022 0.836013 0.663688
Si Si5 0.005265 0.698170 0.167322
Si Si6 0.841355 0.382433 0.171769
Si Si7 0.508490 0.949726 0.830727
Si Si8 0.437808 0.455422 0.169845
O O1 0.014769 0.780314 0.500000
O O2 0.166205 0.799600 0.681738
O O3 0.016922 0.742402 0.748999
O O4 0.967380 0.827660 0.718198
O O5 0.766255 0.125492 0.229901
O O6 0.612553 0.069669 0.196561
O O7 0.822251 0.046642 0.249352
O O8 0.758767 0.076004 0.000000
O O9 0.082776 0.127372 0.500000
O O10 0.213297 0.121675 0.713688
O O11 0.012258 0.085655 0.715070
O O12 0.247805 0.851878 0.500000
O O13 0.381315 0.819378 0.685028
O O14 0.090852 0.660791 0.211426
O O15 0.023193 0.706087 0.000000
O O16 0.901457 0.422763 0.244652
O O17 0.847274 0.386736 0.000000
O O18 0.500000 0.000000 0.792886
O O19 0.531265 0.946740 0.000000
O O20 0.500000 0.500000 0.198073
O O21 0.420137 0.452209 0.000000
#
# Coordination Sequence:
#
# PCOD9443923 Si02
#       8
#     8   8   8   8   8   8   8   8
#     4  10  21  37  59  81 111 152 187 227 284 344
#     4  11  22  37  60  86 113 148 193 242 287 339
#     4   9  19  37  57  83 116 147 186 233 282 336
#     4  10  20  39  61  81 110 151 194 238 287 339
#     4  10  22  37  56  84 115 144 187 241 282 328
#     4  10  21  38  60  85 113 148 190 235 278 330
#     4  10  23  41  58  82 118 154 186 230 289 343
#     4  10  21  38  61  86 116 154 192 235 287 343
#
# _framework density 18.040766999999999
#
# number of rings (size 3 to 8) (size 9 to 14) (size 15 to 20)
#    0.000    2.000    2.500    0.375    3.500    2.500 
#    0.000    1.250    0.000    0.000    0.000    0.000 
#    0.000    0.000    0.000    0.000    0.000    0.000 
#
# Total GULP energy -357213.806938 kJ/mol
# GULP energy per Si atom -5581.465733 kJ/mol
# Density = 1.799971 g / cm^3
# Si number density = 18.040767 Si / 1000 Ang^3
#
#
#
# Elastic Constant Matrix: (Units=GPa)
#
#
# Indices 1 2 3 4 5 6 
#
# 1 84.0185 22.5447 24.1357 0.0000 0.0000 0.0000
# 2 22.5447 93.4999 22.6258 0.0000 0.0000 0.0000
# 3 24.1357 22.6258 18.9141 0.0000 0.0000 0.0000
# 4 0.0000 0.0000 0.0000 31.7208 0.0000 0.0000
# 5 0.0000 0.0000 0.0000 0.0000 12.5850 0.0000
# 6 0.0000 0.0000 0.0000 0.0000 0.0000 17.4498
#
#
#
# Elastic Compliance Matrix: (Units=1/GPa)
#
#
# Indices 1 2 3 4 5 6 
#
# 1 0.019005 0.001810 -0.026417 0.000000 0.000000 0.000000
# 2 0.001810 0.015225 -0.020523 0.000000 0.000000 0.000000
# 3 -0.026417 -0.020523 0.111131 0.000000 0.000000 0.000000
# 4 0.000000 0.000000 0.000000 0.031525 0.000000 0.000000
# 5 0.000000 0.000000 0.000000 0.000000 0.079459 0.000000
# 6 0.000000 0.000000 0.000000 0.000000 0.000000 0.057307
#
#
# Mechanical properties :
#
#
# Convention : Reuss Voigt Hill
#
# Bulk Modulus (GPa) = 18.14830 37.22722 27.68776
# Shear Modulus (GPa) = 11.84050 20.82623 16.33336
#
# Velocity S-wave (km/s) = 2.56465 3.40133 3.01218
# Velocity P-wave (km/s) = 4.34182 6.00876 5.24197
#
# Compressibility (1/GPa) = 0.05510159
#
# Stress axis : x y z
#
# Youngs Moduli (GPa) = 52.61713 65.68165 8.99839
#
# Poissons Ratio (x) = -0.11889 0.23771
# Poissons Ratio (y) = -0.09524 0.18467
# Poissons Ratio (z) = 1.39000 1.34796
#
# Static dielectric constant tensor:
#      x y z
#    x 1.615940 0.000000 0.000000 
#    y 0.000000 1.604710 0.000000 
#    z 0.000000 0.000000 1.604580 
# 
# From -- ./inp_files/4743.got.cif
#   From: 2010.05.17/outbox.cif.g08.bks.cpg/sg58_3_cif.got.tgz:4743.got - 2010.06.03 14:20:14.
