data_PCOD9443473
_publ_section_title
;
Structure prediction by ZEFSAII (Michael W. Deem and Ramdas Pophale) SiO2 
 PCOD9443473
Probable space group: P N N M
;
_chemical_formula_sum "Si O2"
_cell_formula_units_Z 64
_cell_length_a 27.695845
_cell_length_b 12.773598
_cell_length_c 8.926898
_cell_angle_alpha 90.000000
_cell_angle_beta 90.000000
_cell_angle_gamma 90.000000
_cell_volume 3158.118610
_symmetry_space_group_name_H-M "P N N M"
_symmetry_group_IT_number 58
_symmetry_cell_setting 'orthorhombic'
loop_
_space_group_symop_operation_xyz
x,y,z
-x,-y,z
1/2+x,1/2-y,1/2-z
1/2-x,1/2+y,1/2-z
-x,-y,-z
x,y,-z
1/2-x,1/2+y,1/2+z
1/2+x,1/2-y,1/2+z
loop_
_atom_site_type_symbol
_atom_site_label
_atom_site_fract_x
_atom_site_fract_y
_atom_site_fract_z
Si Si1 0.084479 0.117751 0.324323
Si Si2 0.324404 0.350899 0.670088
Si Si3 0.214073 0.650012 0.676733
Si Si4 0.938507 0.096105 0.826938
Si Si5 0.802850 0.941884 0.673576
Si Si6 0.964429 0.311716 0.678851
Si Si7 0.879662 0.473052 0.679719
Si Si8 0.937341 0.659165 0.178331
O O1 0.071723 0.125978 0.500000
O O2 0.142174 0.097856 0.313752
O O3 0.073976 0.225009 0.239360
O O4 0.058347 0.017181 0.250870
O O5 0.311524 0.322160 0.500000
O O6 0.311126 0.258880 0.782195
O O7 0.381360 0.375777 0.674454
O O8 0.298329 0.456142 0.722912
O O9 0.223506 0.643611 0.500000
O O10 0.263049 0.638473 0.768990
O O11 0.174624 0.561430 0.718055
O O12 0.962210 0.193218 0.740574
O O13 0.954563 0.092488 0.000000
O O14 0.794783 0.968736 0.500000
O O15 0.969441 0.309883 0.500000
O O16 0.916129 0.377036 0.716335
O O17 0.010329 0.367192 0.752927
O O18 0.882263 0.488654 0.500000
O O19 0.898732 0.575753 0.761637
O O20 0.939085 0.658547 0.000000
#
# Coordination Sequence:
#
# PCOD9443473 Si02
#       8
#     8   8   8   8   8   8   8   8
#     4  10  22  42  64  86 120 164 206 249 306 372
#     4  10  20  36  59  86 119 156 194 245 304 359
#     4  11  22  38  62  91 121 157 204 251 300 363
#     4  10  20  36  62  93 123 153 197 254 303 353
#     4  10  22  39  61  89 120 157 202 251 306 365
#     4  11  22  40  65  91 122 162 207 249 303 368
#     4  10  23  42  63  88 121 162 206 250 300 366
#     4  12  26  41  61  90 125 162 204 255 312 364
#
# _framework density 20.265229999999999
#
# number of rings (size 3 to 8) (size 9 to 14) (size 15 to 20)
#    0.000    1.500    1.250    3.750    0.000    7.500 
#    0.000    3.750    0.000    0.000    0.000    0.000 
#    0.000    0.000    0.000    0.000    0.000    0.000 
#
# Total GULP energy -357899.804248 kJ/mol
# GULP energy per Si atom -5592.184441 kJ/mol
# Density = 2.021911 g / cm^3
# Si number density = 20.265230 Si / 1000 Ang^3
#
#
#
# Elastic Constant Matrix: (Units=GPa)
#
#
# Indices 1 2 3 4 5 6 
#
# 1 41.8314 3.5476 21.8205 0.0000 0.0000 0.0000
# 2 3.5476 87.4519 23.7014 0.0000 0.0000 0.0000
# 3 21.8205 23.7014 76.8817 0.0000 0.0000 0.0000
# 4 0.0000 0.0000 0.0000 31.9646 0.0000 0.0000
# 5 0.0000 0.0000 0.0000 0.0000 -22.4688 0.0000
# 6 0.0000 0.0000 0.0000 0.0000 0.0000 21.0533
#
#
#
# Elastic Compliance Matrix: (Units=1/GPa)
#
#
# Indices 1 2 3 4 5 6 
#
# 1 0.028159 0.001117 -0.008336 0.000000 0.000000 0.000000
# 2 0.001117 0.012522 -0.004177 0.000000 0.000000 0.000000
# 3 -0.008336 -0.004177 0.016661 0.000000 0.000000 0.000000
# 4 0.000000 0.000000 0.000000 0.031285 0.000000 0.000000
# 5 0.000000 0.000000 0.000000 0.000000 -0.044506 0.000000
# 6 0.000000 0.000000 0.000000 0.000000 0.000000 0.047499
#
#
# Mechanical properties :
#
#
# Convention : Reuss Voigt Hill
#
# Bulk Modulus (GPa) = 28.94493 33.81155 31.37824
# Shear Modulus (GPa) = 39.70513 16.58286 28.14399
#
# Velocity S-wave (km/s) = 4.43117 2.86368 3.73068
# Velocity P-wave (km/s) = 6.36352 5.25880 5.83735
#
# Compressibility (1/GPa) = 0.03454836
#
# Stress axis : x y z
#
# Youngs Moduli (GPa) = 35.51227 79.86153 60.02103
#
# Poissons Ratio (x) = -0.08921 0.50037
# Poissons Ratio (y) = -0.03967 0.25072
# Poissons Ratio (z) = 0.29605 0.33360
#
# Static dielectric constant tensor:
#      x y z
#    x 1.743930 0.000000 0.000000 
#    y 0.000000 1.694620 0.000000 
#    z 0.000000 0.000000 1.672070 
# 
# From -- ./inp_files/4807.got.cif
#   From: 2010.05.17/outbox.cif.g08.bks.cpg/sg58_3_cif.got.tgz:4807.got - 2010.06.03 14:20:14.
