data_PCOD9443067
_publ_section_title
;
Structure prediction by ZEFSAII (Michael W. Deem and Ramdas Pophale) SiO2 
 PCOD9443067
Probable space group: P N N M
;
_chemical_formula_sum "Si O2"
_cell_formula_units_Z 64
_cell_length_a 7.361530
_cell_length_b 24.037287
_cell_length_c 16.380139
_cell_angle_alpha 90.000000
_cell_angle_beta 90.000000
_cell_angle_gamma 90.000000
_cell_volume 2898.485406
_symmetry_space_group_name_H-M "P N N M"
_symmetry_group_IT_number 58
_symmetry_cell_setting 'orthorhombic'
loop_
_space_group_symop_operation_xyz
x,y,z
-x,-y,z
1/2+x,1/2-y,1/2-z
1/2-x,1/2+y,1/2-z
-x,-y,-z
x,y,-z
1/2-x,1/2+y,1/2+z
1/2+x,1/2-y,1/2+z
loop_
_atom_site_type_symbol
_atom_site_label
_atom_site_fract_x
_atom_site_fract_y
_atom_site_fract_z
Si Si1 0.680076 0.117843 0.908259
Si Si2 0.627092 0.735710 0.817096
Si Si3 0.155006 0.044775 0.911335
Si Si4 0.266731 0.158828 0.909669
Si Si5 0.281656 0.257826 0.366423
Si Si6 0.153260 0.453148 0.908778
Si Si7 0.084057 0.328570 0.089562
Si Si8 0.798056 0.523822 0.268849
O O1 0.461484 0.127847 0.903891
O O2 0.762899 0.180186 0.903051
O O3 0.718383 0.076205 0.832340
O O4 0.720975 0.095220 0.000000
O O5 0.725099 0.792832 0.844871
O O6 0.624603 0.734376 0.720867
O O7 0.425591 0.736634 0.854624
O O8 0.761006 0.688168 0.847250
O O9 0.117864 0.110458 0.903509
O O10 0.220787 0.026770 0.822362
O O11 0.259253 0.041308 0.000000
O O12 0.000000 0.000000 0.921828
O O13 0.252799 0.184349 0.000000
O O14 0.408330 0.210992 0.406373
O O15 0.051074 0.393842 0.899133
O O16 0.264515 0.462576 0.823849
O O17 0.000000 0.500000 0.912952
O O18 0.244129 0.452341 0.000000
O O19 0.165891 0.320582 0.000000
O O20 0.000000 0.500000 0.258171
#
# Coordination Sequence:
#
# PCOD9443067 Si02
#       8
#     8   8   8   8   8   8   8   8
#     4  10  20  34  56  88 125 158 205 259 307 376
#     4  11  22  39  62  91 127 169 214 264 318 387
#     4  10  21  36  53  86 131 168 207 256 311 375
#     4   9  19  35  55  82 122 165 199 249 317 371
#     4  11  23  39  62  92 126 168 217 264 324 389
#     4   9  21  41  67  92 118 155 206 270 333 394
#     4  11  23  41  66  93 124 165 212 267 332 395
#     4  11  20  33  62  87 113 161 214 251 304 375
#
# _framework density 22.080497999999999
#
# number of rings (size 3 to 8) (size 9 to 14) (size 15 to 20)
#    0.000    1.750    2.500    1.875    1.750    3.000 
#    2.250    2.500    0.000    0.375    0.000    0.000 
#    0.000    0.000    0.000    0.000    0.000    0.000 
#
# Total GULP energy -356564.884103 kJ/mol
# GULP energy per Si atom -5571.326314 kJ/mol
# Density = 2.203024 g / cm^3
# Si number density = 22.080498 Si / 1000 Ang^3
#
#
#
# Elastic Constant Matrix: (Units=GPa)
#
#
# Indices 1 2 3 4 5 6 
#
# 1 55.4873 26.8187 14.8450 0.0000 0.0000 0.0000
# 2 26.8187 100.3501 29.1415 0.0000 0.0000 0.0000
# 3 14.8450 29.1415 167.6537 0.0000 0.0000 0.0000
# 4 0.0000 0.0000 0.0000 41.0449 0.0000 0.0000
# 5 0.0000 0.0000 0.0000 0.0000 19.4073 0.0000
# 6 0.0000 0.0000 0.0000 0.0000 0.0000 27.1309
#
#
#
# Elastic Compliance Matrix: (Units=1/GPa)
#
#
# Indices 1 2 3 4 5 6 
#
# 1 0.020830 -0.005299 -0.000923 0.000000 0.000000 0.000000
# 2 -0.005299 0.011843 -0.001589 0.000000 0.000000 0.000000
# 3 -0.000923 -0.001589 0.006323 0.000000 0.000000 0.000000
# 4 0.000000 0.000000 0.000000 0.024364 0.000000 0.000000
# 5 0.000000 0.000000 0.000000 0.000000 0.051527 0.000000
# 6 0.000000 0.000000 0.000000 0.000000 0.000000 0.036858
#
#
# Mechanical properties :
#
#
# Convention : Reuss Voigt Hill
#
# Bulk Modulus (GPa) = 42.78492 51.67796 47.23144
# Shear Modulus (GPa) = 28.54560 34.36234 31.45397
#
# Velocity S-wave (km/s) = 3.59945 3.94919 3.77837
# Velocity P-wave (km/s) = 6.05752 6.65206 6.36174
#
# Compressibility (1/GPa) = 0.02337272
#
# Stress axis : x y z
#
# Youngs Moduli (GPa) = 48.00718 84.43983 158.16034
#
# Poissons Ratio (x) = 0.44743 0.14605
# Poissons Ratio (y) = 0.25438 0.25137
# Poissons Ratio (z) = 0.04433 0.13420
#
# Static dielectric constant tensor:
#      x y z
#    x 1.920730 0.000000 0.000000 
#    y 0.000000 1.808750 0.000000 
#    z 0.000000 0.000000 1.870040 
# 
# From -- ./inp_files/20276.got.cif
#   From: 2010.05.17/outbox.cif.g08.bks.cpg/sg58_11_cif.got.tgz:20276.got - 2010.06.03 14:20:14.
