data_PCOD9443493
_publ_section_title
;
Structure prediction by ZEFSAII (Michael W. Deem and Ramdas Pophale) SiO2 
 PCOD9443493
Probable space group: P N N M
;
_chemical_formula_sum "Si O2"
_cell_formula_units_Z 64
_cell_length_a 12.454664
_cell_length_b 16.079361
_cell_length_c 16.793172
_cell_angle_alpha 90.000000
_cell_angle_beta 90.000000
_cell_angle_gamma 90.000000
_cell_volume 3363.051652
_symmetry_space_group_name_H-M "P N N M"
_symmetry_group_IT_number 58
_symmetry_cell_setting 'orthorhombic'
loop_
_space_group_symop_operation_xyz
x,y,z
-x,-y,z
1/2+x,1/2-y,1/2-z
1/2-x,1/2+y,1/2-z
-x,-y,-z
x,y,-z
1/2-x,1/2+y,1/2+z
1/2+x,1/2-y,1/2+z
loop_
_atom_site_type_symbol
_atom_site_label
_atom_site_fract_x
_atom_site_fract_y
_atom_site_fract_z
Si Si1 0.449960 0.906756 0.412896
Si Si2 0.772021 0.660027 0.331347
Si Si3 0.335428 0.121866 0.214562
Si Si4 0.925073 0.255571 0.846967
Si Si5 0.386668 0.680941 0.755517
Si Si6 0.394674 0.557786 0.094291
Si Si7 0.222060 0.460441 0.801059
Si Si8 0.485769 0.901185 0.087783
O O1 0.399695 0.902805 0.500000
O O2 0.528585 0.828301 0.403021
O O3 0.361342 0.901458 0.345477
O O4 0.500000 0.000000 0.406407
O O5 0.673106 0.700227 0.379207
O O6 0.836132 0.732698 0.285478
O O7 0.723604 0.595111 0.267035
O O8 0.866712 0.616862 0.380350
O O9 0.372531 0.190999 0.276354
O O10 0.207650 0.134086 0.206372
O O11 0.416459 0.129897 0.142005
O O12 0.345039 0.032225 0.256324
O O13 0.015810 0.200162 0.803956
O O14 0.410237 0.629967 0.838085
O O15 0.500000 0.500000 0.093981
O O16 0.297484 0.504179 0.133419
O O17 0.374279 0.581560 0.000000
O O18 0.500000 0.000000 0.084933
O O19 0.495703 0.864678 0.000000
#
# Coordination Sequence:
#
# PCOD9443493 Si02
#       8
#     8   8   8   8   8   8   8   8
#     4  11  22  35  56  85 116 153 195 246 300 356
#     4  11  22  35  62  87 117 154 194 252 304 358
#     4  10  20  36  60  84 112 155 199 247 287 361
#     4  11  21  38  57  88 121 156 202 244 300 367
#     4  10  21  36  59  84 119 161 200 237 295 359
#     4  10  22  39  58  87 125 161 198 242 297 363
#     4  11  19  37  63  85 111 155 204 244 292 360
#     4  11  22  38  62  89 114 146 198 256 309 356
#
# _framework density 19.030334
#
# number of rings (size 3 to 8) (size 9 to 14) (size 15 to 20)
#    0.000    1.375    5.000    1.125    0.000    1.000 
#    0.000    0.625    0.000    0.000    0.000    1.750 
#    0.000    0.000    0.000    0.000    0.000    0.000 
#
# Total GULP energy -356548.809287 kJ/mol
# GULP energy per Si atom -5571.075145 kJ/mol
# Density = 1.898702 g / cm^3
# Si number density = 19.030334 Si / 1000 Ang^3
#
#
#
# Elastic Constant Matrix: (Units=GPa)
#
#
# Indices 1 2 3 4 5 6 
#
# 1 73.3916 30.6223 28.8516 0.0000 0.0000 0.0000
# 2 30.6223 68.0121 34.1258 0.0000 0.0000 0.0000
# 3 28.8516 34.1258 72.3873 0.0000 0.0000 0.0000
# 4 0.0000 0.0000 0.0000 71.8095 0.0000 0.0000
# 5 0.0000 0.0000 0.0000 0.0000 12.5266 0.0000
# 6 0.0000 0.0000 0.0000 0.0000 0.0000 35.5481
#
#
#
# Elastic Compliance Matrix: (Units=1/GPa)
#
#
# Indices 1 2 3 4 5 6 
#
# 1 0.017758 -0.005821 -0.004334 0.000000 0.000000 0.000000
# 2 -0.005821 0.021167 -0.007659 0.000000 0.000000 0.000000
# 3 -0.004334 -0.007659 0.019152 0.000000 0.000000 0.000000
# 4 0.000000 0.000000 0.000000 0.013926 0.000000 0.000000
# 5 0.000000 0.000000 0.000000 0.000000 0.079830 0.000000
# 6 0.000000 0.000000 0.000000 0.000000 0.000000 0.028131
#
#
# Mechanical properties :
#
#
# Convention : Reuss Voigt Hill
#
# Bulk Modulus (GPa) = 44.54216 44.55448 44.54832
# Shear Modulus (GPa) = 22.41402 31.98958 27.20180
#
# Velocity S-wave (km/s) = 3.43564 4.10442 3.78483
# Velocity P-wave (km/s) = 6.26058 6.77679 6.52379
#
# Compressibility (1/GPa) = 0.02245064
#
# Stress axis : x y z
#
# Youngs Moduli (GPa) = 56.31276 47.24330 52.21267
#
# Poissons Ratio (x) = 0.27500 0.22627
# Poissons Ratio (y) = 0.32780 0.39988
# Poissons Ratio (z) = 0.24404 0.36182
#
# Static dielectric constant tensor:
#      x y z
#    x 1.790490 0.000000 0.000000 
#    y 0.000000 1.719150 0.000000 
#    z 0.000000 0.000000 1.650240 
# 
# From -- ./inp_files/26376.got.cif
#   From: 2010.05.17/outbox.cif.g08.bks.cpg/sg58_14_cif.got.tgz:26376.got - 2010.06.03 14:20:14.
