data_PCOD9443697
_publ_section_title
;
Structure prediction by ZEFSAII (Michael W. Deem and Ramdas Pophale) SiO2 
 PCOD9443697
Probable space group: P N N M
;
_chemical_formula_sum "Si O2"
_cell_formula_units_Z 58
_cell_length_a 11.225890
_cell_length_b 27.187467
_cell_length_c 9.206398
_cell_angle_alpha 90.000000
_cell_angle_beta 90.000000
_cell_angle_gamma 90.000000
_cell_volume 2809.825020
_symmetry_space_group_name_H-M "P N N M"
_symmetry_group_IT_number 58
_symmetry_cell_setting 'orthorhombic'
loop_
_space_group_symop_operation_xyz
x,y,z
-x,-y,z
1/2+x,1/2-y,1/2-z
1/2-x,1/2+y,1/2-z
-x,-y,-z
x,y,-z
1/2-x,1/2+y,1/2+z
1/2+x,1/2-y,1/2+z
loop_
_atom_site_type_symbol
_atom_site_label
_atom_site_fract_x
_atom_site_fract_y
_atom_site_fract_z
Si Si1 0.225985 0.113284 0.834164
Si Si2 0.045849 0.623746 0.843574
Si Si3 0.600579 0.223825 0.669422
Si Si4 0.000000 0.500000 0.500000
Si Si5 0.294366 0.337243 0.334419
Si Si6 0.362592 0.501547 0.329456
Si Si7 0.966530 0.823440 0.326530
Si Si8 0.158067 0.436614 0.272608
O O1 0.362791 0.114018 0.785309
O O2 0.181271 0.057425 0.828383
O O3 0.147441 0.146024 0.727377
O O4 0.212998 0.130887 0.000000
O O5 0.990712 0.678032 0.828790
O O6 0.936829 0.585567 0.838922
O O7 0.107627 0.619793 0.000000
O O8 0.622549 0.236374 0.500000
O O9 0.719367 0.203811 0.747865
O O10 0.548802 0.269251 0.758620
O O11 0.080477 0.471360 0.376313
O O12 0.319677 0.321857 0.500000
O O13 0.416079 0.346369 0.247807
O O14 0.215145 0.386640 0.338036
O O15 0.500000 0.500000 0.285521
O O16 0.355736 0.484193 0.500000
O O17 0.273537 0.468934 0.233901
O O18 0.976184 0.822293 0.500000
#
# Coordination Sequence:
#
# PCOD9443697 Si02
#       8
#     8   8   8   2   8   8   8   8
#     4  11  24  40  66  97 132 177 227 283 338 401
#     4  10  24  43  65  97 140 176 220 283 353 416
#     4  10  23  43  67  96 130 174 224 278 341 411
#     4  12  20  36  64 104 132 176 234 286 336 404
#     4  11  22  41  67 100 133 173 222 282 341 409
#     4  10  20  37  61  95 131 171 223 281 334 395
#     4  12  26  44  67  94 136 182 228 282 348 419
#     4  11  22  38  69  98 138 176 228 283 339 400
#
# _framework density 20.641853000000001
#
# number of rings (size 3 to 8) (size 9 to 14) (size 15 to 20)
#    0.000    1.241    1.379    4.138    4.828    2.759 
#    0.000    3.793    0.000    2.897    0.000    0.000 
#    0.000    0.000    0.000    0.000    0.000    0.000 
#
# Total GULP energy -323481.844447 kJ/mol
# GULP energy per Si atom -5577.273180 kJ/mol
# Density = 2.059487 g / cm^3
# Si number density = 20.641853 Si / 1000 Ang^3
#
#
#
# Elastic Constant Matrix: (Units=GPa)
#
#
# Indices 1 2 3 4 5 6 
#
# 1 111.7255 32.3970 50.9844 0.0000 0.0000 0.0000
# 2 32.3970 60.8697 32.0815 0.0000 0.0000 0.0000
# 3 50.9844 32.0815 140.8313 0.0000 0.0000 0.0000
# 4 0.0000 0.0000 0.0000 -7.3679 0.0000 0.0000
# 5 0.0000 0.0000 0.0000 0.0000 20.8469 0.0000
# 6 0.0000 0.0000 0.0000 0.0000 0.0000 30.2228
#
#
#
# Elastic Compliance Matrix: (Units=1/GPa)
#
#
# Indices 1 2 3 4 5 6 
#
# 1 0.011737 -0.004554 -0.003212 0.000000 0.000000 0.000000
# 2 -0.004554 0.020437 -0.003007 0.000000 0.000000 0.000000
# 3 -0.003212 -0.003007 0.008948 0.000000 0.000000 0.000000
# 4 0.000000 0.000000 0.000000 -0.135725 0.000000 0.000000
# 5 0.000000 0.000000 0.000000 0.000000 0.047969 0.000000
# 6 0.000000 0.000000 0.000000 0.000000 0.000000 0.033088
#
#
# Mechanical properties :
#
#
# Convention : Reuss Voigt Hill
#
# Bulk Modulus (GPa) = 51.07996 60.48357 55.78177
# Shear Modulus (GPa) = 344.24945 21.93794 183.09370
#
# Velocity S-wave (km/s) = 12.92805 3.26358 9.42830
# Velocity P-wave (km/s) = 15.73676 6.60048 12.06673
#
# Compressibility (1/GPa) = 0.01957715
#
# Stress axis : x y z
#
# Youngs Moduli (GPa) = 85.20385 48.93049 111.75278
#
# Poissons Ratio (x) = 0.22283 0.35890
# Poissons Ratio (y) = 0.38802 0.33603
# Poissons Ratio (z) = 0.27363 0.14713
#
# Static dielectric constant tensor:
#      x y z
#    x 1.741300 0.000000 0.000000 
#    y 0.000000 1.727320 0.000000 
#    z 0.000000 0.000000 1.709130 
# 
# From -- ./inp_files/4418.got.cif
#   From: 2010.05.17/outbox.cif.g08.bks.cpg/sg58_3_cif.got.tgz:4418.got - 2010.06.03 14:20:14.
