data_PCOD9443439
_publ_section_title
;
Structure prediction by ZEFSAII (Michael W. Deem and Ramdas Pophale) SiO2 
 PCOD9443439
Probable space group: P N N M
;
_chemical_formula_sum "Si O2"
_cell_formula_units_Z 56
_cell_length_a 8.341814
_cell_length_b 21.268610
_cell_length_c 14.154383
_cell_angle_alpha 90.000000
_cell_angle_beta 90.000000
_cell_angle_gamma 90.000000
_cell_volume 2511.253486
_symmetry_space_group_name_H-M "P N N M"
_symmetry_group_IT_number 58
_symmetry_cell_setting 'orthorhombic'
loop_
_space_group_symop_operation_xyz
x,y,z
-x,-y,z
1/2+x,1/2-y,1/2-z
1/2-x,1/2+y,1/2-z
-x,-y,-z
x,y,-z
1/2-x,1/2+y,1/2+z
1/2+x,1/2-y,1/2+z
loop_
_atom_site_type_symbol
_atom_site_label
_atom_site_fract_x
_atom_site_fract_y
_atom_site_fract_z
Si Si1 0.709227 0.764313 0.111725
Si Si2 0.032675 0.628925 0.704691
Si Si3 0.792099 0.468898 0.395612
Si Si4 0.535050 0.808083 0.390599
Si Si5 0.223299 0.882993 0.894593
Si Si6 0.398227 0.677104 0.111548
Si Si7 0.530480 0.427134 0.259814
O O1 0.675197 0.825454 0.172870
O O2 0.560692 0.716608 0.133169
O O3 0.890235 0.740271 0.129492
O O4 0.698924 0.778133 0.000000
O O5 0.082342 0.559102 0.677519
O O6 0.002346 0.637679 0.814457
O O7 0.886048 0.649627 0.638267
O O8 0.836225 0.446062 0.500000
O O9 0.766453 0.542775 0.401252
O O10 0.629180 0.440127 0.356041
O O11 0.517373 0.826764 0.500000
O O12 0.722804 0.789105 0.377573
O O13 0.110461 0.884336 0.803402
O O14 0.169269 0.862391 0.000000
O O15 0.395628 0.614374 0.176098
O O16 0.409036 0.661170 0.000000
O O17 0.500000 0.500000 0.227058
#
# Coordination Sequence:
#
# PCOD9443439 Si02
#       7
#     8   8   8   8   8   8   8
#     4  10  23  41  61  89 123 159 206 260 314 374
#     4  12  22  37  64  89 118 160 216 256 306 380
#     4  10  20  36  58  87 127 166 202 255 318 380
#     4  10  23  42  62  86 122 164 204 254 314 367
#     4  10  21  37  59  91 130 166 203 257 323 377
#     4  10  21  42  65  88 125 167 207 259 320 366
#     4  10  20  37  60  90 123 166 215 256 311 383
#
# _framework density 22.299620000000001
#
# number of rings (size 3 to 8) (size 9 to 14) (size 15 to 20)
#    0.000    1.714    1.429    3.000    2.000    3.143 
#    2.571    0.000    0.000    2.571    0.000    0.000 
#    0.000    0.000    0.000    0.000    0.000    0.000 
#
# Total GULP energy -312299.033027 kJ/mol
# GULP energy per Si atom -5576.768447 kJ/mol
# Density = 2.224887 g / cm^3
# Si number density = 22.299620 Si / 1000 Ang^3
#
#
#
# Elastic Constant Matrix: (Units=GPa)
#
#
# Indices 1 2 3 4 5 6 
#
# 1 105.4793 29.7600 38.5775 0.0000 0.0000 0.0000
# 2 29.7600 63.3198 57.3431 0.0000 0.0000 0.0000
# 3 38.5775 57.3431 90.6965 0.0000 0.0000 0.0000
# 4 0.0000 0.0000 0.0000 21.7317 0.0000 0.0000
# 5 0.0000 0.0000 0.0000 0.0000 20.4122 0.0000
# 6 0.0000 0.0000 0.0000 0.0000 0.0000 31.1516
#
#
#
# Elastic Compliance Matrix: (Units=1/GPa)
#
#
# Indices 1 2 3 4 5 6 
#
# 1 0.011363 -0.002254 -0.003408 0.000000 0.000000 0.000000
# 2 -0.002254 0.037396 -0.022685 0.000000 0.000000 0.000000
# 3 -0.003408 -0.022685 0.026818 0.000000 0.000000 0.000000
# 4 0.000000 0.000000 0.000000 0.046016 0.000000 0.000000
# 5 0.000000 0.000000 0.000000 0.000000 0.048990 0.000000
# 6 0.000000 0.000000 0.000000 0.000000 0.000000 0.032101
#
#
# Mechanical properties :
#
#
# Convention : Reuss Voigt Hill
#
# Bulk Modulus (GPa) = 52.95853 56.76189 54.86021
# Shear Modulus (GPa) = 18.82018 23.58011 21.20015
#
# Velocity S-wave (km/s) = 2.90827 3.25533 3.08668
# Velocity P-wave (km/s) = 5.92263 6.29595 6.11214
#
# Compressibility (1/GPa) = 0.01888270
#
# Stress axis : x y z
#
# Youngs Moduli (GPa) = 88.00528 26.74085 37.28855
#
# Poissons Ratio (x) = 0.06028 0.12708
# Poissons Ratio (y) = 0.19839 0.84588
# Poissons Ratio (z) = 0.29992 0.60661
#
# Static dielectric constant tensor:
#      x y z
#    x 2.029690 0.000000 0.000000 
#    y 0.000000 1.830740 0.000000 
#    z 0.000000 0.000000 1.796730 
# 
# From -- ./inp_files/20158.got.cif
#   From: 2010.05.17/outbox.cif.g08.bks.cpg/sg58_11_cif.got.tgz:20158.got - 2010.06.03 14:20:14.
