data_PCOD9443106
_publ_section_title
;
Structure prediction by ZEFSAII (Michael W. Deem and Ramdas Pophale) SiO2 
 PCOD9443106
Probable space group: P N N M
;
_chemical_formula_sum "Si O2"
_cell_formula_units_Z 48
_cell_length_a 10.300654
_cell_length_b 10.545030
_cell_length_c 18.233495
_cell_angle_alpha 90.000000
_cell_angle_beta 90.000000
_cell_angle_gamma 90.000000
_cell_volume 1980.535090
_symmetry_space_group_name_H-M "P N N M"
_symmetry_group_IT_number 58
_symmetry_cell_setting 'orthorhombic'
loop_
_space_group_symop_operation_xyz
x,y,z
-x,-y,z
1/2+x,1/2-y,1/2-z
1/2-x,1/2+y,1/2-z
-x,-y,-z
x,y,-z
1/2-x,1/2+y,1/2+z
1/2+x,1/2-y,1/2+z
loop_
_atom_site_type_symbol
_atom_site_label
_atom_site_fract_x
_atom_site_fract_y
_atom_site_fract_z
Si Si1 0.180899 0.389683 0.088811
Si Si2 0.394683 0.420729 0.349815
Si Si3 0.138246 0.508263 0.292117
Si Si4 0.113992 0.665894 0.087150
Si Si5 0.981948 0.735505 0.263678
Si Si6 0.029017 0.849197 0.414674
O O1 0.179083 0.536425 0.113886
O O2 0.318706 0.328288 0.105655
O O3 0.039646 0.334287 0.107892
O O4 0.180332 0.391649 0.000000
O O5 0.500000 0.500000 0.395171
O O6 0.275858 0.509211 0.328450
O O7 0.333638 0.300275 0.389428
O O8 0.479161 0.358689 0.283182
O O9 0.107948 0.642283 0.254425
O O10 0.000000 0.500000 0.337041
O O11 0.129512 0.372472 0.249221
O O12 0.120052 0.657935 0.000000
O O13 0.958392 0.782058 0.346978
O O14 0.004391 0.809411 0.500000
O O15 0.000000 0.000000 0.413023
#
# Coordination Sequence:
#
# PCOD9443106 Si02
#       6
#     8   8   8   8   8   8
#     4   8  17  34  58  86 113 151 191 236 297 336
#     4  12  25  37  65  91 110 156 203 233 288 353
#     4   8  24  43  59  87 119 156 193 235 303 348
#     4   9  20  37  56  84 121 151 191 243 286 340
#     4   9  23  42  60  79 124 146 190 243 290 345
#     4  10  20  34  60  89 113 150 196 239 288 344
#
# _framework density 24.235873999999999
#
# number of rings (size 3 to 8) (size 9 to 14) (size 15 to 20)
#    1.000    1.500    0.000    1.500    7.000    4.333 
#    0.000    2.500    0.000    0.000    0.000    0.000 
#    0.000    0.000    0.000    0.000    0.000    0.000 
#
# Total GULP energy -267346.620137 kJ/mol
# GULP energy per Si atom -5569.721253 kJ/mol
# Density = 2.418071 g / cm^3
# Si number density = 24.235874 Si / 1000 Ang^3
#
#
#
# Elastic Constant Matrix: (Units=GPa)
#
#
# Indices 1 2 3 4 5 6 
#
# 1 96.0887 4.9018 -9.9616 0.0000 0.0000 0.0000
# 2 4.9018 75.8934 9.4325 0.0000 0.0000 0.0000
# 3 -9.9616 9.4325 74.3795 0.0000 0.0000 0.0000
# 4 0.0000 0.0000 0.0000 11.4316 0.0000 0.0000
# 5 0.0000 0.0000 0.0000 0.0000 12.4166 0.0000
# 6 0.0000 0.0000 0.0000 0.0000 0.0000 27.2344
#
#
#
# Elastic Compliance Matrix: (Units=1/GPa)
#
#
# Indices 1 2 3 4 5 6 
#
# 1 0.010611 -0.000876 0.001532 0.000000 0.000000 0.000000
# 2 -0.000876 0.013460 -0.001824 0.000000 0.000000 0.000000
# 3 0.001532 -0.001824 0.013881 0.000000 0.000000 0.000000
# 4 0.000000 0.000000 0.000000 0.087477 0.000000 0.000000
# 5 0.000000 0.000000 0.000000 0.000000 0.080538 0.000000
# 6 0.000000 0.000000 0.000000 0.000000 0.000000 0.036718
#
#
# Mechanical properties :
#
#
# Convention : Reuss Voigt Hill
#
# Bulk Modulus (GPa) = 28.07748 28.34522 28.21135
# Shear Modulus (GPa) = 19.46348 26.34912 22.90630
#
# Velocity S-wave (km/s) = 2.83695 3.30084 3.07765
# Velocity P-wave (km/s) = 4.72666 5.12331 4.92898
#
# Compressibility (1/GPa) = 0.03561573
#
# Stress axis : x y z
#
# Youngs Moduli (GPa) = 94.24569 74.29613 72.04036
#
# Poissons Ratio (x) = 0.06506 -0.11038
# Poissons Ratio (y) = 0.08253 0.13142
# Poissons Ratio (z) = -0.14440 0.13553
#
# Static dielectric constant tensor:
#      x y z
#    x 1.931200 0.000000 0.000000 
#    y 0.000000 1.929270 0.000000 
#    z 0.000000 0.000000 2.014990 
# 
# From -- ./inp_files/26158.got.cif
#   From: 2010.05.17/outbox.cif.g08.bks.cpg/sg58_14_cif.got.tgz:26158.got - 2010.06.03 14:20:14.
