data_PCOD9443265
_publ_section_title
;
Structure prediction by ZEFSAII (Michael W. Deem and Ramdas Pophale) SiO2 
 PCOD9443265
Probable space group: P N N M
;
_chemical_formula_sum "Si O2"
_cell_formula_units_Z 48
_cell_length_a 14.585544
_cell_length_b 5.349295
_cell_length_c 26.687690
_cell_angle_alpha 90.000000
_cell_angle_beta 90.000000
_cell_angle_gamma 90.000000
_cell_volume 2082.237026
_symmetry_space_group_name_H-M "P N N M"
_symmetry_group_IT_number 58
_symmetry_cell_setting 'orthorhombic'
loop_
_space_group_symop_operation_xyz
x,y,z
-x,-y,z
1/2+x,1/2-y,1/2-z
1/2-x,1/2+y,1/2-z
-x,-y,-z
x,y,-z
1/2-x,1/2+y,1/2+z
1/2+x,1/2-y,1/2+z
loop_
_atom_site_type_symbol
_atom_site_label
_atom_site_fract_x
_atom_site_fract_y
_atom_site_fract_z
Si Si1 0.776455 0.798503 0.193084
Si Si2 0.583432 0.685182 0.661045
Si Si3 0.946759 0.250312 0.439226
Si Si4 0.899422 0.496439 0.740805
Si Si5 0.237682 0.343674 0.914635
Si Si6 0.360802 0.327136 0.555287
O O1 0.838435 0.734939 0.241850
O O2 0.672518 0.832947 0.209930
O O3 0.781547 0.619641 0.144704
O O4 0.820084 0.046830 0.169674
O O5 0.500000 0.500000 0.672488
O O6 0.581630 0.883545 0.704540
O O7 0.575088 0.743906 0.602327
O O8 0.943862 0.253264 0.500000
O O9 0.842769 0.235205 0.420889
O O10 0.000000 0.500000 0.422926
O O11 0.000000 0.000000 0.423428
O O12 0.000000 0.500000 0.716304
O O13 0.215608 0.606781 0.941257
O O14 0.178350 0.108157 0.935545
O O15 0.402527 0.316724 0.500000
#
# Coordination Sequence:
#
# PCOD9443265 Si02
#       6
#     8   8   8   8   8   8
#     4  11  24  41  67  97 133 177 225 282 347 415
#     4  11  23  41  66  96 134 181 230 284 351 416
#     4  10  20  35  57  85 122 168 215 270 335 400
#     4  12  23  42  70  98 134 180 229 284 353 421
#     4  11  23  41  64  94 131 176 226 283 345 409
#     4  11  23  40  66  97 133 179 229 282 339 409
#
# _framework density 23.052129999999998
#
# number of rings (size 3 to 8) (size 9 to 14) (size 15 to 20)
#    0.000    1.000    5.000    2.500    0.000    2.333 
#    0.000    2.500    0.000    3.500    0.000    0.000 
#    0.000    0.000    0.000    0.000    0.000    0.000 
#
# Total GULP energy -267950.191589 kJ/mol
# GULP energy per Si atom -5582.295658 kJ/mol
# Density = 2.299966 g / cm^3
# Si number density = 23.052130 Si / 1000 Ang^3
#
#
#
# Elastic Constant Matrix: (Units=GPa)
#
#
# Indices 1 2 3 4 5 6 
#
# 1 99.4605 18.4371 7.5489 0.0000 0.0000 0.0000
# 2 18.4371 85.4441 13.5868 0.0000 0.0000 0.0000
# 3 7.5489 13.5868 92.9081 0.0000 0.0000 0.0000
# 4 0.0000 0.0000 0.0000 11.5393 0.0000 0.0000
# 5 0.0000 0.0000 0.0000 0.0000 12.4577 0.0000
# 6 0.0000 0.0000 0.0000 0.0000 0.0000 34.4694
#
#
#
# Elastic Compliance Matrix: (Units=1/GPa)
#
#
# Indices 1 2 3 4 5 6 
#
# 1 0.010499 -0.002181 -0.000534 0.000000 0.000000 0.000000
# 2 -0.002181 0.012435 -0.001641 0.000000 0.000000 0.000000
# 3 -0.000534 -0.001641 0.011047 0.000000 0.000000 0.000000
# 4 0.000000 0.000000 0.000000 0.086661 0.000000 0.000000
# 5 0.000000 0.000000 0.000000 0.000000 0.080272 0.000000
# 6 0.000000 0.000000 0.000000 0.000000 0.000000 0.029011
#
#
# Mechanical properties :
#
#
# Convention : Reuss Voigt Hill
#
# Bulk Modulus (GPa) = 39.57457 39.66204 39.61830
# Shear Modulus (GPa) = 20.23803 27.57591 23.90697
#
# Velocity S-wave (km/s) = 2.96619 3.46242 3.22387
# Velocity P-wave (km/s) = 5.37920 5.76431 5.57508
#
# Compressibility (1/GPa) = 0.02526875
#
# Stress axis : x y z
#
# Youngs Moduli (GPa) = 95.24719 80.41769 90.52435
#
# Poissons Ratio (x) = 0.17535 0.04836
# Poissons Ratio (y) = 0.20769 0.14858
# Poissons Ratio (z) = 0.05088 0.13199
#
# Static dielectric constant tensor:
#      x y z
#    x 2.054480 0.000000 0.000000 
#    y 0.000000 2.031830 0.000000 
#    z 0.000000 0.000000 1.878550 
# 
# From -- ./inp_files/32805.got.cif
#   From: 2010.05.17/outbox.cif.g08.bks.cpg/sg58_17_cif.got.tgz:32805.got - 2010.06.03 14:20:14.
