data_PCOD9443224
_publ_section_title
;
Structure prediction by ZEFSAII (Michael W. Deem and Ramdas Pophale) SiO2 
 PCOD9443224
Probable space group: P N N M
;
_chemical_formula_sum "Si O2"
_cell_formula_units_Z 64
_cell_length_a 24.362978
_cell_length_b 14.138393
_cell_length_c 9.300781
_cell_angle_alpha 90.000000
_cell_angle_beta 90.000000
_cell_angle_gamma 90.000000
_cell_volume 3203.685244
_symmetry_space_group_name_H-M "P N N M"
_symmetry_group_IT_number 58
_symmetry_cell_setting 'orthorhombic'
loop_
_space_group_symop_operation_xyz
x,y,z
-x,-y,z
1/2+x,1/2-y,1/2-z
1/2-x,1/2+y,1/2-z
-x,-y,-z
x,y,-z
1/2-x,1/2+y,1/2+z
1/2+x,1/2-y,1/2+z
loop_
_atom_site_type_symbol
_atom_site_label
_atom_site_fract_x
_atom_site_fract_y
_atom_site_fract_z
Si Si1 0.162584 0.082958 0.672812
Si Si2 0.263658 0.957738 0.669923
Si Si3 0.848145 0.221073 0.661505
Si Si4 0.847260 0.443429 0.657337
Si Si5 0.954589 0.919489 0.828076
Si Si6 0.443375 0.054073 0.659426
Si Si7 0.232752 0.272181 0.327311
Si Si8 0.453099 0.279594 0.332951
O O1 0.156027 0.085006 0.500000
O O2 0.103550 0.075952 0.747971
O O3 0.196452 0.179637 0.712144
O O4 0.201967 0.992895 0.706927
O O5 0.267405 0.942895 0.500000
O O6 0.288756 0.869449 0.756960
O O7 0.301122 0.043565 0.723258
O O8 0.839112 0.182101 0.500000
O O9 0.858744 0.332624 0.644872
O O10 0.793654 0.222504 0.758113
O O11 0.902469 0.181981 0.738311
O O12 0.830688 0.478941 0.500000
O O13 0.902999 0.485229 0.719966
O O14 0.988351 0.823787 0.793629
O O15 0.944511 0.924224 0.000000
O O16 0.000000 0.000000 0.792902
O O17 0.418042 0.041701 0.500000
O O18 0.453926 0.166066 0.676338
O O19 0.500000 0.000000 0.663334
O O20 0.235647 0.275826 0.500000
O O21 0.442627 0.305138 0.500000
#
# Coordination Sequence:
#
# PCOD9443224 Si02
#       8
#     8   8   8   8   8   8   8   8
#     4  10  24  44  64  90 127 166 207 258 314 372
#     4  11  23  40  61  90 123 161 208 252 309 379
#     4  10  20  35  58  87 116 150 197 248 302 363
#     4  10  20  35  56  84 118 155 196 243 301 359
#     4  10  23  41  61  88 121 163 213 258 304 361
#     4   9  18  33  55  82 113 153 199 245 301 364
#     4  11  23  40  62  90 123 160 201 252 315 370
#     4   9  19  36  56  80 113 153 196 248 305 359
#
# _framework density 19.976994000000001
#
# number of rings (size 3 to 8) (size 9 to 14) (size 15 to 20)
#    0.000    2.000    1.250    1.500    1.750    5.000 
#    0.000    1.250    0.000    0.000    0.000    0.000 
#    0.000    0.000    0.000    0.000    0.000    0.000 
#
# Total GULP energy -356721.281376 kJ/mol
# GULP energy per Si atom -5573.770022 kJ/mol
# Density = 1.993153 g / cm^3
# Si number density = 19.976994 Si / 1000 Ang^3
#
#
#
# Elastic Constant Matrix: (Units=GPa)
#
#
# Indices 1 2 3 4 5 6 
#
# 1 116.2859 28.4546 48.8055 0.0000 0.0000 0.0000
# 2 28.4546 53.0419 31.8071 0.0000 0.0000 0.0000
# 3 48.8055 31.8071 71.8539 0.0000 0.0000 0.0000
# 4 0.0000 0.0000 0.0000 16.4309 0.0000 0.0000
# 5 0.0000 0.0000 0.0000 0.0000 37.4354 0.0000
# 6 0.0000 0.0000 0.0000 0.0000 0.0000 27.6809
#
#
#
# Elastic Compliance Matrix: (Units=1/GPa)
#
#
# Indices 1 2 3 4 5 6 
#
# 1 0.012205 -0.002146 -0.007340 0.000000 0.000000 0.000000
# 2 -0.002146 0.026043 -0.010071 0.000000 0.000000 0.000000
# 3 -0.007340 -0.010071 0.023361 0.000000 0.000000 0.000000
# 4 0.000000 0.000000 0.000000 0.060861 0.000000 0.000000
# 5 0.000000 0.000000 0.000000 0.000000 0.026713 0.000000
# 6 0.000000 0.000000 0.000000 0.000000 0.000000 0.036126
#
#
# Mechanical properties :
#
#
# Convention : Reuss Voigt Hill
#
# Bulk Modulus (GPa) = 44.45360 51.03511 47.74435
# Shear Modulus (GPa) = 21.55898 25.11707 23.33802
#
# Velocity S-wave (km/s) = 3.28867 3.54969 3.42167
# Velocity P-wave (km/s) = 6.05980 6.51174 6.28983
#
# Compressibility (1/GPa) = 0.02249537
#
# Stress axis : x y z
#
# Youngs Moduli (GPa) = 81.93128 38.39762 42.80658
#
# Poissons Ratio (x) = 0.08240 0.31421
# Poissons Ratio (y) = 0.17582 0.43110
# Poissons Ratio (z) = 0.60140 0.38670
#
# Static dielectric constant tensor:
#      x y z
#    x 1.699840 0.000000 0.000000 
#    y 0.000000 1.802670 0.000000 
#    z 0.000000 0.000000 1.725100 
# 
# From -- ./inp_files/10098.got.cif
#   From: 2010.05.17/outbox.cif.g08.bks.cpg/sg58_6_cif.got.tgz:10098.got - 2010.06.03 14:20:14.
