data_PCOD9443204
_publ_section_title
;
Structure prediction by ZEFSAII (Michael W. Deem and Ramdas Pophale) SiO2 
 PCOD9443204
Probable space group: P N N M
;
_chemical_formula_sum "Si O2"
_cell_formula_units_Z 48
_cell_length_a 19.250037
_cell_length_b 15.467831
_cell_length_c 7.441357
_cell_angle_alpha 90.000000
_cell_angle_beta 90.000000
_cell_angle_gamma 90.000000
_cell_volume 2215.711069
_symmetry_space_group_name_H-M "P N N M"
_symmetry_group_IT_number 58
_symmetry_cell_setting 'orthorhombic'
loop_
_space_group_symop_operation_xyz
x,y,z
-x,-y,z
1/2+x,1/2-y,1/2-z
1/2-x,1/2+y,1/2-z
-x,-y,-z
x,y,-z
1/2-x,1/2+y,1/2+z
1/2+x,1/2-y,1/2+z
loop_
_atom_site_type_symbol
_atom_site_label
_atom_site_fract_x
_atom_site_fract_y
_atom_site_fract_z
Si Si1 0.585591 0.247823 0.780107
Si Si2 0.433956 0.555714 0.780200
Si Si3 0.741843 0.204381 0.215696
Si Si4 0.716154 0.508207 0.787114
Si Si5 0.828076 0.368482 0.218049
Si Si6 0.487204 0.095057 0.790352
O O1 0.563497 0.344033 0.725031
O O2 0.664110 0.226798 0.721878
O O3 0.534007 0.172710 0.716262
O O4 0.585217 0.248652 0.000000
O O5 0.500000 0.500000 0.720811
O O6 0.360423 0.515915 0.718799
O O7 0.434404 0.554111 0.000000
O O8 0.764434 0.107678 0.260717
O O9 0.795613 0.277391 0.278105
O O10 0.739952 0.210453 0.000000
O O11 0.776558 0.444720 0.718594
O O12 0.713232 0.491658 0.000000
O O13 0.906350 0.382612 0.278978
O O14 0.829430 0.369540 0.000000
O O15 0.500000 0.000000 0.710639
O O16 0.507609 0.089245 0.000000
#
# Coordination Sequence:
#
# PCOD9443204 Si02
#       6
#     8   8   8   8   8   8
#     4   9  17  33  54  76 106 142 177 216 265 318
#     4   9  17  30  51  78 104 135 176 221 264 309
#     4  10  20  36  57  79 108 144 178 219 275 327
#     4  10  20  35  56  82 107 137 183 226 264 320
#     4  10  21  37  55  79 113 147 178 216 272 338
#     4  10  21  35  55  84 110 137 182 232 270 312
#
# _framework density 21.663475999999999
#
# number of rings (size 3 to 8) (size 9 to 14) (size 15 to 20)
#    0.000    2.333    1.667    1.000    2.333    3.000 
#    0.000    0.833    0.000    1.500    0.000    0.000 
#    0.000    0.000    0.000    0.000    0.000    0.000 
#
# Total GULP energy -268240.415971 kJ/mol
# GULP energy per Si atom -5588.341999 kJ/mol
# Density = 2.161417 g / cm^3
# Si number density = 21.663476 Si / 1000 Ang^3
#
#
#
# Elastic Constant Matrix: (Units=GPa)
#
#
# Indices 1 2 3 4 5 6 
#
# 1 144.6033 82.6617 -12.2817 0.0000 0.0000 0.0000
# 2 82.6617 187.5807 -9.4980 0.0000 0.0000 0.0000
# 3 -12.2817 -9.4980 61.9574 0.0000 0.0000 0.0000
# 4 0.0000 0.0000 0.0000 11.9388 0.0000 0.0000
# 5 0.0000 0.0000 0.0000 0.0000 17.5744 0.0000
# 6 0.0000 0.0000 0.0000 0.0000 0.0000 46.2476
#
#
#
# Elastic Compliance Matrix: (Units=1/GPa)
#
#
# Indices 1 2 3 4 5 6 
#
# 1 0.009336 -0.004052 0.001230 0.000000 0.000000 0.000000
# 2 -0.004052 0.007131 0.000290 0.000000 0.000000 0.000000
# 3 0.001230 0.000290 0.016428 0.000000 0.000000 0.000000
# 4 0.000000 0.000000 0.000000 0.083761 0.000000 0.000000
# 5 0.000000 0.000000 0.000000 0.000000 0.056901 0.000000
# 6 0.000000 0.000000 0.000000 0.000000 0.000000 0.021623
#
#
# Mechanical properties :
#
#
# Convention : Reuss Voigt Hill
#
# Bulk Modulus (GPa) = 35.93115 57.32280 46.62698
# Shear Modulus (GPa) = 23.86386 37.36945 30.61666
#
# Velocity S-wave (km/s) = 3.32259 4.15782 3.76345
# Velocity P-wave (km/s) = 5.59835 7.04045 6.36040
#
# Compressibility (1/GPa) = 0.02783100
#
# Stress axis : x y z
#
# Youngs Moduli (GPa) = 107.11033 140.22684 60.87054
#
# Poissons Ratio (x) = 0.56819 -0.07484
# Poissons Ratio (y) = 0.43400 -0.01765
# Poissons Ratio (z) = -0.13170 -0.04067
#
# Static dielectric constant tensor:
#      x y z
#    x 1.729650 0.000000 0.000000 
#    y 0.000000 1.755840 0.000000 
#    z 0.000000 0.000000 1.861730 
# 
# From -- ./inp_files/5849.got.cif
#   From: 2010.05.17/outbox.cif.g08.bks.cpg/sg58_3_cif.got.tgz:5849.got - 2010.06.03 14:20:14.
