data_PCOD9443111
_publ_section_title
;
Structure prediction by ZEFSAII (Michael W. Deem and Ramdas Pophale) SiO2 
 PCOD9443111
Probable space group: P N N M
;
_chemical_formula_sum "Si O2"
_cell_formula_units_Z 32
_cell_length_a 8.197525
_cell_length_b 9.146668
_cell_length_c 16.806253
_cell_angle_alpha 90.000000
_cell_angle_beta 90.000000
_cell_angle_gamma 90.000000
_cell_volume 1260.133515
_symmetry_space_group_name_H-M "P N N M"
_symmetry_group_IT_number 58
_symmetry_cell_setting 'orthorhombic'
loop_
_space_group_symop_operation_xyz
x,y,z
-x,-y,z
1/2+x,1/2-y,1/2-z
1/2-x,1/2+y,1/2-z
-x,-y,-z
x,y,-z
1/2-x,1/2+y,1/2+z
1/2+x,1/2-y,1/2+z
loop_
_atom_site_type_symbol
_atom_site_label
_atom_site_fract_x
_atom_site_fract_y
_atom_site_fract_z
Si Si1 0.662495 0.814359 0.659354
Si Si2 0.016595 0.334426 0.591674
Si Si3 0.845506 0.832967 0.907850
Si Si4 0.671326 0.536728 0.750094
O O1 0.500878 0.770153 0.611038
O O2 0.667188 0.707450 0.735405
O O3 0.686632 0.974257 0.695292
O O4 0.831601 0.760915 0.620025
O O5 0.056031 0.360335 0.500000
O O6 0.836098 0.265229 0.594817
O O7 0.000000 0.500000 0.628153
O O8 0.838587 0.955618 0.837317
O O9 0.862052 0.887150 0.000000
O O10 0.500000 0.500000 0.789615
#
# Coordination Sequence:
#
# PCOD9443111 Si02
#       4
#     8   8   8   8
#     4  11  23  42  64  94 134 170 212 274 333 390
#     4  10  20  34  62  96 126 166 219 276 325 375
#     4  10  22  40  64  98 128 164 224 277 322 377
#     4  10  24  40  65 100 129 172 219 266 333 396
#
# _framework density 25.394134999999999
#
# number of rings (size 3 to 8) (size 9 to 14) (size 15 to 20)
#    0.000    1.750    2.500    0.750    7.000    4.500 
#    0.000    0.000    0.000    7.500    0.000    0.000 
#    0.000    0.000    0.000    0.000    0.000    0.000 
#
# Total GULP energy -178636.202512 kJ/mol
# GULP energy per Si atom -5582.381328 kJ/mol
# Density = 2.533634 g / cm^3
# Si number density = 25.394135 Si / 1000 Ang^3
#
#
#
# Elastic Constant Matrix: (Units=GPa)
#
#
# Indices 1 2 3 4 5 6 
#
# 1 212.0395 22.7976 35.8346 0.0000 0.0000 0.0000
# 2 22.7976 34.1657 9.3248 0.0000 0.0000 0.0000
# 3 35.8346 9.3248 93.4274 0.0000 0.0000 0.0000
# 4 0.0000 0.0000 0.0000 21.1442 0.0000 0.0000
# 5 0.0000 0.0000 0.0000 0.0000 104.2804 0.0000
# 6 0.0000 0.0000 0.0000 0.0000 0.0000 30.7494
#
#
#
# Elastic Compliance Matrix: (Units=1/GPa)
#
#
# Indices 1 2 3 4 5 6 
#
# 1 0.005342 -0.003090 -0.001741 0.000000 0.000000 0.000000
# 2 -0.003090 0.031876 -0.001996 0.000000 0.000000 0.000000
# 3 -0.001741 -0.001996 0.011570 0.000000 0.000000 0.000000
# 4 0.000000 0.000000 0.000000 0.047294 0.000000 0.000000
# 5 0.000000 0.000000 0.000000 0.000000 0.009590 0.000000
# 6 0.000000 0.000000 0.000000 0.000000 0.000000 0.032521
#
#
# Mechanical properties :
#
#
# Convention : Reuss Voigt Hill
#
# Bulk Modulus (GPa) = 28.46178 52.83851 40.65014
# Shear Modulus (GPa) = 30.57005 49.34651 39.95828
#
# Velocity S-wave (km/s) = 3.47338 4.41298 3.97107
# Velocity P-wave (km/s) = 5.22668 6.84240 6.08837
#
# Compressibility (1/GPa) = 0.03513484
#
# Stress axis : x y z
#
# Youngs Moduli (GPa) = 187.17873 31.37191 86.42726
#
# Poissons Ratio (x) = 0.09693 0.15045
# Poissons Ratio (y) = 0.57834 0.17254
# Poissons Ratio (z) = 0.32583 0.06263
#
# Static dielectric constant tensor:
#      x y z
#    x 2.168530 0.000000 0.000000 
#    y 0.000000 2.227550 0.000000 
#    z 0.000000 0.000000 2.050370 
# 
# From -- ./inp_files/24869.got.cif
#   From: 2010.05.17/outbox.cif.g08.bks.cpg/sg58_13_cif.got.tgz:24869.got - 2010.06.03 14:20:14.
