data_PCOD9443677
_publ_section_title
;
Structure prediction by ZEFSAII (Michael W. Deem and Ramdas Pophale) SiO2 
 PCOD9443677
Probable space group: P N N M
;
_chemical_formula_sum "Si O2"
_cell_formula_units_Z 48
_cell_length_a 14.300137
_cell_length_b 20.389521
_cell_length_c 8.881701
_cell_angle_alpha 90.000000
_cell_angle_beta 90.000000
_cell_angle_gamma 90.000000
_cell_volume 2589.663705
_symmetry_space_group_name_H-M "P N N M"
_symmetry_group_IT_number 58
_symmetry_cell_setting 'orthorhombic'
loop_
_space_group_symop_operation_xyz
x,y,z
-x,-y,z
1/2+x,1/2-y,1/2-z
1/2-x,1/2+y,1/2-z
-x,-y,-z
x,y,-z
1/2-x,1/2+y,1/2+z
1/2+x,1/2-y,1/2+z
loop_
_atom_site_type_symbol
_atom_site_label
_atom_site_fract_x
_atom_site_fract_y
_atom_site_fract_z
Si Si1 0.748837 0.608995 0.679745
Si Si2 0.940925 0.564171 0.820887
Si Si3 0.757562 0.254284 0.320953
Si Si4 0.044832 0.683868 0.674627
Si Si5 0.081980 0.186593 0.674499
Si Si6 0.053614 0.932674 0.681164
O O1 0.750258 0.609815 0.500000
O O2 0.840822 0.572182 0.740914
O O3 0.751412 0.684007 0.740101
O O4 0.653361 0.576432 0.740049
O O5 0.000000 0.500000 0.776587
O O6 0.002261 0.627120 0.775629
O O7 0.925672 0.562439 0.000000
O O8 0.759462 0.242293 0.500000
O O9 0.853647 0.290297 0.278671
O O10 0.672020 0.300593 0.275056
O O11 0.049245 0.661448 0.500000
O O12 0.977543 0.746737 0.679213
O O13 0.109756 0.174929 0.500000
O O14 0.014705 0.127487 0.722190
O O15 0.068325 0.929717 0.500000
O O16 0.000000 0.000000 0.716568
#
# Coordination Sequence:
#
# PCOD9443677 Si02
#       6
#     8   8   8   8   8   8
#     4  12  24  39  63  91 123 162 202 251 308 365
#     4  11  25  43  64  90 122 161 206 252 302 367
#     4  11  22  38  62  91 124 161 206 254 303 362
#     4  10  21  38  61  90 123 158 199 252 304 353
#     4  10  20  37  60  91 124 156 202 250 300 355
#     4  10  22  42  66  90 125 167 203 248 302 362
#
# _framework density 18.535225000000001
#
# number of rings (size 3 to 8) (size 9 to 14) (size 15 to 20)
#    0.000    1.333    3.333    2.500    0.000    5.000 
#    0.000    5.000    0.000    0.000    0.000    0.000 
#    0.000    0.000    0.000    0.000    0.000    0.000 
#
# Total GULP energy -268266.018086 kJ/mol
# GULP energy per Si atom -5588.875377 kJ/mol
# Density = 1.849304 g / cm^3
# Si number density = 18.535225 Si / 1000 Ang^3
#
#
#
# Elastic Constant Matrix: (Units=GPa)
#
#
# Indices 1 2 3 4 5 6 
#
# 1 152.1722 49.1061 63.4653 0.0000 0.0000 0.0000
# 2 49.1061 98.9411 45.7084 0.0000 0.0000 0.0000
# 3 63.4653 45.7084 68.3905 0.0000 0.0000 0.0000
# 4 0.0000 0.0000 0.0000 44.3978 0.0000 0.0000
# 5 0.0000 0.0000 0.0000 0.0000 34.8410 0.0000
# 6 0.0000 0.0000 0.0000 0.0000 0.0000 23.5694
#
#
#
# Elastic Compliance Matrix: (Units=1/GPa)
#
#
# Indices 1 2 3 4 5 6 
#
# 1 0.010796 -0.001056 -0.009313 0.000000 0.000000 0.000000
# 2 -0.001056 0.014725 -0.008861 0.000000 0.000000 0.000000
# 3 -0.009313 -0.008861 0.029187 0.000000 0.000000 0.000000
# 4 0.000000 0.000000 0.000000 0.022524 0.000000 0.000000
# 5 0.000000 0.000000 0.000000 0.000000 0.028702 0.000000
# 6 0.000000 0.000000 0.000000 0.000000 0.000000 0.042428
#
#
# Mechanical properties :
#
#
# Convention : Reuss Voigt Hill
#
# Bulk Modulus (GPa) = 61.54932 70.67371 66.11151
# Shear Modulus (GPa) = 26.00941 31.30991 28.65966
#
# Velocity S-wave (km/s) = 3.75005 4.11446 3.93648
# Velocity P-wave (km/s) = 7.21313 7.79640 7.51043
#
# Compressibility (1/GPa) = 0.01624713
#
# Stress axis : x y z
#
# Youngs Moduli (GPa) = 92.62310 67.91243 34.26204
#
# Poissons Ratio (x) = 0.07171 0.31909
# Poissons Ratio (y) = 0.09781 0.30361
# Poissons Ratio (z) = 0.86261 0.60179
#
# Static dielectric constant tensor:
#      x y z
#    x 1.627110 0.000000 0.000000 
#    y 0.000000 1.612500 0.000000 
#    z 0.000000 0.000000 1.634420 
# 
# From -- ./inp_files/5899.got.cif
#   From: 2010.05.17/outbox.cif.g08.bks.cpg/sg58_3_cif.got.tgz:5899.got - 2010.06.03 14:20:14.
