data_PCOD9443424
_publ_section_title
;
Structure prediction by ZEFSAII (Michael W. Deem and Ramdas Pophale) SiO2 
 PCOD9443424
Probable space group: P N N M
;
_chemical_formula_sum "Si O2"
_cell_formula_units_Z 56
_cell_length_a 14.961862
_cell_length_b 21.550995
_cell_length_c 7.473095
_cell_angle_alpha 90.000000
_cell_angle_beta 90.000000
_cell_angle_gamma 90.000000
_cell_volume 2409.647269
_symmetry_space_group_name_H-M "P N N M"
_symmetry_group_IT_number 58
_symmetry_cell_setting 'orthorhombic'
loop_
_space_group_symop_operation_xyz
x,y,z
-x,-y,z
1/2+x,1/2-y,1/2-z
1/2-x,1/2+y,1/2-z
-x,-y,-z
x,y,-z
1/2-x,1/2+y,1/2+z
1/2+x,1/2-y,1/2+z
loop_
_atom_site_type_symbol
_atom_site_label
_atom_site_fract_x
_atom_site_fract_y
_atom_site_fract_z
Si Si1 0.273773 0.487437 0.216455
Si Si2 0.392501 0.376356 0.218683
Si Si3 0.610802 0.766284 0.781711
Si Si4 0.918670 0.679687 0.716758
Si Si5 0.804169 0.797863 0.792426
Si Si6 0.416056 0.586012 0.795935
Si Si7 0.080374 0.459947 0.708530
O O1 0.310937 0.420097 0.271612
O O2 0.344631 0.538303 0.282372
O O3 0.173373 0.496074 0.280050
O O4 0.271283 0.489949 0.000000
O O5 0.387033 0.305389 0.276730
O O6 0.485498 0.406626 0.282704
O O7 0.395122 0.375401 0.000000
O O8 0.517648 0.797301 0.728324
O O9 0.702820 0.798354 0.722169
O O10 0.612660 0.766652 0.000000
O O11 0.914520 0.681555 0.500000
O O12 0.845080 0.728932 0.780037
O O13 0.906123 0.609402 0.782284
O O14 0.870538 0.846373 0.701608
O O15 0.802161 0.816040 0.000000
O O16 0.430257 0.564574 0.000000
O O17 0.057593 0.449861 0.500000
O O18 0.000000 0.500000 0.788286
#
# Coordination Sequence:
#
# PCOD9443424 Si02
#       7
#     8   8   8   8   8   8   8
#     4  10  21  36  59  87 113 148 194 242 285 330
#     4   9  16  33  59  84 109 143 188 229 275 340
#     4   9  18  32  56  82 107 144 185 228 278 336
#     4  10  20  39  61  81 110 152 194 232 280 343
#     4  11  22  35  57  89 117 146 188 239 289 334
#     4  10  20  36  58  84 115 152 191 230 282 346
#     4  10  23  40  60  83 113 156 198 234 284 349
#
# _framework density 23.239913999999999
#
# number of rings (size 3 to 8) (size 9 to 14) (size 15 to 20)
#    0.000    2.143    1.429    1.714    2.000    4.286 
#    0.000    2.143    0.000    1.714    0.000    0.000 
#    0.000    0.000    0.000    0.000    0.000    0.000 
#
# Total GULP energy -313091.816377 kJ/mol
# GULP energy per Si atom -5590.925292 kJ/mol
# Density = 2.318702 g / cm^3
# Si number density = 23.239914 Si / 1000 Ang^3
#
#
#
# Elastic Constant Matrix: (Units=GPa)
#
#
# Indices 1 2 3 4 5 6 
#
# 1 121.4018 -0.6395 -8.8602 0.0000 0.0000 0.0000
# 2 -0.6395 56.9127 -3.5876 0.0000 0.0000 0.0000
# 3 -8.8602 -3.5876 68.8457 0.0000 0.0000 0.0000
# 4 0.0000 0.0000 0.0000 -22.2629 0.0000 0.0000
# 5 0.0000 0.0000 0.0000 0.0000 3.2128 0.0000
# 6 0.0000 0.0000 0.0000 0.0000 0.0000 31.3940
#
#
#
# Elastic Compliance Matrix: (Units=1/GPa)
#
#
# Indices 1 2 3 4 5 6 
#
# 1 0.008317 0.000161 0.001079 0.000000 0.000000 0.000000
# 2 0.000161 0.017632 0.000940 0.000000 0.000000 0.000000
# 3 0.001079 0.000940 0.014713 0.000000 0.000000 0.000000
# 4 0.000000 0.000000 0.000000 -0.044918 0.000000 0.000000
# 5 0.000000 0.000000 0.000000 0.000000 0.311256 0.000000
# 6 0.000000 0.000000 0.000000 0.000000 0.000000 0.031853
#
#
# Mechanical properties :
#
#
# Convention : Reuss Voigt Hill
#
# Bulk Modulus (GPa) = 22.21181 24.55395 23.38288
# Shear Modulus (GPa) = 14.30611 19.81860 17.06236
#
# Velocity S-wave (km/s) = 2.48379 2.92341 2.71252
# Velocity P-wave (km/s) = 4.21947 4.68865 4.46024
#
# Compressibility (1/GPa) = 0.04502109
#
# Stress axis : x y z
#
# Youngs Moduli (GPa) = 120.24010 56.71565 67.96699
#
# Poissons Ratio (x) = -0.00916 -0.07332
# Poissons Ratio (y) = -0.01941 -0.06386
# Poissons Ratio (z) = -0.12971 -0.05329
#
# Static dielectric constant tensor:
#      x y z
#    x 1.826250 0.000000 0.000000 
#    y 0.000000 1.845140 0.000000 
#    z 0.000000 0.000000 1.888200 
# 
# From -- ./inp_files/6455.got.cif
#   From: 2010.05.17/outbox.cif.g08.bks.cpg/sg58_4_cif.got.tgz:6455.got - 2010.06.03 14:20:14.
