data_PCOD9443057
_publ_section_title
;
Structure prediction by ZEFSAII (Michael W. Deem and Ramdas Pophale) SiO2 
 PCOD9443057
Probable space group: P N N M
;
_chemical_formula_sum "Si O2"
_cell_formula_units_Z 56
_cell_length_a 15.225241
_cell_length_b 20.260178
_cell_length_c 9.386721
_cell_angle_alpha 90.000000
_cell_angle_beta 90.000000
_cell_angle_gamma 90.000000
_cell_volume 2895.485151
_symmetry_space_group_name_H-M "P N N M"
_symmetry_group_IT_number 58
_symmetry_cell_setting 'orthorhombic'
loop_
_space_group_symop_operation_xyz
x,y,z
-x,-y,z
1/2+x,1/2-y,1/2-z
1/2-x,1/2+y,1/2-z
-x,-y,-z
x,y,-z
1/2-x,1/2+y,1/2+z
1/2+x,1/2-y,1/2+z
loop_
_atom_site_type_symbol
_atom_site_label
_atom_site_fract_x
_atom_site_fract_y
_atom_site_fract_z
Si Si1 0.023392 0.187823 0.835925
Si Si2 0.306558 0.191454 0.167920
Si Si3 0.984858 0.681347 0.667927
Si Si4 0.771966 0.044012 0.333249
Si Si5 0.812585 0.176658 0.165033
Si Si6 0.929005 0.553715 0.832888
Si Si7 0.163231 0.079715 0.830611
O O1 0.044673 0.249820 0.737068
O O2 0.076752 0.122379 0.796568
O O3 0.919044 0.177014 0.830623
O O4 0.047659 0.203694 0.000000
O O5 0.409513 0.175905 0.191918
O O6 0.282978 0.255127 0.261859
O O7 0.244787 0.129140 0.198701
O O8 0.296137 0.207673 0.000000
O O9 0.968850 0.680951 0.500000
O O10 0.939314 0.620086 0.743757
O O11 0.793773 0.050470 0.500000
O O12 0.782994 0.113447 0.253811
O O13 0.669030 0.025971 0.320870
O O14 0.827184 0.986830 0.257775
O O15 0.784927 0.173069 0.000000
O O16 0.000000 0.500000 0.785041
O O17 0.945480 0.568516 0.000000
O O18 0.163292 0.064749 0.000000
#
# Coordination Sequence:
#
# PCOD9443057 Si02
#       7
#     8   8   8   8   8   8   8
#     4   9  20  38  59  83 111 150 192 231 279 338
#     4   9  19  36  58  85 117 149 183 232 289 336
#     4  10  20  34  56  86 116 145 183 234 284 333
#     4  11  24  39  57  83 115 150 189 237 290 340
#     4  10  21  38  59  83 114 151 193 235 279 340
#     4  10  22  39  58  80 112 153 192 230 281 347
#     4  10  21  38  60  83 111 148 191 234 282 341
#
# _framework density 19.340454000000001
#
# number of rings (size 3 to 8) (size 9 to 14) (size 15 to 20)
#    0.000    2.143    0.000    2.143    2.000    4.286 
#    0.000    2.857    0.000    0.000    0.000    0.000 
#    0.000    0.000    0.000    0.000    0.000    0.000 
#
# Total GULP energy -312902.613459 kJ/mol
# GULP energy per Si atom -5587.546669 kJ/mol
# Density = 1.929643 g / cm^3
# Si number density = 19.340454 Si / 1000 Ang^3
#
#
#
# Elastic Constant Matrix: (Units=GPa)
#
#
# Indices 1 2 3 4 5 6 
#
# 1 19.4320 -2.8514 9.0552 0.0000 0.0000 0.0000
# 2 -2.8514 67.1903 35.8910 0.0000 0.0000 0.0000
# 3 9.0552 35.8910 59.0998 0.0000 0.0000 0.0000
# 4 0.0000 0.0000 0.0000 38.1167 0.0000 0.0000
# 5 0.0000 0.0000 0.0000 0.0000 9.0530 0.0000
# 6 0.0000 0.0000 0.0000 0.0000 0.0000 23.7064
#
#
#
# Elastic Compliance Matrix: (Units=1/GPa)
#
#
# Indices 1 2 3 4 5 6 
#
# 1 0.060575 0.011143 -0.016048 0.000000 0.000000 0.000000
# 2 0.011143 0.024079 -0.016331 0.000000 0.000000 0.000000
# 3 -0.016048 -0.016331 0.029297 0.000000 0.000000 0.000000
# 4 0.000000 0.000000 0.000000 0.026235 0.000000 0.000000
# 5 0.000000 0.000000 0.000000 0.000000 0.110460 0.000000
# 6 0.000000 0.000000 0.000000 0.000000 0.000000 0.042183
#
#
# Mechanical properties :
#
#
# Convention : Reuss Voigt Hill
#
# Bulk Modulus (GPa) = 13.98998 25.54575 19.76786
# Shear Modulus (GPa) = 13.92263 21.08372 17.50317
#
# Velocity S-wave (km/s) = 2.68595 3.30530 3.01159
# Velocity P-wave (km/s) = 4.10711 5.27293 4.72611
#
# Compressibility (1/GPa) = 0.07147973
#
# Stress axis : x y z
#
# Youngs Moduli (GPa) = 16.50843 41.52955 34.13333
#
# Poissons Ratio (x) = -0.46277 0.54779
# Poissons Ratio (y) = -0.18396 0.55742
# Poissons Ratio (z) = 0.26494 0.67820
#
# Static dielectric constant tensor:
#      x y z
#    x 1.701840 0.000000 0.000000 
#    y 0.000000 1.626870 0.000000 
#    z 0.000000 0.000000 1.649850 
# 
# From -- ./inp_files/6269.got.cif
#   From: 2010.05.17/outbox.cif.g08.bks.cpg/sg58_4_cif.got.tgz:6269.got - 2010.06.03 14:20:14.
