data_PCOD9443564
_publ_section_title
;
Structure prediction by ZEFSAII (Michael W. Deem and Ramdas Pophale) SiO2 
 PCOD9443564
Probable space group: P N N M
;
_chemical_formula_sum "Si O2"
_cell_formula_units_Z 56
_cell_length_a 12.765252
_cell_length_b 14.348520
_cell_length_c 15.205349
_cell_angle_alpha 90.000000
_cell_angle_beta 90.000000
_cell_angle_gamma 90.000000
_cell_volume 2785.049335
_symmetry_space_group_name_H-M "P N N M"
_symmetry_group_IT_number 58
_symmetry_cell_setting 'orthorhombic'
loop_
_space_group_symop_operation_xyz
x,y,z
-x,-y,z
1/2+x,1/2-y,1/2-z
1/2-x,1/2+y,1/2-z
-x,-y,-z
x,y,-z
1/2-x,1/2+y,1/2+z
1/2+x,1/2-y,1/2+z
loop_
_atom_site_type_symbol
_atom_site_label
_atom_site_fract_x
_atom_site_fract_y
_atom_site_fract_z
Si Si1 0.427123 0.909125 0.288216
Si Si2 0.578508 0.648354 0.256206
Si Si3 0.701648 0.814280 0.827514
Si Si4 0.940521 0.901007 0.596090
Si Si5 0.010100 0.387498 0.596302
Si Si6 0.066398 0.229958 0.103651
Si Si7 0.224874 0.016389 0.291016
O O1 0.427407 0.870244 0.187642
O O2 0.463416 0.829446 0.353901
O O3 0.500000 0.000000 0.289713
O O4 0.313931 0.944234 0.317384
O O5 0.660987 0.731463 0.236554
O O6 0.498938 0.653073 0.173273
O O7 0.509188 0.660490 0.342845
O O8 0.635377 0.548302 0.252388
O O9 0.604260 0.841079 0.890311
O O10 0.810792 0.786756 0.873505
O O11 0.726149 0.908321 0.774004
O O12 0.944393 0.857267 0.500000
O O13 0.825407 0.927393 0.628666
O O14 0.000000 0.000000 0.590412
O O15 0.053720 0.360974 0.500000
O O16 0.000000 0.500000 0.594639
O O17 0.051176 0.226066 0.000000
#
# Coordination Sequence:
#
# PCOD9443564 Si02
#       7
#     8   8   8   8   8   8   8
#     4  11  21  42  68  93 133 173 213 277 331 382
#     4  11  23  42  67  91 134 173 216 273 328 380
#     4  12  22  41  67  93 132 173 217 270 326 388
#     4   9  20  38  64  93 121 159 215 270 320 378
#     4  10  20  36  62  94 123 162 213 262 317 383
#     4  12  26  43  65  97 133 178 225 266 324 399
#     4  11  21  40  68  95 131 172 212 262 333 386
#
# _framework density 20.107362999999999
#
# number of rings (size 3 to 8) (size 9 to 14) (size 15 to 20)
#    0.000    1.143    7.143    0.429    0.000    2.000 
#    0.000    5.000    0.000    0.000    0.000    0.000 
#    0.000    0.000    0.000    0.000    0.000    0.000 
#
# Total GULP energy -312527.473690 kJ/mol
# GULP energy per Si atom -5580.847744 kJ/mol
# Density = 2.006160 g / cm^3
# Si number density = 20.107363 Si / 1000 Ang^3
#
#
#
# Elastic Constant Matrix: (Units=GPa)
#
#
# Indices 1 2 3 4 5 6 
#
# 1 59.3198 1.4698 20.0036 0.0000 0.0000 0.0000
# 2 1.4698 72.0880 15.4331 0.0000 0.0000 0.0000
# 3 20.0036 15.4331 117.6308 0.0000 0.0000 0.0000
# 4 0.0000 0.0000 0.0000 16.2480 0.0000 0.0000
# 5 0.0000 0.0000 0.0000 0.0000 19.9474 0.0000
# 6 0.0000 0.0000 0.0000 0.0000 0.0000 40.3807
#
#
#
# Elastic Compliance Matrix: (Units=1/GPa)
#
#
# Indices 1 2 3 4 5 6 
#
# 1 0.017889 0.000295 -0.003081 0.000000 0.000000 0.000000
# 2 0.000295 0.014278 -0.001923 0.000000 0.000000 0.000000
# 3 -0.003081 -0.001923 0.009277 0.000000 0.000000 0.000000
# 4 0.000000 0.000000 0.000000 0.061546 0.000000 0.000000
# 5 0.000000 0.000000 0.000000 0.000000 0.050132 0.000000
# 6 0.000000 0.000000 0.000000 0.000000 0.000000 0.024764
#
#
# Mechanical properties :
#
#
# Convention : Reuss Voigt Hill
#
# Bulk Modulus (GPa) = 31.22488 35.87239 33.54863
# Shear Modulus (GPa) = 25.25501 29.45736 27.35618
#
# Velocity S-wave (km/s) = 3.54786 3.83169 3.69251
# Velocity P-wave (km/s) = 5.68735 6.12004 5.90766
#
# Compressibility (1/GPa) = 0.03202575
#
# Stress axis : x y z
#
# Youngs Moduli (GPa) = 55.89908 70.03933 107.78850
#
# Poissons Ratio (x) = -0.02065 0.33208
# Poissons Ratio (y) = -0.01648 0.20732
# Poissons Ratio (z) = 0.17222 0.13471
#
# Static dielectric constant tensor:
#      x y z
#    x 1.752130 0.000000 0.000000 
#    y 0.000000 1.755520 0.000000 
#    z 0.000000 0.000000 1.702280 
# 
# From -- ./inp_files/21286.got.cif
#   From: 2010.05.17/outbox.cif.g08.bks.cpg/sg58_11_cif.got.tgz:21286.got - 2010.06.03 14:20:14.
