data_PCOD9443147
_publ_section_title
;
Structure prediction by ZEFSAII (Michael W. Deem and Ramdas Pophale) SiO2 
 PCOD9443147
Probable space group: P N N M
;
_chemical_formula_sum "Si O2"
_cell_formula_units_Z 58
_cell_length_a 23.912480
_cell_length_b 15.021175
_cell_length_c 9.223312
_cell_angle_alpha 90.000000
_cell_angle_beta 90.000000
_cell_angle_gamma 90.000000
_cell_volume 3312.954150
_symmetry_space_group_name_H-M "P N N M"
_symmetry_group_IT_number 58
_symmetry_cell_setting 'orthorhombic'
loop_
_space_group_symop_operation_xyz
x,y,z
-x,-y,z
1/2+x,1/2-y,1/2-z
1/2-x,1/2+y,1/2-z
-x,-y,-z
x,y,-z
1/2-x,1/2+y,1/2+z
1/2+x,1/2-y,1/2+z
loop_
_atom_site_type_symbol
_atom_site_label
_atom_site_fract_x
_atom_site_fract_y
_atom_site_fract_z
Si Si1 0.615865 0.024772 0.827705
Si Si2 0.874547 0.809030 0.827560
Si Si3 0.794158 0.674601 0.328488
Si Si4 0.837409 0.161744 0.173247
Si Si5 0.465266 0.838819 0.673006
Si Si6 0.884742 0.992669 0.659651
Si Si7 0.903560 0.341152 0.826030
Si Si8 0.500000 0.500000 0.000000
O O1 0.671685 0.083302 0.801412
O O2 0.565082 0.081533 0.758050
O O3 0.618104 0.928814 0.754147
O O4 0.607828 0.016906 0.000000
O O5 0.824057 0.749910 0.765699
O O6 0.930503 0.751062 0.794445
O O7 0.875372 0.903505 0.750152
O O8 0.870498 0.818677 0.000000
O O9 0.801236 0.695116 0.500000
O O10 0.728716 0.667801 0.297545
O O11 0.869081 0.252966 0.213760
O O12 0.862779 0.078567 0.257322
O O13 0.844648 0.149536 0.000000
O O14 0.460215 0.855754 0.500000
O O15 0.530518 0.830316 0.708568
O O16 0.856953 0.984969 0.500000
O O17 0.950264 0.001743 0.623600
O O18 0.898949 0.353288 0.000000
#
# Coordination Sequence:
#
# PCOD9443147 Si02
#       8
#     8   8   8   8   8   8   8   2
#     4  10  20  35  54  80 108 146 182 220 269 328
#     4  10  20  36  61  88 111 148 196 238 283 346
#     4   9  20  39  59  82 116 149 188 236 285 339
#     4  10  22  40  59  83 113 151 194 240 287 343
#     4   9  19  34  54  80 111 141 177 225 274 327
#     4  10  22  39  58  83 117 154 191 238 299 350
#     4  10  21  35  54  79 109 141 178 224 280 327
#     4   8  24  40  58  84 120 154 198 236 306 368
#
# _framework density 17.507033
#
# number of rings (size 3 to 8) (size 9 to 14) (size 15 to 20)
#    0.414    1.931    0.000    1.655    1.931    5.517 
#    0.000    3.448    0.000    0.000    0.000    0.000 
#    0.000    0.000    0.000    0.000    0.000    0.000 
#
# Total GULP energy -323025.262910 kJ/mol
# GULP energy per Si atom -5569.401085 kJ/mol
# Density = 1.746719 g / cm^3
# Si number density = 17.507033 Si / 1000 Ang^3
#
#
#
# Elastic Constant Matrix: (Units=GPa)
#
#
# Indices 1 2 3 4 5 6 
#
# 1 118.2612 93.4110 72.2961 0.0000 0.0000 0.0000
# 2 93.4110 186.9596 94.5545 0.0000 0.0000 0.0000
# 3 72.2961 94.5545 71.6690 0.0000 0.0000 0.0000
# 4 0.0000 0.0000 0.0000 31.2268 0.0000 0.0000
# 5 0.0000 0.0000 0.0000 0.0000 21.5821 0.0000
# 6 0.0000 0.0000 0.0000 0.0000 0.0000 5.2949
#
#
#
# Elastic Compliance Matrix: (Units=1/GPa)
#
#
# Indices 1 2 3 4 5 6 
#
# 1 0.022090 0.000700 -0.023206 0.000000 0.000000 0.000000
# 2 0.000700 0.016096 -0.021942 0.000000 0.000000 0.000000
# 3 -0.023206 -0.021942 0.066311 0.000000 0.000000 0.000000
# 4 0.000000 0.000000 0.000000 0.032024 0.000000 0.000000
# 5 0.000000 0.000000 0.000000 0.000000 0.046335 0.000000
# 6 0.000000 0.000000 0.000000 0.000000 0.000000 0.188861
#
#
# Mechanical properties :
#
#
# Convention : Reuss Voigt Hill
#
# Bulk Modulus (GPa) = 64.10284 99.71257 81.90770
# Shear Modulus (GPa) = 10.73390 19.39597 15.06494
#
# Velocity S-wave (km/s) = 2.47881 3.33212 2.93662
# Velocity P-wave (km/s) = 6.69982 8.47841 7.64104
#
# Compressibility (1/GPa) = 0.01559993
#
# Stress axis : x y z
#
# Youngs Moduli (GPa) = 45.26997 62.12595 15.08039
#
# Poissons Ratio (x) = -0.04348 0.34996
# Poissons Ratio (y) = -0.03168 0.33090
# Poissons Ratio (z) = 1.05055 1.36318
#
# Static dielectric constant tensor:
#      x y z
#    x 1.578260 0.000000 0.000000 
#    y 0.000000 1.567910 0.000000 
#    z 0.000000 0.000000 1.592620 
# 
# From -- ./inp_files/9880.got.cif
#   From: 2010.05.17/outbox.cif.g08.bks.cpg/sg58_5_cif.got.tgz:9880.got - 2010.06.03 14:20:14.
