data_PCOD9443707
_publ_section_title
;
Structure prediction by ZEFSAII (Michael W. Deem and Ramdas Pophale) SiO2 
 PCOD9443707
Probable space group: P N N M
;
_chemical_formula_sum "Si O2"
_cell_formula_units_Z 56
_cell_length_a 21.664743
_cell_length_b 15.716550
_cell_length_c 8.980689
_cell_angle_alpha 90.000000
_cell_angle_beta 90.000000
_cell_angle_gamma 90.000000
_cell_volume 3057.879850
_symmetry_space_group_name_H-M "P N N M"
_symmetry_group_IT_number 58
_symmetry_cell_setting 'orthorhombic'
loop_
_space_group_symop_operation_xyz
x,y,z
-x,-y,z
1/2+x,1/2-y,1/2-z
1/2-x,1/2+y,1/2-z
-x,-y,-z
x,y,-z
1/2-x,1/2+y,1/2+z
1/2+x,1/2-y,1/2+z
loop_
_atom_site_type_symbol
_atom_site_label
_atom_site_fract_x
_atom_site_fract_y
_atom_site_fract_z
Si Si1 0.335407 0.683615 0.680174
Si Si2 0.786695 0.631255 0.819178
Si Si3 0.469891 0.705590 0.172856
Si Si4 0.813176 0.008335 0.822666
Si Si5 0.899406 0.517097 0.827323
Si Si6 0.950719 0.074644 0.164645
Si Si7 0.522478 0.868663 0.673604
O O1 0.338304 0.682779 0.500000
O O2 0.298207 0.769719 0.725087
O O3 0.405727 0.691562 0.738707
O O4 0.307823 0.591212 0.726279
O O5 0.728580 0.578627 0.758542
O O6 0.844968 0.574446 0.764092
O O7 0.785639 0.631443 0.000000
O O8 0.520298 0.634844 0.212684
O O9 0.503352 0.790551 0.227093
O O10 0.454968 0.707421 0.000000
O O11 0.884250 0.035693 0.801760
O O12 0.799929 0.010993 0.000000
O O13 0.961198 0.573163 0.827777
O O14 0.920779 0.425756 0.766418
O O15 0.883040 0.501071 0.000000
O O16 0.947466 0.117180 0.000000
O O17 0.000000 0.000000 0.152321
O O18 0.533971 0.845197 0.500000
#
# Coordination Sequence:
#
# PCOD9443707 Si02
#       7
#     8   8   8   8   8   8   8
#     4  10  20  40  65  83 108 156 202 230 276 352
#     4  10  20  37  62  87 116 153 194 239 289 342
#     4  12  23  33  54  89 121 145 180 238 296 339
#     4  10  22  40  62  86 112 148 194 241 289 344
#     4   8  15  30  57  84 105 144 195 238 273 325
#     4  10  20  39  64  83 106 146 192 236 287 350
#     4   9  16  32  56  80 111 148 193 234 273 337
#
# _framework density 18.313344000000001
#
# number of rings (size 3 to 8) (size 9 to 14) (size 15 to 20)
#    0.000    2.143    2.857    2.143    0.000    2.000 
#    2.571    2.143    0.000    0.000    0.000    0.000 
#    0.000    0.000    0.000    0.000    0.000    0.000 
#
# Total GULP energy -311821.728323 kJ/mol
# GULP energy per Si atom -5568.245149 kJ/mol
# Density = 1.827166 g / cm^3
# Si number density = 18.313344 Si / 1000 Ang^3
#
#
#
# Elastic Constant Matrix: (Units=GPa)
#
#
# Indices 1 2 3 4 5 6 
#
# 1 83.1655 47.8868 16.6939 0.0000 0.0000 0.0000
# 2 47.8868 116.3422 32.5898 0.0000 0.0000 0.0000
# 3 16.6939 32.5898 25.3977 0.0000 0.0000 0.0000
# 4 0.0000 0.0000 0.0000 77.3086 0.0000 0.0000
# 5 0.0000 0.0000 0.0000 0.0000 122.2854 0.0000
# 6 0.0000 0.0000 0.0000 0.0000 0.0000 25.9987
#
#
#
# Elastic Compliance Matrix: (Units=1/GPa)
#
#
# Indices 1 2 3 4 5 6 
#
# 1 0.015925 -0.005655 -0.003211 0.000000 0.000000 0.000000
# 2 -0.005655 0.015427 -0.016078 0.000000 0.000000 0.000000
# 3 -0.003211 -0.016078 0.062115 0.000000 0.000000 0.000000
# 4 0.000000 0.000000 0.000000 0.012935 0.000000 0.000000
# 5 0.000000 0.000000 0.000000 0.000000 0.008178 0.000000
# 6 0.000000 0.000000 0.000000 0.000000 0.000000 0.038463
#
#
# Mechanical properties :
#
#
# Convention : Reuss Voigt Hill
#
# Bulk Modulus (GPa) = 22.94694 46.58294 34.76494
# Shear Modulus (GPa) = 22.99285 53.63419 38.31352
#
# Velocity S-wave (km/s) = 3.54718 5.41761 4.57892
# Velocity P-wave (km/s) = 5.41609 8.03902 6.85419
#
# Compressibility (1/GPa) = 0.04357880
#
# Stress axis : x y z
#
# Youngs Moduli (GPa) = 62.79389 64.82138 16.09904
#
# Poissons Ratio (x) = 0.36660 0.05169
# Poissons Ratio (y) = 0.35513 0.25885
# Poissons Ratio (z) = 0.20161 1.04222
#
# Static dielectric constant tensor:
#      x y z
#    x 1.608840 0.000000 0.000000 
#    y 0.000000 1.627750 0.000000 
#    z 0.000000 0.000000 1.639980 
# 
# From -- ./inp_files/8962.got.cif
#   From: 2010.05.17/outbox.cif.g08.bks.cpg/sg58_5_cif.got.tgz:8962.got - 2010.06.03 14:20:14.
