data_PCOD9443778
_publ_section_title
;
Structure prediction by ZEFSAII (Michael W. Deem and Ramdas Pophale) SiO2 
 PCOD9443778
Probable space group: P N N M
;
_chemical_formula_sum "Si O2"
_cell_formula_units_Z 64
_cell_length_a 14.989776
_cell_length_b 22.915910
_cell_length_c 7.452876
_cell_angle_alpha 90.000000
_cell_angle_beta 90.000000
_cell_angle_gamma 90.000000
_cell_volume 2560.095384
_symmetry_space_group_name_H-M "P N N M"
_symmetry_group_IT_number 58
_symmetry_cell_setting 'orthorhombic'
loop_
_space_group_symop_operation_xyz
x,y,z
-x,-y,z
1/2+x,1/2-y,1/2-z
1/2-x,1/2+y,1/2-z
-x,-y,-z
x,y,-z
1/2-x,1/2+y,1/2+z
1/2+x,1/2-y,1/2+z
loop_
_atom_site_type_symbol
_atom_site_label
_atom_site_fract_x
_atom_site_fract_y
_atom_site_fract_z
Si Si1 0.777272 0.559006 0.279332
Si Si2 0.534104 0.289959 0.780279
Si Si3 0.656714 0.715986 0.200517
Si Si4 0.167568 0.106600 0.717134
Si Si5 0.915424 0.463425 0.284093
Si Si6 0.147859 0.319240 0.294183
Si Si7 0.594714 0.516718 0.297718
Si Si8 0.643314 0.843651 0.707517
O O1 0.775104 0.560169 0.500000
O O2 0.829090 0.500361 0.222783
O O3 0.832369 0.616107 0.219746
O O4 0.673364 0.557695 0.220816
O O5 0.435053 0.307270 0.716408
O O6 0.600150 0.342095 0.733265
O O7 0.578300 0.228448 0.717700
O O8 0.530791 0.287559 0.000000
O O9 0.752409 0.709167 0.292489
O O10 0.630364 0.784153 0.191120
O O11 0.668907 0.692707 0.000000
O O12 0.165929 0.099735 0.500000
O O13 0.142344 0.045885 0.803136
O O14 0.264963 0.127524 0.770968
O O15 0.913105 0.462680 0.500000
O O16 0.924209 0.396798 0.224352
O O17 0.000000 0.500000 0.225175
O O18 0.119488 0.328117 0.500000
O O19 0.500000 0.500000 0.209120
O O20 0.574791 0.538003 0.500000
O O21 0.652478 0.827090 0.500000
#
# Coordination Sequence:
#
# PCOD9443778 Si02
#       8
#     8   8   8   8   8   8   8   8
#     4   9  19  35  56  82 114 151 188 227 274 335
#     4   9  20  38  59  82 112 149 190 234 285 346
#     4  11  23  38  60  88 115 148 194 245 290 343
#     4  10  20  38  60  82 109 150 194 234 284 340
#     4  10  21  37  61  89 115 151 196 237 284 343
#     4  10  20  39  61  81 115 156 191 231 286 347
#     4  10  21  36  55  85 117 147 186 234 283 332
#     4  11  22  39  62  85 115 154 194 241 293 343
#
# _framework density 24.999067
#
# number of rings (size 3 to 8) (size 9 to 14) (size 15 to 20)
#    0.000    2.000    2.500    0.750    3.500    1.000 
#    0.000    3.125    0.000    0.000    0.000    0.000 
#    0.000    0.000    0.000    0.000    0.000    0.000 
#
# Total GULP energy -357625.472916 kJ/mol
# GULP energy per Si atom -5587.898014 kJ/mol
# Density = 2.494217 g / cm^3
# Si number density = 24.999067 Si / 1000 Ang^3
#
#
#
# Elastic Constant Matrix: (Units=GPa)
#
#
# Indices 1 2 3 4 5 6 
#
# 1 69.1200 -22.3947 -0.5493 0.0000 0.0000 0.0000
# 2 -22.3947 71.4099 -1.7926 0.0000 0.0000 0.0000
# 3 -0.5493 -1.7926 77.9328 0.0000 0.0000 0.0000
# 4 0.0000 0.0000 0.0000 23.4587 0.0000 0.0000
# 5 0.0000 0.0000 0.0000 0.0000 -9.8192 0.0000
# 6 0.0000 0.0000 0.0000 0.0000 0.0000 35.8055
#
#
#
# Elastic Compliance Matrix: (Units=1/GPa)
#
#
# Indices 1 2 3 4 5 6 
#
# 1 0.016108 0.005057 0.000230 0.000000 0.000000 0.000000
# 2 0.005057 0.015600 0.000394 0.000000 0.000000 0.000000
# 3 0.000230 0.000394 0.012842 0.000000 0.000000 0.000000
# 4 0.000000 0.000000 0.000000 0.042628 0.000000 0.000000
# 5 0.000000 0.000000 0.000000 0.000000 -0.101841 0.000000
# 6 0.000000 0.000000 0.000000 0.000000 0.000000 0.027929
#
#
# Mechanical properties :
#
#
# Convention : Reuss Voigt Hill
#
# Bulk Modulus (GPa) = 17.88486 18.77662 18.33074
# Shear Modulus (GPa) = 243.42818 26.10228 134.76523
#
# Velocity S-wave (km/s) = 9.87858 3.23481 7.35018
# Velocity P-wave (km/s) = 11.71686 4.63457 8.90966
#
# Compressibility (1/GPa) = 0.05591321
#
# Stress axis : x y z
#
# Youngs Moduli (GPa) = 62.08101 64.10423 77.86788
#
# Poissons Ratio (x) = -0.32420 -0.01790
# Poissons Ratio (y) = -0.31397 -0.03072
# Poissons Ratio (z) = -0.01427 -0.02529
#
# Static dielectric constant tensor:
#      x y z
#    x 2.019720 0.000000 0.000000 
#    y 0.000000 1.953450 0.000000 
#    z 0.000000 0.000000 1.967270 
# 
# From -- ./inp_files/6847.got.cif
#   From: 2010.05.17/outbox.cif.g08.bks.cpg/sg58_4_cif.got.tgz:6847.got - 2010.06.03 14:20:14.
