data_PCOD9443648
_publ_section_title
;
Structure prediction by ZEFSAII (Michael W. Deem and Ramdas Pophale) SiO2 
 PCOD9443648
Probable space group: P N N M
;
_chemical_formula_sum "Si O2"
_cell_formula_units_Z 36
_cell_length_a 4.992106
_cell_length_b 13.948228
_cell_length_c 22.586746
_cell_angle_alpha 90.000000
_cell_angle_beta 90.000000
_cell_angle_gamma 90.000000
_cell_volume 1572.738449
_symmetry_space_group_name_H-M "P N N M"
_symmetry_group_IT_number 58
_symmetry_cell_setting 'orthorhombic'
loop_
_space_group_symop_operation_xyz
x,y,z
-x,-y,z
1/2+x,1/2-y,1/2-z
1/2-x,1/2+y,1/2-z
-x,-y,-z
x,y,-z
1/2-x,1/2+y,1/2+z
1/2+x,1/2-y,1/2+z
loop_
_atom_site_type_symbol
_atom_site_label
_atom_site_fract_x
_atom_site_fract_y
_atom_site_fract_z
Si Si1 0.000000 0.000000 0.650797
Si Si2 0.795445 0.352470 0.933081
Si Si3 0.296275 0.220461 0.067400
Si Si4 0.843147 0.625028 0.239262
Si Si5 0.152753 0.156265 0.809312
O O1 0.204018 0.939334 0.690376
O O2 0.814300 0.930394 0.611776
O O3 0.595244 0.261852 0.927432
O O4 0.092792 0.311022 0.925475
O O5 0.771346 0.390286 0.000000
O O6 0.233837 0.151868 0.122333
O O7 0.256312 0.184307 0.000000
O O8 0.840599 0.732001 0.211177
O O9 0.644599 0.622745 0.295408
O O10 0.137212 0.606204 0.264897
#
# Coordination Sequence:
#
# PCOD9443648 Si02
#       5
#     4   8   8   8   8
#     4  12  23  38  56  88 119 164 192 234 282 358
#     4  10  22  35  54  84 121 157 189 228 277 344
#     4  10  20  37  60  83 110 152 197 237 285 340
#     4  10  23  33  58  76 114 152 196 226 292 326
#     4  10  20  40  52  81 108 151 193 246 274 337
#
# _framework density 22.890011000000001
#
# number of rings (size 3 to 8) (size 9 to 14) (size 15 to 20)
#    0.000    1.778    2.222    1.667    6.222    3.556 
#    0.000    3.333    0.000    0.000    0.000    4.667 
#    0.000    0.000    0.000    0.000    0.000    0.000 
#
# Total GULP energy -201551.445386 kJ/mol
# GULP energy per Si atom -5598.651261 kJ/mol
# Density = 2.283791 g / cm^3
# Si number density = 22.890011 Si / 1000 Ang^3
#
#
#
# Elastic Constant Matrix: (Units=GPa)
#
#
# Indices 1 2 3 4 5 6 
#
# 1 76.1971 7.4809 -0.3928 0.0000 0.0000 0.0000
# 2 7.4809 23.0632 18.2235 0.0000 0.0000 0.0000
# 3 -0.3928 18.2235 127.1117 0.0000 0.0000 0.0000
# 4 0.0000 0.0000 0.0000 35.0015 0.0000 0.0000
# 5 0.0000 0.0000 0.0000 0.0000 25.2810 0.0000
# 6 0.0000 0.0000 0.0000 0.0000 0.0000 22.2161
#
#
#
# Elastic Compliance Matrix: (Units=1/GPa)
#
#
# Indices 1 2 3 4 5 6 
#
# 1 0.013621 -0.005020 0.000762 0.000000 0.000000 0.000000
# 2 -0.005020 0.050749 -0.007291 0.000000 0.000000 0.000000
# 3 0.000762 -0.007291 0.008915 0.000000 0.000000 0.000000
# 4 0.000000 0.000000 0.000000 0.028570 0.000000 0.000000
# 5 0.000000 0.000000 0.000000 0.000000 0.039555 0.000000
# 6 0.000000 0.000000 0.000000 0.000000 0.000000 0.045012
#
#
# Mechanical properties :
#
#
# Convention : Reuss Voigt Hill
#
# Bulk Modulus (GPa) = 19.92615 30.77724 25.35169
# Shear Modulus (GPa) = 22.09952 29.90375 26.00164
#
# Velocity S-wave (km/s) = 3.11057 3.61835 3.37402
# Velocity P-wave (km/s) = 4.65026 5.56161 5.12623
#
# Compressibility (1/GPa) = 0.05018532
#
# Stress axis : x y z
#
# Youngs Moduli (GPa) = 73.41800 19.70495 112.17367
#
# Poissons Ratio (x) = 0.09892 -0.08545
# Poissons Ratio (y) = 0.36856 0.81787
# Poissons Ratio (z) = -0.05593 0.14367
#
# Static dielectric constant tensor:
#      x y z
#    x 1.816490 0.000000 0.000000 
#    y 0.000000 1.866160 0.000000 
#    z 0.000000 0.000000 1.856370 
# 
# From -- ./inp_files/28000.got.cif
#   From: 2010.05.17/outbox.cif.g08.bks.cpg/sg58_14_cif.got.tgz:28000.got - 2010.06.03 14:20:14.
