data_PCOD9443239
_publ_section_title
;
Structure prediction by ZEFSAII (Michael W. Deem and Ramdas Pophale) SiO2 
 PCOD9443239
Probable space group: P N N M
;
_chemical_formula_sum "Si O2"
_cell_formula_units_Z 40
_cell_length_a 11.628524
_cell_length_b 13.493036
_cell_length_c 13.273454
_cell_angle_alpha 90.000000
_cell_angle_beta 90.000000
_cell_angle_gamma 90.000000
_cell_volume 2082.659260
_symmetry_space_group_name_H-M "P N N M"
_symmetry_group_IT_number 58
_symmetry_cell_setting 'orthorhombic'
loop_
_space_group_symop_operation_xyz
x,y,z
-x,-y,z
1/2+x,1/2-y,1/2-z
1/2-x,1/2+y,1/2-z
-x,-y,-z
x,y,-z
1/2-x,1/2+y,1/2+z
1/2+x,1/2-y,1/2+z
loop_
_atom_site_type_symbol
_atom_site_label
_atom_site_fract_x
_atom_site_fract_y
_atom_site_fract_z
Si Si1 0.390550 0.574126 0.615991
Si Si2 0.257594 0.900196 0.193613
Si Si3 0.965072 0.236305 0.208742
Si Si4 0.583779 0.093093 0.389662
Si Si5 0.991750 0.617072 0.612583
O O1 0.500000 0.500000 0.610418
O O2 0.369466 0.608405 0.500000
O O3 0.286889 0.507600 0.657671
O O4 0.429353 0.658440 0.694918
O O5 0.150379 0.826074 0.196279
O O6 0.322248 0.904341 0.301168
O O7 0.355206 0.863731 0.117349
O O8 0.998098 0.314202 0.122712
O O9 0.958003 0.304302 0.308577
O O10 0.638026 0.092603 0.500000
O O11 0.500000 0.000000 0.379019
O O12 0.038235 0.627754 0.500000
O O13 0.000000 0.500000 0.641369
#
# Coordination Sequence:
#
# PCOD9443239 Si02
#       5
#     8   8   8   8   8
#     4   9  18  33  54  81 110 139 176 223 273 325
#     4  10  20  36  57  81 109 145 185 228 276 326
#     4  10  20  35  57  83 110 138 181 233 276 323
#     4  10  22  38  54  77 111 147 183 224 275 335
#     4  10  22  38  55  79 112 147 183 225 274 331
#
# _framework density 19.206215
#
# number of rings (size 3 to 8) (size 9 to 14) (size 15 to 20)
#    0.000    2.200    0.000    3.600    0.000    9.600 
#    0.000    5.000    0.000    3.600    0.000    0.000 
#    0.000    0.000    0.000    0.000    0.000    0.000 
#
# Total GULP energy -222892.861134 kJ/mol
# GULP energy per Si atom -5572.321528 kJ/mol
# Density = 1.916250 g / cm^3
# Si number density = 19.206215 Si / 1000 Ang^3
#
#
#
# Elastic Constant Matrix: (Units=GPa)
#
#
# Indices 1 2 3 4 5 6 
#
# 1 63.5612 18.5022 6.9088 0.0000 0.0000 0.0000
# 2 18.5022 99.8805 22.5538 0.0000 0.0000 0.0000
# 3 6.9088 22.5538 119.5318 0.0000 0.0000 0.0000
# 4 0.0000 0.0000 0.0000 -13.8030 0.0000 0.0000
# 5 0.0000 0.0000 0.0000 0.0000 46.4023 0.0000
# 6 0.0000 0.0000 0.0000 0.0000 0.0000 30.9206
#
#
#
# Elastic Compliance Matrix: (Units=1/GPa)
#
#
# Indices 1 2 3 4 5 6 
#
# 1 0.016648 -0.002994 -0.000397 0.000000 0.000000 0.000000
# 2 -0.002994 0.010996 -0.001902 0.000000 0.000000 0.000000
# 3 -0.000397 -0.001902 0.008748 0.000000 0.000000 0.000000
# 4 0.000000 0.000000 0.000000 -0.072448 0.000000 0.000000
# 5 0.000000 0.000000 0.000000 0.000000 0.021551 0.000000
# 6 0.000000 0.000000 0.000000 0.000000 0.000000 0.032341
#
#
# Mechanical properties :
#
#
# Convention : Reuss Voigt Hill
#
# Bulk Modulus (GPa) = 38.75198 42.10035 40.42616
# Shear Modulus (GPa) = 135.05063 28.37122 81.71093
#
# Velocity S-wave (km/s) = 8.39457 3.84759 6.52965
# Velocity P-wave (km/s) = 10.68545 6.45805 8.82851
#
# Compressibility (1/GPa) = 0.02580513
#
# Stress axis : x y z
#
# Youngs Moduli (GPa) = 60.06858 90.94187 114.31494
#
# Poissons Ratio (x) = 0.27229 0.04541
# Poissons Ratio (y) = 0.17986 0.21740
# Poissons Ratio (z) = 0.02386 0.17295
#
# Static dielectric constant tensor:
#      x y z
#    x 1.709900 0.000000 0.000000 
#    y 0.000000 1.714620 0.000000 
#    z 0.000000 0.000000 1.697170 
# 
# From -- ./inp_files/20896.got.cif
#   From: 2010.05.17/outbox.cif.g08.bks.cpg/sg58_11_cif.got.tgz:20896.got - 2010.06.03 14:20:14.
