data_PCOD9443481
_publ_section_title
;
Structure prediction by ZEFSAII (Michael W. Deem and Ramdas Pophale) SiO2 
 PCOD9443481
Probable space group: P N N M
;
_chemical_formula_sum "Si O2"
_cell_formula_units_Z 48
_cell_length_a 10.722627
_cell_length_b 24.401292
_cell_length_c 7.674983
_cell_angle_alpha 90.000000
_cell_angle_beta 90.000000
_cell_angle_gamma 90.000000
_cell_volume 2008.128237
_symmetry_space_group_name_H-M "P N N M"
_symmetry_group_IT_number 58
_symmetry_cell_setting 'orthorhombic'
loop_
_space_group_symop_operation_xyz
x,y,z
-x,-y,z
1/2+x,1/2-y,1/2-z
1/2-x,1/2+y,1/2-z
-x,-y,-z
x,y,-z
1/2-x,1/2+y,1/2+z
1/2+x,1/2-y,1/2+z
loop_
_atom_site_type_symbol
_atom_site_label
_atom_site_fract_x
_atom_site_fract_y
_atom_site_fract_z
Si Si1 0.509693 0.563120 0.290701
Si Si2 0.368817 0.760447 0.697019
Si Si3 0.136871 0.475830 0.798006
Si Si4 0.759011 0.413539 0.208987
Si Si5 0.750697 0.629108 0.698040
Si Si6 0.873744 0.304743 0.796053
O O1 0.500000 0.500000 0.223773
O O2 0.520849 0.559580 0.500000
O O3 0.385696 0.596383 0.243750
O O4 0.628452 0.598158 0.230578
O O5 0.382951 0.739010 0.500000
O O6 0.306005 0.820504 0.698152
O O7 0.261255 0.724010 0.784312
O O8 0.508008 0.770232 0.775511
O O9 0.218119 0.525323 0.721200
O O10 0.149592 0.419683 0.698260
O O11 0.000000 0.500000 0.797128
O O12 0.171197 0.465133 0.000000
O O13 0.848443 0.365642 0.277264
O O14 0.779394 0.416585 0.000000
O O15 0.725666 0.648150 0.500000
O O16 0.905545 0.311359 0.000000
#
# Coordination Sequence:
#
# PCOD9443481 Si02
#       6
#     8   8   8   8   8   8
#     4  10  21  38  58  87 128 166 202 250 308 366
#     4  11  25  45  69  94 126 167 210 264 323 378
#     4  10  20  36  59  87 121 160 201 250 312 377
#     4  10  21  37  61  89 121 160 204 254 305 369
#     4  11  23  39  61  89 125 164 207 260 310 373
#     4  10  24  46  67  94 129 163 209 264 318 378
#
# _framework density 23.902856
#
# number of rings (size 3 to 8) (size 9 to 14) (size 15 to 20)
#    0.000    1.667    1.667    2.000    2.333    6.667 
#    0.000    1.667    0.000    0.000    0.000    0.000 
#    0.000    0.000    0.000    0.000    0.000    0.000 
#
# Total GULP energy -268117.631049 kJ/mol
# GULP energy per Si atom -5585.783980 kJ/mol
# Density = 2.384845 g / cm^3
# Si number density = 23.902856 Si / 1000 Ang^3
#
#
#
# Elastic Constant Matrix: (Units=GPa)
#
#
# Indices 1 2 3 4 5 6 
#
# 1 104.2020 5.8751 -0.6387 0.0000 0.0000 0.0000
# 2 5.8751 55.5022 -10.8786 0.0000 0.0000 0.0000
# 3 -0.6387 -10.8786 45.3203 0.0000 0.0000 0.0000
# 4 0.0000 0.0000 0.0000 16.7277 0.0000 0.0000
# 5 0.0000 0.0000 0.0000 0.0000 4.0677 0.0000
# 6 0.0000 0.0000 0.0000 0.0000 0.0000 36.5810
#
#
#
# Elastic Compliance Matrix: (Units=1/GPa)
#
#
# Indices 1 2 3 4 5 6 
#
# 1 0.009655 -0.001044 -0.000115 0.000000 0.000000 0.000000
# 2 -0.001044 0.019020 0.004551 0.000000 0.000000 0.000000
# 3 -0.000115 0.004551 0.023156 0.000000 0.000000 0.000000
# 4 0.000000 0.000000 0.000000 0.059781 0.000000 0.000000
# 5 0.000000 0.000000 0.000000 0.000000 0.245840 0.000000
# 6 0.000000 0.000000 0.000000 0.000000 0.000000 0.027337
#
#
# Mechanical properties :
#
#
# Convention : Reuss Voigt Hill
#
# Bulk Modulus (GPa) = 17.06080 21.52669 19.29374
# Shear Modulus (GPa) = 12.57724 25.51971 19.04848
#
# Velocity S-wave (km/s) = 2.29635 3.27103 2.82603
# Velocity P-wave (km/s) = 3.76617 4.82614 4.32872
#
# Compressibility (1/GPa) = 0.05861392
#
# Stress axis : x y z
#
# Youngs Moduli (GPa) = 103.57403 52.57668 43.18553
#
# Poissons Ratio (x) = 0.05492 0.00495
# Poissons Ratio (y) = 0.10818 -0.19653
# Poissons Ratio (z) = 0.01187 -0.23926
#
# Static dielectric constant tensor:
#      x y z
#    x 1.994370 0.000000 0.000000 
#    y 0.000000 1.913020 0.000000 
#    z 0.000000 0.000000 1.943540 
# 
# From -- ./inp_files/4250.got.cif
#   From: 2010.05.17/outbox.cif.g08.bks.cpg/sg58_3_cif.got.tgz:4250.got - 2010.06.03 14:20:14.
