data_PCOD9443311
_publ_section_title
;
Structure prediction by ZEFSAII (Michael W. Deem and Ramdas Pophale) SiO2 
 PCOD9443311
Probable space group: P N N M
;
_chemical_formula_sum "Si O2"
_cell_formula_units_Z 56
_cell_length_a 20.710798
_cell_length_b 16.670681
_cell_length_c 8.673078
_cell_angle_alpha 90.000000
_cell_angle_beta 90.000000
_cell_angle_gamma 90.000000
_cell_volume 2994.493855
_symmetry_space_group_name_H-M "P N N M"
_symmetry_group_IT_number 58
_symmetry_cell_setting 'orthorhombic'
loop_
_space_group_symop_operation_xyz
x,y,z
-x,-y,z
1/2+x,1/2-y,1/2-z
1/2-x,1/2+y,1/2-z
-x,-y,-z
x,y,-z
1/2-x,1/2+y,1/2+z
1/2+x,1/2-y,1/2+z
loop_
_atom_site_type_symbol
_atom_site_label
_atom_site_fract_x
_atom_site_fract_y
_atom_site_fract_z
Si Si1 0.052460 0.066331 0.813407
Si Si2 0.175072 0.524401 0.316680
Si Si3 0.685240 0.499705 0.815679
Si Si4 0.110689 0.681156 0.184316
Si Si5 0.026196 0.247645 0.187856
Si Si6 0.794738 0.185820 0.684876
Si Si7 0.649959 0.149998 0.313697
O O1 0.031396 0.155186 0.763097
O O2 0.122405 0.043559 0.749297
O O3 0.055536 0.065496 0.000000
O O4 0.000000 0.000000 0.765037
O O5 0.176589 0.523421 0.500000
O O6 0.248159 0.533375 0.253910
O O7 0.131990 0.597455 0.257384
O O8 0.149729 0.439185 0.254313
O O9 0.683043 0.594966 0.777998
O O10 0.688133 0.492694 0.000000
O O11 0.162275 0.748833 0.231133
O O12 0.040215 0.710983 0.237654
O O13 0.109469 0.672675 0.000000
O O14 0.089155 0.297407 0.236643
O O15 0.025988 0.247386 0.000000
O O16 0.800245 0.196933 0.500000
O O17 0.718922 0.189591 0.726796
O O18 0.648943 0.143125 0.500000
#
# Coordination Sequence:
#
# PCOD9443311 Si02
#       7
#     8   8   8   8   8   8   8
#     4  10  20  35  58  89 124 160 198 239 289 350
#     4  11  23  39  59  84 114 149 192 244 303 350
#     4  10  21  38  59  86 116 152 197 241 291 348
#     4  11  22  37  59  86 117 152 197 239 284 351
#     4   9  20  37  58  84 116 158 196 237 291 348
#     4   9  19  35  57  83 115 151 190 242 293 340
#     4   9  19  39  61  82 112 151 198 242 292 350
#
# _framework density 18.700990000000001
#
# number of rings (size 3 to 8) (size 9 to 14) (size 15 to 20)
#    0.000    2.143    0.000    3.857    2.000    4.857 
#    0.000    6.429    0.000    0.000    0.000    0.000 
#    0.000    0.000    0.000    0.000    0.000    0.000 
#
# Total GULP energy -312822.742749 kJ/mol
# GULP energy per Si atom -5586.120406 kJ/mol
# Density = 1.865843 g / cm^3
# Si number density = 18.700990 Si / 1000 Ang^3
#
#
#
# Elastic Constant Matrix: (Units=GPa)
#
#
# Indices 1 2 3 4 5 6 
#
# 1 147.9900 92.9788 24.8213 0.0000 0.0000 0.0000
# 2 92.9788 83.3412 17.5859 0.0000 0.0000 0.0000
# 3 24.8213 17.5859 25.7942 0.0000 0.0000 0.0000
# 4 0.0000 0.0000 0.0000 28.9243 0.0000 0.0000
# 5 0.0000 0.0000 0.0000 0.0000 29.1589 0.0000
# 6 0.0000 0.0000 0.0000 0.0000 0.0000 33.9140
#
#
#
# Elastic Compliance Matrix: (Units=1/GPa)
#
#
# Indices 1 2 3 4 5 6 
#
# 1 0.023238 -0.024770 -0.005474 0.000000 0.000000 0.000000
# 2 -0.024770 0.040418 -0.003721 0.000000 0.000000 0.000000
# 3 -0.005474 -0.003721 0.046572 0.000000 0.000000 0.000000
# 4 0.000000 0.000000 0.000000 0.034573 0.000000 0.000000
# 5 0.000000 0.000000 0.000000 0.000000 0.034295 0.000000
# 6 0.000000 0.000000 0.000000 0.000000 0.000000 0.029486
#
#
# Mechanical properties :
#
#
# Convention : Reuss Voigt Hill
#
# Bulk Modulus (GPa) = 23.64076 58.65526 41.14801
# Shear Modulus (GPa) = 17.20521 26.51543 21.86032
#
# Velocity S-wave (km/s) = 3.03647 3.76954 3.42268
# Velocity P-wave (km/s) = 4.99624 7.09780 6.13764
#
# Compressibility (1/GPa) = 0.04229982
#
# Stress axis : x y z
#
# Youngs Moduli (GPa) = 43.03380 24.74142 21.47206
#
# Poissons Ratio (x) = 0.61284 0.11753
# Poissons Ratio (y) = 1.06594 0.07989
# Poissons Ratio (z) = 0.23555 0.09205
#
# Static dielectric constant tensor:
#      x y z
#    x 1.626710 0.000000 0.000000 
#    y 0.000000 1.624250 0.000000 
#    z 0.000000 0.000000 1.634450 
# 
# From -- ./inp_files/9024.got.cif
#   From: 2010.05.17/outbox.cif.g08.bks.cpg/sg58_5_cif.got.tgz:9024.got - 2010.06.03 14:20:14.
