data_PCOD9443915
_publ_section_title
;
Structure prediction by ZEFSAII (Michael W. Deem and Ramdas Pophale) SiO2 
 PCOD9443915
Probable space group: P N N M
;
_chemical_formula_sum "Si O2"
_cell_formula_units_Z 48
_cell_length_a 8.323458
_cell_length_b 10.976035
_cell_length_c 22.860894
_cell_angle_alpha 90.000000
_cell_angle_beta 90.000000
_cell_angle_gamma 90.000000
_cell_volume 2088.538501
_symmetry_space_group_name_H-M "P N N M"
_symmetry_group_IT_number 58
_symmetry_cell_setting 'orthorhombic'
loop_
_space_group_symop_operation_xyz
x,y,z
-x,-y,z
1/2+x,1/2-y,1/2-z
1/2-x,1/2+y,1/2-z
-x,-y,-z
x,y,-z
1/2-x,1/2+y,1/2+z
1/2+x,1/2-y,1/2+z
loop_
_atom_site_type_symbol
_atom_site_label
_atom_site_fract_x
_atom_site_fract_y
_atom_site_fract_z
Si Si1 0.244566 0.405091 0.782401
Si Si2 0.034940 0.374525 0.065044
Si Si3 0.400419 0.161558 0.253213
Si Si4 0.098989 0.883881 0.590824
Si Si5 0.915808 0.875330 0.070912
Si Si6 0.060722 0.630422 0.382871
O O1 0.325028 0.297127 0.743024
O O2 0.221028 0.546678 0.763158
O O3 0.348399 0.403450 0.841527
O O4 0.061635 0.357128 0.790910
O O5 0.228025 0.370281 0.060878
O O6 0.983210 0.243934 0.088215
O O7 0.000000 0.500000 0.097071
O O8 0.961873 0.383384 0.000000
O O9 0.462944 0.143080 0.186438
O O10 0.003908 0.755991 0.587105
O O11 0.000000 0.000000 0.570739
O O12 0.750040 0.870275 0.104951
O O13 0.890762 0.870157 0.000000
O O14 0.000000 0.000000 0.084900
O O15 0.000000 0.500000 0.404231
#
# Coordination Sequence:
#
# PCOD9443915 Si02
#       6
#     8   8   8   8   8   8
#     4  10  22  38  57  80 110 148 187 230 279 328
#     4   9  19  37  59  84 114 145 181 229 281 337
#     4  10  22  39  55  82 111 147 185 232 278 328
#     4  10  23  37  56  84 112 148 190 231 279 332
#     4   9  19  37  58  83 112 142 180 225 274 333
#     4  10  20  39  54  80 113 141 185 226 275 327
#
# _framework density 22.982578
#
# number of rings (size 3 to 8) (size 9 to 14) (size 15 to 20)
#    0.000    2.333    1.667    0.000    7.000    2.000 
#    9.000    0.000    0.000    0.000    0.000    0.000 
#    0.000    0.000    0.000    0.000    0.000    0.000 
#
# Total GULP energy -267617.046268 kJ/mol
# GULP energy per Si atom -5575.355131 kJ/mol
# Density = 2.293027 g / cm^3
# Si number density = 22.982578 Si / 1000 Ang^3
#
#
#
# Elastic Constant Matrix: (Units=GPa)
#
#
# Indices 1 2 3 4 5 6 
#
# 1 30.7015 31.2711 -2.1785 0.0000 0.0000 0.0000
# 2 31.2711 208.7469 7.7059 0.0000 0.0000 0.0000
# 3 -2.1785 7.7059 41.4245 0.0000 0.0000 0.0000
# 4 0.0000 0.0000 0.0000 -40.4477 0.0000 0.0000
# 5 0.0000 0.0000 0.0000 0.0000 22.3146 0.0000
# 6 0.0000 0.0000 0.0000 0.0000 0.0000 50.2640
#
#
#
# Elastic Compliance Matrix: (Units=1/GPa)
#
#
# Indices 1 2 3 4 5 6 
#
# 1 0.038840 -0.005934 0.003147 0.000000 0.000000 0.000000
# 2 -0.005934 0.005730 -0.001378 0.000000 0.000000 0.000000
# 3 0.003147 -0.001378 0.024562 0.000000 0.000000 0.000000
# 4 0.000000 0.000000 0.000000 -0.024723 0.000000 0.000000
# 5 0.000000 0.000000 0.000000 0.000000 0.044814 0.000000
# 6 0.000000 0.000000 0.000000 0.000000 0.000000 0.019895
#
#
# Mechanical properties :
#
#
# Convention : Reuss Voigt Hill
#
# Bulk Modulus (GPa) = 16.44737 39.38554 27.91645
# Shear Modulus (GPa) = 36.30655 22.69779 29.50217
#
# Velocity S-wave (km/s) = 3.97891 3.14603 3.58673
# Velocity P-wave (km/s) = 5.31798 5.51099 5.41535
#
# Compressibility (1/GPa) = 0.06079998
#
# Stress axis : x y z
#
# Youngs Moduli (GPa) = 25.74698 174.50900 40.71305
#
# Poissons Ratio (x) = 1.03562 -0.12810
# Poissons Ratio (y) = 0.15279 0.05611
# Poissons Ratio (z) = -0.08101 0.24049
#
# Static dielectric constant tensor:
#      x y z
#    x 1.782900 0.000000 0.000000 
#    y 0.000000 1.971430 0.000000 
#    z 0.000000 0.000000 1.883460 
# 
# From -- ./inp_files/31445.got.cif
#   From: 2010.05.17/outbox.cif.g08.bks.cpg/sg58_16_cif.got.tgz:31445.got - 2010.06.03 14:20:14.
