data_PCOD9443110
_publ_section_title
;
Structure prediction by ZEFSAII (Michael W. Deem and Ramdas Pophale) SiO2 
 PCOD9443110
Probable space group: P N N M
;
_chemical_formula_sum "Si O2"
_cell_formula_units_Z 48
_cell_length_a 10.674889
_cell_length_b 26.869410
_cell_length_c 8.503118
_cell_angle_alpha 90.000000
_cell_angle_beta 90.000000
_cell_angle_gamma 90.000000
_cell_volume 2438.932068
_symmetry_space_group_name_H-M "P N N M"
_symmetry_group_IT_number 58
_symmetry_cell_setting 'orthorhombic'
loop_
_space_group_symop_operation_xyz
x,y,z
-x,-y,z
1/2+x,1/2-y,1/2-z
1/2-x,1/2+y,1/2-z
-x,-y,-z
x,y,-z
1/2-x,1/2+y,1/2+z
1/2+x,1/2-y,1/2+z
loop_
_atom_site_type_symbol
_atom_site_label
_atom_site_fract_x
_atom_site_fract_y
_atom_site_fract_z
Si Si1 0.136526 0.146672 0.683032
Si Si2 0.126800 0.806840 0.688860
Si Si3 0.116457 0.961952 0.000000
Si Si4 0.973661 0.058402 0.673664
Si Si5 0.368029 0.859306 0.820527
Si Si6 0.381650 0.193890 0.811595
Si Si7 0.606116 0.042188 0.000000
O O1 0.153221 0.160311 0.500000
O O2 0.259641 0.162203 0.772077
O O3 0.008279 0.172388 0.741912
O O4 0.102561 0.088518 0.690945
O O5 0.121796 0.805219 0.500000
O O6 0.244083 0.841295 0.732873
O O7 0.138646 0.750147 0.747606
O O8 0.102003 0.932893 0.165047
O O9 0.256609 0.982938 0.000000
O O10 0.000000 0.000000 0.000000
O O11 0.078879 0.926565 0.500000
O O12 0.000000 0.000000 0.666501
O O13 0.491185 0.832279 0.752666
O O14 0.348538 0.840658 0.000000
O O15 0.395817 0.918234 0.852836
O O16 0.393409 0.195847 0.000000
O O17 0.500000 0.000000 0.000000
#
# Coordination Sequence:
#
# PCOD9443110 Si02
#       7
#     8   8   4   8   8   8   4
#     4  10  21  35  56  83 113 149 191 248 301 362
#     4  10  20  36  57  81 112 149 196 248 303 368
#     4  10  20  34  62  92 112 162 214 250 310 373
#     4   9  19  35  55  87 123 148 191 258 308 359
#     4   9  21  38  57  82 117 160 199 249 307 372
#     4  10  21  36  54  81 113 152 194 244 304 367
#     4  10  22  40  60  86 126 164 208 262 313 379
#
# _framework density 19.680745000000002
#
# number of rings (size 3 to 8) (size 9 to 14) (size 15 to 20)
#    0.500    1.833    0.000    2.000    1.167    6.000 
#    0.000    0.000    0.000    2.000    0.000    0.000 
#    0.000    0.000    0.000    0.000    0.000    0.000 
#
# Total GULP energy -267202.603387 kJ/mol
# GULP energy per Si atom -5566.720904 kJ/mol
# Density = 1.963595 g / cm^3
# Si number density = 19.680745 Si / 1000 Ang^3
#
#
#
# Elastic Constant Matrix: (Units=GPa)
#
#
# Indices 1 2 3 4 5 6 
#
# 1 140.0923 52.4199 18.8063 0.0000 0.0000 0.0000
# 2 52.4199 116.4689 2.8471 0.0000 0.0000 0.0000
# 3 18.8063 2.8471 61.2035 0.0000 0.0000 0.0000
# 4 0.0000 0.0000 0.0000 18.7175 0.0000 0.0000
# 5 0.0000 0.0000 0.0000 0.0000 -3.1382 0.0000
# 6 0.0000 0.0000 0.0000 0.0000 0.0000 31.1388
#
#
#
# Elastic Compliance Matrix: (Units=1/GPa)
#
#
# Indices 1 2 3 4 5 6 
#
# 1 0.008971 -0.003975 -0.002572 0.000000 0.000000 0.000000
# 2 -0.003975 0.010357 0.000740 0.000000 0.000000 0.000000
# 3 -0.002572 0.000740 0.017095 0.000000 0.000000 0.000000
# 4 0.000000 0.000000 0.000000 0.053426 0.000000 0.000000
# 5 0.000000 0.000000 0.000000 0.000000 -0.318656 0.000000
# 6 0.000000 0.000000 0.000000 0.000000 0.000000 0.032114
#
#
# Mechanical properties :
#
#
# Convention : Reuss Voigt Hill
#
# Bulk Modulus (GPa) = 40.30825 51.76794 46.03809
# Shear Modulus (GPa) = -28.27876 25.58973 -1.34451
#
# Velocity S-wave (km/s) = -3.79472 3.60980 -0.82743
# Velocity P-wave (km/s) = 1.15135 6.61326 4.74662
#
# Compressibility (1/GPa) = 0.02480882
#
# Stress axis : x y z
#
# Youngs Moduli (GPa) = 111.47556 96.55516 58.49765
#
# Poissons Ratio (x) = 0.38377 0.15043
# Poissons Ratio (y) = 0.44307 -0.04326
# Poissons Ratio (z) = 0.28666 -0.07140
#
# Static dielectric constant tensor:
#      x y z
#    x 1.681110 0.000000 0.000000 
#    y 0.000000 2.276050 0.000000 
#    z 0.000000 0.000000 1.734840 
# 
# From -- ./inp_files/3060.got.cif
#   From: 2010.05.17/outbox.cif.g08.bks.cpg/sg58_2_cif.got.tgz:3060.got - 2010.06.03 14:20:14.
