data_PCOD9443907
_publ_section_title
;
Structure prediction by ZEFSAII (Michael W. Deem and Ramdas Pophale) SiO2 
 PCOD9443907
Probable space group: P N N M
;
_chemical_formula_sum "Si O2"
_cell_formula_units_Z 48
_cell_length_a 15.185960
_cell_length_b 8.578173
_cell_length_c 18.200151
_cell_angle_alpha 90.000000
_cell_angle_beta 90.000000
_cell_angle_gamma 90.000000
_cell_volume 2370.893486
_symmetry_space_group_name_H-M "P N N M"
_symmetry_group_IT_number 58
_symmetry_cell_setting 'orthorhombic'
loop_
_space_group_symop_operation_xyz
x,y,z
-x,-y,z
1/2+x,1/2-y,1/2-z
1/2-x,1/2+y,1/2-z
-x,-y,-z
x,y,-z
1/2-x,1/2+y,1/2+z
1/2+x,1/2-y,1/2+z
loop_
_atom_site_type_symbol
_atom_site_label
_atom_site_fract_x
_atom_site_fract_y
_atom_site_fract_z
Si Si1 0.901905 0.462985 0.417062
Si Si2 0.804742 0.673937 0.697930
Si Si3 0.763681 0.485690 0.156214
Si Si4 0.078795 0.875636 0.629746
Si Si5 0.520766 0.320923 0.271773
Si Si6 0.931083 0.638561 0.081372
O O1 0.892323 0.523219 0.500000
O O2 0.835562 0.553674 0.364447
O O3 0.901100 0.276313 0.417916
O O4 0.000000 0.500000 0.389846
O O5 0.771198 0.571612 0.765467
O O6 0.888973 0.772766 0.729053
O O7 0.734674 0.800061 0.668797
O O8 0.667371 0.526055 0.127199
O O9 0.838806 0.560775 0.105835
O O10 0.054269 0.796403 0.709236
O O11 0.000000 0.000000 0.613358
O O12 0.500000 0.500000 0.288696
O O13 0.531823 0.237551 0.349909
O O14 0.000000 0.500000 0.074894
O O15 0.922927 0.714094 0.000000
#
# Coordination Sequence:
#
# PCOD9443907 Si02
#       6
#     8   8   8   8   8   8
#     4  11  23  38  60  90 128 172 209 255 327 397
#     4  11  22  38  61  97 126 168 218 271 323 388
#     4  11  23  38  67  95 126 165 220 275 323 383
#     4  11  21  41  66  98 127 162 217 273 330 387
#     4  10  20  38  67  94 122 160 216 273 320 385
#     4  10  25  43  62  93 130 176 218 262 331 393
#
# _framework density 20.245531
#
# number of rings (size 3 to 8) (size 9 to 14) (size 15 to 20)
#    0.000    1.333    5.000    1.000    7.000    2.000 
#    0.000    0.000    0.000    0.500    0.000    0.000 
#    0.000    0.000    0.000    0.000    0.000    0.000 
#
# Total GULP energy -267487.585418 kJ/mol
# GULP energy per Si atom -5572.658030 kJ/mol
# Density = 2.019945 g / cm^3
# Si number density = 20.245531 Si / 1000 Ang^3
#
#
#
# Elastic Constant Matrix: (Units=GPa)
#
#
# Indices 1 2 3 4 5 6 
#
# 1 73.9557 16.9587 5.2126 0.0000 0.0000 0.0000
# 2 16.9587 103.2847 26.0915 0.0000 0.0000 0.0000
# 3 5.2126 26.0915 75.7392 0.0000 0.0000 0.0000
# 4 0.0000 0.0000 0.0000 21.4866 0.0000 0.0000
# 5 0.0000 0.0000 0.0000 0.0000 -2.4890 0.0000
# 6 0.0000 0.0000 0.0000 0.0000 0.0000 33.3264
#
#
#
# Elastic Compliance Matrix: (Units=1/GPa)
#
#
# Indices 1 2 3 4 5 6 
#
# 1 0.014053 -0.002260 -0.000189 0.000000 0.000000 0.000000
# 2 -0.002260 0.010968 -0.003623 0.000000 0.000000 0.000000
# 3 -0.000189 -0.003623 0.014464 0.000000 0.000000 0.000000
# 4 0.000000 0.000000 0.000000 0.046541 0.000000 0.000000
# 5 0.000000 0.000000 0.000000 0.000000 -0.401775 0.000000
# 6 0.000000 0.000000 0.000000 0.000000 0.000000 0.030006
#
#
# Mechanical properties :
#
#
# Convention : Reuss Voigt Hill
#
# Bulk Modulus (GPa) = 36.57271 38.83389 37.70330
# Shear Modulus (GPa) = -18.90464 24.11260 2.60398
#
# Velocity S-wave (km/s) = -3.05908 3.45484 1.13534
# Velocity P-wave (km/s) = 2.37203 5.92771 4.51465
#
# Compressibility (1/GPa) = 0.02734279
#
# Stress axis : x y z
#
# Youngs Moduli (GPa) = 71.15874 91.17245 69.13597
#
# Poissons Ratio (x) = 0.20603 0.01305
# Poissons Ratio (y) = 0.16080 0.25047
# Poissons Ratio (z) = 0.01343 0.33031
#
# Static dielectric constant tensor:
#      x y z
#    x 1.799610 0.000000 0.000000 
#    y 0.000000 1.810560 0.000000 
#    z 0.000000 0.000000 1.784950 
# 
# From -- ./inp_files/26801.got.cif
#   From: 2010.05.17/outbox.cif.g08.bks.cpg/sg58_14_cif.got.tgz:26801.got - 2010.06.03 14:20:14.
