data_PCOD9443544
_publ_section_title
;
Structure prediction by ZEFSAII (Michael W. Deem and Ramdas Pophale) SiO2 
 PCOD9443544
Probable space group: P N N M
;
_chemical_formula_sum "Si O2"
_cell_formula_units_Z 56
_cell_length_a 16.678096
_cell_length_b 12.274272
_cell_length_c 12.075278
_cell_angle_alpha 90.000000
_cell_angle_beta 90.000000
_cell_angle_gamma 90.000000
_cell_volume 2471.948112
_symmetry_space_group_name_H-M "P N N M"
_symmetry_group_IT_number 58
_symmetry_cell_setting 'orthorhombic'
loop_
_space_group_symop_operation_xyz
x,y,z
-x,-y,z
1/2+x,1/2-y,1/2-z
1/2-x,1/2+y,1/2-z
-x,-y,-z
x,y,-z
1/2-x,1/2+y,1/2+z
1/2+x,1/2-y,1/2+z
loop_
_atom_site_type_symbol
_atom_site_label
_atom_site_fract_x
_atom_site_fract_y
_atom_site_fract_z
Si Si1 0.204587 0.177773 0.376305
Si Si2 0.151437 0.582650 0.230936
Si Si3 0.835036 0.751752 0.868126
Si Si4 0.506765 0.829870 0.372805
Si Si5 0.249847 0.431006 0.382301
Si Si6 0.842978 0.198458 0.375346
Si Si7 0.929098 0.087625 0.810775
O O1 0.166258 0.153826 0.500000
O O2 0.286374 0.110056 0.366864
O O3 0.168110 0.172969 0.247219
O O4 0.231046 0.303386 0.381923
O O5 0.061077 0.584865 0.191570
O O6 0.192136 0.485979 0.295345
O O7 0.151247 0.687065 0.312824
O O8 0.752955 0.682607 0.870855
O O9 0.913070 0.679184 0.849196
O O10 0.841830 0.794888 0.000000
O O11 0.517515 0.854964 0.500000
O O12 0.539996 0.705740 0.352471
O O13 0.227369 0.480633 0.500000
O O14 0.345433 0.443691 0.368912
O O15 0.869571 0.208021 0.500000
O O16 0.896382 0.109606 0.313184
O O17 0.000000 0.000000 0.821204
#
# Coordination Sequence:
#
# PCOD9443544 Si02
#       7
#     8   8   8   8   8   8   8
#     4  10  20  40  63  87 124 170 214 262 319 382
#     4  10  20  36  61  89 124 166 215 262 319 382
#     4   9  18  35  63  89 115 163 212 256 313 376
#     4  10  20  38  62  91 128 162 207 269 322 375
#     4  11  22  39  64  92 126 169 216 262 323 391
#     4   9  18  37  58  79 120 170 206 249 314 384
#     4  11  23  36  58  94 129 157 205 268 332 382
#
# _framework density 22.654198000000001
#
# number of rings (size 3 to 8) (size 9 to 14) (size 15 to 20)
#    0.000    2.000    4.286    1.286    4.000    2.000 
#    0.000    7.143    0.000    3.429    0.000    0.000 
#    0.000    0.000    0.000    0.000    0.000    0.000 
#
# Total GULP energy -312049.588785 kJ/mol
# GULP energy per Si atom -5572.314085 kJ/mol
# Density = 2.260264 g / cm^3
# Si number density = 22.654198 Si / 1000 Ang^3
#
#
#
# Elastic Constant Matrix: (Units=GPa)
#
#
# Indices 1 2 3 4 5 6 
#
# 1 122.2811 35.5876 31.1390 0.0000 0.0000 0.0000
# 2 35.5876 60.3680 17.7163 0.0000 0.0000 0.0000
# 3 31.1390 17.7163 160.0831 0.0000 0.0000 0.0000
# 4 0.0000 0.0000 0.0000 -6.5603 0.0000 0.0000
# 5 0.0000 0.0000 0.0000 0.0000 8.8495 0.0000
# 6 0.0000 0.0000 0.0000 0.0000 0.0000 25.7894
#
#
#
# Elastic Compliance Matrix: (Units=1/GPa)
#
#
# Indices 1 2 3 4 5 6 
#
# 1 0.010149 -0.005585 -0.001356 0.000000 0.000000 0.000000
# 2 -0.005585 0.020194 -0.001149 0.000000 0.000000 0.000000
# 3 -0.001356 -0.001149 0.006638 0.000000 0.000000 0.000000
# 4 0.000000 0.000000 0.000000 -0.152432 0.000000 0.000000
# 5 0.000000 0.000000 0.000000 0.000000 0.113001 0.000000
# 6 0.000000 0.000000 0.000000 0.000000 0.000000 0.038776
#
#
# Mechanical properties :
#
#
# Convention : Reuss Voigt Hill
#
# Bulk Modulus (GPa) = 48.07240 56.84642 52.45941
# Shear Modulus (GPa) = 84.12167 22.83500 53.47834
#
# Velocity S-wave (km/s) = 6.10029 3.17832 4.86391
# Velocity P-wave (km/s) = 8.41928 6.21422 7.39935
#
# Compressibility (1/GPa) = 0.02080196
#
# Stress axis : x y z
#
# Youngs Moduli (GPa) = 98.53663 49.51873 150.65612
#
# Poissons Ratio (x) = 0.27655 0.20429
# Poissons Ratio (y) = 0.55030 0.17304
# Poissons Ratio (z) = 0.13362 0.05688
#
# Static dielectric constant tensor:
#      x y z
#    x 1.853350 0.000000 0.000000 
#    y 0.000000 1.874090 0.000000 
#    z 0.000000 0.000000 1.933720 
# 
# From -- ./inp_files/15663.got.cif
#   From: 2010.05.17/outbox.cif.g08.bks.cpg/sg58_8_cif.got.tgz:15663.got - 2010.06.03 14:20:14.
