data_PCOD9443293
_publ_section_title
;
Structure prediction by ZEFSAII (Michael W. Deem and Ramdas Pophale) SiO2 
 PCOD9443293
Probable space group: P N N M
;
_chemical_formula_sum "Si O2"
_cell_formula_units_Z 64
_cell_length_a 24.426097
_cell_length_b 15.537677
_cell_length_c 7.685838
_cell_angle_alpha 90.000000
_cell_angle_beta 90.000000
_cell_angle_gamma 90.000000
_cell_volume 2916.966172
_symmetry_space_group_name_H-M "P N N M"
_symmetry_group_IT_number 58
_symmetry_cell_setting 'orthorhombic'
loop_
_space_group_symop_operation_xyz
x,y,z
-x,-y,z
1/2+x,1/2-y,1/2-z
1/2-x,1/2+y,1/2-z
-x,-y,-z
x,y,-z
1/2-x,1/2+y,1/2+z
1/2+x,1/2-y,1/2+z
loop_
_atom_site_type_symbol
_atom_site_label
_atom_site_fract_x
_atom_site_fract_y
_atom_site_fract_z
Si Si1 0.256293 0.428033 0.696091
Si Si2 0.356307 0.989369 0.700472
Si Si3 0.538530 0.421532 0.712799
Si Si4 0.033515 0.416629 0.787023
Si Si5 0.026679 0.754540 0.209779
Si Si6 0.636545 0.822695 0.206203
Si Si7 0.165210 0.077714 0.214004
Si Si8 0.255893 0.731298 0.293344
O O1 0.274446 0.410938 0.500000
O O2 0.200308 0.482580 0.699624
O O3 0.301916 0.492122 0.774638
O O4 0.240553 0.334089 0.768131
O O5 0.344218 0.968190 0.500000
O O6 0.403615 0.926750 0.767615
O O7 0.379208 0.086228 0.709622
O O8 0.500000 0.500000 0.767353
O O9 0.539768 0.421691 0.500000
O O10 0.507290 0.335961 0.770796
O O11 0.601834 0.424360 0.768302
O O12 0.000000 0.500000 0.729992
O O13 0.003685 0.331245 0.727492
O O14 0.034222 0.417114 0.000000
O O15 0.090039 0.747660 0.260329
O O16 0.025104 0.754527 0.000000
O O17 0.696119 0.796335 0.274554
O O18 0.639769 0.836662 0.000000
O O19 0.197347 0.164974 0.270909
O O20 0.166237 0.076908 0.000000
O O21 0.255086 0.718201 0.500000
#
# Coordination Sequence:
#
# PCOD9443293 Si02
#       8
#     8   8   8   8   8   8   8   8
#     4  11  23  39  60  88 120 153 193 248 305 351
#     4  11  21  36  60  85 116 156 197 236 286 355
#     4   9  19  34  57  87 113 145 198 251 290 338
#     4   9  17  31  51  81 115 147 189 232 273 339
#     4  10  20  35  58  85 112 149 196 243 288 343
#     4  11  22  38  58  84 121 155 191 241 298 354
#     4   9  19  38  59  83 121 156 189 244 303 350
#     4  10  22  40  60  83 115 159 198 233 293 363
#
# _framework density 21.940605999999999
#
# number of rings (size 3 to 8) (size 9 to 14) (size 15 to 20)
#    0.000    2.000    2.500    1.125    3.500    1.000 
#    0.000    1.875    0.000    1.875    0.000    0.000 
#    0.000    0.000    0.000    0.000    0.000    0.000 
#
# Total GULP energy -357349.364306 kJ/mol
# GULP energy per Si atom -5583.583817 kJ/mol
# Density = 2.189067 g / cm^3
# Si number density = 21.940606 Si / 1000 Ang^3
#
#
#
# Elastic Constant Matrix: (Units=GPa)
#
#
# Indices 1 2 3 4 5 6 
#
# 1 187.0690 88.1446 4.6436 0.0000 0.0000 0.0000
# 2 88.1446 151.4808 5.8757 0.0000 0.0000 0.0000
# 3 4.6436 5.8757 40.2142 0.0000 0.0000 0.0000
# 4 0.0000 0.0000 0.0000 10.7928 0.0000 0.0000
# 5 0.0000 0.0000 0.0000 0.0000 17.4346 0.0000
# 6 0.0000 0.0000 0.0000 0.0000 0.0000 32.5186
#
#
#
# Elastic Compliance Matrix: (Units=1/GPa)
#
#
# Indices 1 2 3 4 5 6 
#
# 1 0.007367 -0.004278 -0.000226 0.000000 0.000000 0.000000
# 2 -0.004278 0.009123 -0.000839 0.000000 0.000000 0.000000
# 3 -0.000226 -0.000839 0.025016 0.000000 0.000000 0.000000
# 4 0.000000 0.000000 0.000000 0.092655 0.000000 0.000000
# 5 0.000000 0.000000 0.000000 0.000000 0.057357 0.000000
# 6 0.000000 0.000000 0.000000 0.000000 0.000000 0.030752
#
#
# Mechanical properties :
#
#
# Convention : Reuss Voigt Hill
#
# Bulk Modulus (GPa) = 32.44588 64.01020 48.22804
# Shear Modulus (GPa) = 20.55684 30.82254 25.68969
#
# Velocity S-wave (km/s) = 3.06425 3.75216 3.42552
# Velocity P-wave (km/s) = 5.22874 6.92887 6.13795
#
# Compressibility (1/GPa) = 0.03082055
#
# Stress axis : x y z
#
# Youngs Moduli (GPa) = 135.74138 109.60904 39.97520
#
# Poissons Ratio (x) = 0.46890 0.00902
# Poissons Ratio (y) = 0.58070 0.03354
# Poissons Ratio (z) = 0.03063 0.09197
#
# Static dielectric constant tensor:
#      x y z
#    x 1.790180 0.000000 0.000000 
#    y 0.000000 1.810090 0.000000 
#    z 0.000000 0.000000 1.834650 
# 
# From -- ./inp_files/10111.got.cif
#   From: 2010.05.17/outbox.cif.g08.bks.cpg/sg58_6_cif.got.tgz:10111.got - 2010.06.03 14:20:14.
