data_PCOD9443457
_publ_section_title
;
Structure prediction by ZEFSAII (Michael W. Deem and Ramdas Pophale) SiO2 
 PCOD9443457
Probable space group: P N N M
;
_chemical_formula_sum "Si O2"
_cell_formula_units_Z 64
_cell_length_a 16.892988
_cell_length_b 20.734480
_cell_length_c 9.402089
_cell_angle_alpha 90.000000
_cell_angle_beta 90.000000
_cell_angle_gamma 90.000000
_cell_volume 3293.244534
_symmetry_space_group_name_H-M "P N N M"
_symmetry_group_IT_number 58
_symmetry_cell_setting 'orthorhombic'
loop_
_space_group_symop_operation_xyz
x,y,z
-x,-y,z
1/2+x,1/2-y,1/2-z
1/2-x,1/2+y,1/2-z
-x,-y,-z
x,y,-z
1/2-x,1/2+y,1/2+z
1/2+x,1/2-y,1/2+z
loop_
_atom_site_type_symbol
_atom_site_label
_atom_site_fract_x
_atom_site_fract_y
_atom_site_fract_z
Si Si1 0.568274 0.842494 0.168343
Si Si2 0.116293 0.805047 0.336060
Si Si3 0.217308 0.631241 0.165645
Si Si4 0.661457 0.284719 0.330669
Si Si5 0.386777 0.843135 0.832059
Si Si6 0.222842 0.894752 0.166652
Si Si7 0.454175 0.623451 0.165061
Si Si8 0.158262 0.013390 0.337715
O O1 0.580578 0.765552 0.196701
O O2 0.632053 0.878989 0.264051
O O3 0.477462 0.861169 0.197493
O O4 0.583574 0.852504 0.000000
O O5 0.143276 0.803217 0.500000
O O6 0.185774 0.830993 0.237681
O O7 0.045226 0.857217 0.324805
O O8 0.259800 0.686921 0.257500
O O9 0.274516 0.569065 0.173677
O O10 0.210976 0.649512 0.000000
O O11 0.668767 0.283698 0.500000
O O12 0.637245 0.216542 0.265830
O O13 0.593172 0.333112 0.276287
O O14 0.317654 0.895318 0.810660
O O15 0.384204 0.823704 0.000000
O O16 0.180993 0.956212 0.234758
O O17 0.207896 0.892552 0.000000
O O18 0.424209 0.550803 0.188494
O O19 0.429740 0.639121 0.000000
O O20 0.157343 0.989035 0.500000
#
# Coordination Sequence:
#
# PCOD9443457 Si02
#       8
#     8   8   8   8   8   8   8   8
#     4  10  20  36  60  87 113 143 185 234 280 335
#     4  10  20  36  59  84 115 149 186 227 277 342
#     4  10  21  37  58  82 111 148 186 230 284 336
#     4  11  20  31  54  86 114 144 184 229 278 332
#     4  10  21  39  57  78 113 153 187 227 285 344
#     4  11  24  38  56  81 113 150 187 236 286 329
#     4   9  18  36  59  82 111 153 189 226 279 334
#     4   9  20  39  60  78 106 150 198 233 271 335
#
# _framework density 19.433720999999998
#
# number of rings (size 3 to 8) (size 9 to 14) (size 15 to 20)
#    0.000    2.000    1.250    3.375    0.000    7.500 
#    0.000    3.125    0.000    3.750    0.000    0.000 
#    0.000    0.000    0.000    0.000    0.000    0.000 
#
# Total GULP energy -357359.169322 kJ/mol
# GULP energy per Si atom -5583.737021 kJ/mol
# Density = 1.938949 g / cm^3
# Si number density = 19.433721 Si / 1000 Ang^3
#
#
#
# Elastic Constant Matrix: (Units=GPa)
#
#
# Indices 1 2 3 4 5 6 
#
# 1 73.4903 2.4455 23.5170 0.0000 0.0000 0.0000
# 2 2.4455 28.7860 11.6026 0.0000 0.0000 0.0000
# 3 23.5170 11.6026 56.4525 0.0000 0.0000 0.0000
# 4 0.0000 0.0000 0.0000 6.0324 0.0000 0.0000
# 5 0.0000 0.0000 0.0000 0.0000 24.8681 0.0000
# 6 0.0000 0.0000 0.0000 0.0000 0.0000 20.6771
#
#
#
# Elastic Compliance Matrix: (Units=1/GPa)
#
#
# Indices 1 2 3 4 5 6 
#
# 1 0.015754 0.001425 -0.006856 0.000000 0.000000 0.000000
# 2 0.001425 0.038006 -0.008405 0.000000 0.000000 0.000000
# 3 -0.006856 -0.008405 0.022297 0.000000 0.000000 0.000000
# 4 0.000000 0.000000 0.000000 0.165772 0.000000 0.000000
# 5 0.000000 0.000000 0.000000 0.000000 0.040212 0.000000
# 6 0.000000 0.000000 0.000000 0.000000 0.000000 0.048363
#
#
# Mechanical properties :
#
#
# Convention : Reuss Voigt Hill
#
# Bulk Modulus (GPa) = 20.66727 25.98434 23.32581
# Shear Modulus (GPa) = 13.36173 18.39310 15.87742
#
# Velocity S-wave (km/s) = 2.62497 3.07979 2.86143
# Velocity P-wave (km/s) = 4.45479 5.10358 4.79018
#
# Compressibility (1/GPa) = 0.04838569
#
# Stress axis : x y z
#
# Youngs Moduli (GPa) = 63.47756 26.31185 44.84841
#
# Poissons Ratio (x) = -0.03749 0.30746
# Poissons Ratio (y) = -0.09045 0.37694
# Poissons Ratio (z) = 0.43517 0.22115
#
# Static dielectric constant tensor:
#      x y z
#    x 1.716910 0.000000 0.000000 
#    y 0.000000 1.680510 0.000000 
#    z 0.000000 0.000000 1.644310 
# 
# From -- ./inp_files/8365.got.cif
#   From: 2010.05.17/outbox.cif.g08.bks.cpg/sg58_5_cif.got.tgz:8365.got - 2010.06.03 14:20:14.
