data_PCOD9443765
_publ_section_title
;
Structure prediction by ZEFSAII (Michael W. Deem and Ramdas Pophale) SiO2 
 PCOD9443765
Probable space group: P N N M
;
_chemical_formula_sum "Si O2"
_cell_formula_units_Z 64
_cell_length_a 28.391035
_cell_length_b 13.229303
_cell_length_c 7.866487
_cell_angle_alpha 90.000000
_cell_angle_beta 90.000000
_cell_angle_gamma 90.000000
_cell_volume 2954.602207
_symmetry_space_group_name_H-M "P N N M"
_symmetry_group_IT_number 58
_symmetry_cell_setting 'orthorhombic'
loop_
_space_group_symop_operation_xyz
x,y,z
-x,-y,z
1/2+x,1/2-y,1/2-z
1/2-x,1/2+y,1/2-z
-x,-y,-z
x,y,-z
1/2-x,1/2+y,1/2+z
1/2+x,1/2-y,1/2+z
loop_
_atom_site_type_symbol
_atom_site_label
_atom_site_fract_x
_atom_site_fract_y
_atom_site_fract_z
Si Si1 0.948264 0.766534 0.300290
Si Si2 0.366090 0.431858 0.299985
Si Si3 0.804532 0.254591 0.301797
Si Si4 0.355993 0.647435 0.694861
Si Si5 0.029141 0.900835 0.794422
Si Si6 0.345184 0.031335 0.791758
Si Si7 0.947953 0.534492 0.292751
Si Si8 0.294911 0.826521 0.804737
O O1 0.937567 0.773181 0.500000
O O2 0.912350 0.839344 0.202491
O O3 0.941664 0.651521 0.243840
O O4 0.001082 0.803959 0.270850
O O5 0.372426 0.453696 0.500000
O O6 0.333917 0.335129 0.281395
O O7 0.344611 0.536812 0.232153
O O8 0.417773 0.409081 0.229392
O O9 0.816692 0.254351 0.500000
O O10 0.819568 0.365416 0.236554
O O11 0.750258 0.223614 0.282082
O O12 0.339428 0.656789 0.500000
O O13 0.334910 0.741178 0.795445
O O14 0.029370 0.896434 0.000000
O O15 0.000000 0.000000 0.742017
O O16 0.316443 0.931305 0.735181
O O17 0.400303 0.023973 0.738957
O O18 0.345042 0.027910 0.000000
O O19 0.948867 0.530108 0.500000
O O20 0.000000 0.500000 0.234419
O O21 0.281337 0.845741 0.000000
#
# Coordination Sequence:
#
# PCOD9443765 Si02
#       8
#     8   8   8   8   8   8   8   8
#     4  11  21  34  58  91 120 155 206 256 302 359
#     4  10  23  42  62  85 123 170 208 250 311 370
#     4  11  25  42  64  94 123 159 207 254 309 370
#     4  11  22  40  64  89 121 162 206 253 312 371
#     4  10  20  38  58  81 120 168 203 237 300 368
#     4   9  20  40  62  87 124 163 198 246 307 371
#     4   9  18  34  58  86 119 159 199 240 300 365
#     4  11  23  43  67  91 121 159 204 254 310 368
#
# _framework density 21.661121000000001
#
# number of rings (size 3 to 8) (size 9 to 14) (size 15 to 20)
#    0.000    1.750    2.500    1.500    3.500    1.750 
#    0.000    1.875    0.000    1.500    0.000    0.000 
#    0.000    0.000    0.000    0.000    0.000    0.000 
#
# Total GULP energy -357450.608991 kJ/mol
# GULP energy per Si atom -5585.165765 kJ/mol
# Density = 2.161182 g / cm^3
# Si number density = 21.661121 Si / 1000 Ang^3
#
#
#
# Elastic Constant Matrix: (Units=GPa)
#
#
# Indices 1 2 3 4 5 6 
#
# 1 104.8276 61.4890 -1.7071 0.0000 0.0000 0.0000
# 2 61.4890 156.3950 6.2532 0.0000 0.0000 0.0000
# 3 -1.7071 6.2532 28.6877 0.0000 0.0000 0.0000
# 4 0.0000 0.0000 0.0000 11.0482 0.0000 0.0000
# 5 0.0000 0.0000 0.0000 0.0000 25.7279 0.0000
# 6 0.0000 0.0000 0.0000 0.0000 0.0000 30.9882
#
#
#
# Elastic Compliance Matrix: (Units=1/GPa)
#
#
# Indices 1 2 3 4 5 6 
#
# 1 0.012493 -0.004985 0.001830 0.000000 0.000000 0.000000
# 2 -0.004985 0.008439 -0.002136 0.000000 0.000000 0.000000
# 3 0.001830 -0.002136 0.035433 0.000000 0.000000 0.000000
# 4 0.000000 0.000000 0.000000 0.090512 0.000000 0.000000
# 5 0.000000 0.000000 0.000000 0.000000 0.038868 0.000000
# 6 0.000000 0.000000 0.000000 0.000000 0.000000 0.032270
#
#
# Mechanical properties :
#
#
# Convention : Reuss Voigt Hill
#
# Bulk Modulus (GPa) = 21.84215 46.88669 34.36442
# Shear Modulus (GPa) = 20.50354 28.47788 24.49071
#
# Velocity S-wave (km/s) = 3.07996 3.62981 3.36613
# Velocity P-wave (km/s) = 4.77008 6.26577 5.56837
#
# Compressibility (1/GPa) = 0.04578304
#
# Stress axis : x y z
#
# Youngs Moduli (GPa) = 80.04216 118.49100 28.22248
#
# Poissons Ratio (x) = 0.59069 -0.05165
# Poissons Ratio (y) = 0.39902 0.06029
# Poissons Ratio (z) = -0.14648 0.25313
#
# Static dielectric constant tensor:
#      x y z
#    x 1.802950 0.000000 0.000000 
#    y 0.000000 1.780660 0.000000 
#    z 0.000000 0.000000 1.787990 
# 
# From -- ./inp_files/10995.got.cif
#   From: 2010.05.17/outbox.cif.g08.bks.cpg/sg58_6_cif.got.tgz:10995.got - 2010.06.03 14:20:14.
