data_PCOD9443758
_publ_section_title
;
Structure prediction by ZEFSAII (Michael W. Deem and Ramdas Pophale) SiO2 
 PCOD9443758
Probable space group: P N N M
;
_chemical_formula_sum "Si O2"
_cell_formula_units_Z 36
_cell_length_a 23.369707
_cell_length_b 5.037618
_cell_length_c 15.455594
_cell_angle_alpha 90.000000
_cell_angle_beta 90.000000
_cell_angle_gamma 90.000000
_cell_volume 1819.550864
_symmetry_space_group_name_H-M "P N N M"
_symmetry_group_IT_number 58
_symmetry_cell_setting 'orthorhombic'
loop_
_space_group_symop_operation_xyz
x,y,z
-x,-y,z
1/2+x,1/2-y,1/2-z
1/2-x,1/2+y,1/2-z
-x,-y,-z
x,y,-z
1/2-x,1/2+y,1/2+z
1/2+x,1/2-y,1/2+z
loop_
_atom_site_type_symbol
_atom_site_label
_atom_site_fract_x
_atom_site_fract_y
_atom_site_fract_z
Si Si1 0.715672 0.009127 0.399730
Si Si2 0.938001 0.857801 0.190641
Si Si3 0.793011 0.510375 0.599950
Si Si4 0.376115 0.125144 0.746653
Si Si5 0.042034 0.246147 0.000000
O O1 0.697198 0.970794 0.500000
O O2 0.767562 0.802115 0.383726
O O3 0.740795 0.303183 0.389271
O O4 0.667172 0.948511 0.330831
O O5 0.929125 0.579450 0.238913
O O6 0.924970 0.785721 0.089973
O O7 0.895618 0.074861 0.230609
O O8 0.000000 0.000000 0.193556
O O9 0.811596 0.494133 0.500000
O O10 0.842442 0.427312 0.665191
O O11 0.000000 0.500000 0.000000
O O12 0.000000 0.000000 0.000000
#
# Coordination Sequence:
#
# PCOD9443758 Si02
#       5
#     8   8   8   8   4
#     4  10  21  35  57  86 120 147 186 235 285 349
#     4  11  24  38  57  83 117 151 192 240 283 336
#     4  10  21  39  58  84 117 152 188 238 291 340
#     4  12  22  36  62  84 114 154 197 232 283 349
#     4  10  20  38  56  76 114 154 184 224 286 338
#
# _framework density 19.785104
#
# number of rings (size 3 to 8) (size 9 to 14) (size 15 to 20)
#    0.000    1.333    0.000    7.333    3.111    0.000 
#    0.000    0.000    0.000    4.000    0.000    0.000 
#    0.000    0.000    0.000    0.000    0.000    0.000 
#
# Total GULP energy -201186.701321 kJ/mol
# GULP energy per Si atom -5588.519481 kJ/mol
# Density = 1.974007 g / cm^3
# Si number density = 19.785104 Si / 1000 Ang^3
#
#
#
# Elastic Constant Matrix: (Units=GPa)
#
#
# Indices 1 2 3 4 5 6 
#
# 1 46.6278 -4.3724 40.7013 0.0000 0.0000 0.0000
# 2 -4.3724 87.5013 6.1935 0.0000 0.0000 0.0000
# 3 40.7013 6.1935 65.9303 0.0000 0.0000 0.0000
# 4 0.0000 0.0000 0.0000 23.2374 0.0000 0.0000
# 5 0.0000 0.0000 0.0000 0.0000 25.9942 0.0000
# 6 0.0000 0.0000 0.0000 0.0000 0.0000 33.9222
#
#
#
# Elastic Compliance Matrix: (Units=1/GPa)
#
#
# Indices 1 2 3 4 5 6 
#
# 1 0.048243 0.004549 -0.030209 0.000000 0.000000 0.000000
# 2 0.004549 0.011934 -0.003929 0.000000 0.000000 0.000000
# 3 -0.030209 -0.003929 0.034186 0.000000 0.000000 0.000000
# 4 0.000000 0.000000 0.000000 0.043034 0.000000 0.000000
# 5 0.000000 0.000000 0.000000 0.000000 0.038470 0.000000
# 6 0.000000 0.000000 0.000000 0.000000 0.000000 0.029479
#
#
# Mechanical properties :
#
#
# Convention : Reuss Voigt Hill
#
# Bulk Modulus (GPa) = 28.42274 31.67826 30.05050
# Shear Modulus (GPa) = 18.09933 27.13321 22.61627
#
# Velocity S-wave (km/s) = 3.02784 3.70725 3.38464
# Velocity P-wave (km/s) = 5.15952 5.86267 5.52230
#
# Compressibility (1/GPa) = 0.03518310
#
# Stress axis : x y z
#
# Youngs Moduli (GPa) = 20.72851 83.79542 29.25171
#
# Poissons Ratio (x) = -0.38118 0.88368
# Poissons Ratio (y) = -0.09429 0.11494
# Poissons Ratio (z) = 0.62620 0.32926
#
# Static dielectric constant tensor:
#      x y z
#    x 1.640630 0.000000 0.000000 
#    y 0.000000 1.685950 0.000000 
#    z 0.000000 0.000000 1.702850 
# 
# From -- ./inp_files/23083.got.cif
#   From: 2010.05.17/outbox.cif.g08.bks.cpg/sg58_12_cif.got.tgz:23083.got - 2010.06.03 14:20:14.
