data_PCOD9443944
_publ_section_title
;
Structure prediction by ZEFSAII (Michael W. Deem and Ramdas Pophale) SiO2 
 PCOD9443944
Probable space group: P N N M
;
_chemical_formula_sum "Si O2"
_cell_formula_units_Z 48
_cell_length_a 12.552685
_cell_length_b 22.278631
_cell_length_c 8.512167
_cell_angle_alpha 90.000000
_cell_angle_beta 90.000000
_cell_angle_gamma 90.000000
_cell_volume 2380.483998
_symmetry_space_group_name_H-M "P N N M"
_symmetry_group_IT_number 58
_symmetry_cell_setting 'orthorhombic'
loop_
_space_group_symop_operation_xyz
x,y,z
-x,-y,z
1/2+x,1/2-y,1/2-z
1/2-x,1/2+y,1/2-z
-x,-y,-z
x,y,-z
1/2-x,1/2+y,1/2+z
1/2+x,1/2-y,1/2+z
loop_
_atom_site_type_symbol
_atom_site_label
_atom_site_fract_x
_atom_site_fract_y
_atom_site_fract_z
Si Si1 0.138642 0.172212 0.810483
Si Si2 0.087350 0.303532 0.187681
Si Si3 0.131107 0.642042 0.689012
Si Si4 0.489186 0.430564 0.812124
Si Si5 0.239389 0.894014 0.811261
Si Si6 0.878325 0.493157 0.309223
O O1 0.082948 0.234046 0.760758
O O2 0.263152 0.178064 0.767370
O O3 0.084136 0.112861 0.742823
O O4 0.133412 0.167237 0.000000
O O5 0.189972 0.337796 0.256428
O O6 0.979023 0.336224 0.238493
O O7 0.096483 0.304620 0.000000
O O8 0.117822 0.643787 0.500000
O O9 0.156021 0.573407 0.734629
O O10 0.500000 0.500000 0.755191
O O11 0.379813 0.400653 0.751614
O O12 0.487123 0.432138 0.000000
O O13 0.303701 0.953245 0.754390
O O14 0.235965 0.893900 0.000000
O O15 0.878713 0.496485 0.500000
O O16 0.000000 0.500000 0.256186
#
# Coordination Sequence:
#
# PCOD9443944 Si02
#       6
#     8   8   8   8   8   8
#     4  10  24  43  64  90 122 167 217 257 305 380
#     4  11  24  40  58  92 131 163 208 261 315 371
#     4  10  20  39  64  87 117 160 209 257 307 366
#     4  11  25  44  66  95 131 165 206 264 326 381
#     4  11  22  39  66  93 125 168 211 257 312 376
#     4   9  16  31  57  89 117 147 200 253 296 358
#
# _framework density 20.163965000000001
#
# number of rings (size 3 to 8) (size 9 to 14) (size 15 to 20)
#    0.000    1.667    1.667    2.500    2.333    4.667 
#    0.000    2.500    0.000    0.000    0.000    0.000 
#    0.000    0.000    0.000    0.000    0.000    0.000 
#
# Total GULP energy -268114.974931 kJ/mol
# GULP energy per Si atom -5585.728644 kJ/mol
# Density = 2.011807 g / cm^3
# Si number density = 20.163965 Si / 1000 Ang^3
#
#
#
# Elastic Constant Matrix: (Units=GPa)
#
#
# Indices 1 2 3 4 5 6 
#
# 1 111.6980 34.0834 26.5455 0.0000 0.0000 0.0000
# 2 34.0834 114.1102 29.0638 0.0000 0.0000 0.0000
# 3 26.5455 29.0638 36.1324 0.0000 0.0000 0.0000
# 4 0.0000 0.0000 0.0000 17.5052 0.0000 0.0000
# 5 0.0000 0.0000 0.0000 0.0000 26.6422 0.0000
# 6 0.0000 0.0000 0.0000 0.0000 0.0000 24.0971
#
#
#
# Elastic Compliance Matrix: (Units=1/GPa)
#
#
# Indices 1 2 3 4 5 6 
#
# 1 0.011061 -0.001552 -0.006878 0.000000 0.000000 0.000000
# 2 -0.001552 0.011239 -0.007900 0.000000 0.000000 0.000000
# 3 -0.006878 -0.007900 0.039084 0.000000 0.000000 0.000000
# 4 0.000000 0.000000 0.000000 0.057126 0.000000 0.000000
# 5 0.000000 0.000000 0.000000 0.000000 0.037534 0.000000
# 6 0.000000 0.000000 0.000000 0.000000 0.000000 0.041499
#
#
# Mechanical properties :
#
#
# Convention : Reuss Voigt Hill
#
# Bulk Modulus (GPa) = 34.81449 49.03622 41.92535
# Shear Modulus (GPa) = 20.85272 25.13210 22.99241
#
# Velocity S-wave (km/s) = 3.21932 3.53425 3.38046
# Velocity P-wave (km/s) = 5.57870 6.40516 6.00616
#
# Compressibility (1/GPa) = 0.02872367
#
# Stress axis : x y z
#
# Youngs Moduli (GPa) = 90.40936 88.97420 25.58622
#
# Poissons Ratio (x) = 0.13809 0.17597
# Poissons Ratio (y) = 0.14031 0.20214
# Poissons Ratio (z) = 0.62181 0.70292
#
# Static dielectric constant tensor:
#      x y z
#    x 1.699150 0.000000 0.000000 
#    y 0.000000 1.727670 0.000000 
#    z 0.000000 0.000000 1.698260 
# 
# From -- ./inp_files/4237.got.cif
#   From: 2010.05.17/outbox.cif.g08.bks.cpg/sg58_3_cif.got.tgz:4237.got - 2010.06.03 14:20:14.
