data_PCOD9443459
_publ_section_title
;
Structure prediction by ZEFSAII (Michael W. Deem and Ramdas Pophale) SiO2 
 PCOD9443459
Probable space group: P N N M
;
_chemical_formula_sum "Si O2"
_cell_formula_units_Z 48
_cell_length_a 26.666468
_cell_length_b 5.340540
_cell_length_c 16.258349
_cell_angle_alpha 90.000000
_cell_angle_beta 90.000000
_cell_angle_gamma 90.000000
_cell_volume 2315.405768
_symmetry_space_group_name_H-M "P N N M"
_symmetry_group_IT_number 58
_symmetry_cell_setting 'orthorhombic'
loop_
_space_group_symop_operation_xyz
x,y,z
-x,-y,z
1/2+x,1/2-y,1/2-z
1/2-x,1/2+y,1/2-z
-x,-y,-z
x,y,-z
1/2-x,1/2+y,1/2+z
1/2+x,1/2-y,1/2+z
loop_
_atom_site_type_symbol
_atom_site_label
_atom_site_fract_x
_atom_site_fract_y
_atom_site_fract_z
Si Si1 0.775497 0.280802 0.661866
Si Si2 0.446353 0.427620 0.689553
Si Si3 0.673802 0.067553 0.700369
Si Si4 0.878169 0.001100 0.500000
Si Si5 0.629044 0.444793 0.175721
Si Si6 0.420205 0.944218 0.597483
Si Si7 0.816273 0.506260 0.500000
O O1 0.716233 0.244463 0.662525
O O2 0.791310 0.372375 0.752315
O O3 0.787161 0.456649 0.584408
O O4 0.816287 0.057304 0.653331
O O5 0.500000 0.500000 0.727402
O O6 0.403316 0.398610 0.758432
O O7 0.451035 0.172588 0.637903
O O8 0.431965 0.666968 0.632693
O O9 0.641106 0.192002 0.774160
O O10 0.636150 0.992675 0.628856
O O11 0.901227 0.943643 0.410133
O O12 0.835391 0.787216 0.500000
O O13 0.859873 0.290435 0.500000
O O14 0.425257 0.946048 0.500000
#
# Coordination Sequence:
#
# PCOD9443459 Si02
#       7
#     8   8   8   4   8   8   4
#     4  11  20  36  57  85 120 166 203 246 305 366
#     4  11  24  43  68  93 122 163 211 263 323 379
#     4  11  21  35  60  85 125 165 205 249 307 368
#     4  10  20  36  59  84 118 156 196 246 299 362
#     4  10  21  38  58  88 120 162 204 253 306 369
#     4  11  25  43  64  94 128 164 207 265 316 370
#     4  10  22  34  56  86 115 158 205 242 288 362
#
# _framework density 20.730706999999999
#
# number of rings (size 3 to 8) (size 9 to 14) (size 15 to 20)
#    0.000    1.333    5.000    1.000    1.167    2.000 
#    0.000    0.417    1.833    0.000    0.000    5.833 
#    0.000    0.000    0.000    0.000    0.000    0.000 
#
# Total GULP energy -267368.185776 kJ/mol
# GULP energy per Si atom -5570.170537 kJ/mol
# Density = 2.068352 g / cm^3
# Si number density = 20.730707 Si / 1000 Ang^3
#
#
#
# Elastic Constant Matrix: (Units=GPa)
#
#
# Indices 1 2 3 4 5 6 
#
# 1 56.5537 5.8991 11.1714 0.0000 0.0000 0.0000
# 2 5.8991 71.9609 32.7900 0.0000 0.0000 0.0000
# 3 11.1714 32.7900 122.9525 0.0000 0.0000 0.0000
# 4 0.0000 0.0000 0.0000 23.2971 0.0000 0.0000
# 5 0.0000 0.0000 0.0000 0.0000 8.4922 0.0000
# 6 0.0000 0.0000 0.0000 0.0000 0.0000 22.8725
#
#
#
# Elastic Compliance Matrix: (Units=1/GPa)
#
#
# Indices 1 2 3 4 5 6 
#
# 1 0.018049 -0.000834 -0.001418 0.000000 0.000000 0.000000
# 2 -0.000834 0.015857 -0.004153 0.000000 0.000000 0.000000
# 3 -0.001418 -0.004153 0.009370 0.000000 0.000000 0.000000
# 4 0.000000 0.000000 0.000000 0.042924 0.000000 0.000000
# 5 0.000000 0.000000 0.000000 0.000000 0.117755 0.000000
# 6 0.000000 0.000000 0.000000 0.000000 0.000000 0.043721
#
#
# Mechanical properties :
#
#
# Convention : Reuss Voigt Hill
#
# Bulk Modulus (GPa) = 32.82217 39.02091 35.92154
# Shear Modulus (GPa) = 18.47472 24.37281 21.42377
#
# Velocity S-wave (km/s) = 2.98850 3.43255 3.21819
# Velocity P-wave (km/s) = 5.27021 5.87992 5.58340
#
# Compressibility (1/GPa) = 0.03046721
#
# Stress axis : x y z
#
# Youngs Moduli (GPa) = 55.40382 63.06272 106.72774
#
# Poissons Ratio (x) = 0.05257 0.15130
# Poissons Ratio (y) = 0.04619 0.44326
# Poissons Ratio (z) = 0.07854 0.26191
#
# Static dielectric constant tensor:
#      x y z
#    x 1.768120 0.000000 0.000000 
#    y 0.000000 1.819460 0.000000 
#    z 0.000000 0.000000 1.775730 
# 
# From -- ./inp_files/18625.got.cif
#   From: 2010.05.17/outbox.cif.g08.bks.cpg/sg58_10_cif.got.tgz:18625.got - 2010.06.03 14:20:14.
