data_PCOD9443955
_publ_section_title
;
Structure prediction by ZEFSAII (Michael W. Deem and Ramdas Pophale) SiO2 
 PCOD9443955
Probable space group: P N N M
;
_chemical_formula_sum "Si O2"
_cell_formula_units_Z 48
_cell_length_a 13.035128
_cell_length_b 11.809306
_cell_length_c 15.872381
_cell_angle_alpha 90.000000
_cell_angle_beta 90.000000
_cell_angle_gamma 90.000000
_cell_volume 2443.327910
_symmetry_space_group_name_H-M "P N N M"
_symmetry_group_IT_number 58
_symmetry_cell_setting 'orthorhombic'
loop_
_space_group_symop_operation_xyz
x,y,z
-x,-y,z
1/2+x,1/2-y,1/2-z
1/2-x,1/2+y,1/2-z
-x,-y,-z
x,y,-z
1/2-x,1/2+y,1/2+z
1/2+x,1/2-y,1/2+z
loop_
_atom_site_type_symbol
_atom_site_label
_atom_site_fract_x
_atom_site_fract_y
_atom_site_fract_z
Si Si1 0.697844 0.763741 0.898184
Si Si2 0.404141 0.141346 0.402454
Si Si3 0.375086 0.900246 0.337791
Si Si4 0.007584 0.129325 0.602704
Si Si5 0.206056 0.257266 0.402591
Si Si6 0.121829 0.490410 0.648117
O O1 0.792244 0.695383 0.858058
O O2 0.593617 0.697844 0.874369
O O3 0.678984 0.892222 0.869418
O O4 0.708762 0.761461 0.000000
O O5 0.427230 0.168426 0.500000
O O6 0.510168 0.145550 0.352329
O O7 0.315757 0.222366 0.365969
O O8 0.364170 0.011496 0.396895
O O9 0.368816 0.951273 0.244653
O O10 0.011715 0.131079 0.500000
O O11 0.110503 0.188855 0.635539
O O12 0.000000 0.000000 0.629913
O O13 0.214646 0.220322 0.500000
O O14 0.175634 0.387755 0.400651
O O15 0.000000 0.500000 0.626464
#
# Coordination Sequence:
#
# PCOD9443955 Si02
#       6
#     8   8   8   8   8   8
#     4  11  23  40  65  92 126 171 221 267 316 387
#     4  10  20  39  66  91 120 165 216 260 313 382
#     4  11  23  39  63  91 127 166 213 263 322 377
#     4   9  17  31  55  90 121 152 203 263 311 355
#     4  10  21  37  62  89 123 165 210 258 312 383
#     4  12  24  40  62  92 131 172 208 259 332 391
#
# _framework density 19.645336
#
# number of rings (size 3 to 8) (size 9 to 14) (size 15 to 20)
#    0.000    1.500    3.333    3.500    2.333    3.333 
#    0.000    0.833    0.000    3.000    0.000    0.000 
#    0.000    0.000    0.000    0.000    0.000    0.000 
#
# Total GULP energy -268087.623722 kJ/mol
# GULP energy per Si atom -5585.158828 kJ/mol
# Density = 1.960062 g / cm^3
# Si number density = 19.645336 Si / 1000 Ang^3
#
#
#
# Elastic Constant Matrix: (Units=GPa)
#
#
# Indices 1 2 3 4 5 6 
#
# 1 125.6121 73.1196 38.0111 0.0000 0.0000 0.0000
# 2 73.1196 128.7694 12.2038 0.0000 0.0000 0.0000
# 3 38.0111 12.2038 34.7054 0.0000 0.0000 0.0000
# 4 0.0000 0.0000 0.0000 21.4217 0.0000 0.0000
# 5 0.0000 0.0000 0.0000 0.0000 17.5727 0.0000
# 6 0.0000 0.0000 0.0000 0.0000 0.0000 30.5114
#
#
#
# Elastic Compliance Matrix: (Units=1/GPa)
#
#
# Indices 1 2 3 4 5 6 
#
# 1 0.018084 -0.008681 -0.016754 0.000000 0.000000 0.000000
# 2 -0.008681 0.012201 0.005218 0.000000 0.000000 0.000000
# 3 -0.016754 0.005218 0.045329 0.000000 0.000000 0.000000
# 4 0.000000 0.000000 0.000000 0.046682 0.000000 0.000000
# 5 0.000000 0.000000 0.000000 0.000000 0.056906 0.000000
# 6 0.000000 0.000000 0.000000 0.000000 0.000000 0.032775
#
#
# Mechanical properties :
#
#
# Convention : Reuss Voigt Hill
#
# Bulk Modulus (GPa) = 28.42601 59.52844 43.97723
# Shear Modulus (GPa) = 18.92950 24.95134 21.94042
#
# Velocity S-wave (km/s) = 3.10750 3.56770 3.34552
# Velocity P-wave (km/s) = 5.23225 6.88031 6.11208
#
# Compressibility (1/GPa) = 0.03517904
#
# Stress axis : x y z
#
# Youngs Moduli (GPa) = 55.29695 81.96269 22.06083
#
# Poissons Ratio (x) = 0.71152 0.36961
# Poissons Ratio (y) = 0.48003 -0.11510
# Poissons Ratio (z) = 0.92645 -0.42765
#
# Static dielectric constant tensor:
#      x y z
#    x 1.692120 0.000000 0.000000 
#    y 0.000000 1.675170 0.000000 
#    z 0.000000 0.000000 1.766470 
# 
# From -- ./inp_files/26127.got.cif
#   From: 2010.05.17/outbox.cif.g08.bks.cpg/sg58_14_cif.got.tgz:26127.got - 2010.06.03 14:20:14.
