data_PCOD9443448
_publ_section_title
;
Structure prediction by ZEFSAII (Michael W. Deem and Ramdas Pophale) SiO2 
 PCOD9443448
Probable space group: P N N M
;
_chemical_formula_sum "Si O2"
_cell_formula_units_Z 48
_cell_length_a 12.880892
_cell_length_b 22.003548
_cell_length_c 7.446147
_cell_angle_alpha 90.000000
_cell_angle_beta 90.000000
_cell_angle_gamma 90.000000
_cell_volume 2110.426636
_symmetry_space_group_name_H-M "P N N M"
_symmetry_group_IT_number 58
_symmetry_cell_setting 'orthorhombic'
loop_
_space_group_symop_operation_xyz
x,y,z
-x,-y,z
1/2+x,1/2-y,1/2-z
1/2-x,1/2+y,1/2-z
-x,-y,-z
x,y,-z
1/2-x,1/2+y,1/2+z
1/2+x,1/2-y,1/2+z
loop_
_atom_site_type_symbol
_atom_site_label
_atom_site_fract_x
_atom_site_fract_y
_atom_site_fract_z
Si Si1 0.367533 0.175444 0.283034
Si Si2 0.380189 0.505600 0.284789
Si Si3 0.854527 0.855722 0.288456
Si Si4 0.243894 0.390107 0.205456
Si Si5 0.980032 0.569241 0.220021
Si Si6 0.426771 0.309720 0.788344
O O1 0.364619 0.173251 0.500000
O O2 0.249211 0.175078 0.214948
O O3 0.430322 0.115926 0.224177
O O4 0.422780 0.237719 0.230881
O O5 0.500000 0.500000 0.225174
O O6 0.377990 0.499654 0.500000
O O7 0.341877 0.572174 0.232558
O O8 0.309413 0.452492 0.207364
O O9 0.858242 0.840962 0.500000
O O10 0.965943 0.836201 0.211653
O O11 0.131130 0.404955 0.283333
O O12 0.322299 0.340604 0.288181
O O13 0.223316 0.370808 0.000000
O O14 0.000000 0.500000 0.277867
O O15 0.978058 0.567965 0.000000
O O16 0.425914 0.325799 0.000000
#
# Coordination Sequence:
#
# PCOD9443448 Si02
#       6
#     8   8   8   8   8   8
#     4  10  22  38  60  85 111 149 194 236 280 333
#     4  11  22  35  55  87 118 145 183 236 290 332
#     4  10  21  39  60  82 111 151 193 230 277 339
#     4  10  20  36  59  82 112 153 190 230 283 343
#     4   9  18  35  59  86 111 142 190 238 280 336
#     4  10  22  37  55  83 115 150 191 232 282 338
#
# _framework density 22.744218
#
# number of rings (size 3 to 8) (size 9 to 14) (size 15 to 20)
#    0.000    2.000    1.667    1.500    2.333    5.333 
#    0.000    0.833    0.000    2.000    0.000    0.000 
#    0.000    0.000    0.000    0.000    0.000    0.000 
#
# Total GULP energy -268289.331170 kJ/mol
# GULP energy per Si atom -5589.361066 kJ/mol
# Density = 2.269245 g / cm^3
# Si number density = 22.744218 Si / 1000 Ang^3
#
#
#
# Elastic Constant Matrix: (Units=GPa)
#
#
# Indices 1 2 3 4 5 6 
#
# 1 114.9560 42.0058 25.0858 0.0000 0.0000 0.0000
# 2 42.0058 119.9527 -14.2622 0.0000 0.0000 0.0000
# 3 25.0858 -14.2622 68.7826 0.0000 0.0000 0.0000
# 4 0.0000 0.0000 0.0000 22.5392 0.0000 0.0000
# 5 0.0000 0.0000 0.0000 0.0000 -8.5804 0.0000
# 6 0.0000 0.0000 0.0000 0.0000 0.0000 -36.6595
#
#
#
# Elastic Compliance Matrix: (Units=1/GPa)
#
#
# Indices 1 2 3 4 5 6 
#
# 1 0.011526 -0.004651 -0.005168 0.000000 0.000000 0.000000
# 2 -0.004651 0.010424 0.003858 0.000000 0.000000 0.000000
# 3 -0.005168 0.003858 0.017223 0.000000 0.000000 0.000000
# 4 0.000000 0.000000 0.000000 0.044367 0.000000 0.000000
# 5 0.000000 0.000000 0.000000 0.000000 -0.116545 0.000000
# 6 0.000000 0.000000 0.000000 0.000000 0.000000 -0.027278
#
#
# Mechanical properties :
#
#
# Convention : Reuss Voigt Hill
#
# Bulk Modulus (GPa) = 36.69601 45.48334 41.08968
# Shear Modulus (GPa) = -127.30299 12.18399 -57.55950
#
# Velocity S-wave (km/s) = -7.48953 2.31702 -5.03609
# Velocity P-wave (km/s) = 7.65647 5.21529 3.96373
#
# Compressibility (1/GPa) = 0.02725092
#
# Stress axis : x y z
#
# Youngs Moduli (GPa) = 86.75876 95.93303 58.06079
#
# Poissons Ratio (x) = 0.44617 0.30006
# Poissons Ratio (y) = 0.40350 -0.22398
# Poissons Ratio (z) = 0.44838 -0.37007
#
# Static dielectric constant tensor:
#      x y z
#    x 1.855690 0.000000 0.000000 
#    y 0.000000 1.773620 0.000000 
#    z 0.000000 0.000000 1.849490 
# 
# From -- ./inp_files/4198.got.cif
#   From: 2010.05.17/outbox.cif.g08.bks.cpg/sg58_3_cif.got.tgz:4198.got - 2010.06.03 14:20:14.
