data_PCOD9443070
_publ_section_title
;
Structure prediction by ZEFSAII (Michael W. Deem and Ramdas Pophale) SiO2 
 PCOD9443070
Probable space group: P N N M
;
_chemical_formula_sum "Si O2"
_cell_formula_units_Z 56
_cell_length_a 16.974939
_cell_length_b 9.548640
_cell_length_c 18.236057
_cell_angle_alpha 90.000000
_cell_angle_beta 90.000000
_cell_angle_gamma 90.000000
_cell_volume 2955.838376
_symmetry_space_group_name_H-M "P N N M"
_symmetry_group_IT_number 58
_symmetry_cell_setting 'orthorhombic'
loop_
_space_group_symop_operation_xyz
x,y,z
-x,-y,z
1/2+x,1/2-y,1/2-z
1/2-x,1/2+y,1/2-z
-x,-y,-z
x,y,-z
1/2-x,1/2+y,1/2+z
1/2+x,1/2-y,1/2+z
loop_
_atom_site_type_symbol
_atom_site_label
_atom_site_fract_x
_atom_site_fract_y
_atom_site_fract_z
Si Si1 0.073088 0.097954 0.364920
Si Si2 0.819941 0.690337 0.829305
Si Si3 0.092299 0.523725 0.274123
Si Si4 0.684471 0.736964 0.291528
Si Si5 0.419312 0.912926 0.919499
Si Si6 0.252005 0.554693 0.084529
Si Si7 0.588757 0.456885 0.690913
O O1 0.061605 0.256917 0.391610
O O2 0.154785 0.048292 0.400084
O O3 0.082144 0.089063 0.276783
O O4 0.000000 0.000000 0.385867
O O5 0.875042 0.584838 0.784208
O O6 0.751751 0.728103 0.770555
O O7 0.783983 0.595776 0.893571
O O8 0.870635 0.826134 0.849509
O O9 0.114210 0.676484 0.246778
O O10 0.128060 0.487513 0.354017
O O11 0.000000 0.500000 0.279018
O O12 0.717454 0.827652 0.359718
O O13 0.648575 0.587634 0.312430
O O14 0.500000 0.000000 0.926667
O O15 0.381530 0.907036 0.000000
O O16 0.236711 0.588972 0.000000
O O17 0.500000 0.500000 0.667652
#
# Coordination Sequence:
#
# PCOD9443070 Si02
#       7
#     8   8   8   8   8   8   8
#     4  11  22  37  60  92 127 163 209 253 307 381
#     4  11  20  39  59  90 121 156 210 258 306 369
#     4  10  20  34  57  79 111 157 205 255 297 360
#     4  11  21  38  61  88 120 158 207 259 308 369
#     4  10  21  34  50  79 123 168 201 242 300 368
#     4  11  24  41  63  89 128 173 205 252 322 380
#     4  11  21  36  65  96 118 155 207 271 323 361
#
# _framework density 18.945554999999999
#
# number of rings (size 3 to 8) (size 9 to 14) (size 15 to 20)
#    0.000    1.286    4.286    2.143    6.000    1.143 
#    0.000    2.857    0.000   16.286    0.000    0.000 
#    0.000    0.000    0.000    0.000    0.000    0.000 
#
# Total GULP energy -312645.660745 kJ/mol
# GULP energy per Si atom -5582.958228 kJ/mol
# Density = 1.890243 g / cm^3
# Si number density = 18.945555 Si / 1000 Ang^3
#
#
#
# Elastic Constant Matrix: (Units=GPa)
#
#
# Indices 1 2 3 4 5 6 
#
# 1 83.4342 26.6766 14.4782 0.0000 0.0000 0.0000
# 2 26.6766 105.2256 17.7847 0.0000 0.0000 0.0000
# 3 14.4782 17.7847 73.8970 0.0000 0.0000 0.0000
# 4 0.0000 0.0000 0.0000 17.0610 0.0000 0.0000
# 5 0.0000 0.0000 0.0000 0.0000 18.0628 0.0000
# 6 0.0000 0.0000 0.0000 0.0000 0.0000 27.4072
#
#
#
# Elastic Compliance Matrix: (Units=1/GPa)
#
#
# Indices 1 2 3 4 5 6 
#
# 1 0.013286 -0.003052 -0.001868 0.000000 0.000000 0.000000
# 2 -0.003052 0.010608 -0.001955 0.000000 0.000000 0.000000
# 3 -0.001868 -0.001955 0.014369 0.000000 0.000000 0.000000
# 4 0.000000 0.000000 0.000000 0.058613 0.000000 0.000000
# 5 0.000000 0.000000 0.000000 0.000000 0.055362 0.000000
# 6 0.000000 0.000000 0.000000 0.000000 0.000000 0.036487
#
#
# Mechanical properties :
#
#
# Convention : Reuss Voigt Hill
#
# Bulk Modulus (GPa) = 40.79817 42.27066 41.53441
# Shear Modulus (GPa) = 23.73649 26.08069 24.90859
#
# Velocity S-wave (km/s) = 3.54344 3.71430 3.62988
# Velocity P-wave (km/s) = 6.19052 6.38395 6.28797
#
# Compressibility (1/GPa) = 0.02451090
#
# Stress axis : x y z
#
# Youngs Moduli (GPa) = 75.26923 94.27178 69.59477
#
# Poissons Ratio (x) = 0.28775 0.13003
# Poissons Ratio (y) = 0.22975 0.13605
# Poissons Ratio (z) = 0.14063 0.18429
#
# Static dielectric constant tensor:
#      x y z
#    x 1.690070 0.000000 0.000000 
#    y 0.000000 1.669810 0.000000 
#    z 0.000000 0.000000 1.672660 
# 
# From -- ./inp_files/29995.got.cif
#   From: 2010.05.17/outbox.cif.g08.bks.cpg/sg58_15_cif.got.tgz:29995.got - 2010.06.03 14:20:14.
