data_PCOD9443622
_publ_section_title
;
Structure prediction by ZEFSAII (Michael W. Deem and Ramdas Pophale) SiO2 
 PCOD9443622
Probable space group: P N N M
;
_chemical_formula_sum "Si O2"
_cell_formula_units_Z 64
_cell_length_a 31.456058
_cell_length_b 12.153002
_cell_length_c 7.538066
_cell_angle_alpha 90.000000
_cell_angle_beta 90.000000
_cell_angle_gamma 90.000000
_cell_volume 2881.693600
_symmetry_space_group_name_H-M "P N N M"
_symmetry_group_IT_number 58
_symmetry_cell_setting 'orthorhombic'
loop_
_space_group_symop_operation_xyz
x,y,z
-x,-y,z
1/2+x,1/2-y,1/2-z
1/2-x,1/2+y,1/2-z
-x,-y,-z
x,y,-z
1/2-x,1/2+y,1/2+z
1/2+x,1/2-y,1/2+z
loop_
_atom_site_type_symbol
_atom_site_label
_atom_site_fract_x
_atom_site_fract_y
_atom_site_fract_z
Si Si1 0.806207 0.525137 0.714704
Si Si2 0.575736 0.789061 0.785145
Si Si3 0.626098 0.440381 0.715010
Si Si4 0.382728 0.810106 0.710796
Si Si5 0.670818 0.779815 0.213803
Si Si6 0.039123 0.929982 0.710912
Si Si7 0.545852 0.027235 0.705323
Si Si8 0.288524 0.441035 0.704740
O O1 0.805582 0.526301 0.500000
O O2 0.840115 0.618037 0.765492
O O3 0.821116 0.404195 0.771842
O O4 0.758194 0.540829 0.782356
O O5 0.622809 0.749003 0.737521
O O6 0.543467 0.695154 0.721875
O O7 0.569298 0.910200 0.711501
O O8 0.573746 0.797783 0.000000
O O9 0.627786 0.440740 0.500000
O O10 0.622091 0.314145 0.778394
O O11 0.583784 0.507413 0.764670
O O12 0.669970 0.496819 0.780633
O O13 0.389444 0.800800 0.500000
O O14 0.422962 0.880009 0.783243
O O15 0.701861 0.688394 0.288200
O O16 0.674375 0.776676 0.000000
O O17 0.032292 0.919258 0.500000
O O18 0.000000 0.000000 0.785376
O O19 0.538031 0.058675 0.500000
O O20 0.500000 0.000000 0.788670
O O21 0.285849 0.477568 0.500000
#
# Coordination Sequence:
#
# PCOD9443622 Si02
#       8
#     8   8   8   8   8   8   8   8
#     4  10  22  39  58  83 113 146 185 231 281 331
#     4  10  20  37  59  83 110 146 190 232 280 334
#     4  10  22  39  58  82 114 150 188 230 278 335
#     4  10  22  39  58  82 114 151 189 229 280 336
#     4  10  20  37  61  83 110 147 189 234 279 331
#     4  10  22  39  58  84 116 148 187 235 282 332
#     4  10  22  38  57  84 116 149 188 235 281 331
#     4  10  22  38  57  83 113 145 184 230 279 330
#
# _framework density 22.209160000000001
#
# number of rings (size 3 to 8) (size 9 to 14) (size 15 to 20)
#    0.000    2.000    2.500    0.000    3.500    3.000 
#    0.000    0.000    0.000    0.000    0.000    0.000 
#    0.000    0.000    0.000    0.000    0.000    0.000 
#
# Total GULP energy -357432.824428 kJ/mol
# GULP energy per Si atom -5584.887882 kJ/mol
# Density = 2.215861 g / cm^3
# Si number density = 22.209160 Si / 1000 Ang^3
#
#
#
# Elastic Constant Matrix: (Units=GPa)
#
#
# Indices 1 2 3 4 5 6 
#
# 1 88.7619 0.7485 -14.7528 0.0000 0.0000 0.0000
# 2 0.7485 90.9047 -19.2359 0.0000 0.0000 0.0000
# 3 -14.7528 -19.2359 48.8084 0.0000 0.0000 0.0000
# 4 0.0000 0.0000 0.0000 -137.7439 0.0000 0.0000
# 5 0.0000 0.0000 0.0000 0.0000 16.7233 0.0000
# 6 0.0000 0.0000 0.0000 0.0000 0.0000 35.3505
#
#
#
# Elastic Compliance Matrix: (Units=1/GPa)
#
#
# Indices 1 2 3 4 5 6 
#
# 1 0.011905 0.000724 0.003884 0.000000 0.000000 0.000000
# 2 0.000724 0.012045 0.004966 0.000000 0.000000 0.000000
# 3 0.003884 0.004966 0.023619 0.000000 0.000000 0.000000
# 4 0.000000 0.000000 0.000000 -0.007260 0.000000 0.000000
# 5 0.000000 0.000000 0.000000 0.000000 0.059797 0.000000
# 6 0.000000 0.000000 0.000000 0.000000 0.000000 0.028288
#
#
# Mechanical properties :
#
#
# Convention : Reuss Voigt Hill
#
# Bulk Modulus (GPa) = 14.98857 17.99940 16.49398
# Shear Modulus (GPa) = 38.02646 0.31367 19.17006
#
# Velocity S-wave (km/s) = 4.14236 0.37622 2.94115
# Velocity P-wave (km/s) = 5.44448 2.88285 4.35621
#
# Compressibility (1/GPa) = 0.06671751
#
# Stress axis : x y z
#
# Youngs Moduli (GPa) = 83.99480 83.01920 42.33815
#
# Poissons Ratio (x) = -0.06009 -0.16443
# Poissons Ratio (y) = -0.06080 -0.21025
# Poissons Ratio (z) = -0.32622 -0.41227
#
# Static dielectric constant tensor:
#      x y z
#    x 1.833670 0.000000 0.000000 
#    y 0.000000 1.790470 0.000000 
#    z 0.000000 0.000000 1.888820 
# 
# From -- ./inp_files/10989.got.cif
#   From: 2010.05.17/outbox.cif.g08.bks.cpg/sg58_6_cif.got.tgz:10989.got - 2010.06.03 14:20:14.
