data_PCOD9443749
_publ_section_title
;
Structure prediction by ZEFSAII (Michael W. Deem and Ramdas Pophale) SiO2 
 PCOD9443749
Probable space group: P N N M
;
_chemical_formula_sum "Si O2"
_cell_formula_units_Z 56
_cell_length_a 14.499526
_cell_length_b 11.819477
_cell_length_c 13.912791
_cell_angle_alpha 90.000000
_cell_angle_beta 90.000000
_cell_angle_gamma 90.000000
_cell_volume 2384.329796
_symmetry_space_group_name_H-M "P N N M"
_symmetry_group_IT_number 58
_symmetry_cell_setting 'orthorhombic'
loop_
_space_group_symop_operation_xyz
x,y,z
-x,-y,z
1/2+x,1/2-y,1/2-z
1/2-x,1/2+y,1/2-z
-x,-y,-z
x,y,-z
1/2-x,1/2+y,1/2+z
1/2+x,1/2-y,1/2+z
loop_
_atom_site_type_symbol
_atom_site_label
_atom_site_fract_x
_atom_site_fract_y
_atom_site_fract_z
Si Si1 0.455702 0.716418 0.107580
Si Si2 0.792661 0.370712 0.309116
Si Si3 0.412317 0.929943 0.229880
Si Si4 0.560787 0.614357 0.607220
Si Si5 0.622782 0.247763 0.387505
Si Si6 0.267979 0.582934 0.894451
Si Si7 0.872998 0.129375 0.309835
O O1 0.452886 0.835217 0.160000
O O2 0.352237 0.670801 0.104237
O O3 0.519190 0.628620 0.164496
O O4 0.492222 0.724094 0.000000
O O5 0.844800 0.487363 0.330177
O O6 0.689456 0.348261 0.348178
O O7 0.794743 0.377744 0.192943
O O8 0.842201 0.255240 0.339261
O O9 0.365509 0.859567 0.316904
O O10 0.500000 0.000000 0.267543
O O11 0.500000 0.500000 0.610314
O O12 0.601867 0.623244 0.500000
O O13 0.483577 0.712418 0.619522
O O14 0.631772 0.615759 0.694960
O O15 0.643381 0.226823 0.500000
O O16 0.316387 0.465115 0.865225
O O17 0.225155 0.576572 0.000000
#
# Coordination Sequence:
#
# PCOD9443749 Si02
#       7
#     8   8   8   8   8   8   8
#     4  11  23  43  69  98 131 172 225 281 335 405
#     4  12  25  41  66  94 138 178 217 278 336 399
#     4  12  24  46  67  99 140 180 223 279 341 406
#     4  10  20  37  64  94 124 164 217 274 331 399
#     4  11  24  44  67  97 133 177 230 276 339 413
#     4  11  25  44  69 101 134 174 226 282 341 399
#     4  12  22  41  68  94 130 174 224 279 335 399
#
# _framework density 23.486682999999999
#
# number of rings (size 3 to 8) (size 9 to 14) (size 15 to 20)
#    0.000    0.714    4.286    3.429    0.000    5.714 
#    0.000    0.000    0.000    0.000    0.000    0.000 
#    0.000    0.000    0.000    0.000    0.000    0.000 
#
# Total GULP energy -313308.857029 kJ/mol
# GULP energy per Si atom -5594.801018 kJ/mol
# Density = 2.343323 g / cm^3
# Si number density = 23.486683 Si / 1000 Ang^3
#
#
#
# Elastic Constant Matrix: (Units=GPa)
#
#
# Indices 1 2 3 4 5 6 
#
# 1 35.0882 8.0550 -10.1090 0.0000 0.0000 0.0000
# 2 8.0550 116.2542 11.9186 0.0000 0.0000 0.0000
# 3 -10.1090 11.9186 101.3314 0.0000 0.0000 0.0000
# 4 0.0000 0.0000 0.0000 -7.8702 0.0000 0.0000
# 5 0.0000 0.0000 0.0000 0.0000 25.6917 0.0000
# 6 0.0000 0.0000 0.0000 0.0000 0.0000 35.5291
#
#
#
# Elastic Compliance Matrix: (Units=1/GPa)
#
#
# Indices 1 2 3 4 5 6 
#
# 1 0.029998 -0.002414 0.003277 0.000000 0.000000 0.000000
# 2 -0.002414 0.008901 -0.001288 0.000000 0.000000 0.000000
# 3 0.003277 -0.001288 0.010347 0.000000 0.000000 0.000000
# 4 0.000000 0.000000 0.000000 -0.127062 0.000000 0.000000
# 5 0.000000 0.000000 0.000000 0.000000 0.038923 0.000000
# 6 0.000000 0.000000 0.000000 0.000000 0.000000 0.028146
#
#
# Mechanical properties :
#
#
# Convention : Reuss Voigt Hill
#
# Bulk Modulus (GPa) = 20.66339 30.26700 25.46520
# Shear Modulus (GPa) = 801.78163 26.85741 414.31952
#
# Velocity S-wave (km/s) = 18.49644 3.38526 13.29621
# Velocity P-wave (km/s) = 21.56327 5.30988 15.70302
#
# Compressibility (1/GPa) = 0.04839476
#
# Stress axis : x y z
#
# Youngs Moduli (GPa) = 33.33572 112.34492 96.64675
#
# Poissons Ratio (x) = 0.27125 -0.31667
# Poissons Ratio (y) = 0.08049 0.12446
# Poissons Ratio (z) = -0.10923 0.14468
#
# Static dielectric constant tensor:
#      x y z
#    x 1.914690 0.000000 0.000000 
#    y 0.000000 1.879710 0.000000 
#    z 0.000000 0.000000 1.914110 
# 
# From -- ./inp_files/21259.got.cif
#   From: 2010.05.17/outbox.cif.g08.bks.cpg/sg58_11_cif.got.tgz:21259.got - 2010.06.03 14:20:14.
