data_PCOD9443211
_publ_section_title
;
Structure prediction by ZEFSAII (Michael W. Deem and Ramdas Pophale) SiO2 
 PCOD9443211
Probable space group: P N N M
;
_chemical_formula_sum "Si O2"
_cell_formula_units_Z 64
_cell_length_a 20.185382
_cell_length_b 19.149315
_cell_length_c 7.557375
_cell_angle_alpha 90.000000
_cell_angle_beta 90.000000
_cell_angle_gamma 90.000000
_cell_volume 2921.199304
_symmetry_space_group_name_H-M "P N N M"
_symmetry_group_IT_number 58
_symmetry_cell_setting 'orthorhombic'
loop_
_space_group_symop_operation_xyz
x,y,z
-x,-y,z
1/2+x,1/2-y,1/2-z
1/2-x,1/2+y,1/2-z
-x,-y,-z
x,y,-z
1/2-x,1/2+y,1/2+z
1/2+x,1/2-y,1/2+z
loop_
_atom_site_type_symbol
_atom_site_label
_atom_site_fract_x
_atom_site_fract_y
_atom_site_fract_z
Si Si1 0.967707 0.788760 0.705327
Si Si2 0.114134 0.746989 0.795235
Si Si3 0.225407 0.856541 0.289691
Si Si4 0.178554 0.607002 0.794269
Si Si5 0.624778 0.165639 0.787536
Si Si6 0.554890 0.444720 0.216639
Si Si7 0.203026 0.014439 0.283471
Si Si8 0.575783 0.013817 0.214758
O O1 0.947575 0.795017 0.500000
O O2 0.920699 0.728475 0.782298
O O3 0.959722 0.866375 0.780471
O O4 0.044099 0.766010 0.710981
O O5 0.166268 0.809969 0.785139
O O6 0.149154 0.678147 0.716274
O O7 0.098483 0.732218 0.000000
O O8 0.215617 0.858031 0.500000
O O9 0.297733 0.825619 0.251234
O O10 0.223112 0.936643 0.225018
O O11 0.245033 0.572393 0.718909
O O12 0.123267 0.546951 0.783383
O O13 0.193235 0.623045 0.000000
O O14 0.600676 0.089656 0.723153
O O15 0.616769 0.163612 0.000000
O O16 0.500000 0.500000 0.276196
O O17 0.628312 0.468335 0.267748
O O18 0.552565 0.444769 0.000000
O O19 0.206153 0.014438 0.500000
O O20 0.500000 0.000000 0.266230
O O21 0.579032 0.011964 0.000000
#
# Coordination Sequence:
#
# PCOD9443211 Si02
#       8
#     8   8   8   8   8   8   8   8
#     4  10  21  38  62  87 115 155 198 240 294 359
#     4  11  24  39  59  85 119 154 193 247 300 352
#     4  11  22  38  62  86 116 156 198 245 292 352
#     4  10  21  37  57  83 112 151 196 239 284 338
#     4  10  21  36  56  86 121 156 193 237 293 353
#     4   9  17  31  57  88 112 142 190 244 288 331
#     4   9  18  34  57  85 113 143 192 245 283 336
#     4  10  20  35  56  82 116 153 188 232 284 342
#
# _framework density 21.908811
#
# number of rings (size 3 to 8) (size 9 to 14) (size 15 to 20)
#    0.000    2.000    1.250    2.250    1.750    4.750 
#    0.000    0.000    0.000    4.125    0.000    0.000 
#    0.000    0.000    0.000    0.000    0.000    0.000 
#
# Total GULP energy -357738.915073 kJ/mol
# GULP energy per Si atom -5589.670548 kJ/mol
# Density = 2.185895 g / cm^3
# Si number density = 21.908811 Si / 1000 Ang^3
#
#
#
# Elastic Constant Matrix: (Units=GPa)
#
#
# Indices 1 2 3 4 5 6 
#
# 1 151.1340 58.0863 -17.1725 0.0000 0.0000 0.0000
# 2 58.0863 135.2208 -2.6924 0.0000 0.0000 0.0000
# 3 -17.1725 -2.6924 50.6331 0.0000 0.0000 0.0000
# 4 0.0000 0.0000 0.0000 7.1455 0.0000 0.0000
# 5 0.0000 0.0000 0.0000 0.0000 18.6612 0.0000
# 6 0.0000 0.0000 0.0000 0.0000 0.0000 42.8275
#
#
#
# Elastic Compliance Matrix: (Units=1/GPa)
#
#
# Indices 1 2 3 4 5 6 
#
# 1 0.008257 -0.003495 0.002615 0.000000 0.000000 0.000000
# 2 -0.003495 0.008882 -0.000713 0.000000 0.000000 0.000000
# 3 0.002615 -0.000713 0.020599 0.000000 0.000000 0.000000
# 4 0.000000 0.000000 0.000000 0.139948 0.000000 0.000000
# 5 0.000000 0.000000 0.000000 0.000000 0.053587 0.000000
# 6 0.000000 0.000000 0.000000 0.000000 0.000000 0.023349
#
#
# Mechanical properties :
#
#
# Convention : Reuss Voigt Hill
#
# Bulk Modulus (GPa) = 28.94227 45.93672 37.43949
# Shear Modulus (GPa) = 18.56485 33.64461 26.10473
#
# Velocity S-wave (km/s) = 2.91412 3.92301 3.45558
# Velocity P-wave (km/s) = 4.95599 6.44459 5.74868
#
# Compressibility (1/GPa) = 0.03455154
#
# Stress axis : x y z
#
# Youngs Moduli (GPa) = 121.11066 112.58244 48.54659
#
# Poissons Ratio (x) = 0.39346 -0.12693
# Poissons Ratio (y) = 0.42326 0.03461
# Poissons Ratio (z) = -0.31665 0.08027
#
# Static dielectric constant tensor:
#      x y z
#    x 1.739350 0.000000 0.000000 
#    y 0.000000 1.785480 0.000000 
#    z 0.000000 0.000000 1.829250 
# 
# From -- ./inp_files/9223.got.cif
#   From: 2010.05.17/outbox.cif.g08.bks.cpg/sg58_5_cif.got.tgz:9223.got - 2010.06.03 14:20:14.
