data_PCOD9443869
_publ_section_title
;
Structure prediction by ZEFSAII (Michael W. Deem and Ramdas Pophale) SiO2 
 PCOD9443869
Probable space group: P N N M
;
_chemical_formula_sum "Si O2"
_cell_formula_units_Z 48
_cell_length_a 7.009188
_cell_length_b 31.458462
_cell_length_c 9.198862
_cell_angle_alpha 90.000000
_cell_angle_beta 90.000000
_cell_angle_gamma 90.000000
_cell_volume 2028.333197
_symmetry_space_group_name_H-M "P N N M"
_symmetry_group_IT_number 58
_symmetry_cell_setting 'orthorhombic'
loop_
_space_group_symop_operation_xyz
x,y,z
-x,-y,z
1/2+x,1/2-y,1/2-z
1/2-x,1/2+y,1/2-z
-x,-y,-z
x,y,-z
1/2-x,1/2+y,1/2+z
1/2+x,1/2-y,1/2+z
loop_
_atom_site_type_symbol
_atom_site_label
_atom_site_fract_x
_atom_site_fract_y
_atom_site_fract_z
Si Si1 0.343159 0.779363 0.160147
Si Si2 0.714051 0.975632 0.000000
Si Si3 0.186823 0.559103 0.167128
Si Si4 0.098911 0.195755 0.837680
Si Si5 0.864194 0.064851 0.000000
Si Si6 0.052969 0.355004 0.844904
Si Si7 0.960317 0.113641 0.718948
O O1 0.129253 0.796987 0.150625
O O2 0.332011 0.738260 0.261118
O O3 0.465066 0.818025 0.226445
O O4 0.409984 0.766882 0.000000
O O5 0.658293 0.962962 0.828618
O O6 0.928796 0.957182 0.000000
O O7 0.712103 0.026980 0.000000
O O8 0.052879 0.600575 0.177307
O O9 0.406904 0.575605 0.161952
O O10 0.151350 0.540547 0.000000
O O11 0.107788 0.151888 0.750386
O O12 0.174508 0.190203 0.000000
O O13 0.861978 0.095119 0.862941
O O14 0.277202 0.366783 0.857433
O O15 0.987821 0.336628 0.000000
#
# Coordination Sequence:
#
# PCOD9443869 Si02
#       7
#     8   4   8   8   4   8   8
#     4  10  23  37  55  81 114 156 199 250 305 359
#     4   9  20  39  65  99 128 161 209 252 319 377
#     4  10  22  39  63  94 125 162 206 255 304 373
#     4  10  21  38  56  81 115 151 197 252 300 363
#     4   9  18  39  65  95 126 161 205 256 305 383
#     4  10  22  39  59  86 121 158 205 255 305 366
#     4  10  20  38  64  86 118 162 204 248 312 366
#
# _framework density 23.664750000000002
#
# number of rings (size 3 to 8) (size 9 to 14) (size 15 to 20)
#    0.000    2.167    0.833    1.000    4.667    4.000 
#    0.000    9.167    0.000    2.000    0.000    0.000 
#    0.000    0.000    0.000    0.000    0.000    0.000 
#
# Total GULP energy -267497.896631 kJ/mol
# GULP energy per Si atom -5572.872846 kJ/mol
# Density = 2.361089 g / cm^3
# Si number density = 23.664750 Si / 1000 Ang^3
#
#
#
# Elastic Constant Matrix: (Units=GPa)
#
#
# Indices 1 2 3 4 5 6 
#
# 1 48.7522 4.7826 19.8886 0.0000 0.0000 0.0000
# 2 4.7826 74.0697 46.1465 0.0000 0.0000 0.0000
# 3 19.8886 46.1465 163.5883 0.0000 0.0000 0.0000
# 4 0.0000 0.0000 0.0000 -7.6806 0.0000 0.0000
# 5 0.0000 0.0000 0.0000 0.0000 15.4022 0.0000
# 6 0.0000 0.0000 0.0000 0.0000 0.0000 39.7198
#
#
#
# Elastic Compliance Matrix: (Units=1/GPa)
#
#
# Indices 1 2 3 4 5 6 
#
# 1 0.021588 0.000293 -0.002707 0.000000 0.000000 0.000000
# 2 0.000293 0.016383 -0.004657 0.000000 0.000000 0.000000
# 3 -0.002707 -0.004657 0.007756 0.000000 0.000000 0.000000
# 4 0.000000 0.000000 0.000000 -0.130198 0.000000 0.000000
# 5 0.000000 0.000000 0.000000 0.000000 0.064926 0.000000
# 6 0.000000 0.000000 0.000000 0.000000 0.000000 0.025176
#
#
# Mechanical properties :
#
#
# Convention : Reuss Voigt Hill
#
# Bulk Modulus (GPa) = 31.66211 47.56064 39.61138
# Shear Modulus (GPa) = 165.00579 23.86110 94.43345
#
# Velocity S-wave (km/s) = 8.35929 3.17881 6.32387
# Velocity P-wave (km/s) = 10.32370 5.79780 8.37237
#
# Compressibility (1/GPa) = 0.03158349
#
# Stress axis : x y z
#
# Youngs Moduli (GPa) = 46.32301 61.03750 128.93631
#
# Poissons Ratio (x) = -0.01786 0.34905
# Poissons Ratio (y) = -0.01356 0.60048
# Poissons Ratio (z) = 0.12540 0.28426
#
# Static dielectric constant tensor:
#      x y z
#    x 1.952960 0.000000 0.000000 
#    y 0.000000 1.847310 0.000000 
#    z 0.000000 0.000000 2.042600 
# 
# From -- ./inp_files/3023.got.cif
#   From: 2010.05.17/outbox.cif.g08.bks.cpg/sg58_2_cif.got.tgz:3023.got - 2010.06.03 14:20:14.
