data_PCOD9443520
_publ_section_title
;
Structure prediction by ZEFSAII (Michael W. Deem and Ramdas Pophale) SiO2 
 PCOD9443520
Probable space group: P N N M
;
_chemical_formula_sum "Si O2"
_cell_formula_units_Z 40
_cell_length_a 14.740069
_cell_length_b 14.370743
_cell_length_c 8.744454
_cell_angle_alpha 90.000000
_cell_angle_beta 90.000000
_cell_angle_gamma 90.000000
_cell_volume 1852.300469
_symmetry_space_group_name_H-M "P N N M"
_symmetry_group_IT_number 58
_symmetry_cell_setting 'orthorhombic'
loop_
_space_group_symop_operation_xyz
x,y,z
-x,-y,z
1/2+x,1/2-y,1/2-z
1/2-x,1/2+y,1/2-z
-x,-y,-z
x,y,-z
1/2-x,1/2+y,1/2+z
1/2+x,1/2-y,1/2+z
loop_
_atom_site_type_symbol
_atom_site_label
_atom_site_fract_x
_atom_site_fract_y
_atom_site_fract_z
Si Si1 0.549799 0.904533 0.679679
Si Si2 0.764431 0.701215 0.318252
Si Si3 0.616214 0.377166 0.186971
Si Si4 0.731629 0.009327 0.320208
Si Si5 0.436063 0.288575 0.818706
O O1 0.529708 0.886338 0.500000
O O2 0.527580 0.814567 0.778233
O O3 0.500000 0.000000 0.722971
O O4 0.656553 0.928664 0.692766
O O5 0.762794 0.707263 0.500000
O O6 0.825875 0.786841 0.262315
O O7 0.800088 0.600989 0.265802
O O8 0.661667 0.704113 0.257730
O O9 0.672466 0.467959 0.234959
O O10 0.512486 0.361900 0.233957
O O11 0.616941 0.378418 0.000000
O O12 0.738874 0.032617 0.500000
O O13 0.425217 0.298387 0.000000
#
# Coordination Sequence:
#
# PCOD9443520 Si02
#       5
#     8   8   8   8   8
#     4  10  20  36  60  89 120 154 195 248 305 350
#     4  11  22  40  61  86 120 156 196 248 301 348
#     4   9  20  39  60  81 117 161 195 235 297 360
#     4  10  20  38  60  83 116 158 197 237 294 359
#     4  11  22  37  60  87 115 156 203 244 291 355
#
# _framework density 21.594768999999999
#
# number of rings (size 3 to 8) (size 9 to 14) (size 15 to 20)
#    0.000    1.800    2.000    2.400    0.000    2.000 
#    0.000    9.000    0.000    0.000    0.000    0.000 
#    0.000    0.000    0.000    0.000    0.000    0.000 
#
# Total GULP energy -223530.655331 kJ/mol
# GULP energy per Si atom -5588.266383 kJ/mol
# Density = 2.154562 g / cm^3
# Si number density = 21.594769 Si / 1000 Ang^3
#
#
#
# Elastic Constant Matrix: (Units=GPa)
#
#
# Indices 1 2 3 4 5 6 
#
# 1 61.4893 -10.1502 5.4656 0.0000 0.0000 0.0000
# 2 -10.1502 34.7430 0.2255 0.0000 0.0000 0.0000
# 3 5.4656 0.2255 22.3343 0.0000 0.0000 0.0000
# 4 0.0000 0.0000 0.0000 25.8540 0.0000 0.0000
# 5 0.0000 0.0000 0.0000 0.0000 20.8645 0.0000
# 6 0.0000 0.0000 0.0000 0.0000 0.0000 35.0552
#
#
#
# Elastic Compliance Matrix: (Units=1/GPa)
#
#
# Indices 1 2 3 4 5 6 
#
# 1 0.017497 0.005140 -0.004334 0.000000 0.000000 0.000000
# 2 0.005140 0.030295 -0.001564 0.000000 0.000000 0.000000
# 3 -0.004334 -0.001564 0.045851 0.000000 0.000000 0.000000
# 4 0.000000 0.000000 0.000000 0.038679 0.000000 0.000000
# 5 0.000000 0.000000 0.000000 0.000000 0.047928 0.000000
# 6 0.000000 0.000000 0.000000 0.000000 0.000000 0.028526
#
#
# Mechanical properties :
#
#
# Convention : Reuss Voigt Hill
#
# Bulk Modulus (GPa) = 10.85462 12.18315 11.51888
# Shear Modulus (GPa) = 20.74697 24.55646 22.65171
#
# Velocity S-wave (km/s) = 3.10294 3.37582 3.24225
# Velocity P-wave (km/s) = 4.22790 4.56605 4.40022
#
# Compressibility (1/GPa) = 0.09212669
#
# Stress axis : x y z
#
# Youngs Moduli (GPa) = 57.15380 33.00922 21.81001
#
# Poissons Ratio (x) = -0.16966 0.09452
# Poissons Ratio (y) = -0.29376 0.03410
# Poissons Ratio (z) = 0.24768 0.05162
#
# Static dielectric constant tensor:
#      x y z
#    x 1.844090 0.000000 0.000000 
#    y 0.000000 1.801290 0.000000 
#    z 0.000000 0.000000 1.730020 
# 
# From -- ./inp_files/5359.got.cif
#   From: 2010.05.17/outbox.cif.g08.bks.cpg/sg58_3_cif.got.tgz:5359.got - 2010.06.03 14:20:14.
