data_PCOD9443985
_publ_section_title
;
Structure prediction by ZEFSAII (Michael W. Deem and Ramdas Pophale) SiO2 
 PCOD9443985
Probable space group: P N N M
;
_chemical_formula_sum "Si O2"
_cell_formula_units_Z 64
_cell_length_a 10.625607
_cell_length_b 8.606547
_cell_length_c 29.704101
_cell_angle_alpha 90.000000
_cell_angle_beta 90.000000
_cell_angle_gamma 90.000000
_cell_volume 2716.433681
_symmetry_space_group_name_H-M "P N N M"
_symmetry_group_IT_number 58
_symmetry_cell_setting 'orthorhombic'
loop_
_space_group_symop_operation_xyz
x,y,z
-x,-y,z
1/2+x,1/2-y,1/2-z
1/2-x,1/2+y,1/2-z
-x,-y,-z
x,y,-z
1/2-x,1/2+y,1/2+z
1/2+x,1/2-y,1/2+z
loop_
_atom_site_type_symbol
_atom_site_label
_atom_site_fract_x
_atom_site_fract_y
_atom_site_fract_z
Si Si1 0.807089 0.435195 0.176832
Si Si2 0.933965 0.219745 0.050657
Si Si3 0.930411 0.652684 0.622713
Si Si4 0.299296 0.579493 0.921546
Si Si5 0.053270 0.166865 0.291488
Si Si6 0.319922 0.515235 0.622257
Si Si7 0.275037 0.762008 0.449903
Si Si8 0.446738 0.752298 0.309133
O O1 0.740756 0.460924 0.129257
O O2 0.704592 0.353785 0.208296
O O3 0.850795 0.603073 0.194143
O O4 0.928863 0.327583 0.168974
O O5 0.820811 0.340872 0.055127
O O6 0.073234 0.293395 0.056030
O O7 0.901751 0.092683 0.088585
O O8 0.929500 0.153821 0.000000
O O9 0.906591 0.790216 0.586483
O O10 0.989556 0.717931 0.668860
O O11 0.791328 0.596447 0.638280
O O12 0.000000 0.500000 0.605688
O O13 0.310686 0.414090 0.945190
O O14 0.014463 0.207277 0.241194
O O15 0.000000 0.000000 0.303987
O O16 0.253802 0.641361 0.589775
O O17 0.389406 0.611464 0.661563
O O18 0.259304 0.696192 0.500000
#
# Coordination Sequence:
#
# PCOD9443985 Si02
#       8
#     8   8   8   8   8   8   8   8
#     4  10  24  44  63  99 133 175 221 270 327 398
#     4  10  21  35  59  97 138 174 210 258 324 404
#     4  10  26  45  68  92 125 171 224 281 332 385
#     4  10  20  40  62  94 130 173 216 264 321 396
#     4  11  28  43  68  96 132 176 230 274 324 391
#     4  11  23  41  66  96 136 174 217 267 337 395
#     4  11  21  35  63  98 133 172 210 261 328 402
#     4  11  25  41  69  95 137 176 215 276 333 390
#
# _framework density 23.560303000000001
#
# number of rings (size 3 to 8) (size 9 to 14) (size 15 to 20)
#    0.000    1.500    1.250    2.250    8.750    7.000 
#    0.000    0.000    0.000   14.250    0.000    0.000 
#    0.000    0.000    0.000    0.000    0.000    0.000 
#
# Total GULP energy -357819.820483 kJ/mol
# GULP energy per Si atom -5590.934695 kJ/mol
# Density = 2.350668 g / cm^3
# Si number density = 23.560303 Si / 1000 Ang^3
#
#
#
# Elastic Constant Matrix: (Units=GPa)
#
#
# Indices 1 2 3 4 5 6 
#
# 1 52.0693 20.2165 3.7546 0.0000 0.0000 0.0000
# 2 20.2165 109.5980 28.2382 0.0000 0.0000 0.0000
# 3 3.7546 28.2382 85.5806 0.0000 0.0000 0.0000
# 4 0.0000 0.0000 0.0000 7.4940 0.0000 0.0000
# 5 0.0000 0.0000 0.0000 0.0000 1.6968 0.0000
# 6 0.0000 0.0000 0.0000 0.0000 0.0000 47.0821
#
#
#
# Elastic Compliance Matrix: (Units=1/GPa)
#
#
# Indices 1 2 3 4 5 6 
#
# 1 0.020698 -0.003917 0.000384 0.000000 0.000000 0.000000
# 2 -0.003917 0.010713 -0.003363 0.000000 0.000000 0.000000
# 3 0.000384 -0.003363 0.012778 0.000000 0.000000 0.000000
# 4 0.000000 0.000000 0.000000 0.133440 0.000000 0.000000
# 5 0.000000 0.000000 0.000000 0.000000 0.589359 0.000000
# 6 0.000000 0.000000 0.000000 0.000000 0.000000 0.021240
#
#
# Mechanical properties :
#
#
# Convention : Reuss Voigt Hill
#
# Bulk Modulus (GPa) = 32.89717 39.07406 35.98561
# Shear Modulus (GPa) = 6.15648 24.25713 15.20681
#
# Velocity S-wave (km/s) = 1.61825 3.21218 2.54331
# Velocity P-wave (km/s) = 4.18150 5.51164 4.89199
#
# Compressibility (1/GPa) = 0.03039775
#
# Stress axis : x y z
#
# Youngs Moduli (GPa) = 48.31318 93.34185 78.26120
#
# Poissons Ratio (x) = 0.36562 -0.03008
# Poissons Ratio (y) = 0.18925 0.26320
# Poissons Ratio (z) = -0.01857 0.31392
#
# Static dielectric constant tensor:
#      x y z
#    x 1.968700 0.000000 0.000000 
#    y 0.000000 1.926410 0.000000 
#    z 0.000000 0.000000 1.873740 
# 
# From -- ./inp_files/34946.got.cif
#   From: 2010.05.17/outbox.cif.g08.bks.cpg/sg58_18_cif.got.tgz:34946.got - 2010.06.03 14:20:14.
