data_PCOD9443321
_publ_section_title
;
Structure prediction by ZEFSAII (Michael W. Deem and Ramdas Pophale) SiO2 
 PCOD9443321
Probable space group: P N N M
;
_chemical_formula_sum "Si O2"
_cell_formula_units_Z 48
_cell_length_a 11.278874
_cell_length_b 23.881368
_cell_length_c 7.991989
_cell_angle_alpha 90.000000
_cell_angle_beta 90.000000
_cell_angle_gamma 90.000000
_cell_volume 2152.681723
_symmetry_space_group_name_H-M "P N N M"
_symmetry_group_IT_number 58
_symmetry_cell_setting 'orthorhombic'
loop_
_space_group_symop_operation_xyz
x,y,z
-x,-y,z
1/2+x,1/2-y,1/2-z
1/2-x,1/2+y,1/2-z
-x,-y,-z
x,y,-z
1/2-x,1/2+y,1/2+z
1/2+x,1/2-y,1/2+z
loop_
_atom_site_type_symbol
_atom_site_label
_atom_site_fract_x
_atom_site_fract_y
_atom_site_fract_z
Si Si1 0.079310 0.629119 0.800962
Si Si2 0.183668 0.913677 0.697480
Si Si3 0.820364 0.813637 0.803558
Si Si4 0.166328 0.314245 0.795220
Si Si5 0.688273 0.981841 0.808428
Si Si6 0.074559 0.076377 0.305668
O O1 0.187693 0.662422 0.717371
O O2 0.096418 0.563194 0.763912
O O3 0.955780 0.655699 0.745839
O O4 0.091021 0.636351 0.000000
O O5 0.162656 0.907162 0.500000
O O6 0.227546 0.854213 0.765031
O O7 0.056762 0.934673 0.763171
O O8 0.286961 0.959187 0.720965
O O9 0.827276 0.749982 0.741977
O O10 0.903831 0.857010 0.706387
O O11 0.852227 0.815141 0.000000
O O12 0.170070 0.314249 0.000000
O O13 0.816274 0.950960 0.791409
O O14 0.659444 0.992166 0.000000
O O15 0.085787 0.057937 0.500000
#
# Coordination Sequence:
#
# PCOD9443321 Si02
#       6
#     8   8   8   8   8   8
#     4  10  20  38  60  81 108 148 191 224 270 337
#     4  10  21  38  58  82 112 148 190 230 272 330
#     4  10  20  36  58  83 114 146 182 231 282 325
#     4   9  21  38  57  82 112 149 187 227 276 330
#     4  11  22  37  57  83 115 147 182 233 286 328
#     4  10  20  35  59  86 111 147 190 229 274 331
#
# _framework density 22.297768999999999
#
# number of rings (size 3 to 8) (size 9 to 14) (size 15 to 20)
#    0.000    2.000    0.000    5.500    2.333    4.000 
#    0.000    9.167    0.000    0.000    0.000    0.000 
#    0.000    0.000    0.000    0.000    0.000    0.000 
#
# Total GULP energy -268228.580800 kJ/mol
# GULP energy per Si atom -5588.095433 kJ/mol
# Density = 2.224702 g / cm^3
# Si number density = 22.297769 Si / 1000 Ang^3
#
#
#
# Elastic Constant Matrix: (Units=GPa)
#
#
# Indices 1 2 3 4 5 6 
#
# 1 48.6669 -9.2120 -3.1566 0.0000 0.0000 0.0000
# 2 -9.2120 78.7520 -19.2029 0.0000 0.0000 0.0000
# 3 -3.1566 -19.2029 34.6731 0.0000 0.0000 0.0000
# 4 0.0000 0.0000 0.0000 36.0370 0.0000 0.0000
# 5 0.0000 0.0000 0.0000 0.0000 -39.6528 0.0000
# 6 0.0000 0.0000 0.0000 0.0000 0.0000 26.3262
#
#
#
# Elastic Compliance Matrix: (Units=1/GPa)
#
#
# Indices 1 2 3 4 5 6 
#
# 1 0.021452 0.003452 0.003865 0.000000 0.000000 0.000000
# 2 0.003452 0.015236 0.008752 0.000000 0.000000 0.000000
# 3 0.003865 0.008752 0.034040 0.000000 0.000000 0.000000
# 4 0.000000 0.000000 0.000000 0.027749 0.000000 0.000000
# 5 0.000000 0.000000 0.000000 0.000000 -0.025219 0.000000
# 6 0.000000 0.000000 0.000000 0.000000 0.000000 0.037985
#
#
# Mechanical properties :
#
#
# Convention : Reuss Voigt Hill
#
# Bulk Modulus (GPa) = 9.72148 10.99434 10.35791
# Shear Modulus (GPa) = 44.09393 17.45297 30.77345
#
# Velocity S-wave (km/s) = 4.45174 2.80075 3.71902
# Velocity P-wave (km/s) = 5.54917 3.92433 4.80591
#
# Compressibility (1/GPa) = 0.10286495
#
# Stress axis : x y z
#
# Youngs Moduli (GPa) = 46.61603 65.63391 29.37727
#
# Poissons Ratio (x) = -0.22655 -0.11353
# Poissons Ratio (y) = -0.16090 -0.25712
# Poissons Ratio (z) = -0.18015 -0.57445
#
# Static dielectric constant tensor:
#      x y z
#    x 1.838440 0.000000 0.000000 
#    y 0.000000 1.836470 0.000000 
#    z 0.000000 0.000000 1.773210 
# 
# From -- ./inp_files/4232.got.cif
#   From: 2010.05.17/outbox.cif.g08.bks.cpg/sg58_3_cif.got.tgz:4232.got - 2010.06.03 14:20:14.
