data_PCOD9443128
_publ_section_title
;
Structure prediction by ZEFSAII (Michael W. Deem and Ramdas Pophale) SiO2 
 PCOD9443128
Probable space group: P N N M
;
_chemical_formula_sum "Si O2"
_cell_formula_units_Z 40
_cell_length_a 26.766856
_cell_length_b 8.161702
_cell_length_c 8.021674
_cell_angle_alpha 90.000000
_cell_angle_beta 90.000000
_cell_angle_gamma 90.000000
_cell_volume 1752.439786
_symmetry_space_group_name_H-M "P N N M"
_symmetry_group_IT_number 58
_symmetry_cell_setting 'orthorhombic'
loop_
_space_group_symop_operation_xyz
x,y,z
-x,-y,z
1/2+x,1/2-y,1/2-z
1/2-x,1/2+y,1/2-z
-x,-y,-z
x,y,-z
1/2-x,1/2+y,1/2+z
1/2+x,1/2-y,1/2+z
loop_
_atom_site_type_symbol
_atom_site_label
_atom_site_fract_x
_atom_site_fract_y
_atom_site_fract_z
Si Si1 0.976832 0.733802 0.000000
Si Si2 0.736982 0.944529 0.302031
Si Si3 0.637389 0.799803 0.693899
Si Si4 0.327521 0.731807 0.693574
Si Si5 0.923207 0.603211 0.683434
Si Si6 0.421382 0.419939 0.500000
O O1 0.960528 0.638993 0.834339
O O2 0.034458 0.785261 0.000000
O O3 0.946459 0.905358 0.000000
O O4 0.744992 0.926863 0.500000
O O5 0.709433 0.115312 0.268032
O O6 0.694096 0.814456 0.245098
O O7 0.790457 0.919061 0.220158
O O8 0.639186 0.864521 0.500000
O O9 0.612440 0.623551 0.661401
O O10 0.602443 0.925373 0.791987
O O11 0.341974 0.739606 0.500000
O O12 0.377293 0.767426 0.796731
O O13 0.945538 0.617703 0.500000
#
# Coordination Sequence:
#
# PCOD9443128 Si02
#       6
#     4   8   8   8   8   4
#     4  11  21  41  61  93 119 155 197 245 312 361
#     4   9  18  32  51  76 111 144 195 236 278 338
#     4   8  17  38  58  81 112 156 196 240 291 348
#     4  10  20  35  52  80 116 156 194 236 289 343
#     4  11  21  37  62  87 119 155 199 251 293 352
#     4   9  21  39  67  81 121 163 189 249 310 357
#
# _framework density 22.825317999999999
#
# number of rings (size 3 to 8) (size 9 to 14) (size 15 to 20)
#    0.600    1.800    2.000    1.800    0.000    7.200 
#    0.000    5.000    0.000    0.000    0.000    0.000 
#    0.000    0.000    0.000    0.000    0.000    0.000 
#
# Total GULP energy -223348.875040 kJ/mol
# GULP energy per Si atom -5583.721876 kJ/mol
# Density = 2.277337 g / cm^3
# Si number density = 22.825318 Si / 1000 Ang^3
#
#
#
# Elastic Constant Matrix: (Units=GPa)
#
#
# Indices 1 2 3 4 5 6 
#
# 1 117.3396 27.2424 21.2722 0.0000 0.0000 0.0000
# 2 27.2424 43.8596 15.6770 0.0000 0.0000 0.0000
# 3 21.2722 15.6770 96.1294 0.0000 0.0000 0.0000
# 4 0.0000 0.0000 0.0000 17.4488 0.0000 0.0000
# 5 0.0000 0.0000 0.0000 0.0000 0.3598 0.0000
# 6 0.0000 0.0000 0.0000 0.0000 0.0000 48.5529
#
#
#
# Elastic Compliance Matrix: (Units=1/GPa)
#
#
# Indices 1 2 3 4 5 6 
#
# 1 0.010106 -0.005817 -0.001288 0.000000 0.000000 0.000000
# 2 -0.005817 0.027559 -0.003207 0.000000 0.000000 0.000000
# 3 -0.001288 -0.003207 0.011211 0.000000 0.000000 0.000000
# 4 0.000000 0.000000 0.000000 0.057311 0.000000 0.000000
# 5 0.000000 0.000000 0.000000 0.000000 2.778958 0.000000
# 6 0.000000 0.000000 0.000000 0.000000 0.000000 0.020596
#
#
# Mechanical properties :
#
#
# Convention : Reuss Voigt Hill
#
# Bulk Modulus (GPa) = 35.39517 42.85690 39.12603
# Shear Modulus (GPa) = 1.70312 26.14810 13.92561
#
# Velocity S-wave (km/s) = 0.86474 3.38831 2.47269
# Velocity P-wave (km/s) = 4.06665 5.84160 5.03299
#
# Compressibility (1/GPa) = 0.02825244
#
# Stress axis : x y z
#
# Youngs Moduli (GPa) = 98.94886 36.28517 89.20090
#
# Poissons Ratio (x) = 0.21107 0.11487
# Poissons Ratio (y) = 0.57558 0.28609
# Poissons Ratio (z) = 0.12742 0.11638
#
# Static dielectric constant tensor:
#      x y z
#    x 1.853240 0.000000 0.000000 
#    y 0.000000 1.947160 0.000000 
#    z 0.000000 0.000000 1.805020 
# 
# From -- ./inp_files/10643.got.cif
#   From: 2010.05.17/outbox.cif.g08.bks.cpg/sg58_6_cif.got.tgz:10643.got - 2010.06.03 14:20:14.
