data_PCOD9443291
_publ_section_title
;
Structure prediction by ZEFSAII (Michael W. Deem and Ramdas Pophale) SiO2 
 PCOD9443291
Probable space group: P N N M
;
_chemical_formula_sum "Si O2"
_cell_formula_units_Z 60
_cell_length_a 11.880280
_cell_length_b 21.940052
_cell_length_c 10.769675
_cell_angle_alpha 90.000000
_cell_angle_beta 90.000000
_cell_angle_gamma 90.000000
_cell_volume 2807.158447
_symmetry_space_group_name_H-M "P N N M"
_symmetry_group_IT_number 58
_symmetry_cell_setting 'orthorhombic'
loop_
_space_group_symop_operation_xyz
x,y,z
-x,-y,z
1/2+x,1/2-y,1/2-z
1/2-x,1/2+y,1/2-z
-x,-y,-z
x,y,-z
1/2-x,1/2+y,1/2+z
1/2+x,1/2-y,1/2+z
loop_
_atom_site_type_symbol
_atom_site_label
_atom_site_fract_x
_atom_site_fract_y
_atom_site_fract_z
Si Si1 0.258874 0.296134 0.711127
Si Si2 0.143368 0.200999 0.143874
Si Si3 0.966166 0.637425 0.361629
Si Si4 0.116571 0.478766 0.773135
Si Si5 0.054299 0.713575 0.859390
Si Si6 0.000000 0.000000 0.248048
Si Si7 0.330077 0.406301 0.138426
Si Si8 0.287404 0.569949 0.353550
O O1 0.225578 0.257488 0.832999
O O2 0.147350 0.321795 0.646299
O O3 0.325963 0.246047 0.635025
O O4 0.326835 0.354687 0.756643
O O5 0.188568 0.137900 0.198109
O O6 0.026016 0.230557 0.185294
O O7 0.128165 0.187654 0.000000
O O8 0.015959 0.642660 0.500000
O O9 0.926495 0.568772 0.332026
O O10 0.040062 0.662326 0.246022
O O11 0.209652 0.441269 0.850789
O O12 0.187111 0.534589 0.715472
O O13 0.000000 0.500000 0.836105
O O14 0.021051 0.693908 0.000000
O O15 0.096257 0.033227 0.167956
O O16 0.930736 0.047720 0.331033
O O17 0.341868 0.381510 0.000000
O O18 0.261558 0.571447 0.500000
#
# Coordination Sequence:
#
# PCOD9443291 Si02
#       8
#     8   8   8   8   8   4   8   8
#     4  10  20  36  59  84 114 152 195 246 294 362
#     4   9  19  34  54  83 115 148 192 243 296 355
#     4  10  22  38  59  88 118 153 199 249 300 357
#     4  10  23  39  57  84 121 159 205 254 301 359
#     4  10  21  38  60  86 119 157 195 245 303 362
#     4  10  20  36  58  86 118 148 198 250 306 370
#     4  10  21  38  61  87 119 161 203 250 307 368
#     4  10  20  35  58  84 116 152 192 250 313 367
#
# _framework density 21.373926000000001
#
# number of rings (size 3 to 8) (size 9 to 14) (size 15 to 20)
#    0.000    2.133    0.000    2.400    1.867    5.600 
#    0.000    4.000    0.000    4.000    0.000    0.000 
#    0.000    0.000    0.000    0.000    0.000    0.000 
#
# Total GULP energy -334527.209199 kJ/mol
# GULP energy per Si atom -5575.453487 kJ/mol
# Density = 2.132528 g / cm^3
# Si number density = 21.373926 Si / 1000 Ang^3
#
#
#
# Elastic Constant Matrix: (Units=GPa)
#
#
# Indices 1 2 3 4 5 6 
#
# 1 91.8096 23.0340 3.8054 0.0000 0.0000 0.0000
# 2 23.0340 88.6851 8.6153 0.0000 0.0000 0.0000
# 3 3.8054 8.6153 75.6406 0.0000 0.0000 0.0000
# 4 0.0000 0.0000 0.0000 12.6518 0.0000 0.0000
# 5 0.0000 0.0000 0.0000 0.0000 3.9871 0.0000
# 6 0.0000 0.0000 0.0000 0.0000 0.0000 36.6916
#
#
#
# Elastic Compliance Matrix: (Units=1/GPa)
#
#
# Indices 1 2 3 4 5 6 
#
# 1 0.011656 -0.003004 -0.000244 0.000000 0.000000 0.000000
# 2 -0.003004 0.012176 -0.001236 0.000000 0.000000 0.000000
# 3 -0.000244 -0.001236 0.013373 0.000000 0.000000 0.000000
# 4 0.000000 0.000000 0.000000 0.079040 0.000000 0.000000
# 5 0.000000 0.000000 0.000000 0.000000 0.250811 0.000000
# 6 0.000000 0.000000 0.000000 0.000000 0.000000 0.027254
#
#
# Mechanical properties :
#
#
# Convention : Reuss Voigt Hill
#
# Bulk Modulus (GPa) = 35.41320 36.33829 35.87575
# Shear Modulus (GPa) = 12.11563 25.37813 18.74688
#
# Velocity S-wave (km/s) = 2.38343 3.44952 2.96479
# Velocity P-wave (km/s) = 4.91718 5.73618 5.34240
#
# Compressibility (1/GPa) = 0.02823806
#
# Stress axis : x y z
#
# Youngs Moduli (GPa) = 85.79419 82.12868 74.77498
#
# Poissons Ratio (x) = 0.24668 0.01827
# Poissons Ratio (y) = 0.25769 0.09240
# Poissons Ratio (z) = 0.02096 0.10149
#
# Static dielectric constant tensor:
#      x y z
#    x 1.824030 0.000000 0.000000 
#    y 0.000000 1.784250 0.000000 
#    z 0.000000 0.000000 1.758320 
# 
# From -- ./inp_files/14664.got.cif
#   From: 2010.05.17/outbox.cif.g08.bks.cpg/sg58_8_cif.got.tgz:14664.got - 2010.06.03 14:20:14.
