data_PCOD9443877
_publ_section_title
;
Structure prediction by ZEFSAII (Michael W. Deem and Ramdas Pophale) SiO2 
 PCOD9443877
Probable space group: P N N M
;
_chemical_formula_sum "Si O2"
_cell_formula_units_Z 64
_cell_length_a 17.293151
_cell_length_b 17.430576
_cell_length_c 9.327301
_cell_angle_alpha 90.000000
_cell_angle_beta 90.000000
_cell_angle_gamma 90.000000
_cell_volume 2811.524449
_symmetry_space_group_name_H-M "P N N M"
_symmetry_group_IT_number 58
_symmetry_cell_setting 'orthorhombic'
loop_
_space_group_symop_operation_xyz
x,y,z
-x,-y,z
1/2+x,1/2-y,1/2-z
1/2-x,1/2+y,1/2-z
-x,-y,-z
x,y,-z
1/2-x,1/2+y,1/2+z
1/2+x,1/2-y,1/2+z
loop_
_atom_site_type_symbol
_atom_site_label
_atom_site_fract_x
_atom_site_fract_y
_atom_site_fract_z
Si Si1 0.587271 0.834171 0.739013
Si Si2 0.326713 0.545061 0.667230
Si Si3 0.430656 0.413614 0.336186
Si Si4 0.661651 0.270965 0.334528
Si Si5 0.949597 0.577502 0.332111
Si Si6 0.701652 0.708092 0.346647
Si Si7 0.484376 0.710341 0.844159
Si Si8 0.324218 0.013939 0.325999
O O1 0.504772 0.876258 0.720504
O O2 0.637881 0.776238 0.645420
O O3 0.555590 0.770627 0.851070
O O4 0.642874 0.907785 0.749139
O O5 0.305289 0.527889 0.500000
O O6 0.407799 0.501269 0.692033
O O7 0.329407 0.636753 0.679171
O O8 0.264601 0.513771 0.779882
O O9 0.458690 0.405624 0.500000
O O10 0.348226 0.368394 0.327263
O O11 0.485148 0.364958 0.234840
O O12 0.649542 0.252150 0.500000
O O13 0.737467 0.229600 0.274282
O O14 0.586304 0.253233 0.242163
O O15 0.940557 0.606385 0.500000
O O16 0.870721 0.554517 0.252324
O O17 0.000000 0.500000 0.349564
O O18 0.743075 0.704256 0.500000
O O19 0.456173 0.690080 0.000000
O O20 0.335254 0.016228 0.500000
#
# Coordination Sequence:
#
# PCOD9443877 Si02
#       8
#     8   8   8   8   8   8   8   8
#     4  10  21  37  61  88 118 160 201 244 302 367
#     4  10  22  41  64  88 120 165 209 248 298 367
#     4   9  21  42  64  88 121 161 204 250 305 365
#     4  11  24  40  62  90 121 160 205 251 301 366
#     4   9  19  34  53  80 117 159 201 240 286 356
#     4  10  20  38  64  91 121 159 203 256 310 360
#     4  11  24  41  63  89 119 156 202 256 309 361
#     4  11  22  36  59  91 125 160 200 251 305 357
#
# _framework density 22.763452000000001
#
# number of rings (size 3 to 8) (size 9 to 14) (size 15 to 20)
#    0.000    1.875    1.250    1.875    0.000   10.750 
#    0.000    6.250    0.000    0.000    0.000    0.000 
#    0.000    0.000    0.000    0.000    0.000    0.000 
#
# Total GULP energy -356584.972451 kJ/mol
# GULP energy per Si atom -5571.640195 kJ/mol
# Density = 2.271164 g / cm^3
# Si number density = 22.763452 Si / 1000 Ang^3
#
#
#
# Elastic Constant Matrix: (Units=GPa)
#
#
# Indices 1 2 3 4 5 6 
#
# 1 70.9126 8.8148 61.8279 0.0000 0.0000 0.0000
# 2 8.8148 61.7413 7.1869 0.0000 0.0000 0.0000
# 3 61.8279 7.1869 110.6356 0.0000 0.0000 0.0000
# 4 0.0000 0.0000 0.0000 -4.3778 0.0000 0.0000
# 5 0.0000 0.0000 0.0000 0.0000 27.6591 0.0000
# 6 0.0000 0.0000 0.0000 0.0000 0.0000 44.5792
#
#
#
# Elastic Compliance Matrix: (Units=1/GPa)
#
#
# Indices 1 2 3 4 5 6 
#
# 1 0.027790 -0.002176 -0.015389 0.000000 0.000000 0.000000
# 2 -0.002176 0.016490 0.000145 0.000000 0.000000 0.000000
# 3 -0.015389 0.000145 0.017629 0.000000 0.000000 0.000000
# 4 0.000000 0.000000 0.000000 -0.228424 0.000000 0.000000
# 5 0.000000 0.000000 0.000000 0.000000 0.036155 0.000000
# 6 0.000000 0.000000 0.000000 0.000000 0.000000 0.022432
#
#
# Mechanical properties :
#
#
# Convention : Reuss Voigt Hill
#
# Bulk Modulus (GPa) = 36.94224 44.32762 40.63493
# Shear Modulus (GPa) = -78.04560 24.60275 -26.72142
#
# Velocity S-wave (km/s) = -5.86173 3.29112 -3.42990
# Velocity P-wave (km/s) = 5.43592 5.82730 1.48461
#
# Compressibility (1/GPa) = 0.02706929
#
# Stress axis : x y z
#
# Youngs Moduli (GPa) = 35.98466 60.64119 56.72431
#
# Poissons Ratio (x) = 0.13197 0.87291
# Poissons Ratio (y) = 0.07831 -0.00822
# Poissons Ratio (z) = 0.55376 -0.00879
#
# Static dielectric constant tensor:
#      x y z
#    x 1.835570 0.000000 0.000000 
#    y 0.000000 1.925970 0.000000 
#    z 0.000000 0.000000 1.792020 
# 
# From -- ./inp_files/8501.got.cif
#   From: 2010.05.17/outbox.cif.g08.bks.cpg/sg58_5_cif.got.tgz:8501.got - 2010.06.03 14:20:14.
