data_PCOD9443007
_publ_section_title
;
Structure prediction by ZEFSAII (Michael W. Deem and Ramdas Pophale) SiO2 
 PCOD9443007
Probable space group: P N N M
;
_chemical_formula_sum "Si O2"
_cell_formula_units_Z 56
_cell_length_a 22.554722
_cell_length_b 15.169306
_cell_length_c 7.658320
_cell_angle_alpha 90.000000
_cell_angle_beta 90.000000
_cell_angle_gamma 90.000000
_cell_volume 2620.213621
_symmetry_space_group_name_H-M "P N N M"
_symmetry_group_IT_number 58
_symmetry_cell_setting 'orthorhombic'
loop_
_space_group_symop_operation_xyz
x,y,z
-x,-y,z
1/2+x,1/2-y,1/2-z
1/2-x,1/2+y,1/2-z
-x,-y,-z
x,y,-z
1/2-x,1/2+y,1/2+z
1/2+x,1/2-y,1/2+z
loop_
_atom_site_type_symbol
_atom_site_label
_atom_site_fract_x
_atom_site_fract_y
_atom_site_fract_z
Si Si1 0.435063 0.473180 0.705308
Si Si2 0.720980 0.837930 0.713816
Si Si3 0.868753 0.485128 0.795011
Si Si4 0.642928 0.358574 0.212294
Si Si5 0.622233 0.706658 0.291297
Si Si6 0.602193 0.172152 0.198155
Si Si7 0.970535 0.366018 0.792288
O O1 0.500000 0.500000 0.778652
O O2 0.445199 0.453660 0.500000
O O3 0.391112 0.555710 0.721536
O O4 0.402956 0.385617 0.779810
O O5 0.721324 0.835619 0.500000
O O6 0.683827 0.923809 0.773122
O O7 0.788722 0.848585 0.767117
O O8 0.683460 0.751911 0.772866
O O9 0.863566 0.588948 0.775969
O O10 0.931505 0.448165 0.726054
O O11 0.871517 0.464929 0.000000
O O12 0.611618 0.268723 0.274964
O O13 0.640510 0.363992 0.000000
O O14 0.630753 0.695121 0.500000
O O15 0.571905 0.781389 0.268901
O O16 0.533095 0.149503 0.205563
O O17 0.623234 0.177623 0.000000
O O18 0.982971 0.376970 0.000000
#
# Coordination Sequence:
#
# PCOD9443007 Si02
#       7
#     8   8   8   8   8   8   8
#     4  10  20  34  55  82 106 132 172 220 263 300
#     4   8  16  34  55  73  97 131 171 210 251 305
#     4   9  18  33  55  77  96 128 171 209 246 293
#     4  10  22  37  51  71 102 138 172 207 252 307
#     4   8  15  30  54  78  98 127 168 212 255 299
#     4  11  22  32  46  73 107 138 163 197 251 303
#     4   9  17  32  54  77 100 128 165 205 244 295
#
# _framework density 21.372305000000001
#
# number of rings (size 3 to 8) (size 9 to 14) (size 15 to 20)
#    0.000    2.714    0.000    3.429    0.000    6.000 
#    0.000    2.857    0.000    2.571    0.000    0.000 
#    0.000    0.000    0.000    0.000    0.000    0.000 
#
# Total GULP energy -312370.320214 kJ/mol
# GULP energy per Si atom -5578.041432 kJ/mol
# Density = 2.132366 g / cm^3
# Si number density = 21.372305 Si / 1000 Ang^3
#
#
#
# Elastic Constant Matrix: (Units=GPa)
#
#
# Indices 1 2 3 4 5 6 
#
# 1 97.1466 26.0853 -3.3225 0.0000 0.0000 0.0000
# 2 26.0853 103.1189 -5.7515 0.0000 0.0000 0.0000
# 3 -3.3225 -5.7515 30.7667 0.0000 0.0000 0.0000
# 4 0.0000 0.0000 0.0000 15.9400 0.0000 0.0000
# 5 0.0000 0.0000 0.0000 0.0000 -157.8419 0.0000
# 6 0.0000 0.0000 0.0000 0.0000 0.0000 16.0069
#
#
#
# Elastic Compliance Matrix: (Units=1/GPa)
#
#
# Indices 1 2 3 4 5 6 
#
# 1 0.011058 -0.002759 0.000678 0.000000 0.000000 0.000000
# 2 -0.002759 0.010488 0.001663 0.000000 0.000000 0.000000
# 3 0.000678 0.001663 0.032887 0.000000 0.000000 0.000000
# 4 0.000000 0.000000 0.000000 0.062735 0.000000 0.000000
# 5 0.000000 0.000000 0.000000 0.000000 -0.006335 0.000000
# 6 0.000000 0.000000 0.000000 0.000000 0.000000 0.062473
#
#
# Mechanical properties :
#
#
# Convention : Reuss Voigt Hill
#
# Bulk Modulus (GPa) = 18.65806 29.45053 24.05429
# Shear Modulus (GPa) = 26.04058 -10.91094 7.56482
#
# Velocity S-wave (km/s) = 3.49438 -2.26192 1.88341
# Velocity P-wave (km/s) = 5.00299 2.64348 4.00112
#
# Compressibility (1/GPa) = 0.05359614
#
# Stress axis : x y z
#
# Youngs Moduli (GPa) = 90.43346 95.34428 30.40734
#
# Poissons Ratio (x) = 0.26309 -0.02062
# Poissons Ratio (y) = 0.24954 -0.05056
# Poissons Ratio (z) = -0.06134 -0.15853
#
# Static dielectric constant tensor:
#      x y z
#    x 1.755190 0.000000 0.000000 
#    y 0.000000 1.785180 0.000000 
#    z 0.000000 0.000000 1.798750 
# 
# From -- ./inp_files/9053.got.cif
#   From: 2010.05.17/outbox.cif.g08.bks.cpg/sg58_5_cif.got.tgz:9053.got - 2010.06.03 14:20:14.
