data_PCOD9443779
_publ_section_title
;
Structure prediction by ZEFSAII (Michael W. Deem and Ramdas Pophale) SiO2 
 PCOD9443779
Probable space group: P N N M
;
_chemical_formula_sum "Si O2"
_cell_formula_units_Z 64
_cell_length_a 22.565110
_cell_length_b 17.239048
_cell_length_c 7.517829
_cell_angle_alpha 90.000000
_cell_angle_beta 90.000000
_cell_angle_gamma 90.000000
_cell_volume 2924.443107
_symmetry_space_group_name_H-M "P N N M"
_symmetry_group_IT_number 58
_symmetry_cell_setting 'orthorhombic'
loop_
_space_group_symop_operation_xyz
x,y,z
-x,-y,z
1/2+x,1/2-y,1/2-z
1/2-x,1/2+y,1/2-z
-x,-y,-z
x,y,-z
1/2-x,1/2+y,1/2+z
1/2+x,1/2-y,1/2+z
loop_
_atom_site_type_symbol
_atom_site_label
_atom_site_fract_x
_atom_site_fract_y
_atom_site_fract_z
Si Si1 0.351576 0.360291 0.288215
Si Si2 0.111398 0.695870 0.204276
Si Si3 0.989438 0.414627 0.792939
Si Si4 0.359172 0.656858 0.785439
Si Si5 0.567253 0.491628 0.214553
Si Si6 0.273306 0.103649 0.790173
Si Si7 0.773284 0.574843 0.282570
Si Si8 0.110745 0.329771 0.284013
O O1 0.344453 0.348297 0.500000
O O2 0.379074 0.280900 0.214096
O O3 0.394080 0.433353 0.260744
O O4 0.286195 0.381999 0.220028
O O5 0.174698 0.653596 0.204794
O O6 0.062998 0.637958 0.286441
O O7 0.091613 0.708742 0.000000
O O8 0.050300 0.367493 0.782026
O O9 0.000000 0.500000 0.713408
O O10 0.972728 0.427914 0.000000
O O11 0.399763 0.585881 0.720312
O O12 0.291162 0.640411 0.737487
O O13 0.380500 0.741160 0.724554
O O14 0.362208 0.657234 0.000000
O O15 0.500000 0.500000 0.279268
O O16 0.565248 0.486787 0.000000
O O17 0.272765 0.014749 0.724842
O O18 0.285911 0.101925 0.000000
O O19 0.771852 0.574359 0.500000
O O20 0.832578 0.619328 0.228533
O O21 0.108989 0.330472 0.500000
#
# Coordination Sequence:
#
# PCOD9443779 Si02
#       8
#     8   8   8   8   8   8   8   8
#     4  10  20  38  60  82 110 148 193 236 280 338
#     4  10  22  38  58  82 113 153 190 231 290 347
#     4  10  22  40  58  83 119 152 186 234 288 339
#     4  10  21  38  58  83 116 155 189 228 288 345
#     4  10  22  38  57  84 120 154 187 232 286 340
#     4  11  21  35  58  86 114 146 189 240 283 329
#     4   9  18  34  55  81 111 141 182 236 281 324
#     4  10  21  37  60  84 110 150 195 234 277 336
#
# _framework density 21.884509000000001
#
# number of rings (size 3 to 8) (size 9 to 14) (size 15 to 20)
#    0.000    2.000    1.250    1.875    1.750    4.000 
#    0.000    1.250    0.000    0.000    0.000    0.000 
#    0.000    0.000    0.000    0.000    0.000    0.000 
#
# Total GULP energy -357775.626959 kJ/mol
# GULP energy per Si atom -5590.244171 kJ/mol
# Density = 2.183470 g / cm^3
# Si number density = 21.884509 Si / 1000 Ang^3
#
#
#
# Elastic Constant Matrix: (Units=GPa)
#
#
# Indices 1 2 3 4 5 6 
#
# 1 137.1281 65.7980 -20.7305 0.0000 0.0000 0.0000
# 2 65.7980 187.2515 -7.4341 0.0000 0.0000 0.0000
# 3 -20.7305 -7.4341 56.5907 0.0000 0.0000 0.0000
# 4 0.0000 0.0000 0.0000 -17.4507 0.0000 0.0000
# 5 0.0000 0.0000 0.0000 0.0000 15.8261 0.0000
# 6 0.0000 0.0000 0.0000 0.0000 0.0000 13.7652
#
#
#
# Elastic Compliance Matrix: (Units=1/GPa)
#
#
# Indices 1 2 3 4 5 6 
#
# 1 0.009244 -0.003130 0.002975 0.000000 0.000000 0.000000
# 2 -0.003130 0.006428 -0.000302 0.000000 0.000000 0.000000
# 3 0.002975 -0.000302 0.018721 0.000000 0.000000 0.000000
# 4 0.000000 0.000000 0.000000 -0.057304 0.000000 0.000000
# 5 0.000000 0.000000 0.000000 0.000000 0.063187 0.000000
# 6 0.000000 0.000000 0.000000 0.000000 0.000000 0.072647
#
#
# Mechanical properties :
#
#
# Convention : Reuss Voigt Hill
#
# Bulk Modulus (GPa) = 29.86950 50.69302 40.28126
# Shear Modulus (GPa) = 40.00104 25.31726 32.65915
#
# Velocity S-wave (km/s) = 4.27994 3.40495 3.86727
# Velocity P-wave (km/s) = 6.17270 6.21872 6.19575
#
# Compressibility (1/GPa) = 0.03347897
#
# Stress axis : x y z
#
# Youngs Moduli (GPa) = 108.17625 155.56159 53.41622
#
# Poissons Ratio (x) = 0.48694 -0.15892
# Poissons Ratio (y) = 0.33861 0.01614
# Poissons Ratio (z) = -0.32184 0.04701
#
# Static dielectric constant tensor:
#      x y z
#    x 1.738870 0.000000 0.000000 
#    y 0.000000 1.784540 0.000000 
#    z 0.000000 0.000000 1.840840 
# 
# From -- ./inp_files/10103.got.cif
#   From: 2010.05.17/outbox.cif.g08.bks.cpg/sg58_6_cif.got.tgz:10103.got - 2010.06.03 14:20:14.
