data_PCOD9443148
_publ_section_title
;
Structure prediction by ZEFSAII (Michael W. Deem and Ramdas Pophale) SiO2 
 PCOD9443148
Probable space group: P N N M
;
_chemical_formula_sum "Si O2"
_cell_formula_units_Z 64
_cell_length_a 21.546221
_cell_length_b 17.364854
_cell_length_c 7.899836
_cell_angle_alpha 90.000000
_cell_angle_beta 90.000000
_cell_angle_gamma 90.000000
_cell_volume 2955.699797
_symmetry_space_group_name_H-M "P N N M"
_symmetry_group_IT_number 58
_symmetry_cell_setting 'orthorhombic'
loop_
_space_group_symop_operation_xyz
x,y,z
-x,-y,z
1/2+x,1/2-y,1/2-z
1/2-x,1/2+y,1/2-z
-x,-y,-z
x,y,-z
1/2-x,1/2+y,1/2+z
1/2+x,1/2-y,1/2+z
loop_
_atom_site_type_symbol
_atom_site_label
_atom_site_fract_x
_atom_site_fract_y
_atom_site_fract_z
Si Si1 0.892478 0.964991 0.307850
Si Si2 0.123009 0.282381 0.299646
Si Si3 0.481396 0.661175 0.792976
Si Si4 0.803755 0.098155 0.292455
Si Si5 0.659531 0.885715 0.299179
Si Si6 0.703234 0.346312 0.310037
Si Si7 0.610706 0.729340 0.204072
Si Si8 0.835562 0.557096 0.203935
O O1 0.909747 0.987563 0.500000
O O2 0.951210 0.919255 0.232823
O O3 0.839129 0.898877 0.310199
O O4 0.856319 0.037562 0.232851
O O5 0.128677 0.273378 0.500000
O O6 0.064380 0.231194 0.243317
O O7 0.182647 0.241609 0.215992
O O8 0.121947 0.372014 0.258667
O O9 0.550123 0.682815 0.738145
O O10 0.481033 0.657560 0.000000
O O11 0.802870 0.094553 0.500000
O O12 0.828216 0.182084 0.241442
O O13 0.735124 0.074161 0.235736
O O14 0.668905 0.889370 0.500000
O O15 0.725031 0.860997 0.219655
O O16 0.612091 0.817385 0.261033
O O17 0.644220 0.972019 0.239378
O O18 0.686609 0.369653 0.500000
O O19 0.610145 0.729461 0.000000
O O20 0.834228 0.557404 0.000000
#
# Coordination Sequence:
#
# PCOD9443148 Si02
#       8
#     8   8   8   8   8   8   8   8
#     4   9  16  32  54  78 110 147 178 217 272 325
#     4  10  20  35  56  80 108 144 182 222 274 328
#     4   8  17  33  54  79 109 143 185 226 265 321
#     4   9  17  31  54  81 110 139 172 223 276 322
#     4  11  22  37  55  76 108 146 179 225 282 332
#     4  11  20  32  53  81 109 140 180 222 269 326
#     4  10  20  35  55  81 109 142 185 230 271 323
#     4  10  20  35  54  80 110 138 178 231 281 328
#
# _framework density 21.653079000000002
#
# number of rings (size 3 to 8) (size 9 to 14) (size 15 to 20)
#    0.000    2.250    1.250    3.375    0.000    2.500 
#    0.000    6.875    0.000    3.750    0.000    4.375 
#    0.000    0.000    0.000    0.000    0.000    0.000 
#
# Total GULP energy -357279.156495 kJ/mol
# GULP energy per Si atom -5582.486820 kJ/mol
# Density = 2.160380 g / cm^3
# Si number density = 21.653079 Si / 1000 Ang^3
#
#
#
# Elastic Constant Matrix: (Units=GPa)
#
#
# Indices 1 2 3 4 5 6 
#
# 1 42.6564 6.2987 -0.2793 0.0000 0.0000 0.0000
# 2 6.2987 102.0007 -2.8614 0.0000 0.0000 0.0000
# 3 -0.2793 -2.8614 37.5341 0.0000 0.0000 0.0000
# 4 0.0000 0.0000 0.0000 19.8037 0.0000 0.0000
# 5 0.0000 0.0000 0.0000 0.0000 11.1759 0.0000
# 6 0.0000 0.0000 0.0000 0.0000 0.0000 26.3570
#
#
#
# Elastic Compliance Matrix: (Units=1/GPa)
#
#
# Indices 1 2 3 4 5 6 
#
# 1 0.023659 -0.001459 0.000065 0.000000 0.000000 0.000000
# 2 -0.001459 0.009915 0.000745 0.000000 0.000000 0.000000
# 3 0.000065 0.000745 0.026700 0.000000 0.000000 0.000000
# 4 0.000000 0.000000 0.000000 0.050496 0.000000 0.000000
# 5 0.000000 0.000000 0.000000 0.000000 0.089478 0.000000
# 6 0.000000 0.000000 0.000000 0.000000 0.000000 0.037941
#
#
# Mechanical properties :
#
#
# Convention : Reuss Voigt Hill
#
# Bulk Modulus (GPa) = 16.95639 20.94526 18.95083
# Shear Modulus (GPa) = 19.29423 23.40287 21.34855
#
# Velocity S-wave (km/s) = 2.98830 3.29113 3.14337
# Velocity P-wave (km/s) = 4.44461 4.91286 4.68459
#
# Compressibility (1/GPa) = 0.05897481
#
# Stress axis : x y z
#
# Youngs Moduli (GPa) = 42.26716 100.85875 37.45362
#
# Poissons Ratio (x) = 0.14717 -0.00243
# Poissons Ratio (y) = 0.06167 -0.02790
# Poissons Ratio (z) = -0.00274 -0.07514
#
# Static dielectric constant tensor:
#      x y z
#    x 1.774940 0.000000 0.000000 
#    y 0.000000 1.812890 0.000000 
#    z 0.000000 0.000000 1.812800 
# 
# From -- ./inp_files/10153.got.cif
#   From: 2010.05.17/outbox.cif.g08.bks.cpg/sg58_6_cif.got.tgz:10153.got - 2010.06.03 14:20:14.
