data_PCOD9443292
_publ_section_title
;
Structure prediction by ZEFSAII (Michael W. Deem and Ramdas Pophale) SiO2 
 PCOD9443292
Probable space group: P N N M
;
_chemical_formula_sum "Si O2"
_cell_formula_units_Z 48
_cell_length_a 19.003047
_cell_length_b 15.537495
_cell_length_c 8.495918
_cell_angle_alpha 90.000000
_cell_angle_beta 90.000000
_cell_angle_gamma 90.000000
_cell_volume 2508.502606
_symmetry_space_group_name_H-M "P N N M"
_symmetry_group_IT_number 58
_symmetry_cell_setting 'orthorhombic'
loop_
_space_group_symop_operation_xyz
x,y,z
-x,-y,z
1/2+x,1/2-y,1/2-z
1/2-x,1/2+y,1/2-z
-x,-y,-z
x,y,-z
1/2-x,1/2+y,1/2+z
1/2+x,1/2-y,1/2+z
loop_
_atom_site_type_symbol
_atom_site_label
_atom_site_fract_x
_atom_site_fract_y
_atom_site_fract_z
Si Si1 0.424024 0.268088 0.190303
Si Si2 0.422829 0.730548 0.312156
Si Si3 0.196799 0.901511 0.311478
Si Si4 0.353997 0.900305 0.811746
Si Si5 0.191983 0.091353 0.190639
Si Si6 0.854157 0.405621 0.691313
O O1 0.500175 0.293658 0.251968
O O2 0.362278 0.333386 0.238518
O O3 0.403367 0.171899 0.245131
O O4 0.425975 0.267772 0.000000
O O5 0.422144 0.729253 0.500000
O O6 0.402547 0.825678 0.255143
O O7 0.363054 0.663452 0.256892
O O8 0.203778 0.897002 0.500000
O O9 0.273239 0.883498 0.237943
O O10 0.175842 0.997675 0.260189
O O11 0.371933 0.997474 0.756244
O O12 0.358651 0.899400 0.000000
O O13 0.272761 0.112601 0.234422
O O14 0.189953 0.085592 0.000000
O O15 0.856701 0.406238 0.500000
#
# Coordination Sequence:
#
# PCOD9443292 Si02
#       6
#     8   8   8   8   8   8
#     4  10  21  37  55  77 110 148 182 219 270 330
#     4  11  23  37  54  79 112 147 184 227 274 323
#     4  10  20  35  58  85 110 139 180 229 274 321
#     4  10  20  36  59  83 108 142 183 224 272 329
#     4   9  19  37  58  78 105 143 183 224 274 328
#     4   8  16  34  58  78  99 137 182 217 260 323
#
# _framework density 19.134923000000001
#
# number of rings (size 3 to 8) (size 9 to 14) (size 15 to 20)
#    0.000    2.333    0.000    3.500    0.000    6.667 
#    0.000   10.833    0.000    0.000    0.000    0.000 
#    0.000    0.000    0.000    0.000    0.000    0.000 
#
# Total GULP energy -267971.788744 kJ/mol
# GULP energy per Si atom -5582.745599 kJ/mol
# Density = 1.909137 g / cm^3
# Si number density = 19.134923 Si / 1000 Ang^3
#
#
#
# Elastic Constant Matrix: (Units=GPa)
#
#
# Indices 1 2 3 4 5 6 
#
# 1 9.1075 1.6942 -0.9312 0.0000 0.0000 0.0000
# 2 1.6942 35.4364 3.6931 0.0000 0.0000 0.0000
# 3 -0.9312 3.6931 12.6105 0.0000 0.0000 0.0000
# 4 0.0000 0.0000 0.0000 -2.6222 0.0000 0.0000
# 5 0.0000 0.0000 0.0000 0.0000 22.7617 0.0000
# 6 0.0000 0.0000 0.0000 0.0000 0.0000 0.1322
#
#
#
# Elastic Compliance Matrix: (Units=1/GPa)
#
#
# Indices 1 2 3 4 5 6 
#
# 1 0.112030 -0.006414 0.010151 0.000000 0.000000 0.000000
# 2 -0.006414 0.029475 -0.009106 0.000000 0.000000 0.000000
# 3 0.010151 -0.009106 0.082715 0.000000 0.000000 0.000000
# 4 0.000000 0.000000 0.000000 -0.381361 0.000000 0.000000
# 5 0.000000 0.000000 0.000000 0.000000 0.043933 0.000000
# 6 0.000000 0.000000 0.000000 0.000000 0.000000 7.565584
#
#
# Mechanical properties :
#
#
# Convention : Reuss Voigt Hill
#
# Bulk Modulus (GPa) = 4.68421 7.34074 6.01248
# Shear Modulus (GPa) = 0.66363 7.56756 4.11560
#
# Velocity S-wave (km/s) = 0.58955 1.99084 1.46816
# Velocity P-wave (km/s) = 1.70784 3.02146 2.45417
#
# Compressibility (1/GPa) = 0.21348325
#
# Stress axis : x y z
#
# Youngs Moduli (GPa) = 8.92616 33.92686 12.08966
#
# Poissons Ratio (x) = 0.21761 -0.12272
# Poissons Ratio (y) = 0.05725 0.11008
# Poissons Ratio (z) = -0.09061 0.30893
#
# Static dielectric constant tensor:
#      x y z
#    x 1.641840 0.000000 0.000000 
#    y 0.000000 1.667990 0.000000 
#    z 0.000000 0.000000 1.656660 
# 
# From -- ./inp_files/5790.got.cif
#   From: 2010.05.17/outbox.cif.g08.bks.cpg/sg58_3_cif.got.tgz:5790.got - 2010.06.03 14:20:14.
