data_PCOD9443945
_publ_section_title
;
Structure prediction by ZEFSAII (Michael W. Deem and Ramdas Pophale) SiO2 
 PCOD9443945
Probable space group: P N N M
;
_chemical_formula_sum "Si O2"
_cell_formula_units_Z 64
_cell_length_a 13.933223
_cell_length_b 25.166550
_cell_length_c 7.695035
_cell_angle_alpha 90.000000
_cell_angle_beta 90.000000
_cell_angle_gamma 90.000000
_cell_volume 2698.272897
_symmetry_space_group_name_H-M "P N N M"
_symmetry_group_IT_number 58
_symmetry_cell_setting 'orthorhombic'
loop_
_space_group_symop_operation_xyz
x,y,z
-x,-y,z
1/2+x,1/2-y,1/2-z
1/2-x,1/2+y,1/2-z
-x,-y,-z
x,y,-z
1/2-x,1/2+y,1/2+z
1/2+x,1/2-y,1/2+z
loop_
_atom_site_type_symbol
_atom_site_label
_atom_site_fract_x
_atom_site_fract_y
_atom_site_fract_z
Si Si1 0.756830 0.555161 0.294700
Si Si2 0.525059 0.257165 0.705252
Si Si3 0.680881 0.744916 0.199947
Si Si4 0.128449 0.138231 0.702018
Si Si5 0.904054 0.469457 0.286285
Si Si6 0.156585 0.334340 0.210483
Si Si7 0.539918 0.557832 0.289830
Si Si8 0.666681 0.861869 0.800972
O O1 0.744940 0.546328 0.500000
O O2 0.812948 0.503940 0.225706
O O3 0.824701 0.606389 0.272143
O O4 0.649390 0.564835 0.225028
O O5 0.507563 0.254964 0.500000
O O6 0.427724 0.275331 0.795150
O O7 0.604490 0.301949 0.738490
O O8 0.563542 0.199639 0.764949
O O9 0.753823 0.701955 0.273787
O O10 0.672221 0.803521 0.282412
O O11 0.712425 0.752485 0.000000
O O12 0.151503 0.138294 0.500000
O O13 0.223039 0.118212 0.799781
O O14 0.035274 0.102294 0.732103
O O15 0.902440 0.467959 0.500000
O O16 0.896647 0.408882 0.223609
O O17 0.000000 0.500000 0.234803
O O18 0.156509 0.335898 0.000000
O O19 0.500000 0.500000 0.238141
O O20 0.540849 0.560118 0.500000
O O21 0.634576 0.854104 0.000000
#
# Coordination Sequence:
#
# PCOD9443945 Si02
#       8
#     8   8   8   8   8   8   8   8
#     4  10  21  36  59  90 118 152 200 248 294 351
#     4  11  23  40  60  84 117 159 202 244 302 366
#     4  10  21  38  61  90 118 152 199 249 304 360
#     4  12  24  38  60  91 123 157 201 252 305 361
#     4   9  19  36  61  91 119 153 201 249 292 350
#     4  10  22  40  58  82 120 159 193 236 298 361
#     4  10  21  39  63  90 120 158 201 246 303 368
#     4  10  20  39  64  87 120 161 199 247 305 361
#
# _framework density 23.718875000000001
#
# number of rings (size 3 to 8) (size 9 to 14) (size 15 to 20)
#    0.000    1.750    1.250    3.000    1.750    6.750 
#    0.000    1.875    0.000    0.750    0.000    0.000 
#    0.000    0.000    0.000    0.000    0.000    0.000 
#
# Total GULP energy -357833.823465 kJ/mol
# GULP energy per Si atom -5591.153492 kJ/mol
# Density = 2.366489 g / cm^3
# Si number density = 23.718875 Si / 1000 Ang^3
#
#
#
# Elastic Constant Matrix: (Units=GPa)
#
#
# Indices 1 2 3 4 5 6 
#
# 1 43.6430 -20.3984 -2.0388 0.0000 0.0000 0.0000
# 2 -20.3984 88.9961 -1.3132 0.0000 0.0000 0.0000
# 3 -2.0388 -1.3132 59.4221 0.0000 0.0000 0.0000
# 4 0.0000 0.0000 0.0000 30.1543 0.0000 0.0000
# 5 0.0000 0.0000 0.0000 0.0000 19.5160 0.0000
# 6 0.0000 0.0000 0.0000 0.0000 0.0000 40.7811
#
#
#
# Elastic Compliance Matrix: (Units=1/GPa)
#
#
# Indices 1 2 3 4 5 6 
#
# 1 0.025723 0.005911 0.001013 0.000000 0.000000 0.000000
# 2 0.005911 0.012598 0.000481 0.000000 0.000000 0.000000
# 3 0.001013 0.000481 0.016874 0.000000 0.000000 0.000000
# 4 0.000000 0.000000 0.000000 0.033163 0.000000 0.000000
# 5 0.000000 0.000000 0.000000 0.000000 0.051240 0.000000
# 6 0.000000 0.000000 0.000000 0.000000 0.000000 0.024521
#
#
# Mechanical properties :
#
#
# Convention : Reuss Voigt Hill
#
# Bulk Modulus (GPa) = 14.28443 16.06226 15.17335
# Shear Modulus (GPa) = 28.96122 32.47772 30.71947
#
# Velocity S-wave (km/s) = 3.49810 3.70439 3.60272
# Velocity P-wave (km/s) = 4.72769 5.00832 4.87003
#
# Compressibility (1/GPa) = 0.07000628
#
# Stress axis : x y z
#
# Youngs Moduli (GPa) = 38.87537 79.37540 59.26228
#
# Poissons Ratio (x) = -0.46918 -0.06004
# Poissons Ratio (y) = -0.22979 -0.02852
# Poissons Ratio (z) = -0.03939 -0.03820
#
# Static dielectric constant tensor:
#      x y z
#    x 1.914930 0.000000 0.000000 
#    y 0.000000 1.887950 0.000000 
#    z 0.000000 0.000000 1.879750 
# 
# From -- ./inp_files/6844.got.cif
#   From: 2010.05.17/outbox.cif.g08.bks.cpg/sg58_4_cif.got.tgz:6844.got - 2010.06.03 14:20:14.
