data_PCOD9443246
_publ_section_title
;
Structure prediction by ZEFSAII (Michael W. Deem and Ramdas Pophale) SiO2 
 PCOD9443246
Probable space group: P N N M
;
_chemical_formula_sum "Si O2"
_cell_formula_units_Z 64
_cell_length_a 15.253370
_cell_length_b 26.443666
_cell_length_c 7.855566
_cell_angle_alpha 90.000000
_cell_angle_beta 90.000000
_cell_angle_gamma 90.000000
_cell_volume 3168.581994
_symmetry_space_group_name_H-M "P N N M"
_symmetry_group_IT_number 58
_symmetry_cell_setting 'orthorhombic'
loop_
_space_group_symop_operation_xyz
x,y,z
-x,-y,z
1/2+x,1/2-y,1/2-z
1/2-x,1/2+y,1/2-z
-x,-y,-z
x,y,-z
1/2-x,1/2+y,1/2+z
1/2+x,1/2-y,1/2+z
loop_
_atom_site_type_symbol
_atom_site_label
_atom_site_fract_x
_atom_site_fract_y
_atom_site_fract_z
Si Si1 0.630881 0.640120 0.706268
Si Si2 0.984794 0.665569 0.801370
Si Si3 0.989881 0.780483 0.701305
Si Si4 0.659470 0.889319 0.295089
Si Si5 0.101408 0.499504 0.294067
Si Si6 0.849908 0.862641 0.703448
Si Si7 0.317749 0.895328 0.199512
Si Si8 0.989155 0.943056 0.794525
O O1 0.630803 0.643539 0.500000
O O2 0.580827 0.689762 0.770453
O O3 0.728972 0.629498 0.769441
O O4 0.569818 0.592751 0.757303
O O5 0.989199 0.725655 0.783411
O O6 0.899413 0.642264 0.714697
O O7 0.073498 0.640074 0.731228
O O8 0.978051 0.652011 0.000000
O O9 0.976884 0.773650 0.500000
O O10 0.912419 0.817459 0.768924
O O11 0.660945 0.883944 0.500000
O O12 0.647838 0.948337 0.254293
O O13 0.751295 0.867017 0.229078
O O14 0.098583 0.496688 0.500000
O O15 0.151738 0.449647 0.229271
O O16 0.000000 0.500000 0.234182
O O17 0.845242 0.855853 0.500000
O O18 0.901456 0.914688 0.737352
O O19 0.299322 0.904248 0.000000
O O20 0.988281 0.944343 0.000000
O O21 0.000000 0.000000 0.731400
#
# Coordination Sequence:
#
# PCOD9443246 Si02
#       8
#     8   8   8   8   8   8   8   8
#     4   9  19  36  56  80 113 149 185 227 280 334
#     4  11  23  38  58  83 112 146 190 236 283 336
#     4  10  21  39  61  82 110 145 187 237 286 333
#     4  10  22  38  56  81 113 149 186 226 277 335
#     4  10  20  35  57  83 114 148 186 231 276 326
#     4   9  20  38  56  78 109 146 185 225 276 332
#     4  10  21  37  57  83 115 151 188 228 279 333
#     4   9  18  32  53  81 111 143 182 227 273 324
#
# _framework density 20.198308000000001
#
# number of rings (size 3 to 8) (size 9 to 14) (size 15 to 20)
#    0.000    2.250    1.250    0.750    1.750    4.000 
#    0.000    2.500    0.000    0.000    0.000    0.000 
#    0.000    0.000    0.000    0.000    0.000    0.000 
#
# Total GULP energy -357288.190466 kJ/mol
# GULP energy per Si atom -5582.627976 kJ/mol
# Density = 2.015234 g / cm^3
# Si number density = 20.198308 Si / 1000 Ang^3
#
#
#
# Elastic Constant Matrix: (Units=GPa)
#
#
# Indices 1 2 3 4 5 6 
#
# 1 153.8767 45.2684 -3.4409 0.0000 0.0000 0.0000
# 2 45.2684 118.1061 -13.3701 0.0000 0.0000 0.0000
# 3 -3.4409 -13.3701 19.1556 0.0000 0.0000 0.0000
# 4 0.0000 0.0000 0.0000 17.5753 0.0000 0.0000
# 5 0.0000 0.0000 0.0000 0.0000 19.1233 0.0000
# 6 0.0000 0.0000 0.0000 0.0000 0.0000 -0.0026
#
#
#
# Elastic Compliance Matrix: (Units=1/GPa)
#
#
# Indices 1 2 3 4 5 6 
#
# 1 0.007333 -0.002890 -0.000700 0.000000 0.000000 0.000000
# 2 -0.002890 0.010332 0.006693 0.000000 0.000000 0.000000
# 3 -0.000700 0.006693 0.056749 0.000000 0.000000 0.000000
# 4 0.000000 0.000000 0.000000 0.056898 0.000000 0.000000
# 5 0.000000 0.000000 0.000000 0.000000 0.052292 0.000000
# 6 0.000000 0.000000 0.000000 0.000000 0.000000**********
#
#
# Mechanical properties :
#
#
# Convention : Reuss Voigt Hill
#
# Bulk Modulus (GPa) = 12.40382 38.67257 25.53819
# Shear Modulus (GPa) = -0.01294 24.85128 12.41917
#
# Velocity S-wave (km/s) = -0.08011 3.51146 2.48233
# Velocity P-wave (km/s) = 2.47907 5.96896 4.57024
#
# Compressibility (1/GPa) = 0.08062034
#
# Stress axis : x y z
#
# Youngs Moduli (GPa) = 136.36534 96.78421 17.62133
#
# Poissons Ratio (x) = 0.27970 0.01233
# Poissons Ratio (y) = 0.39409 -0.11793
# Poissons Ratio (z) = 0.09543 -0.64773
#
# Static dielectric constant tensor:
#      x y z
#    x 1.717320 0.000000 0.000000 
#    y 0.000000 1.680310 0.000000 
#    z 0.000000 0.000000 1.759400 
# 
# From -- ./inp_files/6946.got.cif
#   From: 2010.05.17/outbox.cif.g08.bks.cpg/sg58_4_cif.got.tgz:6946.got - 2010.06.03 14:20:14.
