data_PCOD9443126
_publ_section_title
;
Structure prediction by ZEFSAII (Michael W. Deem and Ramdas Pophale) SiO2 
 PCOD9443126
Probable space group: P N N M
;
_chemical_formula_sum "Si O2"
_cell_formula_units_Z 32
_cell_length_a 19.787840
_cell_length_b 6.849935
_cell_length_c 10.058430
_cell_angle_alpha 90.000000
_cell_angle_beta 90.000000
_cell_angle_gamma 90.000000
_cell_volume 1363.374097
_symmetry_space_group_name_H-M "P N N M"
_symmetry_group_IT_number 58
_symmetry_cell_setting 'orthorhombic'
loop_
_space_group_symop_operation_xyz
x,y,z
-x,-y,z
1/2+x,1/2-y,1/2-z
1/2-x,1/2+y,1/2-z
-x,-y,-z
x,y,-z
1/2-x,1/2+y,1/2+z
1/2+x,1/2-y,1/2+z
loop_
_atom_site_type_symbol
_atom_site_label
_atom_site_fract_x
_atom_site_fract_y
_atom_site_fract_z
Si Si1 0.017406 0.268449 0.152192
Si Si2 0.706860 0.731004 0.355736
Si Si3 0.100510 0.795437 0.350438
Si Si4 0.150827 0.397746 0.735992
O O1 0.093841 0.259215 0.204588
O O2 0.000000 0.500000 0.149958
O O3 0.963557 0.179809 0.254526
O O4 0.010842 0.203454 0.000000
O O5 0.687458 0.650854 0.500000
O O6 0.665970 0.636991 0.233128
O O7 0.786027 0.702168 0.333903
O O8 0.683035 0.956336 0.346503
O O9 0.094031 0.872080 0.500000
O O10 0.113719 0.559782 0.355616
#
# Coordination Sequence:
#
# PCOD9443126 Si02
#       4
#     8   8   8   8
#     4   9  16  30  51  75 100 133 174 215 258 302
#     4  10  20  35  52  76 109 141 172 212 262 311
#     4   9  19  31  50  79 105 132 174 218 257 303
#     4   9  20  32  55  77 105 136 174 213 256 307
#
# _framework density 23.471183
#
# number of rings (size 3 to 8) (size 9 to 14) (size 15 to 20)
#    1.500    1.250    0.000    2.250    0.000    7.500 
#    0.000    0.000    0.000    1.500    0.000    7.000 
#    0.000    0.000    0.000    0.000    0.000    0.000 
#
# Total GULP energy -178431.017767 kJ/mol
# GULP energy per Si atom -5575.969305 kJ/mol
# Density = 2.341776 g / cm^3
# Si number density = 23.471183 Si / 1000 Ang^3
#
#
#
# Elastic Constant Matrix: (Units=GPa)
#
#
# Indices 1 2 3 4 5 6 
#
# 1 168.2471 24.1334 81.6671 0.0000 0.0000 0.0000
# 2 24.1334 60.9207 -2.2041 0.0000 0.0000 0.0000
# 3 81.6671 -2.2041 209.3907 0.0000 0.0000 0.0000
# 4 0.0000 0.0000 0.0000 -7.5084 0.0000 0.0000
# 5 0.0000 0.0000 0.0000 0.0000 11.3823 0.0000
# 6 0.0000 0.0000 0.0000 0.0000 0.0000 40.1229
#
#
#
# Elastic Compliance Matrix: (Units=1/GPa)
#
#
# Indices 1 2 3 4 5 6 
#
# 1 0.007928 -0.003254 -0.003126 0.000000 0.000000 0.000000
# 2 -0.003254 0.017756 0.001456 0.000000 0.000000 0.000000
# 3 -0.003126 0.001456 0.006010 0.000000 0.000000 0.000000
# 4 0.000000 0.000000 0.000000 -0.133184 0.000000 0.000000
# 5 0.000000 0.000000 0.000000 0.000000 0.087856 0.000000
# 6 0.000000 0.000000 0.000000 0.000000 0.000000 0.024923
#
#
# Mechanical properties :
#
#
# Convention : Reuss Voigt Hill
#
# Bulk Modulus (GPa) = 45.77386 71.75014 58.76200
# Shear Modulus (GPa) = 175.93054 31.13016 103.53035
#
# Velocity S-wave (km/s) = 8.66710 3.64581 6.64871
# Velocity P-wave (km/s) = 10.94088 6.95402 9.16682
#
# Compressibility (1/GPa) = 0.02184653
#
# Stress axis : x y z
#
# Youngs Moduli (GPa) = 126.13768 56.31779 166.37801
#
# Poissons Ratio (x) = 0.18324 0.52015
# Poissons Ratio (y) = 0.41041 -0.24223
# Poissons Ratio (z) = 0.39434 -0.08199
#
# Static dielectric constant tensor:
#      x y z
#    x 1.852640 0.000000 0.000000 
#    y 0.000000 1.943210 0.000000 
#    z 0.000000 0.000000 1.849390 
# 
# From -- ./inp_files/3901.got.cif
#   From: 2010.05.17/outbox.cif.g08.bks.cpg/sg58_2_cif.got.tgz:3901.got - 2010.06.03 14:20:14.
