data_PCOD9443003
_publ_section_title
;
Structure prediction by ZEFSAII (Michael W. Deem and Ramdas Pophale) SiO2 
 PCOD9443003
Probable space group: P N N M
;
_chemical_formula_sum "Si O2"
_cell_formula_units_Z 48
_cell_length_a 9.418277
_cell_length_b 31.486361
_cell_length_c 9.179026
_cell_angle_alpha 90.000000
_cell_angle_beta 90.000000
_cell_angle_gamma 90.000000
_cell_volume 2722.015098
_symmetry_space_group_name_H-M "P N N M"
_symmetry_group_IT_number 58
_symmetry_cell_setting 'orthorhombic'
loop_
_space_group_symop_operation_xyz
x,y,z
-x,-y,z
1/2+x,1/2-y,1/2-z
1/2-x,1/2+y,1/2-z
-x,-y,-z
x,y,-z
1/2-x,1/2+y,1/2+z
1/2+x,1/2-y,1/2+z
loop_
_atom_site_type_symbol
_atom_site_label
_atom_site_fract_x
_atom_site_fract_y
_atom_site_fract_z
Si Si1 0.419127 0.115201 0.826767
Si Si2 0.600834 0.539727 0.674991
Si Si3 0.914677 0.877896 0.825777
Si Si4 0.099605 0.209098 0.326247
Si Si5 0.094190 0.458457 0.826005
Si Si6 0.599323 0.788437 0.173629
O O1 0.250669 0.111650 0.791642
O O2 0.512439 0.082164 0.738352
O O3 0.459956 0.164270 0.797163
O O4 0.435325 0.107273 0.000000
O O5 0.500000 0.500000 0.712332
O O6 0.623688 0.538786 0.500000
O O7 0.516193 0.582915 0.710684
O O8 0.751025 0.537640 0.754625
O O9 0.955147 0.834632 0.744499
O O10 0.920505 0.870824 0.000000
O O11 0.105191 0.204608 0.500000
O O12 0.255626 0.215898 0.261374
O O13 0.004677 0.249981 0.290749
O O14 0.000000 0.500000 0.791554
O O15 0.106797 0.455092 0.000000
O O16 0.630334 0.787295 0.000000
#
# Coordination Sequence:
#
# PCOD9443003 Si02
#       6
#     8   8   8   8   8   8
#     4   9  18  36  59  78 102 139 181 222 261 309
#     4  10  21  38  60  82 104 138 182 220 259 313
#     4   9  19  36  57  81 108 137 174 223 271 312
#     4  10  20  34  55  81 108 142 180 217 265 321
#     4  11  24  38  53  79 113 143 172 214 268 318
#     4   9  20  37  54  77 109 142 179 223 266 310
#
# _framework density 17.633993
#
# number of rings (size 3 to 8) (size 9 to 14) (size 15 to 20)
#    0.000    2.333    0.000    3.000    0.000    9.000 
#    0.000    5.000    0.000    0.000    0.000    0.000 
#    0.000    0.000    0.000    0.000    0.000    0.000 
#
# Total GULP energy -267934.268412 kJ/mol
# GULP energy per Si atom -5581.963925 kJ/mol
# Density = 1.759386 g / cm^3
# Si number density = 17.633993 Si / 1000 Ang^3
#
#
#
# Elastic Constant Matrix: (Units=GPa)
#
#
# Indices 1 2 3 4 5 6 
#
# 1 120.7169 116.4961 64.8469 0.0000 0.0000 0.0000
# 2 116.4961 189.3191 83.8664 0.0000 0.0000 0.0000
# 3 64.8469 83.8664 47.5488 0.0000 0.0000 0.0000
# 4 0.0000 0.0000 0.0000 35.2803 0.0000 0.0000
# 5 0.0000 0.0000 0.0000 0.0000 29.2551 0.0000
# 6 0.0000 0.0000 0.0000 0.0000 0.0000 34.3820
#
#
#
# Elastic Compliance Matrix: (Units=1/GPa)
#
#
# Indices 1 2 3 4 5 6 
#
# 1 0.031084 -0.001591 -0.039586 0.000000 0.000000 0.000000
# 2 -0.001591 0.024239 -0.040582 0.000000 0.000000 0.000000
# 3 -0.039586 -0.040582 0.146596 0.000000 0.000000 0.000000
# 4 0.000000 0.000000 0.000000 0.028344 0.000000 0.000000
# 5 0.000000 0.000000 0.000000 0.000000 0.034182 0.000000
# 6 0.000000 0.000000 0.000000 0.000000 0.000000 0.029085
#
#
# Mechanical properties :
#
#
# Convention : Reuss Voigt Hill
#
# Bulk Modulus (GPa) = 26.04092 98.66706 62.35399
# Shear Modulus (GPa) = 10.64171 25.94184 18.29178
#
# Velocity S-wave (km/s) = 2.45924 3.83969 3.22421
# Velocity P-wave (km/s) = 4.78156 8.70240 7.02122
#
# Compressibility (1/GPa) = 0.03840110
#
# Stress axis : x y z
#
# Youngs Moduli (GPa) = 32.17042 41.25652 6.82146
#
# Poissons Ratio (x) = 0.06566 0.27003
# Poissons Ratio (y) = 0.05120 0.27683
# Poissons Ratio (z) = 1.27350 1.67426
#
# Static dielectric constant tensor:
#      x y z
#    x 1.570260 0.000000 0.000000 
#    y 0.000000 1.597100 0.000000 
#    z 0.000000 0.000000 1.585110 
# 
# From -- ./inp_files/2897.got.cif
#   From: 2010.05.17/outbox.cif.g08.bks.cpg/sg58_2_cif.got.tgz:2897.got - 2010.06.03 14:20:14.
