data_PCOD9443911
_publ_section_title
;
Structure prediction by ZEFSAII (Michael W. Deem and Ramdas Pophale) SiO2 
 PCOD9443911
Probable space group: P N N M
;
_chemical_formula_sum "Si O2"
_cell_formula_units_Z 32
_cell_length_a 7.307474
_cell_length_b 17.177415
_cell_length_c 12.682518
_cell_angle_alpha 90.000000
_cell_angle_beta 90.000000
_cell_angle_gamma 90.000000
_cell_volume 1591.954219
_symmetry_space_group_name_H-M "P N N M"
_symmetry_group_IT_number 58
_symmetry_cell_setting 'orthorhombic'
loop_
_space_group_symop_operation_xyz
x,y,z
-x,-y,z
1/2+x,1/2-y,1/2-z
1/2-x,1/2+y,1/2-z
-x,-y,-z
x,y,-z
1/2-x,1/2+y,1/2+z
1/2+x,1/2-y,1/2+z
loop_
_atom_site_type_symbol
_atom_site_label
_atom_site_fract_x
_atom_site_fract_y
_atom_site_fract_z
Si Si1 0.889555 0.074096 0.818748
Si Si2 0.218259 0.509580 0.880378
Si Si3 0.714670 0.332951 0.763690
Si Si4 0.574306 0.180957 0.878847
O O1 0.817589 0.045036 0.704367
O O2 0.710922 0.107118 0.875372
O O3 0.037286 0.142065 0.803567
O O4 0.000000 0.000000 0.864769
O O5 0.261357 0.598052 0.848428
O O6 0.000000 0.500000 0.871337
O O7 0.272578 0.491935 0.000000
O O8 0.678251 0.252096 0.821696
O O9 0.891103 0.332788 0.688463
O O10 0.531325 0.199810 0.000000
#
# Coordination Sequence:
#
# PCOD9443911 Si02
#       4
#     8   8   8   8
#     4  10  23  42  65  94 136 165 216 271 317 397
#     4  10  20  38  68  97 128 171 213 273 332 373
#     4  11  23  44  63  97 131 164 223 274 315 399
#     4  12  25  43  67  94 132 176 215 272 332 381
#
# _framework density 20.101082000000002
#
# number of rings (size 3 to 8) (size 9 to 14) (size 15 to 20)
#    0.000    1.250    5.000    0.750    0.000    7.000 
#    0.000    8.750    0.000    0.000    0.000    0.000 
#    0.000    0.000    0.000    0.000    0.000    0.000 
#
# Total GULP energy -178779.154825 kJ/mol
# GULP energy per Si atom -5586.848588 kJ/mol
# Density = 2.005533 g / cm^3
# Si number density = 20.101082 Si / 1000 Ang^3
#
#
#
# Elastic Constant Matrix: (Units=GPa)
#
#
# Indices 1 2 3 4 5 6 
#
# 1 116.7235 35.8281 39.6956 0.0000 0.0000 0.0000
# 2 35.8281 70.6380 29.8404 0.0000 0.0000 0.0000
# 3 39.6956 29.8404 95.1829 0.0000 0.0000 0.0000
# 4 0.0000 0.0000 0.0000 15.2443 0.0000 0.0000
# 5 0.0000 0.0000 0.0000 0.0000 -2.7914 0.0000
# 6 0.0000 0.0000 0.0000 0.0000 0.0000 41.2846
#
#
#
# Elastic Compliance Matrix: (Units=1/GPa)
#
#
# Indices 1 2 3 4 5 6 
#
# 1 0.010959 -0.004182 -0.003260 0.000000 0.000000 0.000000
# 2 -0.004182 0.017913 -0.003872 0.000000 0.000000 0.000000
# 3 -0.003260 -0.003872 0.013079 0.000000 0.000000 0.000000
# 4 0.000000 0.000000 0.000000 0.065598 0.000000 0.000000
# 5 0.000000 0.000000 0.000000 0.000000 -0.358240 0.000000
# 6 0.000000 0.000000 0.000000 0.000000 0.000000 0.024222
#
#
# Mechanical properties :
#
#
# Convention : Reuss Voigt Hill
#
# Bulk Modulus (GPa) = 51.74488 54.80808 53.27648
# Shear Modulus (GPa) = -25.32931 22.55952 -1.38490
#
# Velocity S-wave (km/s) = -3.55364 3.35371 -0.83094
# Velocity P-wave (km/s) = 2.99340 6.50553 5.06371
#
# Compressibility (1/GPa) = 0.01932559
#
# Stress axis : x y z
#
# Youngs Moduli (GPa) = 91.24641 55.82433 76.45633
#
# Poissons Ratio (x) = 0.23344 0.24921
# Poissons Ratio (y) = 0.38156 0.29604
# Poissons Ratio (z) = 0.29742 0.21615
#
# Static dielectric constant tensor:
#      x y z
#    x 1.720400 0.000000 0.000000 
#    y 0.000000 1.702210 0.000000 
#    z 0.000000 0.000000 1.671590 
# 
# From -- ./inp_files/12345.got.cif
#   From: 2010.05.17/outbox.cif.g08.bks.cpg/sg58_7_cif.got.tgz:12345.got - 2010.06.03 14:20:14.
