data_PCOD9443627
_publ_section_title
;
Structure prediction by ZEFSAII (Michael W. Deem and Ramdas Pophale) SiO2 
 PCOD9443627
Probable space group: P N N M
;
_chemical_formula_sum "Si O2"
_cell_formula_units_Z 64
_cell_length_a 19.040565
_cell_length_b 20.371443
_cell_length_c 8.334550
_cell_angle_alpha 90.000000
_cell_angle_beta 90.000000
_cell_angle_gamma 90.000000
_cell_volume 3232.836797
_symmetry_space_group_name_H-M "P N N M"
_symmetry_group_IT_number 58
_symmetry_cell_setting 'orthorhombic'
loop_
_space_group_symop_operation_xyz
x,y,z
-x,-y,z
1/2+x,1/2-y,1/2-z
1/2-x,1/2+y,1/2-z
-x,-y,-z
x,y,-z
1/2-x,1/2+y,1/2+z
1/2+x,1/2-y,1/2+z
loop_
_atom_site_type_symbol
_atom_site_label
_atom_site_fract_x
_atom_site_fract_y
_atom_site_fract_z
Si Si1 0.519542 0.301715 0.691998
Si Si2 0.247513 0.376713 0.808295
Si Si3 0.942689 0.946892 0.305921
Si Si4 0.401350 0.823612 0.191805
Si Si5 0.830376 0.372895 0.806670
Si Si6 0.860636 0.227129 0.193906
Si Si7 0.979556 0.426456 0.305846
Si Si8 0.215870 0.022910 0.696234
O O1 0.519522 0.299911 0.500000
O O2 0.537682 0.374423 0.749287
O O3 0.574845 0.248320 0.753950
O O4 0.441073 0.282017 0.748731
O O5 0.174292 0.345662 0.753314
O O6 0.311589 0.331915 0.749532
O O7 0.256354 0.451762 0.750560
O O8 0.248946 0.377999 0.000000
O O9 0.943153 0.947236 0.500000
O O10 0.864305 0.966058 0.252918
O O11 0.000000 0.000000 0.250362
O O12 0.460994 0.875024 0.248262
O O13 0.399878 0.825333 0.000000
O O14 0.831124 0.297547 0.749416
O O15 0.766732 0.418504 0.748603
O O16 0.904190 0.405241 0.759268
O O17 0.826290 0.371077 0.000000
O O18 0.861005 0.227772 0.000000
O O19 0.976925 0.425026 0.500000
O O20 0.000000 0.500000 0.255835
O O21 0.216657 0.023180 0.500000
#
# Coordination Sequence:
#
# PCOD9443627 Si02
#       8
#     8   8   8   8   8   8   8   8
#     4  11  23  40  61  90 123 156 206 258 304 361
#     4  11  23  39  62  90 121 154 200 253 299 358
#     4  10  21  39  64  91 121 161 207 253 311 375
#     4  11  23  39  60  87 122 163 200 243 304 366
#     4  10  20  37  59  83 115 157 201 243 293 355
#     4  10  22  39  60  86 120 160 200 248 305 363
#     4  10  21  37  58  86 119 153 193 241 294 353
#     4   9  20  38  60  88 119 156 201 248 299 365
#
# _framework density 19.796852999999999
#
# number of rings (size 3 to 8) (size 9 to 14) (size 15 to 20)
#    0.000    1.750    1.250    2.625    1.750    3.500 
#    0.000    2.500    0.000    0.000    0.000    0.000 
#    0.000    0.000    0.000    0.000    0.000    0.000 
#
# Total GULP energy -357727.429993 kJ/mol
# GULP energy per Si atom -5589.491094 kJ/mol
# Density = 1.975179 g / cm^3
# Si number density = 19.796853 Si / 1000 Ang^3
#
#
#
# Elastic Constant Matrix: (Units=GPa)
#
#
# Indices 1 2 3 4 5 6 
#
# 1 141.5104 74.4201 17.2752 0.0000 0.0000 0.0000
# 2 74.4201 172.6415 17.9400 0.0000 0.0000 0.0000
# 3 17.2752 17.9400 8.8759 0.0000 0.0000 0.0000
# 4 0.0000 0.0000 0.0000 23.6936 0.0000 0.0000
# 5 0.0000 0.0000 0.0000 0.0000 21.4049 0.0000
# 6 0.0000 0.0000 0.0000 0.0000 0.0000 5.7560
#
#
#
# Elastic Compliance Matrix: (Units=1/GPa)
#
#
# Indices 1 2 3 4 5 6 
#
# 1 0.010369 -0.003003 -0.014110 0.000000 0.000000 0.000000
# 2 -0.003003 0.008202 -0.010733 0.000000 0.000000 0.000000
# 3 -0.014110 -0.010733 0.161821 0.000000 0.000000 0.000000
# 4 0.000000 0.000000 0.000000 0.042206 0.000000 0.000000
# 5 0.000000 0.000000 0.000000 0.000000 0.046718 0.000000
# 6 0.000000 0.000000 0.000000 0.000000 0.000000 0.173730
#
#
# Mechanical properties :
#
#
# Convention : Reuss Voigt Hill
#
# Bulk Modulus (GPa) = 8.01934 60.25539 34.13737
# Shear Modulus (GPa) = 9.25403 24.39707 16.82555
#
# Velocity S-wave (km/s) = 2.16440 3.51432 2.91848
# Velocity P-wave (km/s) = 3.21027 6.85348 5.35145
#
# Compressibility (1/GPa) = 0.12469846
#
# Stress axis : x y z
#
# Youngs Moduli (GPa) = 96.44532 121.91671 6.17968
#
# Poissons Ratio (x) = 0.36615 0.08720
# Poissons Ratio (y) = 0.28965 0.06633
# Poissons Ratio (z) = 1.36085 1.30856
#
# Static dielectric constant tensor:
#      x y z
#    x 1.666730 0.000000 0.000000 
#    y 0.000000 1.675160 0.000000 
#    z 0.000000 0.000000 1.689040 
# 
# From -- ./inp_files/8257.got.cif
#   From: 2010.05.17/outbox.cif.g08.bks.cpg/sg58_5_cif.got.tgz:8257.got - 2010.06.03 14:20:14.
