data_PCOD9443720
_publ_section_title
;
Structure prediction by ZEFSAII (Michael W. Deem and Ramdas Pophale) SiO2 
 PCOD9443720
Probable space group: P N N M
;
_chemical_formula_sum "Si O2"
_cell_formula_units_Z 64
_cell_length_a 15.734000
_cell_length_b 24.258089
_cell_length_c 8.848070
_cell_angle_alpha 90.000000
_cell_angle_beta 90.000000
_cell_angle_gamma 90.000000
_cell_volume 3377.102799
_symmetry_space_group_name_H-M "P N N M"
_symmetry_group_IT_number 58
_symmetry_cell_setting 'orthorhombic'
loop_
_space_group_symop_operation_xyz
x,y,z
-x,-y,z
1/2+x,1/2-y,1/2-z
1/2-x,1/2+y,1/2-z
-x,-y,-z
x,y,-z
1/2-x,1/2+y,1/2+z
1/2+x,1/2-y,1/2+z
loop_
_atom_site_type_symbol
_atom_site_label
_atom_site_fract_x
_atom_site_fract_y
_atom_site_fract_z
Si Si1 0.656003 0.867322 0.318282
Si Si2 0.160520 0.364027 0.318550
Si Si3 0.152152 0.132602 0.318727
Si Si4 0.159463 0.869057 0.679681
Si Si5 0.897767 0.751104 0.821273
Si Si6 0.101967 0.755025 0.821362
Si Si7 0.997286 0.065482 0.179151
Si Si8 0.002698 0.563410 0.317826
O O1 0.647036 0.869204 0.500000
O O2 0.751744 0.884479 0.278806
O O3 0.641153 0.803465 0.273963
O O4 0.584078 0.904997 0.246188
O O5 0.165300 0.361613 0.500000
O O6 0.249930 0.383620 0.251950
O O7 0.140028 0.303554 0.253676
O O8 0.082786 0.403939 0.274319
O O9 0.143821 0.132498 0.500000
O O10 0.137067 0.194214 0.257715
O O11 0.081103 0.093812 0.246581
O O12 0.163222 0.872842 0.500000
O O13 0.137235 0.806608 0.729660
O O14 0.084619 0.907380 0.743399
O O15 0.000134 0.751202 0.804007
O O16 0.878743 0.751737 0.000000
O O17 0.120353 0.763788 0.000000
O O18 0.993521 0.076903 0.000000
O O19 0.000000 0.000000 0.202630
O O20 0.007422 0.564137 0.500000
O O21 0.000000 0.500000 0.267465
#
# Coordination Sequence:
#
# PCOD9443720 Si02
#       8
#     8   8   8   8   8   8   8   8
#     4  10  22  40  62  90 123 160 197 244 302 358
#     4  11  23  40  63  90 126 164 203 254 309 365
#     4  11  23  39  63  94 127 162 202 250 309 368
#     4  12  25  40  64  94 125 160 204 253 308 374
#     4  11  21  36  63  94 126 163 203 247 303 368
#     4  10  20  37  62  91 127 162 198 244 302 368
#     4  11  25  45  66  87 118 163 210 258 312 366
#     4  10  23  42  63  88 118 157 205 253 299 354
#
# _framework density 18.951155
#
# number of rings (size 3 to 8) (size 9 to 14) (size 15 to 20)
#    0.000    1.250    2.500    3.375    0.000    5.750 
#    0.000    3.750    0.000    0.000    0.000    0.000 
#    0.000    0.000    0.000    0.000    0.000    0.000 
#
# Total GULP energy -357978.967132 kJ/mol
# GULP energy per Si atom -5593.421361 kJ/mol
# Density = 1.890802 g / cm^3
# Si number density = 18.951155 Si / 1000 Ang^3
#
#
#
# Elastic Constant Matrix: (Units=GPa)
#
#
# Indices 1 2 3 4 5 6 
#
# 1 172.9510 79.6153 70.5554 0.0000 0.0000 0.0000
# 2 79.6153 111.7436 58.4386 0.0000 0.0000 0.0000
# 3 70.5554 58.4386 77.6123 0.0000 0.0000 0.0000
# 4 0.0000 0.0000 0.0000 31.6538 0.0000 0.0000
# 5 0.0000 0.0000 0.0000 0.0000 32.9144 0.0000
# 6 0.0000 0.0000 0.0000 0.0000 0.0000 -7.2915
#
#
#
# Elastic Compliance Matrix: (Units=1/GPa)
#
#
# Indices 1 2 3 4 5 6 
#
# 1 0.010157 -0.003972 -0.006243 0.000000 0.000000 0.000000
# 2 -0.003972 0.016315 -0.008674 0.000000 0.000000 0.000000
# 3 -0.006243 -0.008674 0.025091 0.000000 0.000000 0.000000
# 4 0.000000 0.000000 0.000000 0.031592 0.000000 0.000000
# 5 0.000000 0.000000 0.000000 0.000000 0.030382 0.000000
# 6 0.000000 0.000000 0.000000 0.000000 0.000000 -0.137145
#
#
# Mechanical properties :
#
#
# Convention : Reuss Voigt Hill
#
# Bulk Modulus (GPa) = 72.53831 86.61393 79.57612
# Shear Modulus (GPa) = 266.46807 21.70184 144.08496
#
# Velocity S-wave (km/s) = 11.87068 3.38767 8.72896
# Velocity P-wave (km/s) = 15.04140 7.81695 11.98642
#
# Compressibility (1/GPa) = 0.01378582
#
# Stress axis : x y z
#
# Youngs Moduli (GPa) = 98.45192 61.29286 39.85524
#
# Poissons Ratio (x) = 0.24345 0.24882
# Poissons Ratio (y) = 0.39105 0.34569
# Poissons Ratio (z) = 0.61463 0.53164
#
# Static dielectric constant tensor:
#      x y z
#    x 1.646160 0.000000 0.000000 
#    y 0.000000 1.625860 0.000000 
#    z 0.000000 0.000000 1.634590 
# 
# From -- ./inp_files/6949.got.cif
#   From: 2010.05.17/outbox.cif.g08.bks.cpg/sg58_4_cif.got.tgz:6949.got - 2010.06.03 14:20:14.
