data_PCOD9443169
_publ_section_title
;
Structure prediction by ZEFSAII (Michael W. Deem and Ramdas Pophale) SiO2 
 PCOD9443169
Probable space group: P N N M
;
_chemical_formula_sum "Si O2"
_cell_formula_units_Z 56
_cell_length_a 23.524994
_cell_length_b 13.228440
_cell_length_c 9.092483
_cell_angle_alpha 90.000000
_cell_angle_beta 90.000000
_cell_angle_gamma 90.000000
_cell_volume 2829.571359
_symmetry_space_group_name_H-M "P N N M"
_symmetry_group_IT_number 58
_symmetry_cell_setting 'orthorhombic'
loop_
_space_group_symop_operation_xyz
x,y,z
-x,-y,z
1/2+x,1/2-y,1/2-z
1/2-x,1/2+y,1/2-z
-x,-y,-z
x,y,-z
1/2-x,1/2+y,1/2+z
1/2+x,1/2-y,1/2+z
loop_
_atom_site_type_symbol
_atom_site_label
_atom_site_fract_x
_atom_site_fract_y
_atom_site_fract_z
Si Si1 0.459285 0.588017 0.670165
Si Si2 0.531908 0.795006 0.669911
Si Si3 0.835258 0.487679 0.824800
Si Si4 0.064874 0.403282 0.331463
Si Si5 0.637898 0.305805 0.166915
Si Si6 0.734173 0.187697 0.324670
Si Si7 0.151903 0.717441 0.324804
O O1 0.500000 0.500000 0.731176
O O2 0.446347 0.563042 0.500000
O O3 0.495354 0.691696 0.671757
O O4 0.401021 0.610587 0.754807
O O5 0.537766 0.826998 0.500000
O O6 0.496057 0.876109 0.763636
O O7 0.592487 0.772326 0.741561
O O8 0.897404 0.525491 0.772089
O O9 0.792040 0.578515 0.789075
O O10 0.822624 0.388436 0.731976
O O11 0.834541 0.469578 0.000000
O O12 0.061989 0.439988 0.500000
O O13 0.099585 0.296754 0.334343
O O14 0.695078 0.272204 0.248324
O O15 0.650155 0.335195 0.000000
O O16 0.728314 0.201119 0.500000
O O17 0.800239 0.199999 0.287568
O O18 0.142787 0.715943 0.500000
#
# Coordination Sequence:
#
# PCOD9443169 Si02
#       7
#     8   8   8   8   8   8   8
#     4   9  18  34  55  79 112 149 187 227 275 335
#     4  10  20  35  55  81 112 148 185 229 280 329
#     4  10  20  37  60  84 109 143 187 232 277 334
#     4   9  17  32  55  82 111 141 176 220 272 330
#     4   9  17  30  53  81 106 137 180 228 273 318
#     4   9  20  39  59  77 107 148 186 227 278 332
#     4  11  23  39  57  81 114 150 185 231 283 332
#
# _framework density 19.790983000000001
#
# number of rings (size 3 to 8) (size 9 to 14) (size 15 to 20)
#    0.000    2.429    0.000    2.143    0.000    6.571 
#    2.571    2.857    0.000    0.000    0.000    0.000 
#    0.000    0.000    0.000    0.000    0.000    0.000 
#
# Total GULP energy -312673.478317 kJ/mol
# GULP energy per Si atom -5583.454970 kJ/mol
# Density = 1.974594 g / cm^3
# Si number density = 19.790983 Si / 1000 Ang^3
#
#
#
# Elastic Constant Matrix: (Units=GPa)
#
#
# Indices 1 2 3 4 5 6 
#
# 1 101.4495 -6.6761 31.5856 0.0000 0.0000 0.0000
# 2 -6.6761 12.4870 -3.2543 0.0000 0.0000 0.0000
# 3 31.5856 -3.2543 64.9429 0.0000 0.0000 0.0000
# 4 0.0000 0.0000 0.0000 22.4759 0.0000 0.0000
# 5 0.0000 0.0000 0.0000 0.0000 26.0685 0.0000
# 6 0.0000 0.0000 0.0000 0.0000 0.0000 27.4572
#
#
#
# Elastic Compliance Matrix: (Units=1/GPa)
#
#
# Indices 1 2 3 4 5 6 
#
# 1 0.011907 0.004921 -0.005545 0.000000 0.000000 0.000000
# 2 0.004921 0.083177 0.001775 0.000000 0.000000 0.000000
# 3 -0.005545 0.001775 0.018184 0.000000 0.000000 0.000000
# 4 0.000000 0.000000 0.000000 0.044492 0.000000 0.000000
# 5 0.000000 0.000000 0.000000 0.000000 0.038360 0.000000
# 6 0.000000 0.000000 0.000000 0.000000 0.000000 0.036420
#
#
# Mechanical properties :
#
#
# Convention : Reuss Voigt Hill
#
# Bulk Modulus (GPa) = 8.65274 24.68775 16.67025
# Shear Modulus (GPa) = 18.60381 25.68194 22.14287
#
# Velocity S-wave (km/s) = 3.06929 3.60621 3.34853
# Velocity P-wave (km/s) = 4.11610 5.46269 4.83649
#
# Compressibility (1/GPa) = 0.11557031
#
# Stress axis : x y z
#
# Youngs Moduli (GPa) = 83.98251 12.02254 54.99425
#
# Poissons Ratio (x) = -0.05916 0.30492
# Poissons Ratio (y) = -0.41329 -0.09759
# Poissons Ratio (z) = 0.46565 -0.02133
#
# Static dielectric constant tensor:
#      x y z
#    x 1.698140 0.000000 0.000000 
#    y 0.000000 1.720740 0.000000 
#    z 0.000000 0.000000 1.666130 
# 
# From -- ./inp_files/6409.got.cif
#   From: 2010.05.17/outbox.cif.g08.bks.cpg/sg58_4_cif.got.tgz:6409.got - 2010.06.03 14:20:14.
