data_PCOD9443081
_publ_section_title
;
Structure prediction by ZEFSAII (Michael W. Deem and Ramdas Pophale) SiO2 
 PCOD9443081
Probable space group: P N N M
;
_chemical_formula_sum "Si O2"
_cell_formula_units_Z 56
_cell_length_a 7.965971
_cell_length_b 14.258695
_cell_length_c 20.332352
_cell_angle_alpha 90.000000
_cell_angle_beta 90.000000
_cell_angle_gamma 90.000000
_cell_volume 2309.437004
_symmetry_space_group_name_H-M "P N N M"
_symmetry_group_IT_number 58
_symmetry_cell_setting 'orthorhombic'
loop_
_space_group_symop_operation_xyz
x,y,z
-x,-y,z
1/2+x,1/2-y,1/2-z
1/2-x,1/2+y,1/2-z
-x,-y,-z
x,y,-z
1/2-x,1/2+y,1/2+z
1/2+x,1/2-y,1/2+z
loop_
_atom_site_type_symbol
_atom_site_label
_atom_site_fract_x
_atom_site_fract_y
_atom_site_fract_z
Si Si1 0.669483 0.955762 0.424760
Si Si2 0.114769 0.907322 0.924824
Si Si3 0.126782 0.883860 0.575165
Si Si4 0.642039 0.865820 0.742657
Si Si5 0.503077 0.702526 0.803014
Si Si6 0.481630 0.792083 0.389404
Si Si7 0.182990 0.949329 0.216666
O O1 0.673839 0.988006 0.500000
O O2 0.634737 0.847039 0.424364
O O3 0.500000 0.000000 0.394695
O O4 0.825075 0.012443 0.397360
O O5 0.004504 0.816949 0.903094
O O6 0.227117 0.922650 0.858912
O O7 0.181608 0.892528 0.000000
O O8 0.000000 0.000000 0.928800
O O9 0.067468 0.885495 0.500000
O O10 0.001286 0.833604 0.623138
O O11 0.304424 0.828234 0.582767
O O12 0.562645 0.809784 0.803007
O O13 0.518772 0.828955 0.684484
O O14 0.823165 0.820083 0.727276
O O15 0.685778 0.974835 0.754047
O O16 0.640764 0.640353 0.762361
O O17 0.000000 0.000000 0.214128
#
# Coordination Sequence:
#
# PCOD9443081 Si02
#       7
#     8   8   8   8   8   8   8
#     4   8  15  29  51  84 120 150 188 242 301 359
#     4  10  20  34  57  90 123 160 209 257 302 361
#     4  10  21  36  59  91 126 161 197 251 316 378
#     4  11  23  39  63  89 117 162 208 262 311 361
#     4  11  22  40  61  86 124 158 209 255 308 372
#     4  11  19  36  61  91 121 156 208 256 307 369
#     4   9  20  38  59  86 122 162 206 258 306 371
#
# _framework density 24.248335999999998
#
# number of rings (size 3 to 8) (size 9 to 14) (size 15 to 20)
#    0.000    2.000    1.429    3.857    4.000    0.000 
#    0.000    4.286    0.000    5.571    0.000    1.000 
#    0.000    0.000    0.000    0.000    0.000    0.000 
#
# Total GULP energy -312603.108280 kJ/mol
# GULP energy per Si atom -5582.198362 kJ/mol
# Density = 2.419315 g / cm^3
# Si number density = 24.248336 Si / 1000 Ang^3
#
#
#
# Elastic Constant Matrix: (Units=GPa)
#
#
# Indices 1 2 3 4 5 6 
#
# 1 107.0018 23.7270 18.0998 0.0000 0.0000 0.0000
# 2 23.7270 125.6588 24.0640 0.0000 0.0000 0.0000
# 3 18.0998 24.0640 122.7617 0.0000 0.0000 0.0000
# 4 0.0000 0.0000 0.0000 30.7769 0.0000 0.0000
# 5 0.0000 0.0000 0.0000 0.0000 17.4086 0.0000
# 6 0.0000 0.0000 0.0000 0.0000 0.0000 26.5571
#
#
#
# Elastic Compliance Matrix: (Units=1/GPa)
#
#
# Indices 1 2 3 4 5 6 
#
# 1 0.009904 -0.001653 -0.001136 0.000000 0.000000 0.000000
# 2 -0.001653 0.008544 -0.001431 0.000000 0.000000 0.000000
# 3 -0.001136 -0.001431 0.008594 0.000000 0.000000 0.000000
# 4 0.000000 0.000000 0.000000 0.032492 0.000000 0.000000
# 5 0.000000 0.000000 0.000000 0.000000 0.057443 0.000000
# 6 0.000000 0.000000 0.000000 0.000000 0.000000 0.037655
#
#
# Mechanical properties :
#
#
# Convention : Reuss Voigt Hill
#
# Bulk Modulus (GPa) = 53.75688 54.13378 53.94533
# Shear Modulus (GPa) = 29.53811 34.25062 31.89437
#
# Velocity S-wave (km/s) = 3.49399 3.76239 3.63067
# Velocity P-wave (km/s) = 6.20441 6.42241 6.31435
#
# Compressibility (1/GPa) = 0.01860227
#
# Stress axis : x y z
#
# Youngs Moduli (GPa) = 100.96637 117.03892 116.36091
#
# Poissons Ratio (x) = 0.19341 0.13223
# Poissons Ratio (y) = 0.16685 0.16654
# Poissons Ratio (z) = 0.11473 0.16751
#
# Static dielectric constant tensor:
#      x y z
#    x 1.942090 0.000000 0.000000 
#    y 0.000000 1.985170 0.000000 
#    z 0.000000 0.000000 2.060490 
# 
# From -- ./inp_files/28969.got.cif
#   From: 2010.05.17/outbox.cif.g08.bks.cpg/sg58_15_cif.got.tgz:28969.got - 2010.06.03 14:20:14.
