data_PCOD9443796
_publ_section_title
;
Structure prediction by ZEFSAII (Michael W. Deem and Ramdas Pophale) SiO2 
 PCOD9443796
Probable space group: P N N M
;
_chemical_formula_sum "Si O2"
_cell_formula_units_Z 64
_cell_length_a 9.266021
_cell_length_b 30.173604
_cell_length_c 12.261585
_cell_angle_alpha 90.000000
_cell_angle_beta 90.000000
_cell_angle_gamma 90.000000
_cell_volume 3428.207333
_symmetry_space_group_name_H-M "P N N M"
_symmetry_group_IT_number 58
_symmetry_cell_setting 'orthorhombic'
loop_
_space_group_symop_operation_xyz
x,y,z
-x,-y,z
1/2+x,1/2-y,1/2-z
1/2-x,1/2+y,1/2-z
-x,-y,-z
x,y,-z
1/2-x,1/2+y,1/2+z
1/2+x,1/2-y,1/2+z
loop_
_atom_site_type_symbol
_atom_site_label
_atom_site_fract_x
_atom_site_fract_y
_atom_site_fract_z
Si Si1 0.694956 0.357071 0.735088
Si Si2 0.959559 0.090137 0.625015
Si Si3 0.639342 0.521713 0.305432
Si Si4 0.068715 0.696487 0.874689
Si Si5 0.814397 0.444375 0.374838
Si Si6 0.786259 0.652281 0.207380
Si Si7 0.873870 0.585557 0.617883
Si Si8 0.937196 0.197729 0.128401
O O1 0.594074 0.384177 0.820405
O O2 0.818347 0.328619 0.795844
O O3 0.763509 0.395148 0.658538
O O4 0.586136 0.324940 0.668835
O O5 0.987294 0.078652 0.500000
O O6 0.916611 0.047624 0.698518
O O7 0.824041 0.123942 0.634437
O O8 0.500000 0.500000 0.359944
O O9 0.747141 0.480413 0.293705
O O10 0.726702 0.558045 0.373116
O O11 0.066138 0.749341 0.858188
O O12 0.904904 0.680325 0.855439
O O13 0.110852 0.687406 0.000000
O O14 0.769674 0.454062 0.500000
O O15 0.987057 0.445338 0.372929
O O16 0.875503 0.618326 0.281834
O O17 0.687807 0.678750 0.293715
O O18 0.882037 0.608176 0.500000
O O19 0.915266 0.187391 0.000000
#
# Coordination Sequence:
#
# PCOD9443796 Si02
#       8
#     8   8   8   8   8   8   8   8
#     4  11  21  40  60  87 118 155 195 243 290 348
#     4  10  22  40  60  82 114 157 201 240 287 343
#     4  11  22  38  56  88 114 150 189 240 288 341
#     4  11  22  38  61  87 118 156 199 245 295 348
#     4  11  22  38  58  84 117 152 188 232 293 355
#     4  10  20  38  61  84 118 152 197 242 293 349
#     4  10  21  37  59  82 116 153 186 235 290 350
#     4  10  22  38  59  90 122 153 191 243 302 358
#
# _framework density 18.668648999999998
#
# number of rings (size 3 to 8) (size 9 to 14) (size 15 to 20)
#    0.000    1.500    2.500    3.000    0.000    2.250 
#    0.000    0.000    0.000    7.500    0.000    0.000 
#    0.000    0.000    0.000    0.000    0.000    0.000 
#
# Total GULP energy -357071.691898 kJ/mol
# GULP energy per Si atom -5579.245186 kJ/mol
# Density = 1.862616 g / cm^3
# Si number density = 18.668649 Si / 1000 Ang^3
#
#
#
# Elastic Constant Matrix: (Units=GPa)
#
#
# Indices 1 2 3 4 5 6 
#
# 1 80.4201 17.0755 26.7782 0.0000 0.0000 0.0000
# 2 17.0755 77.8536 32.9798 0.0000 0.0000 0.0000
# 3 26.7782 32.9798 81.8401 0.0000 0.0000 0.0000
# 4 0.0000 0.0000 0.0000 -22.2976 0.0000 0.0000
# 5 0.0000 0.0000 0.0000 0.0000 16.8287 0.0000
# 6 0.0000 0.0000 0.0000 0.0000 0.0000 31.3073
#
#
#
# Elastic Compliance Matrix: (Units=1/GPa)
#
#
# Indices 1 2 3 4 5 6 
#
# 1 0.014075 -0.001370 -0.004053 0.000000 0.000000 0.000000
# 2 -0.001370 0.015622 -0.005847 0.000000 0.000000 0.000000
# 3 -0.004053 -0.005847 0.015901 0.000000 0.000000 0.000000
# 4 0.000000 0.000000 0.000000 -0.044848 0.000000 0.000000
# 5 0.000000 0.000000 0.000000 0.000000 0.059422 0.000000
# 6 0.000000 0.000000 0.000000 0.000000 0.000000 0.031941
#
#
# Mechanical properties :
#
#
# Convention : Reuss Voigt Hill
#
# Bulk Modulus (GPa) = 43.36924 43.75343 43.56133
# Shear Modulus (GPa) = 40.86919 16.05303 28.46111
#
# Velocity S-wave (km/s) = 4.68395 2.93557 3.90877
# Velocity P-wave (km/s) = 7.24804 5.91421 6.61483
#
# Compressibility (1/GPa) = 0.02305782
#
# Stress axis : x y z
#
# Youngs Moduli (GPa) = 71.04653 64.01230 62.88732
#
# Poissons Ratio (x) = 0.08770 0.25490
# Poissons Ratio (y) = 0.09734 0.36771
# Poissons Ratio (z) = 0.28798 0.37428
#
# Static dielectric constant tensor:
#      x y z
#    x 1.647230 0.000000 0.000000 
#    y 0.000000 1.647650 0.000000 
#    z 0.000000 0.000000 1.615330 
# 
# From -- ./inp_files/13438.got.cif
#   From: 2010.05.17/outbox.cif.g08.bks.cpg/sg58_7_cif.got.tgz:13438.got - 2010.06.03 14:20:14.
