data_PCOD9443183
_publ_section_title
;
Structure prediction by ZEFSAII (Michael W. Deem and Ramdas Pophale) SiO2 
 PCOD9443183
Probable space group: P N N M
;
_chemical_formula_sum "Si O2"
_cell_formula_units_Z 58
_cell_length_a 14.685565
_cell_length_b 23.973709
_cell_length_c 7.326083
_cell_angle_alpha 90.000000
_cell_angle_beta 90.000000
_cell_angle_gamma 90.000000
_cell_volume 2579.275447
_symmetry_space_group_name_H-M "P N N M"
_symmetry_group_IT_number 58
_symmetry_cell_setting 'orthorhombic'
loop_
_space_group_symop_operation_xyz
x,y,z
-x,-y,z
1/2+x,1/2-y,1/2-z
1/2-x,1/2+y,1/2-z
-x,-y,-z
x,y,-z
1/2-x,1/2+y,1/2+z
1/2+x,1/2-y,1/2+z
loop_
_atom_site_type_symbol
_atom_site_label
_atom_site_fract_x
_atom_site_fract_y
_atom_site_fract_z
Si Si1 0.956204 0.912694 0.207078
Si Si2 0.169539 0.189363 0.710140
Si Si3 0.541747 0.092179 0.780390
Si Si4 0.500000 0.000000 0.500000
Si Si5 0.158233 0.893151 0.222821
Si Si6 0.310283 0.813641 0.221626
Si Si7 0.207647 0.013848 0.777290
Si Si8 0.334498 0.113351 0.781034
O O1 0.896212 0.856455 0.202098
O O2 0.888464 0.959291 0.285683
O O3 0.054686 0.899891 0.287549
O O4 0.974306 0.931432 0.000000
O O5 0.140241 0.191735 0.500000
O O6 0.168861 0.251503 0.787567
O O7 0.271235 0.163903 0.717235
O O8 0.613112 0.140696 0.736168
O O9 0.439769 0.113431 0.731536
O O10 0.551500 0.037195 0.660760
O O11 0.546981 0.081119 0.000000
O O12 0.214076 0.839250 0.283129
O O13 0.211632 0.949597 0.274309
O O14 0.156608 0.890933 0.000000
O O15 0.306993 0.809759 0.000000
O O16 0.286242 0.056141 0.716430
O O17 0.208117 0.015584 0.000000
O O18 0.330061 0.113975 0.000000
#
# Coordination Sequence:
#
# PCOD9443183 Si02
#       8
#     8   8   8   2   8   8   8   8
#     4   9  17  31  52  81 107 139 184 231 284 353
#     4  10  20  35  56  78 114 151 196 252 299 352
#     4  10  23  43  64  88 128 166 207 256 312 373
#     4  12  26  40  64  98 124 162 214 256 310 382
#     4   9  16  28  52  80 106 137 181 230 280 346
#     4   9  20  37  55  82 114 156 198 243 303 357
#     4   8  14  26  49  80 107 131 175 226 276 339
#     4   9  19  36  60  86 109 154 201 241 296 359
#
# _framework density 22.486936
#
# number of rings (size 3 to 8) (size 9 to 14) (size 15 to 20)
#    0.000    2.759    0.000    1.862    2.897    2.759 
#    2.483    0.000    1.517    6.621    0.000    0.000 
#    0.000    0.000    0.000    0.000    0.000    0.000 
#
# Total GULP energy -323448.970016 kJ/mol
# GULP energy per Si atom -5576.706380 kJ/mol
# Density = 2.243575 g / cm^3
# Si number density = 22.486936 Si / 1000 Ang^3
#
#
#
# Elastic Constant Matrix: (Units=GPa)
#
#
# Indices 1 2 3 4 5 6 
#
# 1 85.2895 17.2712 -0.4120 0.0000 0.0000 0.0000
# 2 17.2712 108.8786 6.0210 0.0000 0.0000 0.0000
# 3 -0.4120 6.0210 96.5191 0.0000 0.0000 0.0000
# 4 0.0000 0.0000 0.0000 19.8093 0.0000 0.0000
# 5 0.0000 0.0000 0.0000 0.0000 -4.2250 0.0000
# 6 0.0000 0.0000 0.0000 0.0000 0.0000 20.9961
#
#
#
# Elastic Compliance Matrix: (Units=1/GPa)
#
#
# Indices 1 2 3 4 5 6 
#
# 1 0.012117 -0.001932 0.000172 0.000000 0.000000 0.000000
# 2 -0.001932 0.009524 -0.000602 0.000000 0.000000 0.000000
# 3 0.000172 -0.000602 0.010399 0.000000 0.000000 0.000000
# 4 0.000000 0.000000 0.000000 0.050481 0.000000 0.000000
# 5 0.000000 0.000000 0.000000 0.000000 -0.236685 0.000000
# 6 0.000000 0.000000 0.000000 0.000000 0.000000 0.047628
#
#
# Mechanical properties :
#
#
# Convention : Reuss Voigt Hill
#
# Bulk Modulus (GPa) = 36.60795 37.38308 36.99552
# Shear Modulus (GPa) = -53.93324 25.16986 -14.38169
#
# Velocity S-wave (km/s) = -4.90269 3.34924 -2.53169
# Velocity P-wave (km/s) = 3.96654 5.62290 2.81812
#
# Compressibility (1/GPa) = 0.02731647
#
# Stress axis : x y z
#
# Youngs Moduli (GPa) = 82.53037 104.99507 96.16346
#
# Poissons Ratio (x) = 0.20281 -0.01656
# Poissons Ratio (y) = 0.15941 0.05793
# Poissons Ratio (z) = -0.01421 0.06325
#
# Static dielectric constant tensor:
#      x y z
#    x 1.834780 0.000000 0.000000 
#    y 0.000000 1.799870 0.000000 
#    z 0.000000 0.000000 1.876310 
# 
# From -- ./inp_files/6666.got.cif
#   From: 2010.05.17/outbox.cif.g08.bks.cpg/sg58_4_cif.got.tgz:6666.got - 2010.06.03 14:20:14.
