data_PCOD9443399
_publ_section_title
;
Structure prediction by ZEFSAII (Michael W. Deem and Ramdas Pophale) SiO2 
 PCOD9443399
Probable space group: P N N M
;
_chemical_formula_sum "Si O2"
_cell_formula_units_Z 64
_cell_length_a 15.796087
_cell_length_b 24.392395
_cell_length_c 7.849840
_cell_angle_alpha 90.000000
_cell_angle_beta 90.000000
_cell_angle_gamma 90.000000
_cell_volume 3024.577841
_symmetry_space_group_name_H-M "P N N M"
_symmetry_group_IT_number 58
_symmetry_cell_setting 'orthorhombic'
loop_
_space_group_symop_operation_xyz
x,y,z
-x,-y,z
1/2+x,1/2-y,1/2-z
1/2-x,1/2+y,1/2-z
-x,-y,-z
x,y,-z
1/2-x,1/2+y,1/2+z
1/2+x,1/2-y,1/2+z
loop_
_atom_site_type_symbol
_atom_site_label
_atom_site_fract_x
_atom_site_fract_y
_atom_site_fract_z
Si Si1 0.079892 0.381545 0.300965
Si Si2 0.147315 0.497010 0.793510
Si Si3 0.894871 0.382078 0.200108
Si Si4 0.247915 0.825055 0.790745
Si Si5 0.400373 0.629096 0.698176
Si Si6 0.585460 0.604643 0.293866
Si Si7 0.841566 0.990527 0.701900
Si Si8 0.755921 0.299290 0.200601
O O1 0.072692 0.368890 0.500000
O O2 0.095209 0.446270 0.277242
O O3 0.164339 0.352391 0.232977
O O4 0.991747 0.364732 0.217649
O O5 0.116559 0.556374 0.731239
O O6 0.246340 0.492472 0.746126
O O7 0.140167 0.494318 0.000000
O O8 0.828240 0.339055 0.275166
O O9 0.873795 0.387087 0.000000
O O10 0.166467 0.860235 0.736241
O O11 0.243905 0.762332 0.731044
O O12 0.248516 0.826446 0.000000
O O13 0.403408 0.644254 0.500000
O O14 0.496053 0.628599 0.767831
O O15 0.367890 0.566499 0.713994
O O16 0.333335 0.669773 0.782270
O O17 0.583660 0.605536 0.500000
O O18 0.598027 0.541602 0.240693
O O19 0.840082 0.980327 0.500000
O O20 0.774436 0.293070 0.000000
#
# Coordination Sequence:
#
# PCOD9443399 Si02
#       8
#     8   8   8   8   8   8   8   8
#     4  11  22  36  58  88 116 150 187 230 288 342
#     4  10  20  36  57  84 114 149 190 232 282 338
#     4  10  21  38  59  83 113 150 190 236 283 337
#     4   9  20  39  61  82 112 153 195 237 284 341
#     4  11  23  37  59  89 120 151 187 238 290 341
#     4  10  21  39  59  85 119 155 191 232 291 348
#     4  11  21  36  60  88 117 152 193 235 283 342
#     4  10  21  41  63  81 109 155 200 236 284 340
#
# _framework density 21.159976
#
# number of rings (size 3 to 8) (size 9 to 14) (size 15 to 20)
#    0.000    1.750    2.500    1.875    0.000    6.500 
#    0.000    3.125    0.000    0.000    0.000    0.000 
#    0.000    0.000    0.000    0.000    0.000    0.000 
#
# Total GULP energy -357656.878793 kJ/mol
# GULP energy per Si atom -5588.388731 kJ/mol
# Density = 2.111182 g / cm^3
# Si number density = 21.159976 Si / 1000 Ang^3
#
#
#
# Elastic Constant Matrix: (Units=GPa)
#
#
# Indices 1 2 3 4 5 6 
#
# 1 99.7445 27.9589 -11.1937 0.0000 0.0000 0.0000
# 2 27.9589 114.8868 -7.8157 0.0000 0.0000 0.0000
# 3 -11.1937 -7.8157 17.4011 0.0000 0.0000 0.0000
# 4 0.0000 0.0000 0.0000 16.5501 0.0000 0.0000
# 5 0.0000 0.0000 0.0000 0.0000 29.2155 0.0000
# 6 0.0000 0.0000 0.0000 0.0000 0.0000 4.2892
#
#
#
# Elastic Compliance Matrix: (Units=1/GPa)
#
#
# Indices 1 2 3 4 5 6 
#
# 1 0.011387 -0.002344 0.006272 0.000000 0.000000 0.000000
# 2 -0.002344 0.009461 0.002741 0.000000 0.000000 0.000000
# 3 0.006272 0.002741 0.062733 0.000000 0.000000 0.000000
# 4 0.000000 0.000000 0.000000 0.060423 0.000000 0.000000
# 5 0.000000 0.000000 0.000000 0.000000 0.034228 0.000000
# 6 0.000000 0.000000 0.000000 0.000000 0.000000 0.233146
#
#
# Mechanical properties :
#
#
# Convention : Reuss Voigt Hill
#
# Bulk Modulus (GPa) = 10.31794 27.77016 19.04405
# Shear Modulus (GPa) = 11.61854 24.88314 18.25084
#
# Velocity S-wave (km/s) = 2.34579 3.43294 2.94005
# Velocity P-wave (km/s) = 3.49624 5.37269 4.53263
#
# Compressibility (1/GPa) = 0.09691857
#
# Stress axis : x y z
#
# Youngs Moduli (GPa) = 87.82258 105.69433 15.94052
#
# Poissons Ratio (x) = 0.24779 -0.09997
# Poissons Ratio (y) = 0.20589 -0.04370
# Poissons Ratio (z) = -0.55080 -0.28975
#
# Static dielectric constant tensor:
#      x y z
#    x 1.760380 0.000000 0.000000 
#    y 0.000000 1.732890 0.000000 
#    z 0.000000 0.000000 1.774190 
# 
# From -- ./inp_files/6907.got.cif
#   From: 2010.05.17/outbox.cif.g08.bks.cpg/sg58_4_cif.got.tgz:6907.got - 2010.06.03 14:20:14.
