data_PCOD9443789
_publ_section_title
;
Structure prediction by ZEFSAII (Michael W. Deem and Ramdas Pophale) SiO2 
 PCOD9443789
Probable space group: P N N M
;
_chemical_formula_sum "Si O2"
_cell_formula_units_Z 48
_cell_length_a 19.027235
_cell_length_b 15.343295
_cell_length_c 7.544916
_cell_angle_alpha 90.000000
_cell_angle_beta 90.000000
_cell_angle_gamma 90.000000
_cell_volume 2202.666396
_symmetry_space_group_name_H-M "P N N M"
_symmetry_group_IT_number 58
_symmetry_cell_setting 'orthorhombic'
loop_
_space_group_symop_operation_xyz
x,y,z
-x,-y,z
1/2+x,1/2-y,1/2-z
1/2-x,1/2+y,1/2-z
-x,-y,-z
x,y,-z
1/2-x,1/2+y,1/2+z
1/2+x,1/2-y,1/2+z
loop_
_atom_site_type_symbol
_atom_site_label
_atom_site_fract_x
_atom_site_fract_y
_atom_site_fract_z
Si Si1 0.068136 0.048429 0.792202
Si Si2 0.009467 0.595434 0.296546
Si Si3 0.258657 0.802835 0.783744
Si Si4 0.663467 0.853046 0.293113
Si Si5 0.723153 0.501070 0.284698
Si Si6 0.414520 0.747049 0.215074
O O1 0.061607 0.152239 0.776837
O O2 0.144594 0.021361 0.720082
O O3 0.070912 0.024517 0.000000
O O4 0.000000 0.000000 0.715410
O O5 0.983731 0.587301 0.500000
O O6 0.091034 0.620065 0.296046
O O7 0.000000 0.500000 0.213375
O O8 0.964264 0.674782 0.220475
O O9 0.198745 0.735709 0.724189
O O10 0.245431 0.901952 0.728856
O O11 0.334750 0.767293 0.728661
O O12 0.258213 0.801637 0.000000
O O13 0.647047 0.840730 0.500000
O O14 0.721340 0.928875 0.275941
O O15 0.723745 0.498626 0.500000
O O16 0.415989 0.744590 0.000000
#
# Coordination Sequence:
#
# PCOD9443789 Si02
#       6
#     8   8   8   8   8   8
#     4  10  22  37  57  85 117 154 196 238 286 345
#     4  10  22  40  62  85 114 156 198 232 281 356
#     4   9  19  36  59  83 110 151 193 230 284 344
#     4  11  22  37  60  89 119 147 187 246 295 334
#     4  10  20  38  61  82 113 158 198 232 280 352
#     4  10  20  38  61  84 114 152 193 239 286 336
#
# _framework density 21.791771000000001
#
# number of rings (size 3 to 8) (size 9 to 14) (size 15 to 20)
#    0.000    2.000    1.667    1.500    2.333    4.000 
#    0.000    4.167    0.000    0.000    0.000    0.000 
#    0.000    0.000    0.000    0.000    0.000    0.000 
#
# Total GULP energy -268282.005540 kJ/mol
# GULP energy per Si atom -5589.208449 kJ/mol
# Density = 2.174217 g / cm^3
# Si number density = 21.791771 Si / 1000 Ang^3
#
#
#
# Elastic Constant Matrix: (Units=GPa)
#
#
# Indices 1 2 3 4 5 6 
#
# 1 90.6751 19.1295 -12.7232 0.0000 0.0000 0.0000
# 2 19.1295 108.4781 -19.4539 0.0000 0.0000 0.0000
# 3 -12.7232 -19.4539 52.8857 0.0000 0.0000 0.0000
# 4 0.0000 0.0000 0.0000 27.4948 0.0000 0.0000
# 5 0.0000 0.0000 0.0000 0.0000 12.5753 0.0000
# 6 0.0000 0.0000 0.0000 0.0000 0.0000 45.7495
#
#
#
# Elastic Compliance Matrix: (Units=1/GPa)
#
#
# Indices 1 2 3 4 5 6 
#
# 1 0.011689 -0.001667 0.002199 0.000000 0.000000 0.000000
# 2 -0.001667 0.010107 0.003317 0.000000 0.000000 0.000000
# 3 0.002199 0.003317 0.020658 0.000000 0.000000 0.000000
# 4 0.000000 0.000000 0.000000 0.036370 0.000000 0.000000
# 5 0.000000 0.000000 0.000000 0.000000 0.079521 0.000000
# 6 0.000000 0.000000 0.000000 0.000000 0.000000 0.021858
#
#
# Mechanical properties :
#
#
# Convention : Reuss Voigt Hill
#
# Bulk Modulus (GPa) = 19.93960 25.10485 22.52222
# Shear Modulus (GPa) = 26.42388 34.83635 30.63011
#
# Velocity S-wave (km/s) = 3.48596 4.00259 3.75318
# Velocity P-wave (km/s) = 5.03711 5.73640 5.39809
#
# Compressibility (1/GPa) = 0.05015146
#
# Stress axis : x y z
#
# Youngs Moduli (GPa) = 85.55354 98.93905 48.40778
#
# Poissons Ratio (x) = 0.16492 -0.10644
# Poissons Ratio (y) = 0.14261 -0.16056
# Poissons Ratio (z) = -0.18812 -0.32817
#
# Static dielectric constant tensor:
#      x y z
#    x 1.752660 0.000000 0.000000 
#    y 0.000000 1.751750 0.000000 
#    z 0.000000 0.000000 1.822100 
# 
# From -- ./inp_files/5801.got.cif
#   From: 2010.05.17/outbox.cif.g08.bks.cpg/sg58_3_cif.got.tgz:5801.got - 2010.06.03 14:20:14.
