data_PCOD9443091
_publ_section_title
;
Structure prediction by ZEFSAII (Michael W. Deem and Ramdas Pophale) SiO2 
 PCOD9443091
Probable space group: P N N M
;
_chemical_formula_sum "Si O2"
_cell_formula_units_Z 64
_cell_length_a 20.716623
_cell_length_b 9.523014
_cell_length_c 16.892201
_cell_angle_alpha 90.000000
_cell_angle_beta 90.000000
_cell_angle_gamma 90.000000
_cell_volume 3332.572652
_symmetry_space_group_name_H-M "P N N M"
_symmetry_group_IT_number 58
_symmetry_cell_setting 'orthorhombic'
loop_
_space_group_symop_operation_xyz
x,y,z
-x,-y,z
1/2+x,1/2-y,1/2-z
1/2-x,1/2+y,1/2-z
-x,-y,-z
x,y,-z
1/2-x,1/2+y,1/2+z
1/2+x,1/2-y,1/2+z
loop_
_atom_site_type_symbol
_atom_site_label
_atom_site_fract_x
_atom_site_fract_y
_atom_site_fract_z
Si Si1 0.738377 0.231994 0.407678
Si Si2 0.815096 0.493410 0.355013
Si Si3 0.269620 0.530637 0.801240
Si Si4 0.410348 0.406623 0.409735
Si Si5 0.268294 0.275205 0.586827
Si Si6 0.573395 0.049842 0.255374
Si Si7 0.434418 0.089958 0.588274
Si Si8 0.619993 0.350076 0.698363
O O1 0.724681 0.208991 0.500000
O O2 0.792560 0.351735 0.396543
O O3 0.764712 0.095949 0.362554
O O4 0.674380 0.288704 0.362418
O O5 0.771191 0.509010 0.276022
O O6 0.792594 0.622156 0.408195
O O7 0.886431 0.503092 0.320911
O O8 0.238878 0.665258 0.843437
O O9 0.339881 0.574614 0.768557
O O10 0.423039 0.452598 0.500000
O O11 0.334103 0.364640 0.404409
O O12 0.444876 0.256037 0.397494
O O13 0.420385 0.532631 0.348947
O O14 0.270059 0.207915 0.500000
O O15 0.581365 0.215942 0.269674
O O16 0.500000 0.000000 0.248302
O O17 0.600839 0.974804 0.335673
O O18 0.404463 0.077931 0.500000
O O19 0.500000 0.000000 0.584558
#
# Coordination Sequence:
#
# PCOD9443091 Si02
#       8
#     8   8   8   8   8   8   8   8
#     4  11  22  35  58  92 127 159 195 251 326 382
#     4  11  20  37  57  85 122 158 199 255 304 367
#     4  11  20  34  56  88 123 153 188 249 314 368
#     4  10  20  34  58  87 121 159 197 243 303 364
#     4  11  20  33  54  87 122 154 191 241 312 375
#     4  11  23  41  61  83 117 164 212 253 296 361
#     4   9  20  38  59  84 116 159 207 249 291 348
#     4  11  22  36  57  89 124 158 202 252 308 370
#
# _framework density 19.204383
#
# number of rings (size 3 to 8) (size 9 to 14) (size 15 to 20)
#    0.000    1.375    5.000    2.625    1.750    1.000 
#    0.000    2.500    0.000    8.250    0.000    0.875 
#    0.000    0.000    0.000    0.000    0.000    0.000 
#
# Total GULP energy -357427.802260 kJ/mol
# GULP energy per Si atom -5584.809410 kJ/mol
# Density = 1.916067 g / cm^3
# Si number density = 19.204383 Si / 1000 Ang^3
#
#
#
# Elastic Constant Matrix: (Units=GPa)
#
#
# Indices 1 2 3 4 5 6 
#
# 1 78.8223 37.9426 22.1531 0.0000 0.0000 0.0000
# 2 37.9426 105.6940 26.0865 0.0000 0.0000 0.0000
# 3 22.1531 26.0865 73.9518 0.0000 0.0000 0.0000
# 4 0.0000 0.0000 0.0000 21.9222 0.0000 0.0000
# 5 0.0000 0.0000 0.0000 0.0000 7.3431 0.0000
# 6 0.0000 0.0000 0.0000 0.0000 0.0000 30.9755
#
#
#
# Elastic Compliance Matrix: (Units=1/GPa)
#
#
# Indices 1 2 3 4 5 6 
#
# 1 0.015929 -0.004974 -0.003017 0.000000 0.000000 0.000000
# 2 -0.004974 0.011916 -0.002714 0.000000 0.000000 0.000000
# 3 -0.003017 -0.002714 0.015383 0.000000 0.000000 0.000000
# 4 0.000000 0.000000 0.000000 0.045616 0.000000 0.000000
# 5 0.000000 0.000000 0.000000 0.000000 0.136183 0.000000
# 6 0.000000 0.000000 0.000000 0.000000 0.000000 0.032284
#
#
# Mechanical properties :
#
#
# Convention : Reuss Voigt Hill
#
# Bulk Modulus (GPa) = 45.82982 47.87027 46.85004
# Shear Modulus (GPa) = 17.48295 23.53388 20.50841
#
# Velocity S-wave (km/s) = 3.02049 3.50443 3.27142
# Velocity P-wave (km/s) = 6.00671 6.43083 6.22238
#
# Compressibility (1/GPa) = 0.02181985
#
# Stress axis : x y z
#
# Youngs Moduli (GPa) = 62.77911 83.91758 65.00508
#
# Poissons Ratio (x) = 0.41737 0.19614
# Poissons Ratio (y) = 0.31223 0.17640
# Poissons Ratio (z) = 0.18942 0.22772
#
# Static dielectric constant tensor:
#      x y z
#    x 1.700760 0.000000 0.000000 
#    y 0.000000 1.686670 0.000000 
#    z 0.000000 0.000000 1.676120 
# 
# From -- ./inp_files/27566.got.cif
#   From: 2010.05.17/outbox.cif.g08.bks.cpg/sg58_14_cif.got.tgz:27566.got - 2010.06.03 14:20:14.
