data_PCOD9443327
_publ_section_title
;
Structure prediction by ZEFSAII (Michael W. Deem and Ramdas Pophale) SiO2 
 PCOD9443327
Probable space group: P N N M
;
_chemical_formula_sum "Si O2"
_cell_formula_units_Z 64
_cell_length_a 25.214747
_cell_length_b 14.674464
_cell_length_c 8.743833
_cell_angle_alpha 90.000000
_cell_angle_beta 90.000000
_cell_angle_gamma 90.000000
_cell_volume 3235.330980
_symmetry_space_group_name_H-M "P N N M"
_symmetry_group_IT_number 58
_symmetry_cell_setting 'orthorhombic'
loop_
_space_group_symop_operation_xyz
x,y,z
-x,-y,z
1/2+x,1/2-y,1/2-z
1/2-x,1/2+y,1/2-z
-x,-y,-z
x,y,-z
1/2-x,1/2+y,1/2+z
1/2+x,1/2-y,1/2+z
loop_
_atom_site_type_symbol
_atom_site_label
_atom_site_fract_x
_atom_site_fract_y
_atom_site_fract_z
Si Si1 0.143501 0.089345 0.323661
Si Si2 0.204967 0.785004 0.317907
Si Si3 0.339909 0.972165 0.680162
Si Si4 0.548844 0.937470 0.313793
Si Si5 0.231042 0.977944 0.176441
Si Si6 0.409815 0.254829 0.684258
Si Si7 0.824314 0.742874 0.180826
Si Si8 0.441041 0.459993 0.679162
O O1 0.158048 0.079714 0.500000
O O2 0.190730 0.057425 0.213786
O O3 0.136840 0.194180 0.278083
O O4 0.095180 0.024369 0.281920
O O5 0.201338 0.775072 0.500000
O O6 0.150830 0.748874 0.243726
O O7 0.262520 0.746023 0.269175
O O8 0.211123 0.891779 0.275161
O O9 0.331203 0.991800 0.500000
O O10 0.338917 0.863074 0.698672
O O11 0.395641 0.014502 0.726054
O O12 0.289796 0.006390 0.774977
O O13 0.545195 0.936094 0.500000
O O14 0.555143 0.831953 0.264119
O O15 0.500000 0.000000 0.258935
O O16 0.229576 0.951452 0.000000
O O17 0.407620 0.251515 0.500000
O O18 0.433732 0.354103 0.725319
O O19 0.828195 0.763362 0.000000
O O20 0.500000 0.500000 0.687568
O O21 0.423891 0.466318 0.500000
#
# Coordination Sequence:
#
# PCOD9443327 Si02
#       8
#     8   8   8   8   8   8   8   8
#     4  12  24  37  57  86 121 159 200 248 300 353
#     4  10  20  36  58  86 120 156 196 245 302 357
#     4   9  19  37  59  86 118 154 197 248 302 355
#     4   9  19  36  60  90 120 153 201 253 298 349
#     4  11  21  35  57  84 119 156 194 242 298 362
#     4  10  20  35  59  89 117 155 201 247 296 354
#     4   9  20  36  55  83 121 161 197 239 299 363
#     4  10  22  40  61  87 121 161 205 249 298 360
#
# _framework density 19.781593999999998
#
# number of rings (size 3 to 8) (size 9 to 14) (size 15 to 20)
#    0.000    2.000    1.250    3.375    1.750    3.750 
#    0.000    3.750    0.000    1.500    0.000    0.000 
#    0.000    0.000    0.000    0.000    0.000    0.000 
#
# Total GULP energy -357203.215417 kJ/mol
# GULP energy per Si atom -5581.300241 kJ/mol
# Density = 1.973657 g / cm^3
# Si number density = 19.781594 Si / 1000 Ang^3
#
#
#
# Elastic Constant Matrix: (Units=GPa)
#
#
# Indices 1 2 3 4 5 6 
#
# 1 70.6040 37.4943 20.2227 0.0000 0.0000 0.0000
# 2 37.4943 74.0625 18.4518 0.0000 0.0000 0.0000
# 3 20.2227 18.4518 13.7740 0.0000 0.0000 0.0000
# 4 0.0000 0.0000 0.0000 4.3992 0.0000 0.0000
# 5 0.0000 0.0000 0.0000 0.0000 25.4032 0.0000
# 6 0.0000 0.0000 0.0000 0.0000 0.0000 26.6664
#
#
#
# Elastic Compliance Matrix: (Units=1/GPa)
#
#
# Indices 1 2 3 4 5 6 
#
# 1 0.025827 -0.005445 -0.030623 0.000000 0.000000 0.000000
# 2 -0.005445 0.021414 -0.020692 0.000000 0.000000 0.000000
# 3 -0.030623 -0.020692 0.145280 0.000000 0.000000 0.000000
# 4 0.000000 0.000000 0.000000 0.227314 0.000000 0.000000
# 5 0.000000 0.000000 0.000000 0.000000 0.039365 0.000000
# 6 0.000000 0.000000 0.000000 0.000000 0.000000 0.037500
#
#
# Mechanical properties :
#
#
# Convention : Reuss Voigt Hill
#
# Bulk Modulus (GPa) = 12.65825 34.53090 23.59457
# Shear Modulus (GPa) = 7.85479 16.77855 12.31667
#
# Velocity S-wave (km/s) = 1.99484 2.91553 2.49797
# Velocity P-wave (km/s) = 3.42326 5.36915 4.50258
#
# Compressibility (1/GPa) = 0.07899989
#
# Stress axis : x y z
#
# Youngs Moduli (GPa) = 38.71990 46.69874 6.88325
#
# Poissons Ratio (x) = 0.25429 0.21079
# Poissons Ratio (y) = 0.21084 0.14243
# Poissons Ratio (z) = 1.18574 0.96627
#
# Static dielectric constant tensor:
#      x y z
#    x 1.685280 0.000000 0.000000 
#    y 0.000000 1.753530 0.000000 
#    z 0.000000 0.000000 1.661870 
# 
# From -- ./inp_files/10083.got.cif
#   From: 2010.05.17/outbox.cif.g08.bks.cpg/sg58_6_cif.got.tgz:10083.got - 2010.06.03 14:20:14.
