data_PCOD9443546
_publ_section_title
;
Structure prediction by ZEFSAII (Michael W. Deem and Ramdas Pophale) SiO2 
 PCOD9443546
Probable space group: P N N M
;
_chemical_formula_sum "Si O2"
_cell_formula_units_Z 64
_cell_length_a 12.274209
_cell_length_b 17.693609
_cell_length_c 14.647225
_cell_angle_alpha 90.000000
_cell_angle_beta 90.000000
_cell_angle_gamma 90.000000
_cell_volume 3181.011892
_symmetry_space_group_name_H-M "P N N M"
_symmetry_group_IT_number 58
_symmetry_cell_setting 'orthorhombic'
loop_
_space_group_symop_operation_xyz
x,y,z
-x,-y,z
1/2+x,1/2-y,1/2-z
1/2-x,1/2+y,1/2-z
-x,-y,-z
x,y,-z
1/2-x,1/2+y,1/2+z
1/2+x,1/2-y,1/2+z
loop_
_atom_site_type_symbol
_atom_site_label
_atom_site_fract_x
_atom_site_fract_y
_atom_site_fract_z
Si Si1 0.224830 0.417579 0.820714
Si Si2 0.779216 0.431732 0.100949
Si Si3 0.927876 0.072271 0.219092
Si Si4 0.259720 0.754986 0.604427
Si Si5 0.953785 0.859100 0.605648
Si Si6 0.974939 0.312778 0.602372
Si Si7 0.499934 0.284077 0.391036
Si Si8 0.019001 0.623603 0.793426
O O1 0.255634 0.480862 0.894224
O O2 0.299191 0.442510 0.734639
O O3 0.255506 0.330277 0.837279
O O4 0.093730 0.413869 0.824520
O O5 0.671955 0.382146 0.117291
O O6 0.872338 0.418587 0.175582
O O7 0.823138 0.413793 0.000000
O O8 0.976483 0.097827 0.318069
O O9 0.944234 0.142717 0.151679
O O10 0.000000 0.000000 0.190489
O O11 0.272402 0.782166 0.500000
O O12 0.369952 0.711246 0.627280
O O13 0.153767 0.704163 0.608455
O O14 0.985492 0.876608 0.500000
O O15 0.969414 0.769163 0.617104
O O16 0.001943 0.338728 0.500000
O O17 0.998612 0.366954 0.685707
O O18 0.481725 0.278219 0.500000
O O19 0.468322 0.206634 0.339671
#
# Coordination Sequence:
#
# PCOD9443546 Si02
#       8
#     8   8   8   8   8   8   8   8
#     4  11  22  36  58  88 119 159 197 243 298 359
#     4  11  24  39  60  90 125 159 196 246 302 360
#     4  12  23  39  60  87 121 156 197 247 306 356
#     4   9  18  33  57  84 115 152 195 242 293 350
#     4  10  21  37  59  89 118 149 188 240 303 355
#     4  10  20  36  61  92 119 153 200 248 295 353
#     4  10  22  39  59  87 118 157 203 248 294 352
#     4  11  23  39  61  85 122 161 200 244 298 357
#
# _framework density 20.119384
#
# number of rings (size 3 to 8) (size 9 to 14) (size 15 to 20)
#    0.000    1.500    3.750    1.125    1.750    4.000 
#    0.000    1.875    0.000    2.250    0.000    0.000 
#    0.000    0.000    0.000    0.000    0.000    0.000 
#
# Total GULP energy -357099.449353 kJ/mol
# GULP energy per Si atom -5579.678896 kJ/mol
# Density = 2.007359 g / cm^3
# Si number density = 20.119384 Si / 1000 Ang^3
#
#
#
# Elastic Constant Matrix: (Units=GPa)
#
#
# Indices 1 2 3 4 5 6 
#
# 1 50.7108 7.2399 -0.4942 0.0000 0.0000 0.0000
# 2 7.2399 43.7069 17.0532 0.0000 0.0000 0.0000
# 3 -0.4942 17.0532 62.7102 0.0000 0.0000 0.0000
# 4 0.0000 0.0000 0.0000 19.0411 0.0000 0.0000
# 5 0.0000 0.0000 0.0000 0.0000 12.1791 0.0000
# 6 0.0000 0.0000 0.0000 0.0000 0.0000 13.6469
#
#
#
# Elastic Compliance Matrix: (Units=1/GPa)
#
#
# Indices 1 2 3 4 5 6 
#
# 1 0.020278 -0.003827 0.001201 0.000000 0.000000 0.000000
# 2 -0.003827 0.026318 -0.007187 0.000000 0.000000 0.000000
# 3 0.001201 -0.007187 0.017910 0.000000 0.000000 0.000000
# 4 0.000000 0.000000 0.000000 0.052518 0.000000 0.000000
# 5 0.000000 0.000000 0.000000 0.000000 0.082108 0.000000
# 6 0.000000 0.000000 0.000000 0.000000 0.000000 0.073277
#
#
# Mechanical properties :
#
#
# Convention : Reuss Voigt Hill
#
# Bulk Modulus (GPa) = 22.28244 22.74730 22.51487
# Shear Modulus (GPa) = 16.28688 17.86202 17.07445
#
# Velocity S-wave (km/s) = 2.84828 2.98283 2.91633
# Velocity P-wave (km/s) = 4.68146 4.81599 4.74920
#
# Compressibility (1/GPa) = 0.04487839
#
# Stress axis : x y z
#
# Youngs Moduli (GPa) = 49.31502 37.99702 55.83406
#
# Poissons Ratio (x) = 0.14543 -0.06704
# Poissons Ratio (y) = 0.18875 0.40128
# Poissons Ratio (z) = -0.05921 0.27308
#
# Static dielectric constant tensor:
#      x y z
#    x 1.737140 0.000000 0.000000 
#    y 0.000000 1.693160 0.000000 
#    z 0.000000 0.000000 1.733410 
# 
# From -- ./inp_files/21501.got.cif
#   From: 2010.05.17/outbox.cif.g08.bks.cpg/sg58_11_cif.got.tgz:21501.got - 2010.06.03 14:20:14.
