data_PCOD9443529
_publ_section_title
;
Structure prediction by ZEFSAII (Michael W. Deem and Ramdas Pophale) SiO2 
 PCOD9443529
Probable space group: P N N M
;
_chemical_formula_sum "Si O2"
_cell_formula_units_Z 40
_cell_length_a 19.739610
_cell_length_b 7.738718
_cell_length_c 13.505145
_cell_angle_alpha 90.000000
_cell_angle_beta 90.000000
_cell_angle_gamma 90.000000
_cell_volume 2063.036162
_symmetry_space_group_name_H-M "P N N M"
_symmetry_group_IT_number 58
_symmetry_cell_setting 'orthorhombic'
loop_
_space_group_symop_operation_xyz
x,y,z
-x,-y,z
1/2+x,1/2-y,1/2-z
1/2-x,1/2+y,1/2-z
-x,-y,-z
x,y,-z
1/2-x,1/2+y,1/2+z
1/2+x,1/2-y,1/2+z
loop_
_atom_site_type_symbol
_atom_site_label
_atom_site_fract_x
_atom_site_fract_y
_atom_site_fract_z
Si Si1 0.579859 0.465461 0.109615
Si Si2 0.813920 0.435694 0.791859
Si Si3 0.604902 0.222918 0.389643
Si Si4 0.330296 0.452473 0.707125
Si Si5 0.933430 0.596540 0.688083
O O1 0.500000 0.500000 0.119937
O O2 0.620936 0.553183 0.197245
O O3 0.588220 0.259143 0.123093
O O4 0.601588 0.520024 0.000000
O O5 0.835696 0.580932 0.871586
O O6 0.740715 0.471931 0.746493
O O7 0.819563 0.241301 0.830640
O O8 0.870586 0.469729 0.706965
O O9 0.577265 0.210724 0.500000
O O10 0.635966 0.410987 0.367384
O O11 0.554047 0.176791 0.299245
O O12 0.000000 0.500000 0.652325
#
# Coordination Sequence:
#
# PCOD9443529 Si02
#       5
#     8   8   8   8   8
#     4  10  21  36  58  87 117 152 195 236 284 346
#     4  10  20  36  61  83 112 155 188 233 281 348
#     4   9  21  36  57  86 112 145 190 232 279 344
#     4  11  19  39  60  79 122 150 188 236 294 330
#     4   9  19  37  59  80 118 153 183 242 285 333
#
# _framework density 19.388898999999999
#
# number of rings (size 3 to 8) (size 9 to 14) (size 15 to 20)
#    1.200    1.000    2.000    1.200    0.000    2.400 
#    0.000    4.000    0.000    3.600    0.000    0.000 
#    0.000    0.000    0.000    0.000    0.000    0.000 
#
# Total GULP energy -222782.806250 kJ/mol
# GULP energy per Si atom -5569.570156 kJ/mol
# Density = 1.934477 g / cm^3
# Si number density = 19.388899 Si / 1000 Ang^3
#
#
#
# Elastic Constant Matrix: (Units=GPa)
#
#
# Indices 1 2 3 4 5 6 
#
# 1 35.2061 -7.2181 -1.8169 0.0000 0.0000 0.0000
# 2 -7.2181 118.4194 -6.0196 0.0000 0.0000 0.0000
# 3 -1.8169 -6.0196 62.7124 0.0000 0.0000 0.0000
# 4 0.0000 0.0000 0.0000 5.7353 0.0000 0.0000
# 5 0.0000 0.0000 0.0000 0.0000 8.2116 0.0000
# 6 0.0000 0.0000 0.0000 0.0000 0.0000 30.7938
#
#
#
# Elastic Compliance Matrix: (Units=1/GPa)
#
#
# Indices 1 2 3 4 5 6 
#
# 1 0.028827 0.001808 0.001009 0.000000 0.000000 0.000000
# 2 0.001808 0.008599 0.000878 0.000000 0.000000 0.000000
# 3 0.001009 0.000878 0.016059 0.000000 0.000000 0.000000
# 4 0.000000 0.000000 0.000000 0.174358 0.000000 0.000000
# 5 0.000000 0.000000 0.000000 0.000000 0.121779 0.000000
# 6 0.000000 0.000000 0.000000 0.000000 0.000000 0.032474
#
#
# Mechanical properties :
#
#
# Convention : Reuss Voigt Hill
#
# Bulk Modulus (GPa) = 16.42695 20.69209 18.55952
# Shear Modulus (GPa) = 12.65826 24.37431 18.51629
#
# Velocity S-wave (km/s) = 2.55789 3.54945 3.09365
# Velocity P-wave (km/s) = 4.14903 5.24341 4.72799
#
# Compressibility (1/GPa) = 0.06087559
#
# Stress axis : x y z
#
# Youngs Moduli (GPa) = 34.68974 116.28701 62.26922
#
# Poissons Ratio (x) = -0.21029 -0.06281
# Poissons Ratio (y) = -0.06273 -0.05466
# Poissons Ratio (z) = -0.03499 -0.10208
#
# Static dielectric constant tensor:
#      x y z
#    x 1.657600 0.000000 0.000000 
#    y 0.000000 1.697620 0.000000 
#    z 0.000000 0.000000 1.670100 
# 
# From -- ./inp_files/22636.got.cif
#   From: 2010.05.17/outbox.cif.g08.bks.cpg/sg58_12_cif.got.tgz:22636.got - 2010.06.03 14:20:14.
