data_PCOD9443050
_publ_section_title
;
Structure prediction by ZEFSAII (Michael W. Deem and Ramdas Pophale) SiO2 
 PCOD9443050
Probable space group: P N N M
;
_chemical_formula_sum "Si O2"
_cell_formula_units_Z 58
_cell_length_a 24.702280
_cell_length_b 12.596663
_cell_length_c 10.113980
_cell_angle_alpha 90.000000
_cell_angle_beta 90.000000
_cell_angle_gamma 90.000000
_cell_volume 3147.129699
_symmetry_space_group_name_H-M "P N N M"
_symmetry_group_IT_number 58
_symmetry_cell_setting 'orthorhombic'
loop_
_space_group_symop_operation_xyz
x,y,z
-x,-y,z
1/2+x,1/2-y,1/2-z
1/2-x,1/2+y,1/2-z
-x,-y,-z
x,y,-z
1/2-x,1/2+y,1/2+z
1/2+x,1/2-y,1/2+z
loop_
_atom_site_type_symbol
_atom_site_label
_atom_site_fract_x
_atom_site_fract_y
_atom_site_fract_z
Si Si1 0.657671 0.465119 0.653114
Si Si2 0.988524 0.660880 0.751760
Si Si3 0.500000 0.000000 0.500000
Si Si4 0.321765 0.339220 0.844517
Si Si5 0.389696 0.136965 0.842951
Si Si6 0.301660 0.762973 0.347844
Si Si7 0.373540 0.902978 0.153890
Si Si8 0.467041 0.602155 0.656223
O O1 0.664050 0.500032 0.500000
O O2 0.668578 0.558868 0.754480
O O3 0.695532 0.363091 0.675846
O O4 0.596433 0.422764 0.669308
O O5 0.937109 0.624046 0.666416
O O6 0.981711 0.786116 0.779267
O O7 0.988329 0.590310 0.884231
O O8 0.046900 0.643186 0.686963
O O9 0.358554 0.241180 0.794462
O O10 0.259314 0.304264 0.837272
O O11 0.334415 0.359745 0.000000
O O12 0.367033 0.023933 0.794603
O O13 0.381789 0.134961 0.000000
O O14 0.320808 0.779483 0.500000
O O15 0.339905 0.824247 0.246188
O O16 0.357171 0.895627 0.000000
O O17 0.500000 0.500000 0.707819
O O18 0.479494 0.612053 0.500000
#
# Coordination Sequence:
#
# PCOD9443050 Si02
#       8
#     8   8   2   8   8   8   8   8
#     4  10  21  40  62  88 119 159 201 249 303 368
#     4  12  21  38  59  89 128 158 206 250 309 358
#     4  12  24  32  60  96 128 168 202 266 300 374
#     4  10  23  43  63  89 121 160 204 258 307 361
#     4  10  22  40  61  86 122 165 200 246 308 369
#     4  10  23  41  65  87 118 159 205 254 308 365
#     4  11  23  38  63  91 122 160 205 252 307 370
#     4  10  20  34  56  84 119 162 200 238 295 364
#
# _framework density 18.429493000000001
#
# number of rings (size 3 to 8) (size 9 to 14) (size 15 to 20)
#    0.000    1.517    3.448    1.241    2.897    2.207 
#    1.241    0.000    0.000    2.897    0.000    0.000 
#    0.000    0.000    0.000    0.000    0.000    0.000 
#
# Total GULP energy -323291.911722 kJ/mol
# GULP energy per Si atom -5573.998478 kJ/mol
# Density = 1.838755 g / cm^3
# Si number density = 18.429493 Si / 1000 Ang^3
#
#
#
# Elastic Constant Matrix: (Units=GPa)
#
#
# Indices 1 2 3 4 5 6 
#
# 1 32.7466 17.1984 6.2428 0.0000 0.0000 0.0000
# 2 17.1984 148.1800 53.4678 0.0000 0.0000 0.0000
# 3 6.2428 53.4678 35.5386 0.0000 0.0000 0.0000
# 4 0.0000 0.0000 0.0000 36.0778 0.0000 0.0000
# 5 0.0000 0.0000 0.0000 0.0000 12.0086 0.0000
# 6 0.0000 0.0000 0.0000 0.0000 0.0000 8.8629
#
#
#
# Elastic Compliance Matrix: (Units=1/GPa)
#
#
# Indices 1 2 3 4 5 6 
#
# 1 0.032520 -0.003748 -0.000074 0.000000 0.000000 0.000000
# 2 -0.003748 0.015195 -0.022202 0.000000 0.000000 0.000000
# 3 -0.000074 -0.022202 0.061554 0.000000 0.000000 0.000000
# 4 0.000000 0.000000 0.000000 0.027718 0.000000 0.000000
# 5 0.000000 0.000000 0.000000 0.000000 0.083274 0.000000
# 6 0.000000 0.000000 0.000000 0.000000 0.000000 0.112831
#
#
# Mechanical properties :
#
#
# Convention : Reuss Voigt Hill
#
# Bulk Modulus (GPa) = 17.47601 41.14255 29.30928
# Shear Modulus (GPa) = 12.36972 20.69359 16.53166
#
# Velocity S-wave (km/s) = 2.59355 3.35453 2.99828
# Velocity P-wave (km/s) = 4.29789 6.11364 5.28434
#
# Compressibility (1/GPa) = 0.05722129
#
# Stress axis : x y z
#
# Youngs Moduli (GPa) = 30.75037 65.81241 16.24577
#
# Poissons Ratio (x) = 0.24664 0.00121
# Poissons Ratio (y) = 0.11524 0.36069
# Poissons Ratio (z) = 0.00228 1.46117
#
# Static dielectric constant tensor:
#      x y z
#    x 1.629930 0.000000 0.000000 
#    y 0.000000 1.640080 0.000000 
#    z 0.000000 0.000000 1.615900 
# 
# From -- ./inp_files/4438.got.cif
#   From: 2010.05.17/outbox.cif.g08.bks.cpg/sg58_3_cif.got.tgz:4438.got - 2010.06.03 14:20:14.
