data_PCOD9443800
_publ_section_title
;
Structure prediction by ZEFSAII (Michael W. Deem and Ramdas Pophale) SiO2 
 PCOD9443800
Probable space group: P N N M
;
_chemical_formula_sum "Si O2"
_cell_formula_units_Z 56
_cell_length_a 19.159516
_cell_length_b 14.001997
_cell_length_c 9.458053
_cell_angle_alpha 90.000000
_cell_angle_beta 90.000000
_cell_angle_gamma 90.000000
_cell_volume 2537.325929
_symmetry_space_group_name_H-M "P N N M"
_symmetry_group_IT_number 58
_symmetry_cell_setting 'orthorhombic'
loop_
_space_group_symop_operation_xyz
x,y,z
-x,-y,z
1/2+x,1/2-y,1/2-z
1/2-x,1/2+y,1/2-z
-x,-y,-z
x,y,-z
1/2-x,1/2+y,1/2+z
1/2+x,1/2-y,1/2+z
loop_
_atom_site_type_symbol
_atom_site_label
_atom_site_fract_x
_atom_site_fract_y
_atom_site_fract_z
Si Si1 0.283002 0.445405 0.838747
Si Si2 0.566252 0.882878 0.834009
Si Si3 0.218678 0.714454 0.338874
Si Si4 0.149475 0.445861 0.336662
Si Si5 0.008579 0.223842 0.831929
Si Si6 0.565692 0.569536 0.162088
Si Si7 0.646159 0.284222 0.164754
O O1 0.288843 0.329654 0.827442
O O2 0.219342 0.475981 0.743078
O O3 0.360794 0.480844 0.806518
O O4 0.266172 0.469368 0.000000
O O5 0.642758 0.832396 0.821091
O O6 0.416993 0.008177 0.791262
O O7 0.513927 0.824382 0.736561
O O8 0.544114 0.877489 0.000000
O O9 0.242370 0.694430 0.500000
O O10 0.279202 0.686074 0.228904
O O11 0.158367 0.470779 0.500000
O O12 0.144013 0.332128 0.327051
O O13 0.080560 0.188805 0.761123
O O14 0.950279 0.150327 0.775907
O O15 0.013221 0.227842 0.000000
O O16 0.500000 0.500000 0.162327
O O17 0.571616 0.609013 0.000000
O O18 0.637756 0.311781 0.000000
#
# Coordination Sequence:
#
# PCOD9443800 Si02
#       7
#     8   8   8   8   8   8   8
#     4   9  17  33  56  81 111 146 182 229 287 343
#     4  10  20  38  61  85 117 154 197 242 296 354
#     4   9  17  33  58  82 108 146 190 238 292 347
#     4   9  20  36  58  86 112 149 194 243 292 344
#     4  12  25  39  58  85 118 157 200 244 294 348
#     4  10  21  39  62  87 117 155 194 235 294 357
#     4  10  21  38  58  82 117 155 196 242 295 355
#
# _framework density 22.07048
#
# number of rings (size 3 to 8) (size 9 to 14) (size 15 to 20)
#    0.000    2.143    1.429    1.714    0.000    4.286 
#    0.000    5.714    0.000    0.000    0.000    0.000 
#    0.000    0.000    0.000    0.000    0.000    0.000 
#
# Total GULP energy -313096.327831 kJ/mol
# GULP energy per Si atom -5591.005854 kJ/mol
# Density = 2.202025 g / cm^3
# Si number density = 22.070480 Si / 1000 Ang^3
#
#
#
# Elastic Constant Matrix: (Units=GPa)
#
#
# Indices 1 2 3 4 5 6 
#
# 1 102.2154 0.1656 59.9570 0.0000 0.0000 0.0000
# 2 0.1656 56.3926 21.5180 0.0000 0.0000 0.0000
# 3 59.9570 21.5180 112.6898 0.0000 0.0000 0.0000
# 4 0.0000 0.0000 0.0000 5.7838 0.0000 0.0000
# 5 0.0000 0.0000 0.0000 0.0000 29.1120 0.0000
# 6 0.0000 0.0000 0.0000 0.0000 0.0000 37.4390
#
#
#
# Elastic Compliance Matrix: (Units=1/GPa)
#
#
# Indices 1 2 3 4 5 6 
#
# 1 0.014732 0.003179 -0.008445 0.000000 0.000000 0.000000
# 2 0.003179 0.019812 -0.005475 0.000000 0.000000 0.000000
# 3 -0.008445 -0.005475 0.014413 0.000000 0.000000 0.000000
# 4 0.000000 0.000000 0.000000 0.172897 0.000000 0.000000
# 5 0.000000 0.000000 0.000000 0.000000 0.034350 0.000000
# 6 0.000000 0.000000 0.000000 0.000000 0.000000 0.026710
#
#
# Mechanical properties :
#
#
# Convention : Reuss Voigt Hill
#
# Bulk Modulus (GPa) = 36.39592 48.28655 42.34124
# Shear Modulus (GPa) = 15.94619 27.11078 21.52848
#
# Velocity S-wave (km/s) = 2.69088 3.50862 3.12660
# Velocity P-wave (km/s) = 5.11674 6.19191 5.67982
#
# Compressibility (1/GPa) = 0.02747561
#
# Stress axis : x y z
#
# Youngs Moduli (GPa) = 67.88011 50.47320 69.38372
#
# Poissons Ratio (x) = -0.16047 0.58596
# Poissons Ratio (y) = -0.21581 0.37985
# Poissons Ratio (z) = 0.57326 0.27632
#
# Static dielectric constant tensor:
#      x y z
#    x 1.805920 0.000000 0.000000 
#    y 0.000000 1.915130 0.000000 
#    z 0.000000 0.000000 1.734420 
# 
# From -- ./inp_files/8117.got.cif
#   From: 2010.05.17/outbox.cif.g08.bks.cpg/sg58_5_cif.got.tgz:8117.got - 2010.06.03 14:20:14.
